# generated using pymatgen
data_RbNa7(FeO3)2
_symmetry_space_group_name_H-M   'P 1'
_cell_length_a   5.96363560
_cell_length_b   5.96363512
_cell_length_c   11.01720832
_cell_angle_alpha   88.80268480
_cell_angle_beta   88.80268489
_cell_angle_gamma   42.93434659
_symmetry_Int_Tables_number   1
_chemical_formula_structural   RbNa7(FeO3)2
_chemical_formula_sum   'Rb1 Na7 Fe2 O6'
_cell_volume   266.82915490
_cell_formula_units_Z   1
loop_
 _symmetry_equiv_pos_site_id
 _symmetry_equiv_pos_as_xyz
  1  'x, y, z'
loop_
 _atom_site_type_symbol
 _atom_site_label
 _atom_site_symmetry_multiplicity
 _atom_site_fract_x
 _atom_site_fract_y
 _atom_site_fract_z
 _atom_site_occupancy
  Rb  Rb0  1  0.000000  0.000000  0.500000  1
  Na  Na1  1  0.849854  0.849854  0.224671  1
  Na  Na2  1  0.726990  0.726990  0.600829  1
  Na  Na3  1  0.239745  0.239745  0.093367  1
  Na  Na4  1  0.273010  0.273010  0.399171  1
  Na  Na5  1  0.150146  0.150146  0.775329  1
  Na  Na6  1  0.760255  0.760255  0.906633  1
  Na  Na7  1  0.500000  0.500000  0.000000  1
  Fe  Fe8  1  0.583345  0.583345  0.253744  1
  Fe  Fe9  1  0.416655  0.416655  0.746256  1
  O  O10  1  0.587209  0.587209  0.767880  1
  O  O11  1  0.675713  0.675713  0.103024  1
  O  O12  1  0.324287  0.324287  0.896976  1
  O  O13  1  0.680085  0.680085  0.395011  1
  O  O14  1  0.412791  0.412791  0.232120  1
  O  O15  1  0.319915  0.319915  0.604989  1
