# generated using pymatgen
data_Sm5Th3(MgRh)8
_symmetry_space_group_name_H-M   'P 1'
_cell_length_a   4.03628400
_cell_length_b   7.67395224
_cell_length_c   16.90588579
_cell_angle_alpha   90.47844751
_cell_angle_beta   90.00000000
_cell_angle_gamma   90.00000000
_symmetry_Int_Tables_number   1
_chemical_formula_structural   Sm5Th3(MgRh)8
_chemical_formula_sum   'Sm5 Th3 Mg8 Rh8'
_cell_volume   523.62888663
_cell_formula_units_Z   1
loop_
 _symmetry_equiv_pos_site_id
 _symmetry_equiv_pos_as_xyz
  1  'x, y, z'
loop_
 _atom_site_type_symbol
 _atom_site_label
 _atom_site_symmetry_multiplicity
 _atom_site_fract_x
 _atom_site_fract_y
 _atom_site_fract_z
 _atom_site_occupancy
  Sm  Sm0  1  0.750000  0.942279  0.281438  1
  Sm  Sm1  1  0.750000  0.839209  0.062192  1
  Sm  Sm2  1  0.750000  0.449694  0.216280  1
  Sm  Sm3  1  0.250000  0.052983  0.717673  1
  Sm  Sm4  1  0.250000  0.552728  0.784157  1
  Th  Th5  1  0.250000  0.165085  0.937789  1
  Th  Th6  1  0.250000  0.664902  0.564185  1
  Th  Th7  1  0.750000  0.332513  0.435753  1
  Mg  Mg8  1  0.750000  0.011584  0.565107  1
  Mg  Mg9  1  0.250000  0.625713  0.347025  1
  Mg  Mg10  1  0.750000  0.372638  0.654338  1
  Mg  Mg11  1  0.250000  0.499919  0.064674  1
  Mg  Mg12  1  0.750000  0.513854  0.935987  1
  Mg  Mg13  1  0.250000  0.987398  0.434217  1
  Mg  Mg14  1  0.250000  0.124278  0.151479  1
  Mg  Mg15  1  0.750000  0.872535  0.846446  1
  Rh  Rh16  1  0.750000  0.733218  0.446724  1
  Rh  Rh17  1  0.250000  0.254707  0.318346  1
  Rh  Rh18  1  0.750000  0.243500  0.819000  1
  Rh  Rh19  1  0.750000  0.744910  0.680810  1
  Rh  Rh20  1  0.250000  0.264386  0.554556  1
  Rh  Rh21  1  0.250000  0.749224  0.188435  1
  Rh  Rh22  1  0.750000  0.243639  0.054765  1
  Rh  Rh23  1  0.250000  0.759102  0.938624  1
