# generated using pymatgen
data_Yb2Ru2Br
_symmetry_space_group_name_H-M   'P 1'
_cell_length_a   4.09242100
_cell_length_b   4.09242114
_cell_length_c   16.89475100
_cell_angle_alpha   90.00000000
_cell_angle_beta   90.00000000
_cell_angle_gamma   119.99999078
_symmetry_Int_Tables_number   1
_chemical_formula_structural   Yb2Ru2Br
_chemical_formula_sum   'Yb4 Ru4 Br2'
_cell_volume   245.04344613
_cell_formula_units_Z   2
loop_
 _symmetry_equiv_pos_site_id
 _symmetry_equiv_pos_as_xyz
  1  'x, y, z'
loop_
 _atom_site_type_symbol
 _atom_site_label
 _atom_site_symmetry_multiplicity
 _atom_site_fract_x
 _atom_site_fract_y
 _atom_site_fract_z
 _atom_site_occupancy
  Yb  Yb0  1  0.000000  0.000000  0.121712  1
  Yb  Yb1  1  0.000000  0.000000  0.878288  1
  Yb  Yb2  1  0.000000  0.000000  0.621712  1
  Yb  Yb3  1  0.000000  0.000000  0.378288  1
  Ru  Ru4  1  0.333333  0.666667  0.509078  1
  Ru  Ru5  1  0.666667  0.333333  0.490922  1
  Ru  Ru6  1  0.666667  0.333333  0.009078  1
  Ru  Ru7  1  0.333333  0.666667  0.990922  1
  Br  Br8  1  0.333333  0.666667  0.250000  1
  Br  Br9  1  0.666667  0.333333  0.750000  1
