# generated using pymatgen
data_TbHo5Al24GaOs7
_symmetry_space_group_name_H-M   'P 1'
_cell_length_a   8.86549210
_cell_length_b   8.86482379
_cell_length_c   9.55251867
_cell_angle_alpha   90.09200028
_cell_angle_beta   89.88599912
_cell_angle_gamma   119.85369372
_symmetry_Int_Tables_number   1
_chemical_formula_structural   TbHo5Al24GaOs7
_chemical_formula_sum   'Tb1 Ho5 Al24 Ga1 Os7'
_cell_volume   651.11679494
_cell_formula_units_Z   1
loop_
 _symmetry_equiv_pos_site_id
 _symmetry_equiv_pos_as_xyz
  1  'x, y, z'
loop_
 _atom_site_type_symbol
 _atom_site_label
 _atom_site_symmetry_multiplicity
 _atom_site_fract_x
 _atom_site_fract_y
 _atom_site_fract_z
 _atom_site_occupancy
  Tb  Tb0  1  0.191423  0.384958  0.245984  1
  Ho  Ho1  1  0.808413  0.614110  0.753800  1
  Ho  Ho2  1  0.614272  0.808588  0.246192  1
  Ho  Ho3  1  0.385878  0.191554  0.753766  1
  Ho  Ho4  1  0.194730  0.805438  0.255165  1
  Ho  Ho5  1  0.805271  0.194813  0.744781  1
  Al  Al6  1  0.327540  0.672866  0.021899  1
  Al  Al7  1  0.672516  0.327452  0.977823  1
  Al  Al8  1  0.666035  0.333988  0.518556  1
  Al  Al9  1  0.334143  0.666323  0.481688  1
  Al  Al10  1  0.162564  0.325435  0.572547  1
  Al  Al11  1  0.837505  0.674562  0.427786  1
  Al  Al12  1  0.674581  0.837437  0.572325  1
  Al  Al13  1  0.852254  0.678774  0.081800  1
  Al  Al14  1  0.325530  0.162412  0.427834  1
  Al  Al15  1  0.147725  0.321228  0.917918  1
  Al  Al16  1  0.162916  0.837038  0.576178  1
  Al  Al17  1  0.321293  0.147545  0.081704  1
  Al  Al18  1  0.836830  0.162834  0.423946  1
  Al  Al19  1  0.678806  0.852303  0.918137  1
  Al  Al20  1  0.836584  0.162977  0.077215  1
  Al  Al21  1  0.163159  0.836911  0.922638  1
  Al  Al22  1  0.561836  0.121137  0.249457  1
  Al  Al23  1  0.438158  0.878834  0.750546  1
  Al  Al24  1  0.878441  0.438264  0.249468  1
  Al  Al25  1  0.121192  0.561860  0.750499  1
  Al  Al26  1  0.565711  0.434825  0.257820  1
  Al  Al27  1  0.434717  0.565283  0.742305  1
  Al  Al28  1  0.998539  0.000689  0.250739  1
  Al  Al29  1  0.001165  0.998782  0.749289  1
  Ga  Ga30  1  0.500064  0.500070  0.999948  1
  Os  Os31  1  0.500104  0.000135  0.999941  1
  Os  Os32  1  0.999811  0.500162  0.999684  1
  Os  Os33  1  0.500091  0.000175  0.500089  1
  Os  Os34  1  0.999858  0.500104  0.500261  1
  Os  Os35  1  0.500346  0.500129  0.500263  1
  Os  Os36  1  0.000013  0.000011  0.999947  1
  Os  Os37  1  0.999983  0.999992  0.500064  1
