# generated using pymatgen
data_Nd2HoEr5(CdIr)2
_symmetry_space_group_name_H-M   'P 1'
_cell_length_a   9.66261056
_cell_length_b   9.65851011
_cell_length_c   9.65850830
_cell_angle_alpha   60.02809892
_cell_angle_beta   59.98595146
_cell_angle_gamma   59.98596018
_symmetry_Int_Tables_number   1
_chemical_formula_structural   Nd2HoEr5(CdIr)2
_chemical_formula_sum   'Nd4 Ho2 Er10 Cd4 Ir4'
_cell_volume   637.38164479
_cell_formula_units_Z   2
loop_
 _symmetry_equiv_pos_site_id
 _symmetry_equiv_pos_as_xyz
  1  'x, y, z'
loop_
 _atom_site_type_symbol
 _atom_site_label
 _atom_site_symmetry_multiplicity
 _atom_site_fract_x
 _atom_site_fract_y
 _atom_site_fract_z
 _atom_site_occupancy
  Nd  Nd0  1  0.561731  0.938269  0.561731  1
  Nd  Nd1  1  0.938269  0.561731  0.938269  1
  Nd  Nd2  1  0.561731  0.561731  0.938269  1
  Nd  Nd3  1  0.938269  0.938269  0.561731  1
  Ho  Ho4  1  0.944256  0.555744  0.555744  1
  Ho  Ho5  1  0.555744  0.944256  0.944256  1
  Er  Er6  1  0.349175  0.347229  0.347229  1
  Er  Er7  1  0.347229  0.349175  0.956367  1
  Er  Er8  1  0.347229  0.956367  0.349175  1
  Er  Er9  1  0.956367  0.347229  0.347229  1
  Er  Er10  1  0.813229  0.186771  0.186771  1
  Er  Er11  1  0.186771  0.813229  0.813229  1
  Er  Er12  1  0.188468  0.811532  0.188468  1
  Er  Er13  1  0.811532  0.188468  0.811532  1
  Er  Er14  1  0.188468  0.188468  0.811532  1
  Er  Er15  1  0.811532  0.811532  0.188468  1
  Cd  Cd16  1  0.582360  0.578733  0.578733  1
  Cd  Cd17  1  0.578733  0.582360  0.260173  1
  Cd  Cd18  1  0.578733  0.260173  0.582360  1
  Cd  Cd19  1  0.260173  0.578733  0.578733  1
  Ir  Ir20  1  0.145103  0.139552  0.139552  1
  Ir  Ir21  1  0.139552  0.145103  0.575792  1
  Ir  Ir22  1  0.139552  0.575792  0.145103  1
  Ir  Ir23  1  0.575792  0.139552  0.139552  1
