# generated using pymatgen
data_Ge2Sb8Pd5
_symmetry_space_group_name_H-M   'P 1'
_cell_length_a   20.00045676
_cell_length_b   20.00045612
_cell_length_c   6.45665700
_cell_angle_alpha   70.65097432
_cell_angle_beta   70.65097496
_cell_angle_gamma   8.35653493
_symmetry_Int_Tables_number   1
_chemical_formula_structural   Ge2Sb8Pd5
_chemical_formula_sum   'Ge2 Sb8 Pd5'
_cell_volume   354.04418811
_cell_formula_units_Z   1
loop_
 _symmetry_equiv_pos_site_id
 _symmetry_equiv_pos_as_xyz
  1  'x, y, z'
loop_
 _atom_site_type_symbol
 _atom_site_label
 _atom_site_symmetry_multiplicity
 _atom_site_fract_x
 _atom_site_fract_y
 _atom_site_fract_z
 _atom_site_occupancy
  Ge  Ge0  1  0.077758  0.077758  0.743514  1
  Ge  Ge1  1  0.476472  0.476472  0.744867  1
  Sb  Sb2  1  0.674850  0.674850  0.729230  1
  Sb  Sb3  1  0.276073  0.276073  0.728970  1
  Sb  Sb4  1  0.877923  0.877923  0.718160  1
  Sb  Sb5  1  0.533665  0.533665  0.284422  1
  Sb  Sb6  1  0.130890  0.130890  0.291650  1
  Sb  Sb7  1  0.733336  0.733336  0.273002  1
  Sb  Sb8  1  0.334955  0.334955  0.270616  1
  Sb  Sb9  1  0.938671  0.938671  0.253193  1
  Pd  Pd10  1  0.010868  0.010868  0.968207  1
  Pd  Pd11  1  0.603088  0.603088  0.002698  1
  Pd  Pd12  1  0.203247  0.203247  0.005101  1
  Pd  Pd13  1  0.806239  0.806239  0.997212  1
  Pd  Pd14  1  0.407689  0.407689  0.989159  1
