# generated using pymatgen
data_Ca4Co3Si12Ni17
_symmetry_space_group_name_H-M   'P 1'
_cell_length_a   3.73626900
_cell_length_b   6.75881599
_cell_length_c   18.64851021
_cell_angle_alpha   90.17783698
_cell_angle_beta   90.00000000
_cell_angle_gamma   90.00000000
_symmetry_Int_Tables_number   1
_chemical_formula_structural   Ca4Co3Si12Ni17
_chemical_formula_sum   'Ca4 Co3 Si12 Ni17'
_cell_volume   470.92398447
_cell_formula_units_Z   1
loop_
 _symmetry_equiv_pos_site_id
 _symmetry_equiv_pos_as_xyz
  1  'x, y, z'
loop_
 _atom_site_type_symbol
 _atom_site_label
 _atom_site_symmetry_multiplicity
 _atom_site_fract_x
 _atom_site_fract_y
 _atom_site_fract_z
 _atom_site_occupancy
  Ca  Ca0  1  0.250000  0.876807  0.358161  1
  Ca  Ca1  1  0.750000  0.123957  0.641677  1
  Ca  Ca2  1  0.750000  0.377496  0.141435  1
  Ca  Ca3  1  0.250000  0.622140  0.858556  1
  Co  Co4  1  0.250000  0.059021  0.206226  1
  Co  Co5  1  0.750000  0.940748  0.793999  1
  Co  Co6  1  0.750000  0.559630  0.293360  1
  Si  Si7  1  0.250000  0.081588  0.086610  1
  Si  Si8  1  0.750000  0.917750  0.913637  1
  Si  Si9  1  0.750000  0.581125  0.413146  1
  Si  Si10  1  0.250000  0.420764  0.585977  1
  Si  Si11  1  0.250000  0.655991  0.075050  1
  Si  Si12  1  0.750000  0.343631  0.925240  1
  Si  Si13  1  0.750000  0.156937  0.424880  1
  Si  Si14  1  0.250000  0.845347  0.574379  1
  Si  Si15  1  0.250000  0.372386  0.260479  1
  Si  Si16  1  0.750000  0.629529  0.739647  1
  Si  Si17  1  0.750000  0.872156  0.239209  1
  Si  Si18  1  0.250000  0.123204  0.761908  1
  Ni  Ni19  1  0.250000  0.435992  0.707002  1
  Ni  Ni20  1  0.250000  0.615652  0.485768  1
  Ni  Ni21  1  0.750000  0.386188  0.513884  1
  Ni  Ni22  1  0.750000  0.114854  0.013724  1
  Ni  Ni23  1  0.250000  0.883843  0.986507  1
  Ni  Ni24  1  0.250000  0.681965  0.201256  1
  Ni  Ni25  1  0.750000  0.317785  0.799206  1
  Ni  Ni26  1  0.750000  0.182221  0.298508  1
  Ni  Ni27  1  0.250000  0.815982  0.701005  1
  Ni  Ni28  1  0.250000  0.361105  0.383262  1
  Ni  Ni29  1  0.750000  0.643286  0.616079  1
  Ni  Ni30  1  0.750000  0.861920  0.116477  1
  Ni  Ni31  1  0.250000  0.136940  0.884351  1
  Ni  Ni32  1  0.250000  0.366001  0.004469  1
  Ni  Ni33  1  0.750000  0.633887  0.995735  1
  Ni  Ni34  1  0.750000  0.867644  0.495007  1
  Ni  Ni35  1  0.250000  0.134530  0.504186  1
