# generated using pymatgen
data_Na2Fe3P7Ru9
_symmetry_space_group_name_H-M   'P 1'
_cell_length_a   9.31883100
_cell_length_b   9.31883042
_cell_length_c   3.80866400
_cell_angle_alpha   90.00000000
_cell_angle_beta   90.00000000
_cell_angle_gamma   119.99999236
_symmetry_Int_Tables_number   1
_chemical_formula_structural   Na2Fe3P7Ru9
_chemical_formula_sum   'Na2 Fe3 P7 Ru9'
_cell_volume   286.43505704
_cell_formula_units_Z   1
loop_
 _symmetry_equiv_pos_site_id
 _symmetry_equiv_pos_as_xyz
  1  'x, y, z'
loop_
 _atom_site_type_symbol
 _atom_site_label
 _atom_site_symmetry_multiplicity
 _atom_site_fract_x
 _atom_site_fract_y
 _atom_site_fract_z
 _atom_site_occupancy
  Na  Na0  1  0.000000  0.000000  0.000000  1
  Na  Na1  1  0.333333  0.666667  0.500000  1
  Fe  Fe2  1  0.816600  0.600637  0.000000  1
  Fe  Fe3  1  0.399363  0.215963  0.000000  1
  Fe  Fe4  1  0.784037  0.183400  0.000000  1
  P  P5  1  0.777095  0.727881  0.500000  1
  P  P6  1  0.272119  0.049215  0.500000  1
  P  P7  1  0.950785  0.222905  0.500000  1
  P  P8  1  0.666667  0.333333  0.000000  1
  P  P9  1  0.070419  0.637072  0.000000  1
  P  P10  1  0.362928  0.433347  0.000000  1
  P  P11  1  0.566653  0.929581  0.000000  1
  Ru  Ru12  1  0.091036  0.398943  0.000000  1
  Ru  Ru13  1  0.601057  0.692092  0.000000  1
  Ru  Ru14  1  0.307908  0.908964  0.000000  1
  Ru  Ru15  1  0.049410  0.771143  0.500000  1
  Ru  Ru16  1  0.228857  0.278265  0.500000  1
  Ru  Ru17  1  0.721735  0.950590  0.500000  1
  Ru  Ru18  1  0.867937  0.421848  0.500000  1
  Ru  Ru19  1  0.578152  0.446090  0.500000  1
  Ru  Ru20  1  0.553910  0.132063  0.500000  1
