# generated using pymatgen
data_K2Ti(OF3)2
_symmetry_space_group_name_H-M   'P 1'
_cell_length_a   6.11443403
_cell_length_b   6.10165298
_cell_length_c   5.33769563
_cell_angle_alpha   80.61322863
_cell_angle_beta   80.69134456
_cell_angle_gamma   88.63504657
_symmetry_Int_Tables_number   1
_chemical_formula_structural   K2Ti(OF3)2
_chemical_formula_sum   'K2 Ti1 O2 F6'
_cell_volume   193.88509710
_cell_formula_units_Z   1
loop_
 _symmetry_equiv_pos_site_id
 _symmetry_equiv_pos_as_xyz
  1  'x, y, z'
loop_
 _atom_site_type_symbol
 _atom_site_label
 _atom_site_symmetry_multiplicity
 _atom_site_fract_x
 _atom_site_fract_y
 _atom_site_fract_z
 _atom_site_occupancy
  K  K0  1  0.500000  0.000000  0.500000  1
  K  K1  1  0.000000  0.500000  0.500000  1
  Ti  Ti2  1  0.000000  0.000000  0.000000  1
  O  O3  1  0.450894  0.450715  0.102297  1
  O  O4  1  0.549106  0.549285  0.897703  1
  F  F5  1  0.211469  0.895694  0.213434  1
  F  F6  1  0.895883  0.211495  0.213155  1
  F  F7  1  0.788531  0.104306  0.786566  1
  F  F8  1  0.104117  0.788505  0.786845  1
  F  F9  1  0.791873  0.791601  0.207469  1
  F  F10  1  0.208127  0.208399  0.792531  1
