# generated using pymatgen
data_Pr3Nd3(MoO7)2
_symmetry_space_group_name_H-M   'P 1'
_cell_length_a   6.69037500
_cell_length_b   6.70080333
_cell_length_c   7.80970800
_cell_angle_alpha   90.00000000
_cell_angle_beta   90.00000000
_cell_angle_gamma   109.18851313
_symmetry_Int_Tables_number   1
_chemical_formula_structural   Pr3Nd3(MoO7)2
_chemical_formula_sum   'Pr3 Nd3 Mo2 O14'
_cell_volume   330.66448445
_cell_formula_units_Z   1
loop_
 _symmetry_equiv_pos_site_id
 _symmetry_equiv_pos_as_xyz
  1  'x, y, z'
loop_
 _atom_site_type_symbol
 _atom_site_label
 _atom_site_symmetry_multiplicity
 _atom_site_fract_x
 _atom_site_fract_y
 _atom_site_fract_z
 _atom_site_occupancy
  Pr  Pr0  1  0.497684  0.498022  0.500433  1
  Pr  Pr1  1  0.497684  0.498022  0.999567  1
  Pr  Pr2  1  0.998789  0.534785  0.250000  1
  Nd  Nd3  1  0.000256  0.463750  0.750000  1
  Nd  Nd4  1  0.536912  0.999416  0.750000  1
  Nd  Nd5  1  0.462608  0.999945  0.250000  1
  Mo  Mo6  1  0.999855  0.999812  0.500532  1
  Mo  Mo7  1  0.999855  0.999812  0.999468  1
  O  O8  1  0.934724  0.063979  0.750000  1
  O  O9  1  0.064696  0.936643  0.250000  1
  O  O10  1  0.366714  0.636406  0.250000  1
  O  O11  1  0.635025  0.363325  0.750000  1
  O  O12  1  0.369265  0.632053  0.750000  1
  O  O13  1  0.628004  0.366668  0.250000  1
  O  O14  1  0.312210  0.068628  0.971302  1
  O  O15  1  0.688798  0.932731  0.471080  1
  O  O16  1  0.312210  0.068628  0.528698  1
  O  O17  1  0.688798  0.932731  0.028920  1
  O  O18  1  0.074147  0.314350  0.474473  1
  O  O19  1  0.928810  0.687971  0.970608  1
  O  O20  1  0.928810  0.687971  0.529392  1
  O  O21  1  0.074147  0.314350  0.025527  1
