# generated using pymatgen
data_Tb3YbEr2(Si3Ru)8
_symmetry_space_group_name_H-M   'P 1'
_cell_length_a   10.12112619
_cell_length_b   10.12112581
_cell_length_c   8.13717620
_cell_angle_alpha   89.91239679
_cell_angle_beta   90.08760097
_cell_angle_gamma   132.59830515
_symmetry_Int_Tables_number   1
_chemical_formula_structural   Tb3YbEr2(Si3Ru)8
_chemical_formula_sum   'Tb3 Yb1 Er2 Si24 Ru8'
_cell_volume   613.58917536
_cell_formula_units_Z   1
loop_
 _symmetry_equiv_pos_site_id
 _symmetry_equiv_pos_as_xyz
  1  'x, y, z'
loop_
 _atom_site_type_symbol
 _atom_site_label
 _atom_site_symmetry_multiplicity
 _atom_site_fract_x
 _atom_site_fract_y
 _atom_site_fract_z
 _atom_site_occupancy
  Tb  Tb0  1  0.001509  0.501509  0.750000  1
  Tb  Tb1  1  0.502645  0.002645  0.750000  1
  Tb  Tb2  1  0.997436  0.497436  0.250000  1
  Yb  Yb3  1  0.497929  0.997929  0.250000  1
  Er  Er4  1  0.499738  0.499629  0.499531  1
  Er  Er5  1  0.999629  0.999738  0.000469  1
  Si  Si6  1  0.388426  0.155224  0.003295  1
  Si  Si7  1  0.655224  0.888426  0.496705  1
  Si  Si8  1  0.111966  0.344776  0.505271  1
  Si  Si9  1  0.844776  0.611966  0.994729  1
  Si  Si10  1  0.611824  0.845502  0.994383  1
  Si  Si11  1  0.345502  0.111824  0.505617  1
  Si  Si12  1  0.887962  0.655479  0.494864  1
  Si  Si13  1  0.155479  0.387962  0.005136  1
  Si  Si14  1  0.613478  0.379263  0.228359  1
  Si  Si15  1  0.879263  0.113478  0.271641  1
  Si  Si16  1  0.888682  0.121849  0.727914  1
  Si  Si17  1  0.621849  0.388682  0.772086  1
  Si  Si18  1  0.388274  0.621466  0.771447  1
  Si  Si19  1  0.121466  0.888274  0.728553  1
  Si  Si20  1  0.704335  0.293790  0.001369  1
  Si  Si21  1  0.793790  0.204335  0.498631  1
  Si  Si22  1  0.295735  0.706115  0.000379  1
  Si  Si23  1  0.206115  0.795735  0.499621  1
  Si  Si24  1  0.166174  0.167510  0.333024  1
  Si  Si25  1  0.667510  0.666174  0.166976  1
  Si  Si26  1  0.332920  0.331620  0.833182  1
  Si  Si27  1  0.831620  0.832920  0.666818  1
  Si  Si28  1  0.377011  0.610992  0.228269  1
  Si  Si29  1  0.110992  0.877011  0.271731  1
  Ru  Ru30  1  0.625836  0.626595  0.873179  1
  Ru  Ru31  1  0.126595  0.125836  0.626821  1
  Ru  Ru32  1  0.873353  0.873435  0.372911  1
  Ru  Ru33  1  0.373435  0.373353  0.127089  1
  Ru  Ru34  1  0.330413  0.669072  0.500222  1
  Ru  Ru35  1  0.169072  0.830413  0.999778  1
  Ru  Ru36  1  0.670078  0.331961  0.501215  1
  Ru  Ru37  1  0.831961  0.170078  0.998785  1
