# generated using pymatgen
data_Cr3GaTcS8
_symmetry_space_group_name_H-M   'P 1'
_cell_length_a   6.81504944
_cell_length_b   6.81505020
_cell_length_c   6.81504942
_cell_angle_alpha   61.58870998
_cell_angle_beta   61.58870741
_cell_angle_gamma   61.58870362
_symmetry_Int_Tables_number   1
_chemical_formula_structural   Cr3GaTcS8
_chemical_formula_sum   'Cr3 Ga1 Tc1 S8'
_cell_volume   231.79334788
_cell_formula_units_Z   1
loop_
 _symmetry_equiv_pos_site_id
 _symmetry_equiv_pos_as_xyz
  1  'x, y, z'
loop_
 _atom_site_type_symbol
 _atom_site_label
 _atom_site_symmetry_multiplicity
 _atom_site_fract_x
 _atom_site_fract_y
 _atom_site_fract_z
 _atom_site_occupancy
  Cr  Cr0  1  0.840874  0.378817  0.378817  1
  Cr  Cr1  1  0.378817  0.840874  0.378817  1
  Cr  Cr2  1  0.378817  0.378817  0.840874  1
  Ga  Ga3  1  0.992967  0.992967  0.992967  1
  Tc  Tc4  1  0.401759  0.401759  0.401759  1
  S  S5  1  0.130322  0.130322  0.130322  1
  S  S6  1  0.583941  0.142021  0.142021  1
  S  S7  1  0.142021  0.583941  0.142021  1
  S  S8  1  0.142021  0.142021  0.583941  1
  S  S9  1  0.617176  0.617176  0.617176  1
  S  S10  1  0.119303  0.635991  0.635991  1
  S  S11  1  0.635991  0.119303  0.635991  1
  S  S12  1  0.635991  0.635991  0.119303  1
