# generated using pymatgen
data_SmTaB6Os
_symmetry_space_group_name_H-M   'P 1'
_cell_length_a   3.53329600
_cell_length_b   9.05078700
_cell_length_c   11.37824600
_cell_angle_alpha   90.00000000
_cell_angle_beta   90.00000000
_cell_angle_gamma   90.00000000
_symmetry_Int_Tables_number   1
_chemical_formula_structural   SmTaB6Os
_chemical_formula_sum   'Sm4 Ta4 B24 Os4'
_cell_volume   363.86617480
_cell_formula_units_Z   4
loop_
 _symmetry_equiv_pos_site_id
 _symmetry_equiv_pos_as_xyz
  1  'x, y, z'
loop_
 _atom_site_type_symbol
 _atom_site_label
 _atom_site_symmetry_multiplicity
 _atom_site_fract_x
 _atom_site_fract_y
 _atom_site_fract_z
 _atom_site_occupancy
  Sm  Sm0  1  0.000000  0.324387  0.413942  1
  Sm  Sm1  1  0.000000  0.675613  0.586058  1
  Sm  Sm2  1  0.000000  0.824387  0.086058  1
  Sm  Sm3  1  0.000000  0.175613  0.913942  1
  Ta  Ta4  1  0.000000  0.947907  0.377192  1
  Ta  Ta5  1  0.000000  0.052093  0.622808  1
  Ta  Ta6  1  0.000000  0.447907  0.122808  1
  Ta  Ta7  1  0.000000  0.552093  0.877192  1
  B  B8  1  0.500000  0.556172  0.432124  1
  B  B9  1  0.500000  0.443828  0.567876  1
  B  B10  1  0.500000  0.056172  0.067876  1
  B  B11  1  0.500000  0.943828  0.932124  1
  B  B12  1  0.500000  0.755682  0.417062  1
  B  B13  1  0.500000  0.244318  0.582938  1
  B  B14  1  0.500000  0.255682  0.082938  1
  B  B15  1  0.500000  0.744318  0.917062  1
  B  B16  1  0.500000  0.799217  0.263245  1
  B  B17  1  0.500000  0.200783  0.736754  1
  B  B18  1  0.500000  0.299217  0.236755  1
  B  B19  1  0.500000  0.700783  0.763246  1
  B  B20  1  0.500000  0.629644  0.180753  1
  B  B21  1  0.500000  0.370356  0.819247  1
  B  B22  1  0.500000  0.129644  0.319247  1
  B  B23  1  0.500000  0.870356  0.680753  1
  B  B24  1  0.500000  0.982747  0.215133  1
  B  B25  1  0.500000  0.017253  0.784867  1
  B  B26  1  0.500000  0.482747  0.284867  1
  B  B27  1  0.500000  0.517253  0.715133  1
  B  B28  1  0.500000  0.599099  0.026017  1
  B  B29  1  0.500000  0.400901  0.973983  1
  B  B30  1  0.500000  0.099099  0.473983  1
  B  B31  1  0.500000  0.900901  0.526017  1
  Os  Os32  1  0.000000  0.645520  0.316159  1
  Os  Os33  1  0.000000  0.354480  0.683841  1
  Os  Os34  1  0.000000  0.145520  0.183841  1
  Os  Os35  1  0.000000  0.854480  0.816159  1
