# generated using pymatgen
data_Y7ErAlPd24
_symmetry_space_group_name_H-M   'P 1'
_cell_length_a   8.37245363
_cell_length_b   8.37245351
_cell_length_c   8.37245375
_cell_angle_alpha   89.96655785
_cell_angle_beta   90.03344180
_cell_angle_gamma   90.03343340
_symmetry_Int_Tables_number   1
_chemical_formula_structural   Y7ErAlPd24
_chemical_formula_sum   'Y7 Er1 Al1 Pd24'
_cell_volume   586.89178557
_cell_formula_units_Z   1
loop_
 _symmetry_equiv_pos_site_id
 _symmetry_equiv_pos_as_xyz
  1  'x, y, z'
loop_
 _atom_site_type_symbol
 _atom_site_label
 _atom_site_symmetry_multiplicity
 _atom_site_fract_x
 _atom_site_fract_y
 _atom_site_fract_z
 _atom_site_occupancy
  Y  Y0  1  0.251100  0.251511  0.251511  1
  Y  Y1  1  0.748511  0.748344  0.748344  1
  Y  Y2  1  0.748489  0.748900  0.251511  1
  Y  Y3  1  0.748489  0.251511  0.748900  1
  Y  Y4  1  0.251656  0.251489  0.748344  1
  Y  Y5  1  0.251656  0.748344  0.251489  1
  Y  Y6  1  0.251563  0.748437  0.748437  1
  Er  Er7  1  0.747806  0.252194  0.252194  1
  Al  Al8  1  0.000334  0.999666  0.999666  1
  Pd  Pd9  1  0.259648  0.499632  0.999971  1
  Pd  Pd10  1  0.740387  0.499153  0.001525  1
  Pd  Pd11  1  0.998475  0.259613  0.499153  1
  Pd  Pd12  1  0.500847  0.259613  0.001525  1
  Pd  Pd13  1  0.000029  0.740352  0.499632  1
  Pd  Pd14  1  0.500368  0.740352  0.999971  1
  Pd  Pd15  1  0.500847  0.001525  0.259613  1
  Pd  Pd16  1  0.259648  0.999971  0.499632  1
  Pd  Pd17  1  0.500368  0.999971  0.740352  1
  Pd  Pd18  1  0.740387  0.001525  0.499153  1
  Pd  Pd19  1  0.998475  0.499153  0.259613  1
  Pd  Pd20  1  0.000029  0.499632  0.740352  1
  Pd  Pd21  1  0.252468  0.499762  0.499762  1
  Pd  Pd22  1  0.747299  0.499144  0.499144  1
  Pd  Pd23  1  0.500856  0.252701  0.499144  1
  Pd  Pd24  1  0.500238  0.747532  0.499762  1
  Pd  Pd25  1  0.500856  0.499144  0.252701  1
  Pd  Pd26  1  0.500238  0.499762  0.747532  1
  Pd  Pd27  1  0.289526  0.999966  0.999966  1
  Pd  Pd28  1  0.711343  0.001000  0.001000  1
  Pd  Pd29  1  0.999000  0.288657  0.001000  1
  Pd  Pd30  1  0.000034  0.710474  0.999966  1
  Pd  Pd31  1  0.999000  0.001000  0.288657  1
  Pd  Pd32  1  0.000034  0.999966  0.710474  1
