# generated using pymatgen
data_Pr6Hf5Al11Ir7
_symmetry_space_group_name_H-M   'P 1'
_cell_length_a   9.11580827
_cell_length_b   9.11580909
_cell_length_c   9.12126800
_cell_angle_alpha   60.01979361
_cell_angle_beta   60.01979791
_cell_angle_gamma   60.00000607
_symmetry_Int_Tables_number   1
_chemical_formula_structural   Pr6Hf5Al11Ir7
_chemical_formula_sum   'Pr6 Hf5 Al11 Ir7'
_cell_volume   536.11816626
_cell_formula_units_Z   1
loop_
 _symmetry_equiv_pos_site_id
 _symmetry_equiv_pos_as_xyz
  1  'x, y, z'
loop_
 _atom_site_type_symbol
 _atom_site_label
 _atom_site_symmetry_multiplicity
 _atom_site_fract_x
 _atom_site_fract_y
 _atom_site_fract_z
 _atom_site_occupancy
  Pr  Pr0  1  0.695121  0.695121  0.309125  1
  Pr  Pr1  1  0.300634  0.695121  0.309125  1
  Pr  Pr2  1  0.695121  0.300634  0.309125  1
  Pr  Pr3  1  0.309546  0.309546  0.695904  1
  Pr  Pr4  1  0.685003  0.309546  0.695904  1
  Pr  Pr5  1  0.309546  0.685003  0.695904  1
  Hf  Hf6  1  0.881192  0.881192  0.356426  1
  Hf  Hf7  1  0.876653  0.359822  0.886873  1
  Hf  Hf8  1  0.359822  0.876653  0.886873  1
  Hf  Hf9  1  0.876653  0.876653  0.886873  1
  Hf  Hf10  1  0.123947  0.123947  0.628158  1
  Al  Al11  1  0.120120  0.640435  0.119323  1
  Al  Al12  1  0.640435  0.120120  0.119323  1
  Al  Al13  1  0.120120  0.120120  0.119323  1
  Al  Al14  1  0.668688  0.668688  0.993935  1
  Al  Al15  1  0.670571  0.988123  0.670733  1
  Al  Al16  1  0.988123  0.670571  0.670733  1
  Al  Al17  1  0.670571  0.670571  0.670733  1
  Al  Al18  1  0.328202  0.328202  0.015394  1
  Al  Al19  1  0.330941  0.018851  0.319269  1
  Al  Al20  1  0.018851  0.330941  0.319269  1
  Al  Al21  1  0.330941  0.330941  0.319269  1
  Ir  Ir22  1  0.002085  0.002085  0.993744  1
  Ir  Ir23  1  0.998790  0.998790  0.501609  1
  Ir  Ir24  1  0.500811  0.998790  0.501609  1
  Ir  Ir25  1  0.998790  0.500811  0.501609  1
  Ir  Ir26  1  0.499597  0.499597  0.001280  1
  Ir  Ir27  1  0.999527  0.499597  0.001280  1
  Ir  Ir28  1  0.499597  0.999527  0.001280  1
