# generated using pymatgen
data_Ca6Pr2Ta3Fe4TcO24
_symmetry_space_group_name_H-M   'P 1'
_cell_length_a   5.67915454
_cell_length_b   9.67806694
_cell_length_c   9.63842900
_cell_angle_alpha   69.88973358
_cell_angle_beta   90.12966120
_cell_angle_gamma   90.28260199
_symmetry_Int_Tables_number   1
_chemical_formula_structural   Ca6Pr2Ta3Fe4TcO24
_chemical_formula_sum   'Ca6 Pr2 Ta3 Fe4 Tc1 O24'
_cell_volume   497.45510977
_cell_formula_units_Z   1
loop_
 _symmetry_equiv_pos_site_id
 _symmetry_equiv_pos_as_xyz
  1  'x, y, z'
loop_
 _atom_site_type_symbol
 _atom_site_label
 _atom_site_symmetry_multiplicity
 _atom_site_fract_x
 _atom_site_fract_y
 _atom_site_fract_z
 _atom_site_occupancy
  Ca  Ca0  1  0.549528  0.111973  0.631394  1
  Ca  Ca1  1  0.542560  0.621281  0.124241  1
  Ca  Ca2  1  0.061231  0.878042  0.870125  1
  Ca  Ca3  1  0.048157  0.383270  0.369766  1
  Ca  Ca4  1  0.450521  0.880513  0.373120  1
  Ca  Ca5  1  0.451595  0.385075  0.866033  1
  Pr  Pr6  1  0.942780  0.117136  0.128638  1
  Pr  Pr7  1  0.945296  0.620409  0.633626  1
  Ta  Ta8  1  0.496057  0.253639  0.252023  1
  Ta  Ta9  1  0.005175  0.246367  0.746043  1
  Ta  Ta10  1  0.998748  0.746868  0.248575  1
  Fe  Fe11  1  0.998356  0.502887  0.999454  1
  Fe  Fe12  1  0.497688  0.500989  0.499310  1
  Fe  Fe13  1  0.001301  0.996797  0.506366  1
  Fe  Fe14  1  0.499309  0.999675  0.997146  1
  Tc  Tc15  1  0.497676  0.750626  0.751531  1
  O  O16  1  0.523785  0.669989  0.577735  1
  O  O17  1  0.522919  0.180846  0.082233  1
  O  O18  1  0.966427  0.173730  0.578564  1
  O  O19  1  0.965398  0.669767  0.083602  1
  O  O20  1  0.472046  0.326690  0.421533  1
  O  O21  1  0.466949  0.821423  0.918797  1
  O  O22  1  0.030919  0.828833  0.418195  1
  O  O23  1  0.028882  0.331101  0.915664  1
  O  O24  1  0.705726  0.082205  0.367799  1
  O  O25  1  0.709309  0.578082  0.869865  1
  O  O26  1  0.817164  0.082240  0.875231  1
  O  O27  1  0.802889  0.578981  0.380189  1
  O  O28  1  0.292521  0.920072  0.627586  1
  O  O29  1  0.291730  0.418726  0.132763  1
  O  O30  1  0.193068  0.916422  0.128577  1
  O  O31  1  0.201396  0.422993  0.622289  1
  O  O32  1  0.210367  0.123883  0.327459  1
  O  O33  1  0.208849  0.620733  0.830389  1
  O  O34  1  0.296514  0.136878  0.814743  1
  O  O35  1  0.290402  0.624565  0.324819  1
  O  O36  1  0.795028  0.872635  0.672685  1
  O  O37  1  0.791424  0.372709  0.175266  1
  O  O38  1  0.714076  0.871615  0.183400  1
  O  O39  1  0.716238  0.379342  0.673225  1
