# generated using pymatgen
data_Y6Al24Tc5Pd3
_symmetry_space_group_name_H-M   'P 1'
_cell_length_a   8.88754269
_cell_length_b   8.91548061
_cell_length_c   9.68998700
_cell_angle_alpha   90.33864258
_cell_angle_beta   90.04457284
_cell_angle_gamma   120.23674007
_symmetry_Int_Tables_number   1
_chemical_formula_structural   Y6Al24Tc5Pd3
_chemical_formula_sum   'Y6 Al24 Tc5 Pd3'
_cell_volume   663.32691188
_cell_formula_units_Z   1
loop_
 _symmetry_equiv_pos_site_id
 _symmetry_equiv_pos_as_xyz
  1  'x, y, z'
loop_
 _atom_site_type_symbol
 _atom_site_label
 _atom_site_symmetry_multiplicity
 _atom_site_fract_x
 _atom_site_fract_y
 _atom_site_fract_z
 _atom_site_occupancy
  Y  Y0  1  0.200733  0.386534  0.251459  1
  Y  Y1  1  0.799267  0.613466  0.748541  1
  Y  Y2  1  0.610487  0.801119  0.251949  1
  Y  Y3  1  0.389513  0.198881  0.748051  1
  Y  Y4  1  0.192728  0.813370  0.251610  1
  Y  Y5  1  0.807272  0.186630  0.748390  1
  Al  Al6  1  0.334679  0.665082  0.021283  1
  Al  Al7  1  0.665321  0.334918  0.978717  1
  Al  Al8  1  0.661541  0.329210  0.520172  1
  Al  Al9  1  0.338459  0.670790  0.479828  1
  Al  Al10  1  0.167505  0.325668  0.577162  1
  Al  Al11  1  0.832495  0.674332  0.422838  1
  Al  Al12  1  0.672305  0.837345  0.576771  1
  Al  Al13  1  0.832730  0.676030  0.077982  1
  Al  Al14  1  0.327695  0.162655  0.423229  1
  Al  Al15  1  0.167270  0.323970  0.922018  1
  Al  Al16  1  0.167339  0.843543  0.576949  1
  Al  Al17  1  0.326061  0.168348  0.078819  1
  Al  Al18  1  0.832661  0.156457  0.423051  1
  Al  Al19  1  0.673939  0.831652  0.921181  1
  Al  Al20  1  0.839538  0.162495  0.079159  1
  Al  Al21  1  0.160462  0.837505  0.920841  1
  Al  Al22  1  0.564004  0.127022  0.253112  1
  Al  Al23  1  0.435996  0.872978  0.746888  1
  Al  Al24  1  0.876275  0.437293  0.248947  1
  Al  Al25  1  0.123725  0.562707  0.751053  1
  Al  Al26  1  0.563695  0.437217  0.249087  1
  Al  Al27  1  0.436305  0.562783  0.750913  1
  Al  Al28  1  0.000368  0.002170  0.250199  1
  Al  Al29  1  0.999632  0.997830  0.749801  1
  Tc  Tc30  1  0.500000  0.000000  0.500000  1
  Tc  Tc31  1  0.500000  0.500000  0.000000  1
  Tc  Tc32  1  0.500000  0.500000  0.500000  1
  Tc  Tc33  1  0.000000  0.000000  0.000000  1
  Tc  Tc34  1  0.000000  0.000000  0.500000  1
  Pd  Pd35  1  0.500000  0.000000  0.000000  1
  Pd  Pd36  1  0.000000  0.500000  0.000000  1
  Pd  Pd37  1  0.000000  0.500000  0.500000  1
