# generated using pymatgen
data_Ca3LaTaV3O12
_symmetry_space_group_name_H-M   'P 1'
_cell_length_a   5.48314960
_cell_length_b   5.63530499
_cell_length_c   7.81767575
_cell_angle_alpha   89.65223674
_cell_angle_beta   89.98353930
_cell_angle_gamma   90.56385002
_symmetry_Int_Tables_number   1
_chemical_formula_structural   Ca3LaTaV3O12
_chemical_formula_sum   'Ca3 La1 Ta1 V3 O12'
_cell_volume   241.54392405
_cell_formula_units_Z   1
loop_
 _symmetry_equiv_pos_site_id
 _symmetry_equiv_pos_as_xyz
  1  'x, y, z'
loop_
 _atom_site_type_symbol
 _atom_site_label
 _atom_site_symmetry_multiplicity
 _atom_site_fract_x
 _atom_site_fract_y
 _atom_site_fract_z
 _atom_site_occupancy
  Ca  Ca0  1  0.487276  0.446962  0.260377  1
  Ca  Ca1  1  0.514402  0.552533  0.741659  1
  Ca  Ca2  1  0.004153  0.958145  0.258997  1
  La  La3  1  0.996949  0.036823  0.741165  1
  Ta  Ta4  1  0.000608  0.499733  0.005270  1
  V  V5  1  0.500431  0.000834  0.494444  1
  V  V6  1  0.001306  0.502062  0.497600  1
  V  V7  1  0.500658  0.999918  0.003794  1
  O  O8  1  0.910470  0.523534  0.249162  1
  O  O9  1  0.426129  0.973953  0.749145  1
  O  O10  1  0.582984  0.030081  0.248916  1
  O  O11  1  0.087593  0.484528  0.751842  1
  O  O12  1  0.706946  0.298487  0.950415  1
  O  O13  1  0.190358  0.206632  0.044795  1
  O  O14  1  0.791318  0.788448  0.538942  1
  O  O15  1  0.272707  0.698619  0.458233  1
  O  O16  1  0.726022  0.302986  0.542382  1
  O  O17  1  0.203207  0.207735  0.460315  1
  O  O18  1  0.294080  0.700135  0.046256  1
  O  O19  1  0.802403  0.787851  0.956292  1
