# generated using pymatgen
data_Sc8Co11Si16Os
_symmetry_space_group_name_H-M   'P 1'
_cell_length_a   5.19636400
_cell_length_b   6.83130109
_cell_length_c   13.75533802
_cell_angle_alpha   89.58556400
_cell_angle_beta   90.00000000
_cell_angle_gamma   90.00000000
_symmetry_Int_Tables_number   1
_chemical_formula_structural   Sc8Co11Si16Os
_chemical_formula_sum   'Sc8 Co11 Si16 Os1'
_cell_volume   488.27321166
_cell_formula_units_Z   1
loop_
 _symmetry_equiv_pos_site_id
 _symmetry_equiv_pos_as_xyz
  1  'x, y, z'
loop_
 _atom_site_type_symbol
 _atom_site_label
 _atom_site_symmetry_multiplicity
 _atom_site_fract_x
 _atom_site_fract_y
 _atom_site_fract_z
 _atom_site_occupancy
  Sc  Sc0  1  0.226622  0.399925  0.144612  1
  Sc  Sc1  1  0.726500  0.101060  0.144213  1
  Sc  Sc2  1  0.275644  0.101664  0.643436  1
  Sc  Sc3  1  0.774021  0.391594  0.642358  1
  Sc  Sc4  1  0.226622  0.600075  0.355388  1
  Sc  Sc5  1  0.726500  0.898940  0.355787  1
  Sc  Sc6  1  0.275644  0.898336  0.856564  1
  Sc  Sc7  1  0.774021  0.608406  0.857642  1
  Co  Co8  1  0.988423  0.278206  0.983455  1
  Co  Co9  1  0.506207  0.226286  0.480549  1
  Co  Co10  1  0.487338  0.230046  0.983872  1
  Co  Co11  1  0.722464  0.500000  0.250000  1
  Co  Co12  1  0.487338  0.769954  0.516128  1
  Co  Co13  1  0.007066  0.272545  0.480511  1
  Co  Co14  1  0.007066  0.727455  0.019489  1
  Co  Co15  1  0.222893  0.000000  0.250000  1
  Co  Co16  1  0.283217  0.500000  0.750000  1
  Co  Co17  1  0.506207  0.773714  0.019451  1
  Co  Co18  1  0.988423  0.721794  0.516545  1
  Si  Si19  1  0.214796  0.019346  0.067691  1
  Si  Si20  1  0.714621  0.516998  0.431646  1
  Si  Si21  1  0.784225  0.016725  0.562225  1
  Si  Si22  1  0.476001  0.752460  0.186495  1
  Si  Si23  1  0.034597  0.261196  0.818298  1
  Si  Si24  1  0.518067  0.254931  0.818647  1
  Si  Si25  1  0.214796  0.980654  0.432309  1
  Si  Si26  1  0.283743  0.523859  0.935304  1
  Si  Si27  1  0.977020  0.749049  0.186608  1
  Si  Si28  1  0.714621  0.483002  0.068354  1
  Si  Si29  1  0.283743  0.476141  0.564696  1
  Si  Si30  1  0.476001  0.247540  0.313505  1
  Si  Si31  1  0.034597  0.738804  0.681702  1
  Si  Si32  1  0.784225  0.983275  0.937775  1
  Si  Si33  1  0.518067  0.745069  0.681353  1
  Si  Si34  1  0.977020  0.250951  0.313392  1
  Os  Os35  1  0.781651  0.000000  0.750000  1
