# generated using pymatgen
data_TbY2ZrIn2Ir3
_symmetry_space_group_name_H-M   'P 1'
_cell_length_a   7.46209227
_cell_length_b   7.21118591
_cell_length_c   4.21139100
_cell_angle_alpha   90.00000000
_cell_angle_beta   90.00000000
_cell_angle_gamma   118.89381909
_symmetry_Int_Tables_number   1
_chemical_formula_structural   TbY2ZrIn2Ir3
_chemical_formula_sum   'Tb1 Y2 Zr1 In2 Ir3'
_cell_volume   198.40713442
_cell_formula_units_Z   1
loop_
 _symmetry_equiv_pos_site_id
 _symmetry_equiv_pos_as_xyz
  1  'x, y, z'
loop_
 _atom_site_type_symbol
 _atom_site_label
 _atom_site_symmetry_multiplicity
 _atom_site_fract_x
 _atom_site_fract_y
 _atom_site_fract_z
 _atom_site_occupancy
  Tb  Tb0  1  0.000000  0.605783  0.000000  1
  Y  Y1  1  0.418211  0.412751  0.000000  1
  Y  Y2  1  0.581789  0.994539  0.000000  1
  Zr  Zr3  1  0.000000  0.246542  0.500000  1
  In  In4  1  0.745523  0.747318  0.500000  1
  In  In5  1  0.254477  0.001797  0.500000  1
  Ir  Ir6  1  0.000000  0.018321  0.000000  1
  Ir  Ir7  1  0.320915  0.646931  0.500000  1
  Ir  Ir8  1  0.679085  0.326016  0.500000  1
