# generated using pymatgen
data_La12Pr8Si15P
_symmetry_space_group_name_H-M   'P 1'
_cell_length_a   7.96833295
_cell_length_b   7.97154172
_cell_length_c   15.44676216
_cell_angle_alpha   89.88418810
_cell_angle_beta   89.84625966
_cell_angle_gamma   90.08159523
_symmetry_Int_Tables_number   1
_chemical_formula_structural   La12Pr8Si15P
_chemical_formula_sum   'La12 Pr8 Si15 P1'
_cell_volume   981.17022578
_cell_formula_units_Z   1
loop_
 _symmetry_equiv_pos_site_id
 _symmetry_equiv_pos_as_xyz
  1  'x, y, z'
loop_
 _atom_site_type_symbol
 _atom_site_label
 _atom_site_symmetry_multiplicity
 _atom_site_fract_x
 _atom_site_fract_y
 _atom_site_fract_z
 _atom_site_occupancy
  La  La0  1  0.311116  0.309913  0.999954  1
  La  La1  1  0.189283  0.809237  0.250035  1
  La  La2  1  0.807949  0.191021  0.749922  1
  La  La3  1  0.689533  0.689329  0.499477  1
  La  La4  1  0.380259  0.009356  0.444990  1
  La  La5  1  0.487794  0.878739  0.697724  1
  La  La6  1  0.511952  0.122676  0.197183  1
  La  La7  1  0.877000  0.487831  0.302385  1
  La  La8  1  0.123764  0.508457  0.802162  1
  La  La9  1  0.623412  0.988192  0.946776  1
  La  La10  1  0.010701  0.375963  0.553511  1
  La  La11  1  0.988526  0.621509  0.052281  1
  Pr  Pr12  1  0.129178  0.985199  0.874775  1
  Pr  Pr13  1  0.518171  0.627569  0.125801  1
  Pr  Pr14  1  0.477415  0.368100  0.627575  1
  Pr  Pr15  1  0.627260  0.517537  0.872751  1
  Pr  Pr16  1  0.371635  0.480954  0.374726  1
  Pr  Pr17  1  0.873496  0.018178  0.377091  1
  Pr  Pr18  1  0.982296  0.127723  0.123489  1
  Pr  Pr19  1  0.021875  0.877946  0.624589  1
  Si  Si20  1  0.331174  0.697460  0.951309  1
  Si  Si21  1  0.668392  0.303579  0.453561  1
  Si  Si22  1  0.697988  0.332596  0.047512  1
  Si  Si23  1  0.302362  0.667537  0.548979  1
  Si  Si24  1  0.802941  0.832676  0.202275  1
  Si  Si25  1  0.168239  0.197042  0.297225  1
  Si  Si26  1  0.834289  0.802761  0.797155  1
  Si  Si27  1  0.287601  0.920355  0.058604  1
  Si  Si28  1  0.578983  0.787981  0.308960  1
  Si  Si29  1  0.424463  0.210830  0.811147  1
  Si  Si30  1  0.789044  0.580169  0.689558  1
  Si  Si31  1  0.211639  0.421948  0.190889  1
  Si  Si32  1  0.709657  0.077335  0.559763  1
  Si  Si33  1  0.922139  0.288380  0.940394  1
  Si  Si34  1  0.078490  0.710995  0.441862  1
  P  P35  1  0.189987  0.172926  0.703611  1
