# generated using pymatgen
data_Hf7Zr3Sn6As
_symmetry_space_group_name_H-M   'P 1'
_cell_length_a   5.86170600
_cell_length_b   8.54778122
_cell_length_c   8.54779900
_cell_angle_alpha   119.99994208
_cell_angle_beta   90.00004273
_cell_angle_gamma   89.99990808
_symmetry_Int_Tables_number   1
_chemical_formula_structural   Hf7Zr3Sn6As
_chemical_formula_sum   'Hf7 Zr3 Sn6 As1'
_cell_volume   370.90493885
_cell_formula_units_Z   1
loop_
 _symmetry_equiv_pos_site_id
 _symmetry_equiv_pos_as_xyz
  1  'x, y, z'
loop_
 _atom_site_type_symbol
 _atom_site_label
 _atom_site_symmetry_multiplicity
 _atom_site_fract_x
 _atom_site_fract_y
 _atom_site_fract_z
 _atom_site_occupancy
  Hf  Hf0  1  0.499912  0.333336  0.666670  1
  Hf  Hf1  1  0.499912  0.666666  0.333330  1
  Hf  Hf2  1  0.999232  0.666667  0.333335  1
  Hf  Hf3  1  0.999232  0.333332  0.666665  1
  Hf  Hf4  1  0.764094  0.256544  0.000000  1
  Hf  Hf5  1  0.764102  0.743459  0.743451  1
  Hf  Hf6  1  0.764102  0.000008  0.256549  1
  Zr  Zr7  1  0.235490  0.745536  0.000000  1
  Zr  Zr8  1  0.235492  0.254456  0.254457  1
  Zr  Zr9  1  0.235492  0.999999  0.745543  1
  Sn  Sn10  1  0.746901  0.607381  0.000000  1
  Sn  Sn11  1  0.746904  0.392615  0.392615  1
  Sn  Sn12  1  0.746904  0.000001  0.607385  1
  Sn  Sn13  1  0.252659  0.393212  0.000000  1
  Sn  Sn14  1  0.252658  0.606785  0.606786  1
  Sn  Sn15  1  0.252658  0.000001  0.393214  1
  As  As16  1  0.504256  0.000002  0.000000  1
