# generated using pymatgen
data_Rb2Zn(BSe)9
_symmetry_space_group_name_H-M   'P 1'
_cell_length_a   9.98810230
_cell_length_b   10.76675954
_cell_length_c   11.32077600
_cell_angle_alpha   100.23804690
_cell_angle_beta   90.60580412
_cell_angle_gamma   116.28401575
_symmetry_Int_Tables_number   1
_chemical_formula_structural   Rb2Zn(BSe)9
_chemical_formula_sum   'Rb4 Zn2 B18 Se18'
_cell_volume   1068.66721958
_cell_formula_units_Z   2
loop_
 _symmetry_equiv_pos_site_id
 _symmetry_equiv_pos_as_xyz
  1  'x, y, z'
loop_
 _atom_site_type_symbol
 _atom_site_label
 _atom_site_symmetry_multiplicity
 _atom_site_fract_x
 _atom_site_fract_y
 _atom_site_fract_z
 _atom_site_occupancy
  Rb  Rb0  1  0.795509  0.173467  0.006457  1
  Rb  Rb1  1  0.204491  0.826533  0.993543  1
  Rb  Rb2  1  0.177275  0.344145  0.503360  1
  Rb  Rb3  1  0.822725  0.655855  0.496640  1
  Zn  Zn4  1  0.318816  0.315062  0.080036  1
  Zn  Zn5  1  0.681184  0.684938  0.919964  1
  B  B6  1  0.512322  0.161749  0.550863  1
  B  B7  1  0.487678  0.838251  0.449137  1
  B  B8  1  0.663049  0.124040  0.583440  1
  B  B9  1  0.336951  0.875960  0.416560  1
  B  B10  1  0.489824  0.043762  0.648318  1
  B  B11  1  0.510176  0.956238  0.351682  1
  B  B12  1  0.338317  0.005149  0.541944  1
  B  B13  1  0.661683  0.994851  0.458056  1
  B  B14  1  0.417173  0.059167  0.407348  1
  B  B15  1  0.582827  0.940833  0.592652  1
  B  B16  1  0.616302  0.131712  0.433356  1
  B  B17  1  0.383698  0.868288  0.566644  1
  B  B18  1  0.740407  0.416299  0.714352  1
  B  B19  1  0.259593  0.583701  0.285648  1
  B  B20  1  0.262591  0.093281  0.787076  1
  B  B21  1  0.737409  0.906719  0.212924  1
  B  B22  1  0.551348  0.275604  0.256986  1
  B  B23  1  0.448652  0.724396  0.743014  1
  Se  Se24  1  0.546418  0.359111  0.625173  1
  Se  Se25  1  0.453582  0.640889  0.374827  1
  Se  Se26  1  0.836520  0.287836  0.691848  1
  Se  Se27  1  0.163480  0.712164  0.308152  1
  Se  Se28  1  0.458352  0.099570  0.821316  1
  Se  Se29  1  0.541648  0.900430  0.178684  1
  Se  Se30  1  0.166181  0.027821  0.618409  1
  Se  Se31  1  0.833819  0.972179  0.381591  1
  Se  Se32  1  0.348213  0.146243  0.291183  1
  Se  Se33  1  0.651787  0.853757  0.708817  1
  Se  Se34  1  0.730836  0.285363  0.341829  1
  Se  Se35  1  0.269164  0.714637  0.658171  1
  Se  Se36  1  0.851451  0.601806  0.819289  1
  Se  Se37  1  0.148549  0.398194  0.180711  1
  Se  Se38  1  0.149148  0.136548  0.912414  1
  Se  Se39  1  0.850852  0.863452  0.087586  1
  Se  Se40  1  0.581026  0.392693  0.138118  1
  Se  Se41  1  0.418974  0.607307  0.861882  1
