# generated using pymatgen
data_Ho3Ti(Co4As3)2
_symmetry_space_group_name_H-M   'P 1'
_cell_length_a   3.80791000
_cell_length_b   10.96661100
_cell_length_c   12.72012400
_cell_angle_alpha   90.00000000
_cell_angle_beta   90.00000000
_cell_angle_gamma   90.00000000
_symmetry_Int_Tables_number   1
_chemical_formula_structural   Ho3Ti(Co4As3)2
_chemical_formula_sum   'Ho6 Ti2 Co16 As12'
_cell_volume   531.19069528
_cell_formula_units_Z   2
loop_
 _symmetry_equiv_pos_site_id
 _symmetry_equiv_pos_as_xyz
  1  'x, y, z'
loop_
 _atom_site_type_symbol
 _atom_site_label
 _atom_site_symmetry_multiplicity
 _atom_site_fract_x
 _atom_site_fract_y
 _atom_site_fract_z
 _atom_site_occupancy
  Ho  Ho0  1  0.000000  0.500000  0.526348  1
  Ho  Ho1  1  0.500000  0.000000  0.473652  1
  Ho  Ho2  1  0.500000  0.821497  0.204478  1
  Ho  Ho3  1  0.500000  0.178503  0.204478  1
  Ho  Ho4  1  0.000000  0.678503  0.795522  1
  Ho  Ho5  1  0.000000  0.321497  0.795522  1
  Ti  Ti6  1  0.500000  0.500000  0.152418  1
  Ti  Ti7  1  0.000000  0.000000  0.847582  1
  Co  Co8  1  0.500000  0.500000  0.701499  1
  Co  Co9  1  0.000000  0.000000  0.298501  1
  Co  Co10  1  0.000000  0.500000  0.987609  1
  Co  Co11  1  0.500000  0.000000  0.012391  1
  Co  Co12  1  0.500000  0.332644  0.995886  1
  Co  Co13  1  0.500000  0.667356  0.995886  1
  Co  Co14  1  0.000000  0.167356  0.004114  1
  Co  Co15  1  0.000000  0.832644  0.004114  1
  Co  Co16  1  0.500000  0.297040  0.431850  1
  Co  Co17  1  0.500000  0.702960  0.431850  1
  Co  Co18  1  0.000000  0.202960  0.568150  1
  Co  Co19  1  0.000000  0.797040  0.568150  1
  Co  Co20  1  0.500000  0.879091  0.705133  1
  Co  Co21  1  0.500000  0.120909  0.705133  1
  Co  Co22  1  0.000000  0.620909  0.294867  1
  Co  Co23  1  0.000000  0.379091  0.294867  1
  As  As24  1  0.500000  0.500000  0.881204  1
  As  As25  1  0.000000  0.000000  0.118796  1
  As  As26  1  0.500000  0.500000  0.354417  1
  As  As27  1  0.000000  0.000000  0.645583  1
  As  As28  1  0.500000  0.312504  0.616186  1
  As  As29  1  0.500000  0.687496  0.616186  1
  As  As30  1  0.000000  0.187496  0.383814  1
  As  As31  1  0.000000  0.812504  0.383814  1
  As  As32  1  0.500000  0.841499  0.889223  1
  As  As33  1  0.500000  0.158501  0.889223  1
  As  As34  1  0.000000  0.658501  0.110777  1
  As  As35  1  0.000000  0.341499  0.110777  1
