# generated using pymatgen
data_Sm8Dy12Si15P
_symmetry_space_group_name_H-M   'P 1'
_cell_length_a   7.54234807
_cell_length_b   7.71814452
_cell_length_c   14.71599348
_cell_angle_alpha   89.84742309
_cell_angle_beta   86.87693789
_cell_angle_gamma   90.02337982
_symmetry_Int_Tables_number   1
_chemical_formula_structural   Sm8Dy12Si15P
_chemical_formula_sum   'Sm8 Dy12 Si15 P1'
_cell_volume   855.38567524
_cell_formula_units_Z   1
loop_
 _symmetry_equiv_pos_site_id
 _symmetry_equiv_pos_as_xyz
  1  'x, y, z'
loop_
 _atom_site_type_symbol
 _atom_site_label
 _atom_site_symmetry_multiplicity
 _atom_site_fract_x
 _atom_site_fract_y
 _atom_site_fract_z
 _atom_site_occupancy
  Sm  Sm0  1  0.026211  0.184208  0.101200  1
  Sm  Sm1  1  0.974417  0.816939  0.898477  1
  Sm  Sm2  1  0.475081  0.683322  0.899134  1
  Sm  Sm3  1  0.995490  0.817661  0.597687  1
  Sm  Sm4  1  0.525461  0.317331  0.100848  1
  Sm  Sm5  1  0.002766  0.178871  0.400977  1
  Sm  Sm6  1  0.502244  0.316450  0.401443  1
  Sm  Sm7  1  0.497275  0.680283  0.597509  1
  Dy  Dy8  1  0.166326  0.507047  0.746436  1
  Dy  Dy9  1  0.834299  0.494187  0.255013  1
  Dy  Dy10  1  0.332212  0.005724  0.254780  1
  Dy  Dy11  1  0.667259  0.993660  0.745321  1
  Dy  Dy12  1  0.348245  0.170695  0.619888  1
  Dy  Dy13  1  0.650846  0.833266  0.378753  1
  Dy  Dy14  1  0.152067  0.660423  0.385179  1
  Dy  Dy15  1  0.675542  0.821953  0.122925  1
  Dy  Dy16  1  0.852423  0.334777  0.617134  1
  Dy  Dy17  1  0.324615  0.178452  0.876719  1
  Dy  Dy18  1  0.824810  0.321728  0.877037  1
  Dy  Dy19  1  0.175090  0.678607  0.122384  1
  Si  Si20  1  0.041223  0.110662  0.750634  1
  Si  Si21  1  0.959667  0.888747  0.248749  1
  Si  Si22  1  0.457291  0.610016  0.248760  1
  Si  Si23  1  0.542603  0.389908  0.750418  1
  Si  Si24  1  0.281840  0.875412  0.750770  1
  Si  Si25  1  0.719228  0.125445  0.248342  1
  Si  Si26  1  0.218598  0.375615  0.249003  1
  Si  Si27  1  0.781768  0.624269  0.750630  1
  Si  Si28  1  0.796902  0.536436  0.456035  1
  Si  Si29  1  0.306004  0.961516  0.458570  1
  Si  Si30  1  0.855821  0.530280  0.040755  1
  Si  Si31  1  0.692004  0.037815  0.542423  1
  Si  Si32  1  0.143523  0.471125  0.958317  1
  Si  Si33  1  0.643032  0.029856  0.958467  1
  Si  Si34  1  0.356789  0.971016  0.041431  1
  P  P35  1  0.201024  0.466301  0.547852  1
