# generated using pymatgen
data_AcPr3(Al3Ir)6
_symmetry_space_group_name_H-M   'P 1'
_cell_length_a   7.64757932
_cell_length_b   7.67113721
_cell_length_c   9.68223400
_cell_angle_alpha   90.00000000
_cell_angle_beta   90.00000000
_cell_angle_gamma   119.14936116
_symmetry_Int_Tables_number   1
_chemical_formula_structural   AcPr3(Al3Ir)6
_chemical_formula_sum   'Ac1 Pr3 Al18 Ir6'
_cell_volume   496.07699622
_cell_formula_units_Z   1
loop_
 _symmetry_equiv_pos_site_id
 _symmetry_equiv_pos_as_xyz
  1  'x, y, z'
loop_
 _atom_site_type_symbol
 _atom_site_label
 _atom_site_symmetry_multiplicity
 _atom_site_fract_x
 _atom_site_fract_y
 _atom_site_fract_z
 _atom_site_occupancy
  Ac  Ac0  1  0.991512  0.671076  0.250000  1
  Pr  Pr1  1  0.004584  0.328727  0.750000  1
  Pr  Pr2  1  0.672192  0.993139  0.250000  1
  Pr  Pr3  1  0.326932  0.004028  0.750000  1
  Al  Al4  1  0.133292  0.138374  0.250000  1
  Al  Al5  1  0.868212  0.870976  0.750000  1
  Al  Al6  1  0.004102  0.332812  0.068834  1
  Al  Al7  1  0.997322  0.663619  0.920551  1
  Al  Al8  1  0.997322  0.663619  0.579449  1
  Al  Al9  1  0.339472  0.006258  0.431300  1
  Al  Al10  1  0.004102  0.332812  0.431166  1
  Al  Al11  1  0.664567  0.999763  0.574159  1
  Al  Al12  1  0.664567  0.999763  0.925841  1
  Al  Al13  1  0.339472  0.006258  0.068700  1
  Al  Al14  1  0.333380  0.333097  0.548997  1
  Al  Al15  1  0.664292  0.666524  0.467349  1
  Al  Al16  1  0.664292  0.666524  0.032651  1
  Al  Al17  1  0.333380  0.333097  0.951003  1
  Al  Al18  1  0.345420  0.546014  0.250000  1
  Al  Al19  1  0.657039  0.450514  0.750000  1
  Al  Al20  1  0.538991  0.329510  0.250000  1
  Al  Al21  1  0.451784  0.660702  0.750000  1
  Ir  Ir22  1  0.671152  0.330233  0.999089  1
  Ir  Ir23  1  0.330058  0.670915  0.998877  1
  Ir  Ir24  1  0.330058  0.670915  0.501123  1
  Ir  Ir25  1  0.671152  0.330233  0.500911  1
  Ir  Ir26  1  0.000675  0.000247  0.998345  1
  Ir  Ir27  1  0.000675  0.000247  0.501655  1
