# generated using pymatgen
data_Na3Ca2IrO6
_symmetry_space_group_name_H-M   'P 1'
_cell_length_a   10.88996287
_cell_length_b   10.35792216
_cell_length_c   5.78306034
_cell_angle_alpha   79.35061800
_cell_angle_beta   69.18969604
_cell_angle_gamma   31.45968374
_symmetry_Int_Tables_number   1
_chemical_formula_structural   Na3Ca2IrO6
_chemical_formula_sum   'Na6 Ca4 Ir2 O12'
_cell_volume   308.74128933
_cell_formula_units_Z   2
loop_
 _symmetry_equiv_pos_site_id
 _symmetry_equiv_pos_as_xyz
  1  'x, y, z'
loop_
 _atom_site_type_symbol
 _atom_site_label
 _atom_site_symmetry_multiplicity
 _atom_site_fract_x
 _atom_site_fract_y
 _atom_site_fract_z
 _atom_site_occupancy
  Na  Na0  1  0.000000  0.000000  0.000000  1
  Na  Na1  1  0.086191  0.086191  0.413809  1
  Na  Na2  1  0.836191  0.836191  0.163809  1
  Na  Na3  1  0.163809  0.163809  0.836191  1
  Na  Na4  1  0.250000  0.250000  0.250000  1
  Na  Na5  1  0.413809  0.413809  0.086191  1
  Ca  Ca6  1  0.580789  0.580789  0.919211  1
  Ca  Ca7  1  0.919211  0.919211  0.580789  1
  Ca  Ca8  1  0.669211  0.669211  0.330789  1
  Ca  Ca9  1  0.330789  0.330789  0.669211  1
  Ir  Ir10  1  0.750000  0.750000  0.750000  1
  Ir  Ir11  1  0.500000  0.500000  0.500000  1
  O  O12  1  0.287844  0.712156  0.287844  1
  O  O13  1  0.712156  0.287844  0.712156  1
  O  O14  1  0.962156  0.537844  0.962156  1
  O  O15  1  0.537844  0.962156  0.537844  1
  O  O16  1  0.205714  0.646046  0.790220  1
  O  O17  1  0.358020  0.790220  0.646046  1
  O  O18  1  0.790220  0.358020  0.205714  1
  O  O19  1  0.646046  0.205714  0.358020  1
  O  O20  1  0.603954  0.044286  0.891980  1
  O  O21  1  0.891980  0.459780  0.603954  1
  O  O22  1  0.459780  0.891980  0.044286  1
  O  O23  1  0.044286  0.603954  0.459780  1
