# generated using pymatgen
data_La11PrIr2(AuI6)2
_symmetry_space_group_name_H-M   'P 1'
_cell_length_a   11.20459167
_cell_length_b   11.19962682
_cell_length_c   10.98947527
_cell_angle_alpha   109.54725227
_cell_angle_beta   109.24703200
_cell_angle_gamma   110.40586228
_symmetry_Int_Tables_number   1
_chemical_formula_structural   La11PrIr2(AuI6)2
_chemical_formula_sum   'La11 Pr1 Ir2 Au2 I12'
_cell_volume   1051.06768356
_cell_formula_units_Z   1
loop_
 _symmetry_equiv_pos_site_id
 _symmetry_equiv_pos_as_xyz
  1  'x, y, z'
loop_
 _atom_site_type_symbol
 _atom_site_label
 _atom_site_symmetry_multiplicity
 _atom_site_fract_x
 _atom_site_fract_y
 _atom_site_fract_z
 _atom_site_occupancy
  La  La0  1  0.762209  0.236443  0.274063  1
  La  La1  1  0.764796  0.027636  0.488410  1
  La  La2  1  0.224112  0.461073  0.488732  1
  La  La3  1  0.263678  0.736308  0.225154  1
  La  La4  1  0.041292  0.278045  0.011761  1
  La  La5  1  0.011207  0.038090  0.274734  1
  La  La6  1  0.471082  0.733236  0.010859  1
  La  La7  1  0.484136  0.234715  0.468519  1
  La  La8  1  0.019249  0.479033  0.748421  1
  La  La9  1  0.266203  0.016421  0.031959  1
  La  La10  1  0.230700  0.271246  0.751882  1
  Pr  Pr11  1  0.461939  0.487345  0.226509  1
  Ir  Ir12  1  0.000651  0.250376  0.500884  1
  Ir  Ir13  1  0.248801  0.499742  0.998007  1
  Au  Au14  1  0.250425  0.251316  0.250496  1
  Au  Au15  1  0.500567  0.999643  0.250020  1
  I  I16  1  0.251038  0.761195  0.741760  1
  I  I17  1  0.519472  0.509271  0.758269  1
  I  I18  1  0.985364  0.743174  0.993591  1
  I  I19  1  0.738773  0.249007  0.758246  1
  I  I20  1  0.990783  0.980523  0.741699  1
  I  I21  1  0.249493  0.991761  0.506418  1
  I  I22  1  0.756140  0.514682  0.505915  1
  I  I23  1  0.508496  0.251159  0.994370  1
  I  I24  1  0.758138  0.740217  0.249860  1
  I  I25  1  0.742069  0.991913  0.984080  1
  I  I26  1  0.991040  0.509118  0.250119  1
  I  I27  1  0.508146  0.757310  0.515263  1
