# generated using pymatgen
data_TbDy4Bi2P
_symmetry_space_group_name_H-M   'P 1'
_cell_length_a   8.00009605
_cell_length_b   8.98414201
_cell_length_c   12.18743908
_cell_angle_alpha   89.99745498
_cell_angle_beta   90.01249334
_cell_angle_gamma   90.00381922
_symmetry_Int_Tables_number   1
_chemical_formula_structural   TbDy4Bi2P
_chemical_formula_sum   'Tb4 Dy16 Bi8 P4'
_cell_volume   875.95996032
_cell_formula_units_Z   4
loop_
 _symmetry_equiv_pos_site_id
 _symmetry_equiv_pos_as_xyz
  1  'x, y, z'
loop_
 _atom_site_type_symbol
 _atom_site_label
 _atom_site_symmetry_multiplicity
 _atom_site_fract_x
 _atom_site_fract_y
 _atom_site_fract_z
 _atom_site_occupancy
  Tb  Tb0  1  0.815181  0.047216  0.064139  1
  Tb  Tb1  1  0.683798  0.452339  0.564050  1
  Tb  Tb2  1  0.816146  0.452680  0.063992  1
  Tb  Tb3  1  0.184207  0.547776  0.936087  1
  Dy  Dy4  1  0.852563  0.750100  0.794973  1
  Dy  Dy5  1  0.147556  0.250049  0.205034  1
  Dy  Dy6  1  0.352094  0.250005  0.705021  1
  Dy  Dy7  1  0.647737  0.749894  0.294954  1
  Dy  Dy8  1  0.377151  0.749929  0.699364  1
  Dy  Dy9  1  0.622557  0.250168  0.300928  1
  Dy  Dy10  1  0.877396  0.249970  0.800552  1
  Dy  Dy11  1  0.122957  0.749877  0.199697  1
  Dy  Dy12  1  0.958976  0.749976  0.502044  1
  Dy  Dy13  1  0.041544  0.250075  0.497792  1
  Dy  Dy14  1  0.458823  0.250024  0.997790  1
  Dy  Dy15  1  0.540594  0.749923  0.002030  1
  Dy  Dy16  1  0.683602  0.048254  0.564095  1
  Dy  Dy17  1  0.316041  0.951379  0.435964  1
  Dy  Dy18  1  0.183929  0.951672  0.936008  1
  Dy  Dy19  1  0.317088  0.548736  0.436180  1
  Bi  Bi20  1  0.578029  0.490884  0.826375  1
  Bi  Bi21  1  0.421838  0.509237  0.173772  1
  Bi  Bi22  1  0.078077  0.509286  0.673345  1
  Bi  Bi23  1  0.421666  0.990768  0.173672  1
  Bi  Bi24  1  0.922273  0.490785  0.326566  1
  Bi  Bi25  1  0.578005  0.009195  0.826225  1
  Bi  Bi26  1  0.922135  0.009200  0.326628  1
  Bi  Bi27  1  0.078101  0.990641  0.673536  1
  P  P28  1  0.570618  0.751543  0.511783  1
  P  P29  1  0.427233  0.248985  0.487816  1
  P  P30  1  0.072516  0.248468  0.987895  1
  P  P31  1  0.929572  0.750966  0.011692  1
