# generated using pymatgen
data_NdDy3Al16(SiIr3)2
_symmetry_space_group_name_H-M   'P 1'
_cell_length_a   7.56092925
_cell_length_b   7.56683279
_cell_length_c   9.38934000
_cell_angle_alpha   90.00000000
_cell_angle_beta   90.00000000
_cell_angle_gamma   119.64269124
_symmetry_Int_Tables_number   1
_chemical_formula_structural   NdDy3Al16(SiIr3)2
_chemical_formula_sum   'Nd1 Dy3 Al16 Si2 Ir6'
_cell_volume   466.88233711
_cell_formula_units_Z   1
loop_
 _symmetry_equiv_pos_site_id
 _symmetry_equiv_pos_as_xyz
  1  'x, y, z'
loop_
 _atom_site_type_symbol
 _atom_site_label
 _atom_site_symmetry_multiplicity
 _atom_site_fract_x
 _atom_site_fract_y
 _atom_site_fract_z
 _atom_site_occupancy
  Nd  Nd0  1  0.994880  0.674446  0.750000  1
  Dy  Dy1  1  0.004886  0.324411  0.250000  1
  Dy  Dy2  1  0.675192  0.995001  0.750000  1
  Dy  Dy3  1  0.325056  0.005378  0.250000  1
  Al  Al4  1  0.001533  0.334877  0.574334  1
  Al  Al5  1  0.998767  0.663523  0.421476  1
  Al  Al6  1  0.998767  0.663523  0.078524  1
  Al  Al7  1  0.338000  0.002838  0.925776  1
  Al  Al8  1  0.001533  0.334877  0.925666  1
  Al  Al9  1  0.663536  0.998790  0.076545  1
  Al  Al10  1  0.663536  0.998790  0.423455  1
  Al  Al11  1  0.338000  0.002838  0.574224  1
  Al  Al12  1  0.335543  0.335607  0.057525  1
  Al  Al13  1  0.663024  0.664476  0.945778  1
  Al  Al14  1  0.663024  0.664476  0.554222  1
  Al  Al15  1  0.335543  0.335607  0.442475  1
  Al  Al16  1  0.337338  0.548547  0.750000  1
  Al  Al17  1  0.663386  0.450419  0.250000  1
  Al  Al18  1  0.546327  0.333293  0.750000  1
  Al  Al19  1  0.450970  0.664264  0.250000  1
  Si  Si20  1  0.129761  0.131245  0.750000  1
  Si  Si21  1  0.870826  0.871425  0.250000  1
  Ir  Ir22  1  0.671444  0.328132  0.499364  1
  Ir  Ir23  1  0.328546  0.671668  0.499458  1
  Ir  Ir24  1  0.328546  0.671668  0.000542  1
  Ir  Ir25  1  0.671444  0.328132  0.000636  1
  Ir  Ir26  1  0.000297  0.000874  0.498743  1
  Ir  Ir27  1  0.000297  0.000874  0.001257  1
