# generated using pymatgen
data_Cs6Na4SmNbAs6
_symmetry_space_group_name_H-M   'P 1'
_cell_length_a   11.33693196
_cell_length_b   11.33692967
_cell_length_c   16.87617900
_cell_angle_alpha   90.00000000
_cell_angle_beta   90.00000000
_cell_angle_gamma   143.25990053
_symmetry_Int_Tables_number   1
_chemical_formula_structural   Cs6Na4SmNbAs6
_chemical_formula_sum   'Cs12 Na8 Sm2 Nb2 As12'
_cell_volume   1297.48235391
_cell_formula_units_Z   2
loop_
 _symmetry_equiv_pos_site_id
 _symmetry_equiv_pos_as_xyz
  1  'x, y, z'
loop_
 _atom_site_type_symbol
 _atom_site_label
 _atom_site_symmetry_multiplicity
 _atom_site_fract_x
 _atom_site_fract_y
 _atom_site_fract_z
 _atom_site_occupancy
  Cs  Cs0  1  0.949284  0.606823  0.825838  1
  Cs  Cs1  1  0.550716  0.893177  0.325838  1
  Cs  Cs2  1  0.393177  0.050716  0.174162  1
  Cs  Cs3  1  0.052692  0.392726  0.176793  1
  Cs  Cs4  1  0.892726  0.552692  0.323207  1
  Cs  Cs5  1  0.447308  0.107274  0.676793  1
  Cs  Cs6  1  0.607274  0.947308  0.823207  1
  Cs  Cs7  1  0.284460  0.281704  0.317564  1
  Cs  Cs8  1  0.781704  0.784460  0.182436  1
  Cs  Cs9  1  0.215540  0.218296  0.817564  1
  Cs  Cs10  1  0.718296  0.715540  0.682436  1
  Cs  Cs11  1  0.106823  0.449284  0.674162  1
  Na  Na12  1  0.918521  0.081479  0.000000  1
  Na  Na13  1  0.581479  0.418521  0.500000  1
  Na  Na14  1  0.080651  0.919349  0.000000  1
  Na  Na15  1  0.419349  0.580651  0.500000  1
  Na  Na16  1  0.754140  0.245860  0.000000  1
  Na  Na17  1  0.745860  0.254140  0.500000  1
  Na  Na18  1  0.246644  0.753356  0.000000  1
  Na  Na19  1  0.253356  0.746644  0.500000  1
  Sm  Sm20  1  0.412323  0.587677  0.000000  1
  Sm  Sm21  1  0.087677  0.912323  0.500000  1
  Nb  Nb22  1  0.585529  0.414471  0.000000  1
  Nb  Nb23  1  0.914471  0.085529  0.500000  1
  As  As24  1  0.857494  0.553117  0.086549  1
  As  As25  1  0.446883  0.142506  0.913451  1
  As  As26  1  0.642506  0.946883  0.586549  1
  As  As27  1  0.926806  0.602707  0.597720  1
  As  As28  1  0.102707  0.426806  0.902280  1
  As  As29  1  0.573194  0.897293  0.097720  1
  As  As30  1  0.397293  0.073194  0.402280  1
  As  As31  1  0.186770  0.208973  0.584069  1
  As  As32  1  0.708973  0.686770  0.915931  1
  As  As33  1  0.313230  0.291027  0.084069  1
  As  As34  1  0.053117  0.357494  0.413451  1
  As  As35  1  0.791027  0.813230  0.415931  1
