# generated using pymatgen
data_SrTlIr4(PbO7)2
_symmetry_space_group_name_H-M   'P 1'
_cell_length_a   7.41855419
_cell_length_b   7.41855329
_cell_length_c   7.33900431
_cell_angle_alpha   59.48548843
_cell_angle_beta   59.48549035
_cell_angle_gamma   59.80271627
_symmetry_Int_Tables_number   1
_chemical_formula_structural   SrTlIr4(PbO7)2
_chemical_formula_sum   'Sr1 Tl1 Ir4 Pb2 O14'
_cell_volume   282.94211678
_cell_formula_units_Z   1
loop_
 _symmetry_equiv_pos_site_id
 _symmetry_equiv_pos_as_xyz
  1  'x, y, z'
loop_
 _atom_site_type_symbol
 _atom_site_label
 _atom_site_symmetry_multiplicity
 _atom_site_fract_x
 _atom_site_fract_y
 _atom_site_fract_z
 _atom_site_occupancy
  Sr  Sr0  1  0.125000  0.125000  0.125000  1
  Tl  Tl1  1  0.125000  0.125000  0.625000  1
  Ir  Ir2  1  0.125000  0.625000  0.625000  1
  Ir  Ir3  1  0.625000  0.125000  0.625000  1
  Ir  Ir4  1  0.625000  0.625000  0.125000  1
  Ir  Ir5  1  0.625000  0.625000  0.625000  1
  Pb  Pb6  1  0.625000  0.125000  0.125000  1
  Pb  Pb7  1  0.125000  0.625000  0.125000  1
  O  O8  1  0.703382  0.703382  0.296847  1
  O  O9  1  0.301885  0.301885  0.689521  1
  O  O10  1  0.697003  0.300751  0.704352  1
  O  O11  1  0.300370  0.691636  0.298470  1
  O  O12  1  0.300751  0.697003  0.704352  1
  O  O13  1  0.691636  0.300370  0.298470  1
  O  O14  1  0.546618  0.546618  0.953153  1
  O  O15  1  0.948115  0.948115  0.560479  1
  O  O16  1  0.552997  0.949249  0.545648  1
  O  O17  1  0.949630  0.558364  0.951530  1
  O  O18  1  0.949249  0.552997  0.545648  1
  O  O19  1  0.558364  0.949630  0.951530  1
  O  O20  1  0.249993  0.249993  0.267851  1
  O  O21  1  0.000007  0.000007  0.982149  1
