# generated using pymatgen
data_Tb4Dy2Ni20As13
_symmetry_space_group_name_H-M   'P 1'
_cell_length_a   13.14662211
_cell_length_b   13.14159635
_cell_length_c   3.89243500
_cell_angle_alpha   90.00000000
_cell_angle_beta   90.00000000
_cell_angle_gamma   119.99367037
_symmetry_Int_Tables_number   1
_chemical_formula_structural   Tb4Dy2Ni20As13
_chemical_formula_sum   'Tb4 Dy2 Ni20 As13'
_cell_volume   582.42767128
_cell_formula_units_Z   1
loop_
 _symmetry_equiv_pos_site_id
 _symmetry_equiv_pos_as_xyz
  1  'x, y, z'
loop_
 _atom_site_type_symbol
 _atom_site_label
 _atom_site_symmetry_multiplicity
 _atom_site_fract_x
 _atom_site_fract_y
 _atom_site_fract_z
 _atom_site_occupancy
  Tb  Tb0  1  0.811986  0.282610  0.000000  1
  Tb  Tb1  1  0.530574  0.811030  0.500000  1
  Tb  Tb2  1  0.280425  0.469414  0.500000  1
  Tb  Tb3  1  0.188854  0.719461  0.500000  1
  Dy  Dy4  1  0.470735  0.188187  0.000000  1
  Dy  Dy5  1  0.717405  0.529394  0.000000  1
  Ni  Ni6  1  0.333281  0.666618  0.000000  1
  Ni  Ni7  1  0.666444  0.333409  0.500000  1
  Ni  Ni8  1  0.199521  0.090627  0.000000  1
  Ni  Ni9  1  0.891013  0.800537  0.000000  1
  Ni  Ni10  1  0.909681  0.108636  0.000000  1
  Ni  Ni11  1  0.851435  0.932607  0.500000  1
  Ni  Ni12  1  0.081351  0.148467  0.500000  1
  Ni  Ni13  1  0.067393  0.918771  0.500000  1
  Ni  Ni14  1  0.437010  0.416133  0.000000  1
  Ni  Ni15  1  0.979134  0.563281  0.000000  1
  Ni  Ni16  1  0.583766  0.020795  0.000000  1
  Ni  Ni17  1  0.564115  0.584993  0.500000  1
  Ni  Ni18  1  0.021015  0.435916  0.500000  1
  Ni  Ni19  1  0.414851  0.979117  0.500000  1
  Ni  Ni20  1  0.075973  0.321621  0.000000  1
  Ni  Ni21  1  0.245799  0.924172  0.000000  1
  Ni  Ni22  1  0.678428  0.754310  0.000000  1
  Ni  Ni23  1  0.929855  0.684607  0.500000  1
  Ni  Ni24  1  0.754529  0.069825  0.500000  1
  Ni  Ni25  1  0.315586  0.245432  0.500000  1
  As  As26  1  0.231724  0.282025  0.000000  1
  As  As27  1  0.050397  0.768452  0.000000  1
  As  As28  1  0.717938  0.949687  0.000000  1
  As  As29  1  0.767128  0.720732  0.500000  1
  As  As30  1  0.953867  0.232683  0.500000  1
  As  As31  1  0.279270  0.046481  0.500000  1
  As  As32  1  0.475227  0.613195  0.000000  1
  As  As33  1  0.137815  0.524699  0.000000  1
  As  As34  1  0.386698  0.862009  0.000000  1
  As  As35  1  0.523030  0.385255  0.500000  1
  As  As36  1  0.862152  0.477230  0.500000  1
  As  As37  1  0.614437  0.137680  0.500000  1
  As  As38  1  0.000160  0.999904  0.000000  1
