# generated using pymatgen
data_Dy3Ho5(B6Ir)4
_symmetry_space_group_name_H-M   'P 1'
_cell_length_a   3.64020000
_cell_length_b   9.18384100
_cell_length_c   11.52668100
_cell_angle_alpha   90.00082843
_cell_angle_beta   90.00000000
_cell_angle_gamma   90.00000000
_symmetry_Int_Tables_number   1
_chemical_formula_structural   Dy3Ho5(B6Ir)4
_chemical_formula_sum   'Dy3 Ho5 B24 Ir4'
_cell_volume   385.34868010
_cell_formula_units_Z   1
loop_
 _symmetry_equiv_pos_site_id
 _symmetry_equiv_pos_as_xyz
  1  'x, y, z'
loop_
 _atom_site_type_symbol
 _atom_site_label
 _atom_site_symmetry_multiplicity
 _atom_site_fract_x
 _atom_site_fract_y
 _atom_site_fract_z
 _atom_site_occupancy
  Dy  Dy0  1  0.000000  0.322314  0.412883  1
  Dy  Dy1  1  0.000000  0.677660  0.587162  1
  Dy  Dy2  1  0.000000  0.822338  0.087100  1
  Ho  Ho3  1  0.000000  0.177763  0.912928  1
  Ho  Ho4  1  0.000000  0.944184  0.374514  1
  Ho  Ho5  1  0.000000  0.055839  0.625506  1
  Ho  Ho6  1  0.000000  0.444111  0.125323  1
  Ho  Ho7  1  0.000000  0.555793  0.874571  1
  B  B8  1  0.500000  0.553203  0.433541  1
  B  B9  1  0.500000  0.446742  0.566553  1
  B  B10  1  0.500000  0.053339  0.066225  1
  B  B11  1  0.500000  0.947038  0.933566  1
  B  B12  1  0.500000  0.749369  0.420564  1
  B  B13  1  0.500000  0.250591  0.579538  1
  B  B14  1  0.500000  0.249269  0.079156  1
  B  B15  1  0.500000  0.750690  0.920535  1
  B  B16  1  0.500000  0.792966  0.265688  1
  B  B17  1  0.500000  0.206906  0.734532  1
  B  B18  1  0.500000  0.292901  0.234151  1
  B  B19  1  0.500000  0.707079  0.765769  1
  B  B20  1  0.500000  0.632077  0.184480  1
  B  B21  1  0.500000  0.367700  0.815610  1
  B  B22  1  0.500000  0.132112  0.315433  1
  B  B23  1  0.500000  0.867962  0.684607  1
  B  B24  1  0.500000  0.982039  0.213020  1
  B  B25  1  0.500000  0.018319  0.787102  1
  B  B26  1  0.500000  0.481921  0.286858  1
  B  B27  1  0.500000  0.517974  0.713132  1
  B  B28  1  0.500000  0.611016  0.030383  1
  B  B29  1  0.500000  0.388637  0.969472  1
  B  B30  1  0.500000  0.110818  0.469674  1
  B  B31  1  0.500000  0.889243  0.530383  1
  Ir  Ir32  1  0.000000  0.638303  0.321038  1
  Ir  Ir33  1  0.000000  0.361478  0.679085  1
  Ir  Ir34  1  0.000000  0.138252  0.178639  1
  Ir  Ir35  1  0.000000  0.862054  0.821273  1
