# generated using pymatgen
data_La7DyEr2Si8O3
_symmetry_space_group_name_H-M   'P 1'
_cell_length_a   10.77119721
_cell_length_b   10.78003871
_cell_length_c   4.53808100
_cell_angle_alpha   90.00000000
_cell_angle_beta   90.00000000
_cell_angle_gamma   120.02716458
_symmetry_Int_Tables_number   1
_chemical_formula_structural   La7DyEr2Si8O3
_chemical_formula_sum   'La7 Dy1 Er2 Si8 O3'
_cell_volume   456.21360127
_cell_formula_units_Z   1
loop_
 _symmetry_equiv_pos_site_id
 _symmetry_equiv_pos_as_xyz
  1  'x, y, z'
loop_
 _atom_site_type_symbol
 _atom_site_label
 _atom_site_symmetry_multiplicity
 _atom_site_fract_x
 _atom_site_fract_y
 _atom_site_fract_z
 _atom_site_occupancy
  La  La0  1  0.211801  0.788510  0.000000  1
  La  La1  1  0.576534  0.788267  0.000000  1
  La  La2  1  0.788199  0.576710  0.000000  1
  La  La3  1  0.000000  0.000000  0.000000  1
  La  La4  1  0.211801  0.423290  0.000000  1
  La  La5  1  0.423466  0.211733  0.000000  1
  La  La6  1  0.788199  0.211490  0.000000  1
  Dy  Dy7  1  0.000000  0.500000  0.500000  1
  Er  Er8  1  0.500000  0.500000  0.500000  1
  Er  Er9  1  0.500000  0.000000  0.500000  1
  Si  Si10  1  0.000000  0.776492  0.500000  1
  Si  Si11  1  0.000000  0.223508  0.500000  1
  Si  Si12  1  0.223810  0.223742  0.500000  1
  Si  Si13  1  0.776190  0.999931  0.500000  1
  Si  Si14  1  0.333991  0.666996  0.500000  1
  Si  Si15  1  0.223810  0.000069  0.500000  1
  Si  Si16  1  0.666009  0.333004  0.500000  1
  Si  Si17  1  0.776190  0.776258  0.500000  1
  O  O18  1  0.000000  0.500000  0.000000  1
  O  O19  1  0.500000  0.500000  0.000000  1
  O  O20  1  0.500000  0.000000  0.000000  1
