# generated using pymatgen
data_Pr2Er4Co17P12W
_symmetry_space_group_name_H-M   'P 1'
_cell_length_a   3.72233000
_cell_length_b   10.56922500
_cell_length_c   12.27301200
_cell_angle_alpha   90.00000000
_cell_angle_beta   90.00000000
_cell_angle_gamma   90.00000000
_symmetry_Int_Tables_number   1
_chemical_formula_structural   Pr2Er4Co17P12W
_chemical_formula_sum   'Pr2 Er4 Co17 P12 W1'
_cell_volume   482.84659676
_cell_formula_units_Z   1
loop_
 _symmetry_equiv_pos_site_id
 _symmetry_equiv_pos_as_xyz
  1  'x, y, z'
loop_
 _atom_site_type_symbol
 _atom_site_label
 _atom_site_symmetry_multiplicity
 _atom_site_fract_x
 _atom_site_fract_y
 _atom_site_fract_z
 _atom_site_occupancy
  Pr  Pr0  1  0.750000  0.250000  0.474723  1
  Pr  Pr1  1  0.250000  0.750000  0.522440  1
  Er  Er2  1  0.250000  0.931488  0.794800  1
  Er  Er3  1  0.250000  0.568512  0.794800  1
  Er  Er4  1  0.750000  0.067565  0.202714  1
  Er  Er5  1  0.750000  0.432435  0.202714  1
  Co  Co6  1  0.750000  0.750000  0.157279  1
  Co  Co7  1  0.250000  0.250000  0.294342  1
  Co  Co8  1  0.750000  0.750000  0.707682  1
  Co  Co9  1  0.750000  0.250000  0.013765  1
  Co  Co10  1  0.250000  0.750000  0.986348  1
  Co  Co11  1  0.250000  0.418435  0.009418  1
  Co  Co12  1  0.250000  0.081565  0.009418  1
  Co  Co13  1  0.750000  0.583951  0.994132  1
  Co  Co14  1  0.750000  0.916049  0.994132  1
  Co  Co15  1  0.250000  0.454911  0.570398  1
  Co  Co16  1  0.250000  0.045089  0.570398  1
  Co  Co17  1  0.750000  0.546009  0.428446  1
  Co  Co18  1  0.750000  0.953991  0.428446  1
  Co  Co19  1  0.250000  0.870572  0.287474  1
  Co  Co20  1  0.250000  0.629428  0.287474  1
  Co  Co21  1  0.750000  0.128337  0.712114  1
  Co  Co22  1  0.750000  0.371663  0.712114  1
  P  P23  1  0.250000  0.250000  0.118542  1
  P  P24  1  0.750000  0.750000  0.884085  1
  P  P25  1  0.250000  0.250000  0.654819  1
  P  P26  1  0.750000  0.750000  0.338348  1
  P  P27  1  0.250000  0.443350  0.380479  1
  P  P28  1  0.250000  0.056650  0.380479  1
  P  P29  1  0.750000  0.557402  0.617585  1
  P  P30  1  0.750000  0.942598  0.617585  1
  P  P31  1  0.250000  0.901479  0.107416  1
  P  P32  1  0.250000  0.598521  0.107416  1
  P  P33  1  0.750000  0.092286  0.895445  1
  P  P34  1  0.750000  0.407714  0.895445  1
  W  W35  1  0.250000  0.250000  0.846784  1
