# generated using pymatgen
data_NdLuAg2(Ir2O7)2
_symmetry_space_group_name_H-M   'P 1'
_cell_length_a   7.37527015
_cell_length_b   7.24166404
_cell_length_c   7.24166394
_cell_angle_alpha   59.47377037
_cell_angle_beta   59.37230151
_cell_angle_gamma   59.37230228
_symmetry_Int_Tables_number   1
_chemical_formula_structural   NdLuAg2(Ir2O7)2
_chemical_formula_sum   'Nd1 Lu1 Ag2 Ir4 O14'
_cell_volume   269.79238212
_cell_formula_units_Z   1
loop_
 _symmetry_equiv_pos_site_id
 _symmetry_equiv_pos_as_xyz
  1  'x, y, z'
loop_
 _atom_site_type_symbol
 _atom_site_label
 _atom_site_symmetry_multiplicity
 _atom_site_fract_x
 _atom_site_fract_y
 _atom_site_fract_z
 _atom_site_occupancy
  Nd  Nd0  1  0.625000  0.125000  0.125000  1
  Lu  Lu1  1  0.125000  0.125000  0.125000  1
  Ag  Ag2  1  0.125000  0.625000  0.125000  1
  Ag  Ag3  1  0.125000  0.125000  0.625000  1
  Ir  Ir4  1  0.125000  0.625000  0.625000  1
  Ir  Ir5  1  0.625000  0.125000  0.625000  1
  Ir  Ir6  1  0.625000  0.625000  0.125000  1
  Ir  Ir7  1  0.625000  0.625000  0.625000  1
  O  O8  1  0.702857  0.702768  0.294234  1
  O  O9  1  0.299448  0.295635  0.722326  1
  O  O10  1  0.702857  0.294234  0.702768  1
  O  O11  1  0.299448  0.722326  0.295635  1
  O  O12  1  0.304277  0.693677  0.693677  1
  O  O13  1  0.720975  0.287934  0.287934  1
  O  O14  1  0.547143  0.547232  0.955766  1
  O  O15  1  0.950552  0.954365  0.527674  1
  O  O16  1  0.547143  0.955766  0.547232  1
  O  O17  1  0.950552  0.527674  0.954365  1
  O  O18  1  0.945723  0.556323  0.556323  1
  O  O19  1  0.529025  0.962066  0.962066  1
  O  O20  1  0.230452  0.256217  0.256217  1
  O  O21  1  0.019548  0.993783  0.993783  1
