# generated using pymatgen
data_CeHo15(AlRu)4
_symmetry_space_group_name_H-M   'P 1'
_cell_length_a   9.51719357
_cell_length_b   9.51719364
_cell_length_c   9.51719386
_cell_angle_alpha   59.64657522
_cell_angle_beta   59.64657902
_cell_angle_gamma   59.64656742
_symmetry_Int_Tables_number   1
_chemical_formula_structural   CeHo15(AlRu)4
_chemical_formula_sum   'Ce1 Ho15 Al4 Ru4'
_cell_volume   604.65823096
_cell_formula_units_Z   1
loop_
 _symmetry_equiv_pos_site_id
 _symmetry_equiv_pos_as_xyz
  1  'x, y, z'
loop_
 _atom_site_type_symbol
 _atom_site_label
 _atom_site_symmetry_multiplicity
 _atom_site_fract_x
 _atom_site_fract_y
 _atom_site_fract_z
 _atom_site_occupancy
  Ce  Ce0  1  0.345627  0.345627  0.345627  1
  Ho  Ho1  1  0.561960  0.561960  0.936119  1
  Ho  Ho2  1  0.940037  0.559654  0.940037  1
  Ho  Ho3  1  0.559654  0.940037  0.940037  1
  Ho  Ho4  1  0.940037  0.940037  0.559654  1
  Ho  Ho5  1  0.561960  0.936119  0.561960  1
  Ho  Ho6  1  0.936119  0.561960  0.561960  1
  Ho  Ho7  1  0.194814  0.194814  0.806588  1
  Ho  Ho8  1  0.804911  0.192431  0.804911  1
  Ho  Ho9  1  0.192430  0.804912  0.804911  1
  Ho  Ho10  1  0.804911  0.804912  0.192431  1
  Ho  Ho11  1  0.194813  0.806588  0.194813  1
  Ho  Ho12  1  0.806588  0.194814  0.194814  1
  Ho  Ho13  1  0.351719  0.351719  0.946269  1
  Ho  Ho14  1  0.351719  0.946269  0.351719  1
  Ho  Ho15  1  0.946269  0.351719  0.351719  1
  Al  Al16  1  0.576627  0.576627  0.268153  1
  Al  Al17  1  0.576627  0.268153  0.576627  1
  Al  Al18  1  0.268153  0.576627  0.576627  1
  Al  Al19  1  0.576761  0.576761  0.576761  1
  Ru  Ru20  1  0.145519  0.145519  0.577794  1
  Ru  Ru21  1  0.145519  0.577794  0.145519  1
  Ru  Ru22  1  0.577794  0.145519  0.145519  1
  Ru  Ru23  1  0.139427  0.139427  0.139427  1
