# generated using pymatgen
data_TbDy4(In2Rh)2
_symmetry_space_group_name_H-M   'P 1'
_cell_length_a   3.63702300
_cell_length_b   8.03126900
_cell_length_c   18.35005800
_cell_angle_alpha   90.00000000
_cell_angle_beta   90.00000000
_cell_angle_gamma   90.00000000
_symmetry_Int_Tables_number   1
_chemical_formula_structural   TbDy4(In2Rh)2
_chemical_formula_sum   'Tb2 Dy8 In8 Rh4'
_cell_volume   536.00354400
_cell_formula_units_Z   2
loop_
 _symmetry_equiv_pos_site_id
 _symmetry_equiv_pos_as_xyz
  1  'x, y, z'
loop_
 _atom_site_type_symbol
 _atom_site_label
 _atom_site_symmetry_multiplicity
 _atom_site_fract_x
 _atom_site_fract_y
 _atom_site_fract_z
 _atom_site_occupancy
  Tb  Tb0  1  0.500000  0.500000  0.000000  1
  Tb  Tb1  1  0.500000  0.000000  0.500000  1
  Dy  Dy2  1  0.500000  0.382149  0.588432  1
  Dy  Dy3  1  0.500000  0.882149  0.911568  1
  Dy  Dy4  1  0.500000  0.117851  0.088432  1
  Dy  Dy5  1  0.500000  0.753936  0.721336  1
  Dy  Dy6  1  0.500000  0.253936  0.778664  1
  Dy  Dy7  1  0.500000  0.746064  0.221336  1
  Dy  Dy8  1  0.500000  0.246064  0.278664  1
  Dy  Dy9  1  0.500000  0.617851  0.411568  1
  In  In10  1  0.000000  0.793753  0.068927  1
  In  In11  1  0.000000  0.928196  0.348848  1
  In  In12  1  0.000000  0.071804  0.651152  1
  In  In13  1  0.000000  0.571804  0.848848  1
  In  In14  1  0.000000  0.706247  0.568927  1
  In  In15  1  0.000000  0.206247  0.931073  1
  In  In16  1  0.000000  0.293753  0.431073  1
  In  In17  1  0.000000  0.428196  0.151152  1
  Rh  Rh18  1  0.000000  0.976886  0.805234  1
  Rh  Rh19  1  0.000000  0.523114  0.305234  1
  Rh  Rh20  1  0.000000  0.476886  0.694766  1
  Rh  Rh21  1  0.000000  0.023114  0.194766  1
