# generated using pymatgen
data_Sr2CaInP3
_symmetry_space_group_name_H-M   'P 1'
_cell_length_a   12.70165200
_cell_length_b   4.24642800
_cell_length_c   13.71398100
_cell_angle_alpha   90.00000000
_cell_angle_beta   90.00000000
_cell_angle_gamma   90.00000000
_symmetry_Int_Tables_number   1
_chemical_formula_structural   Sr2CaInP3
_chemical_formula_sum   'Sr8 Ca4 In4 P12'
_cell_volume   739.68620289
_cell_formula_units_Z   4
loop_
 _symmetry_equiv_pos_site_id
 _symmetry_equiv_pos_as_xyz
  1  'x, y, z'
loop_
 _atom_site_type_symbol
 _atom_site_label
 _atom_site_symmetry_multiplicity
 _atom_site_fract_x
 _atom_site_fract_y
 _atom_site_fract_z
 _atom_site_occupancy
  Sr  Sr0  1  0.571045  0.250001  0.392550  1
  Sr  Sr1  1  0.928955  0.750001  0.892550  1
  Sr  Sr2  1  0.071044  0.250001  0.107450  1
  Sr  Sr3  1  0.428955  0.750001  0.607450  1
  Sr  Sr4  1  0.352870  0.250001  0.002491  1
  Sr  Sr5  1  0.147130  0.750001  0.502491  1
  Sr  Sr6  1  0.852870  0.250001  0.497509  1
  Sr  Sr7  1  0.647130  0.750001  0.997509  1
  Ca  Ca8  1  0.274382  0.250001  0.291650  1
  Ca  Ca9  1  0.225618  0.750001  0.791650  1
  Ca  Ca10  1  0.774382  0.250001  0.208350  1
  Ca  Ca11  1  0.725618  0.750001  0.708350  1
  In  In12  1  0.552018  0.250001  0.797789  1
  In  In13  1  0.947982  0.750001  0.297789  1
  In  In14  1  0.052018  0.250001  0.702211  1
  In  In15  1  0.447981  0.750001  0.202211  1
  P  P16  1  0.744450  0.250001  0.866402  1
  P  P17  1  0.755550  0.750001  0.366403  1
  P  P18  1  0.244451  0.250001  0.633598  1
  P  P19  1  0.255549  0.750001  0.133597  1
  P  P20  1  0.053476  0.250001  0.354897  1
  P  P21  1  0.446524  0.750001  0.854897  1
  P  P22  1  0.553476  0.250001  0.145103  1
  P  P23  1  0.946524  0.750001  0.645103  1
  P  P24  1  0.604842  0.250001  0.614320  1
  P  P25  1  0.895159  0.750001  0.114320  1
  P  P26  1  0.104841  0.250001  0.885680  1
  P  P27  1  0.395160  0.750001  0.385680  1
