# generated using pymatgen
data_Y3Co2Sn3Au
_symmetry_space_group_name_H-M   'P 1'
_cell_length_a   7.60192800
_cell_length_b   7.60192907
_cell_length_c   3.77876500
_cell_angle_alpha   90.00000000
_cell_angle_beta   90.00000000
_cell_angle_gamma   119.99999535
_symmetry_Int_Tables_number   1
_chemical_formula_structural   Y3Co2Sn3Au
_chemical_formula_sum   'Y3 Co2 Sn3 Au1'
_cell_volume   189.11592496
_cell_formula_units_Z   1
loop_
 _symmetry_equiv_pos_site_id
 _symmetry_equiv_pos_as_xyz
  1  'x, y, z'
loop_
 _atom_site_type_symbol
 _atom_site_label
 _atom_site_symmetry_multiplicity
 _atom_site_fract_x
 _atom_site_fract_y
 _atom_site_fract_z
 _atom_site_occupancy
  Y  Y0  1  0.411998  0.020174  0.500000  1
  Y  Y1  1  0.979826  0.391824  0.500000  1
  Y  Y2  1  0.608176  0.588002  0.500000  1
  Co  Co3  1  0.666667  0.333333  0.000000  1
  Co  Co4  1  0.000000  0.000000  0.500000  1
  Sn  Sn5  1  0.750182  0.006523  0.000000  1
  Sn  Sn6  1  0.993477  0.743659  0.000000  1
  Sn  Sn7  1  0.256341  0.249818  0.000000  1
  Au  Au8  1  0.333333  0.666667  0.000000  1
