# generated using pymatgen
data_Tb5Dy5(Bi3Cl)2
_symmetry_space_group_name_H-M   'P 1'
_cell_length_a   9.28271600
_cell_length_b   9.28271613
_cell_length_c   6.49775900
_cell_angle_alpha   90.00000000
_cell_angle_beta   90.00000000
_cell_angle_gamma   120.00074049
_symmetry_Int_Tables_number   1
_chemical_formula_structural   Tb5Dy5(Bi3Cl)2
_chemical_formula_sum   'Tb5 Dy5 Bi6 Cl2'
_cell_volume   484.88765119
_cell_formula_units_Z   1
loop_
 _symmetry_equiv_pos_site_id
 _symmetry_equiv_pos_as_xyz
  1  'x, y, z'
loop_
 _atom_site_type_symbol
 _atom_site_label
 _atom_site_symmetry_multiplicity
 _atom_site_fract_x
 _atom_site_fract_y
 _atom_site_fract_z
 _atom_site_occupancy
  Tb  Tb0  1  0.269267  0.000048  0.750000  1
  Tb  Tb1  1  0.730561  0.999911  0.250000  1
  Tb  Tb2  1  0.000048  0.269267  0.750000  1
  Tb  Tb3  1  0.999911  0.730561  0.250000  1
  Tb  Tb4  1  0.730770  0.730770  0.750000  1
  Dy  Dy5  1  0.269484  0.269484  0.250000  1
  Dy  Dy6  1  0.333289  0.666600  0.500015  1
  Dy  Dy7  1  0.666600  0.333289  0.500015  1
  Dy  Dy8  1  0.666600  0.333289  0.999985  1
  Dy  Dy9  1  0.333289  0.666600  0.999985  1
  Bi  Bi10  1  0.614797  0.000024  0.750000  1
  Bi  Bi11  1  0.385036  0.000341  0.250000  1
  Bi  Bi12  1  0.000024  0.614797  0.750000  1
  Bi  Bi13  1  0.000341  0.385036  0.250000  1
  Bi  Bi14  1  0.385085  0.385085  0.750000  1
  Bi  Bi15  1  0.614431  0.614431  0.250000  1
  Cl  Cl16  1  0.000234  0.000234  0.499721  1
  Cl  Cl17  1  0.000234  0.000234  0.000279  1
