# generated using pymatgen
data_AlNi3(RuCl9)2
_symmetry_space_group_name_H-M   'P 1'
_cell_length_a   5.99159071
_cell_length_b   5.99018634
_cell_length_c   19.26945100
_cell_angle_alpha   90.01188922
_cell_angle_beta   90.02798046
_cell_angle_gamma   120.00169941
_symmetry_Int_Tables_number   1
_chemical_formula_structural   AlNi3(RuCl9)2
_chemical_formula_sum   'Al1 Ni3 Ru2 Cl18'
_cell_volume   598.92838554
_cell_formula_units_Z   1
loop_
 _symmetry_equiv_pos_site_id
 _symmetry_equiv_pos_as_xyz
  1  'x, y, z'
loop_
 _atom_site_type_symbol
 _atom_site_label
 _atom_site_symmetry_multiplicity
 _atom_site_fract_x
 _atom_site_fract_y
 _atom_site_fract_z
 _atom_site_occupancy
  Al  Al0  1  0.217464  0.432666  0.166599  1
  Ni  Ni1  1  0.554019  0.106290  0.166410  1
  Ni  Ni2  1  0.888633  0.444370  0.500162  1
  Ni  Ni3  1  0.555488  0.443984  0.833361  1
  Ru  Ru4  1  0.555348  0.777758  0.500003  1
  Ru  Ru5  1  0.222045  0.777541  0.833459  1
  Cl  Cl6  1  0.535011  0.758714  0.764709  1
  Cl  Cl7  1  0.890092  0.758208  0.902082  1
  Cl  Cl8  1  0.534667  0.109730  0.902014  1
  Cl  Cl9  1  0.867839  0.758135  0.431429  1
  Cl  Cl10  1  0.223088  0.465003  0.431501  1
  Cl  Cl11  1  0.906867  0.149124  0.093412  1
  Cl  Cl12  1  0.522287  0.784772  0.234206  1
  Cl  Cl13  1  0.889953  0.464297  0.764687  1
  Cl  Cl14  1  0.241691  0.465053  0.902003  1
  Cl  Cl15  1  0.574212  0.464561  0.568763  1
  Cl  Cl16  1  0.868903  0.109673  0.568816  1
  Cl  Cl17  1  0.223763  0.759224  0.568771  1
  Cl  Cl18  1  0.240242  0.145279  0.238909  1
  Cl  Cl19  1  0.574723  0.109739  0.431500  1
  Cl  Cl20  1  0.875236  0.410339  0.232453  1
  Cl  Cl21  1  0.536719  0.411400  0.100567  1
  Cl  Cl22  1  0.240372  0.109300  0.764675  1
  Cl  Cl23  1  0.261342  0.784837  0.099512  1
