# generated using pymatgen
data_YbThCoIr3
_symmetry_space_group_name_H-M   'P 1'
_cell_length_a   5.23069976
_cell_length_b   5.42066515
_cell_length_c   5.42066500
_cell_angle_alpha   60.00000702
_cell_angle_beta   58.79118592
_cell_angle_gamma   58.79119111
_symmetry_Int_Tables_number   1
_chemical_formula_structural   YbThCoIr3
_chemical_formula_sum   'Yb1 Th1 Co1 Ir3'
_cell_volume   106.65185007
_cell_formula_units_Z   1
loop_
 _symmetry_equiv_pos_site_id
 _symmetry_equiv_pos_as_xyz
  1  'x, y, z'
loop_
 _atom_site_type_symbol
 _atom_site_label
 _atom_site_symmetry_multiplicity
 _atom_site_fract_x
 _atom_site_fract_y
 _atom_site_fract_z
 _atom_site_occupancy
  Yb  Yb0  1  0.747634  0.750789  0.750789  1
  Th  Th1  1  0.501798  0.499401  0.499401  1
  Co  Co2  1  0.626056  0.124648  0.124648  1
  Ir  Ir3  1  0.124837  0.124136  0.124136  1
  Ir  Ir4  1  0.124837  0.124136  0.626891  1
  Ir  Ir5  1  0.124837  0.626891  0.124136  1
