# generated using pymatgen
data_TbYbY8(In2Pt)4
_symmetry_space_group_name_H-M   'P 1'
_cell_length_a   3.63336400
_cell_length_b   8.21421148
_cell_length_c   18.39560748
_cell_angle_alpha   89.89858628
_cell_angle_beta   90.00000000
_cell_angle_gamma   90.00000000
_symmetry_Int_Tables_number   1
_chemical_formula_structural   TbYbY8(In2Pt)4
_chemical_formula_sum   'Tb1 Yb1 Y8 In8 Pt4'
_cell_volume   549.02009718
_cell_formula_units_Z   1
loop_
 _symmetry_equiv_pos_site_id
 _symmetry_equiv_pos_as_xyz
  1  'x, y, z'
loop_
 _atom_site_type_symbol
 _atom_site_label
 _atom_site_symmetry_multiplicity
 _atom_site_fract_x
 _atom_site_fract_y
 _atom_site_fract_z
 _atom_site_occupancy
  Tb  Tb0  1  0.000000  0.743122  0.279379  1
  Yb  Yb1  1  0.000000  0.000091  0.000030  1
  Y  Y2  1  0.000000  0.117369  0.414749  1
  Y  Y3  1  0.000000  0.882632  0.585438  1
  Y  Y4  1  0.000000  0.381117  0.914557  1
  Y  Y5  1  0.000000  0.618616  0.085341  1
  Y  Y6  1  0.000000  0.242973  0.220455  1
  Y  Y7  1  0.000000  0.756954  0.779501  1
  Y  Y8  1  0.000000  0.257227  0.720441  1
  Y  Y9  1  0.000000  0.500093  0.500016  1
  In  In10  1  0.500000  0.424250  0.351106  1
  In  In11  1  0.500000  0.575591  0.649004  1
  In  In12  1  0.500000  0.074599  0.850738  1
  In  In13  1  0.500000  0.925739  0.149072  1
  In  In14  1  0.500000  0.292727  0.067412  1
  In  In15  1  0.500000  0.707191  0.932542  1
  In  In16  1  0.500000  0.207955  0.567057  1
  In  In17  1  0.500000  0.791931  0.432984  1
  Pt  Pt18  1  0.500000  0.023710  0.303178  1
  Pt  Pt19  1  0.500000  0.975953  0.696832  1
  Pt  Pt20  1  0.500000  0.476995  0.802980  1
  Pt  Pt21  1  0.500000  0.523166  0.197186  1
