# generated using pymatgen
data_YSc15(In3Os)2
_symmetry_space_group_name_H-M   'P 1'
_cell_length_a   9.84405400
_cell_length_b   9.84405500
_cell_length_c   6.57631900
_cell_angle_alpha   90.00000000
_cell_angle_beta   90.00000000
_cell_angle_gamma   119.99999662
_symmetry_Int_Tables_number   1
_chemical_formula_structural   YSc15(In3Os)2
_chemical_formula_sum   'Y1 Sc15 In6 Os2'
_cell_volume   551.90145252
_cell_formula_units_Z   1
loop_
 _symmetry_equiv_pos_site_id
 _symmetry_equiv_pos_as_xyz
  1  'x, y, z'
loop_
 _atom_site_type_symbol
 _atom_site_label
 _atom_site_symmetry_multiplicity
 _atom_site_fract_x
 _atom_site_fract_y
 _atom_site_fract_z
 _atom_site_occupancy
  Y  Y0  1  0.000000  0.000000  0.994894  1
  Sc  Sc1  1  0.472612  0.527388  0.484416  1
  Sc  Sc2  1  0.054776  0.527388  0.484416  1
  Sc  Sc3  1  0.472612  0.945224  0.484416  1
  Sc  Sc4  1  0.527832  0.472168  0.984243  1
  Sc  Sc5  1  0.944337  0.472168  0.984243  1
  Sc  Sc6  1  0.527832  0.055663  0.984243  1
  Sc  Sc7  1  0.820598  0.179402  0.271549  1
  Sc  Sc8  1  0.358803  0.179402  0.271549  1
  Sc  Sc9  1  0.820598  0.641197  0.271549  1
  Sc  Sc10  1  0.179461  0.820539  0.768626  1
  Sc  Sc11  1  0.641079  0.820539  0.768626  1
  Sc  Sc12  1  0.179461  0.358921  0.768626  1
  Sc  Sc13  1  0.333333  0.666667  0.104434  1
  Sc  Sc14  1  0.666667  0.333333  0.602234  1
  Sc  Sc15  1  0.000000  0.000000  0.495410  1
  In  In16  1  0.164611  0.835389  0.242432  1
  In  In17  1  0.670778  0.835389  0.242432  1
  In  In18  1  0.164611  0.329222  0.242432  1
  In  In19  1  0.835431  0.164569  0.734720  1
  In  In20  1  0.329139  0.164569  0.734720  1
  In  In21  1  0.835431  0.670861  0.734720  1
  Os  Os22  1  0.333333  0.666667  0.695478  1
  Os  Os23  1  0.666667  0.333333  0.194149  1
