# generated using pymatgen
data_Rb2BeI4
_symmetry_space_group_name_H-M   'P 1'
_cell_length_a   8.20764500
_cell_length_b   7.75278243
_cell_length_c   10.45421433
_cell_angle_alpha   70.76910504
_cell_angle_beta   90.00000000
_cell_angle_gamma   90.00000000
_symmetry_Int_Tables_number   1
_chemical_formula_structural   Rb2BeI4
_chemical_formula_sum   'Rb4 Be2 I8'
_cell_volume   628.10326537
_cell_formula_units_Z   2
loop_
 _symmetry_equiv_pos_site_id
 _symmetry_equiv_pos_as_xyz
  1  'x, y, z'
loop_
 _atom_site_type_symbol
 _atom_site_label
 _atom_site_symmetry_multiplicity
 _atom_site_fract_x
 _atom_site_fract_y
 _atom_site_fract_z
 _atom_site_occupancy
  Rb  Rb0  1  0.250000  0.698874  0.962726  1
  Rb  Rb1  1  0.750000  0.301126  0.037274  1
  Rb  Rb2  1  0.750000  0.199517  0.586728  1
  Rb  Rb3  1  0.250000  0.800483  0.413272  1
  Be  Be4  1  0.750000  0.692108  0.215450  1
  Be  Be5  1  0.250000  0.307892  0.784550  1
  I  I6  1  0.250000  0.149826  0.029802  1
  I  I7  1  0.750000  0.850174  0.970198  1
  I  I8  1  0.250000  0.100326  0.652935  1
  I  I9  1  0.750000  0.899674  0.347065  1
  I  I10  1  0.011926  0.504887  0.725702  1
  I  I11  1  0.511926  0.495113  0.274298  1
  I  I12  1  0.988074  0.495113  0.274298  1
  I  I13  1  0.488074  0.504887  0.725702  1
