# generated using pymatgen
data_Na6Th2O7
_symmetry_space_group_name_H-M   'P 1'
_cell_length_a   6.91838275
_cell_length_b   6.91838231
_cell_length_c   11.65772474
_cell_angle_alpha   80.82536363
_cell_angle_beta   80.82536684
_cell_angle_gamma   59.37426736
_symmetry_Int_Tables_number   1
_chemical_formula_structural   Na6Th2O7
_chemical_formula_sum   'Na12 Th4 O14'
_cell_volume   471.99774796
_cell_formula_units_Z   2
loop_
 _symmetry_equiv_pos_site_id
 _symmetry_equiv_pos_as_xyz
  1  'x, y, z'
loop_
 _atom_site_type_symbol
 _atom_site_label
 _atom_site_symmetry_multiplicity
 _atom_site_fract_x
 _atom_site_fract_y
 _atom_site_fract_z
 _atom_site_occupancy
  Na  Na0  1  0.537145  0.327689  0.110190  1
  Na  Na1  1  0.078642  0.788094  0.092109  1
  Na  Na2  1  0.327689  0.537145  0.610190  1
  Na  Na3  1  0.788094  0.078642  0.592109  1
  Na  Na4  1  0.670705  0.924157  0.387681  1
  Na  Na5  1  0.924157  0.670705  0.887681  1
  Na  Na6  1  0.075843  0.329295  0.112319  1
  Na  Na7  1  0.329295  0.075843  0.612319  1
  Na  Na8  1  0.211906  0.921358  0.407891  1
  Na  Na9  1  0.672311  0.462855  0.389810  1
  Na  Na10  1  0.921358  0.211906  0.907891  1
  Na  Na11  1  0.462855  0.672311  0.889810  1
  Th  Th12  1  0.193437  0.440662  0.363814  1
  Th  Th13  1  0.440662  0.193437  0.863814  1
  Th  Th14  1  0.559338  0.806563  0.136186  1
  Th  Th15  1  0.806563  0.559338  0.636186  1
  O  O16  1  0.486628  0.265630  0.471090  1
  O  O17  1  0.265630  0.486628  0.971090  1
  O  O18  1  0.717319  0.998658  0.000740  1
  O  O19  1  0.873522  0.630479  0.249204  1
  O  O20  1  0.369521  0.126478  0.250796  1
  O  O21  1  0.998658  0.717319  0.500740  1
  O  O22  1  0.001342  0.282681  0.499260  1
  O  O23  1  0.630479  0.873522  0.749204  1
  O  O24  1  0.126478  0.369521  0.750796  1
  O  O25  1  0.282681  0.001342  0.999260  1
  O  O26  1  0.734370  0.513372  0.028910  1
  O  O27  1  0.355527  0.644473  0.250000  1
  O  O28  1  0.513372  0.734370  0.528910  1
  O  O29  1  0.644473  0.355527  0.750000  1
