# generated using pymatgen
data_CaNdV2O6
_symmetry_space_group_name_H-M   'P 1'
_cell_length_a   5.45124548
_cell_length_b   5.55612082
_cell_length_c   7.81328300
_cell_angle_alpha   90.00000000
_cell_angle_beta   90.00000000
_cell_angle_gamma   89.55372712
_symmetry_Int_Tables_number   1
_chemical_formula_structural   CaNdV2O6
_chemical_formula_sum   'Ca2 Nd2 V4 O12'
_cell_volume   236.63980629
_cell_formula_units_Z   2
loop_
 _symmetry_equiv_pos_site_id
 _symmetry_equiv_pos_as_xyz
  1  'x, y, z'
loop_
 _atom_site_type_symbol
 _atom_site_label
 _atom_site_symmetry_multiplicity
 _atom_site_fract_x
 _atom_site_fract_y
 _atom_site_fract_z
 _atom_site_occupancy
  Ca  Ca0  1  0.009737  0.454550  0.250000  1
  Ca  Ca1  1  0.990263  0.545450  0.750000  1
  Nd  Nd2  1  0.509638  0.046774  0.750000  1
  Nd  Nd3  1  0.490362  0.953226  0.250000  1
  V  V4  1  0.000000  0.000000  0.000000  1
  V  V5  1  0.500000  0.500000  0.000000  1
  V  V6  1  0.000000  0.000000  0.500000  1
  V  V7  1  0.500000  0.500000  0.500000  1
  O  O8  1  0.296542  0.204141  0.039551  1
  O  O9  1  0.703458  0.795859  0.960449  1
  O  O10  1  0.803235  0.275054  0.951623  1
  O  O11  1  0.703458  0.795859  0.539551  1
  O  O12  1  0.196765  0.724946  0.048377  1
  O  O13  1  0.296542  0.204141  0.460449  1
  O  O14  1  0.196765  0.724946  0.451623  1
  O  O15  1  0.803235  0.275054  0.548377  1
  O  O16  1  0.584067  0.519254  0.250000  1
  O  O17  1  0.415933  0.480746  0.750000  1
  O  O18  1  0.085206  0.969595  0.750000  1
  O  O19  1  0.914794  0.030405  0.250000  1
