# generated using pymatgen
data_Dy2Y6Cd2IrRu
_symmetry_space_group_name_H-M   'P 1'
_cell_length_a   9.65911803
_cell_length_b   9.65911787
_cell_length_c   9.69499200
_cell_angle_alpha   59.87706506
_cell_angle_beta   59.87706560
_cell_angle_gamma   59.78870347
_symmetry_Int_Tables_number   1
_chemical_formula_structural   Dy2Y6Cd2IrRu
_chemical_formula_sum   'Dy4 Y12 Cd4 Ir2 Ru2'
_cell_volume   637.38548365
_cell_formula_units_Z   2
loop_
 _symmetry_equiv_pos_site_id
 _symmetry_equiv_pos_as_xyz
  1  'x, y, z'
loop_
 _atom_site_type_symbol
 _atom_site_label
 _atom_site_symmetry_multiplicity
 _atom_site_fract_x
 _atom_site_fract_y
 _atom_site_fract_z
 _atom_site_occupancy
  Dy  Dy0  1  0.347785  0.347785  0.347512  1
  Dy  Dy1  1  0.347785  0.347785  0.956919  1
  Dy  Dy2  1  0.347066  0.959249  0.346843  1
  Dy  Dy3  1  0.959249  0.347066  0.346843  1
  Y  Y4  1  0.811550  0.188407  0.190546  1
  Y  Y5  1  0.188407  0.811550  0.809497  1
  Y  Y6  1  0.188407  0.811550  0.190546  1
  Y  Y7  1  0.811550  0.188407  0.809497  1
  Y  Y8  1  0.188487  0.188487  0.811513  1
  Y  Y9  1  0.808925  0.808925  0.191075  1
  Y  Y10  1  0.938768  0.559639  0.562665  1
  Y  Y11  1  0.559639  0.938768  0.938928  1
  Y  Y12  1  0.559639  0.938768  0.562665  1
  Y  Y13  1  0.938768  0.559639  0.938928  1
  Y  Y14  1  0.561068  0.561068  0.938932  1
  Y  Y15  1  0.939089  0.939089  0.560911  1
  Cd  Cd16  1  0.580246  0.580246  0.580641  1
  Cd  Cd17  1  0.580246  0.580246  0.258870  1
  Cd  Cd18  1  0.580282  0.258132  0.580794  1
  Cd  Cd19  1  0.258132  0.580282  0.580794  1
  Ir  Ir20  1  0.144111  0.576017  0.139936  1
  Ir  Ir21  1  0.576017  0.144111  0.139936  1
  Ru  Ru22  1  0.142395  0.142395  0.138216  1
  Ru  Ru23  1  0.142395  0.142395  0.576994  1
