# generated using pymatgen
data_TiZnCo20SnB6
_symmetry_space_group_name_H-M   'P 1'
_cell_length_a   7.45344753
_cell_length_b   7.45479087
_cell_length_c   7.45436801
_cell_angle_alpha   59.99870735
_cell_angle_beta   59.99512075
_cell_angle_gamma   59.99464537
_symmetry_Int_Tables_number   1
_chemical_formula_structural   TiZnCo20SnB6
_chemical_formula_sum   'Ti1 Zn1 Co20 Sn1 B6'
_cell_volume   292.85366201
_cell_formula_units_Z   1
loop_
 _symmetry_equiv_pos_site_id
 _symmetry_equiv_pos_as_xyz
  1  'x, y, z'
loop_
 _atom_site_type_symbol
 _atom_site_label
 _atom_site_symmetry_multiplicity
 _atom_site_fract_x
 _atom_site_fract_y
 _atom_site_fract_z
 _atom_site_occupancy
  Ti  Ti0  1  0.749903  0.750022  0.750034  1
  Zn  Zn1  1  0.000064  0.999987  0.000001  1
  Co  Co2  1  0.840633  0.386483  0.386391  1
  Co  Co3  1  0.386484  0.840555  0.386432  1
  Co  Co4  1  0.386457  0.386490  0.840548  1
  Co  Co5  1  0.386482  0.386500  0.386410  1
  Co  Co6  1  0.144915  0.618266  0.618336  1
  Co  Co7  1  0.618342  0.144910  0.618291  1
  Co  Co8  1  0.618363  0.618240  0.144920  1
  Co  Co9  1  0.618460  0.618341  0.618401  1
  Co  Co10  1  0.662036  0.997595  0.997600  1
  Co  Co11  1  0.662050  0.997658  0.342790  1
  Co  Co12  1  0.662022  0.342812  0.997666  1
  Co  Co13  1  0.997637  0.662037  0.342764  1
  Co  Co14  1  0.997565  0.662023  0.997641  1
  Co  Co15  1  0.342766  0.662071  0.997659  1
  Co  Co16  1  0.997631  0.342795  0.662020  1
  Co  Co17  1  0.342764  0.997652  0.662083  1
  Co  Co18  1  0.997562  0.997629  0.662035  1
  Co  Co19  1  0.342718  0.997598  0.997599  1
  Co  Co20  1  0.997570  0.342751  0.997653  1
  Co  Co21  1  0.997582  0.997660  0.342706  1
  Sn  Sn22  1  0.249842  0.250023  0.250109  1
  B  B23  1  0.724077  0.275881  0.275852  1
  B  B24  1  0.724199  0.275867  0.724149  1
  B  B25  1  0.724216  0.724122  0.275855  1
  B  B26  1  0.275896  0.724160  0.724188  1
  B  B27  1  0.275886  0.724050  0.275806  1
  B  B28  1  0.275878  0.275820  0.724059  1
