# generated using pymatgen
data_Lu3In3AgIr2
_symmetry_space_group_name_H-M   'P 1'
_cell_length_a   7.68351400
_cell_length_b   7.68351286
_cell_length_c   3.80223600
_cell_angle_alpha   90.00000000
_cell_angle_beta   90.00000000
_cell_angle_gamma   120.00000490
_symmetry_Int_Tables_number   1
_chemical_formula_structural   Lu3In3AgIr2
_chemical_formula_sum   'Lu3 In3 Ag1 Ir2'
_cell_volume   194.39692426
_cell_formula_units_Z   1
loop_
 _symmetry_equiv_pos_site_id
 _symmetry_equiv_pos_as_xyz
  1  'x, y, z'
loop_
 _atom_site_type_symbol
 _atom_site_label
 _atom_site_symmetry_multiplicity
 _atom_site_fract_x
 _atom_site_fract_y
 _atom_site_fract_z
 _atom_site_occupancy
  Lu  Lu0  1  0.968992  0.380482  0.500000  1
  Lu  Lu1  1  0.619518  0.588510  0.500000  1
  Lu  Lu2  1  0.411490  0.031008  0.500000  1
  In  In3  1  0.004281  0.740403  0.000000  1
  In  In4  1  0.259597  0.263878  0.000000  1
  In  In5  1  0.736122  0.995719  0.000000  1
  Ag  Ag6  1  0.333333  0.666667  0.000000  1
  Ir  Ir7  1  0.666667  0.333333  0.000000  1
  Ir  Ir8  1  0.000000  0.000000  0.500000  1
