# generated using pymatgen
data_Hf5ZrBI12
_symmetry_space_group_name_H-M   'P 1'
_cell_length_a   9.29761583
_cell_length_b   9.25960876
_cell_length_c   9.33696023
_cell_angle_alpha   106.98765528
_cell_angle_beta   106.86146291
_cell_angle_gamma   106.68296811
_symmetry_Int_Tables_number   1
_chemical_formula_structural   Hf5ZrBI12
_chemical_formula_sum   'Hf5 Zr1 B1 I12'
_cell_volume   672.27009360
_cell_formula_units_Z   1
loop_
 _symmetry_equiv_pos_site_id
 _symmetry_equiv_pos_as_xyz
  1  'x, y, z'
loop_
 _atom_site_type_symbol
 _atom_site_label
 _atom_site_symmetry_multiplicity
 _atom_site_fract_x
 _atom_site_fract_y
 _atom_site_fract_z
 _atom_site_occupancy
  Hf  Hf0  1  0.973656  0.731893  0.912542  1
  Hf  Hf1  1  0.267575  0.087667  0.027036  1
  Hf  Hf2  1  0.086436  0.027095  0.265433  1
  Hf  Hf3  1  0.914064  0.975329  0.735638  1
  Hf  Hf4  1  0.734765  0.914320  0.973793  1
  Zr  Zr5  1  0.026278  0.270798  0.087923  1
  B  B6  1  0.001060  0.998934  0.999770  1
  I  I7  1  0.920906  0.304138  0.772936  1
  I  I8  1  0.689040  0.219752  0.076512  1
  I  I9  1  0.435376  0.138349  0.362298  1
  I  I10  1  0.861145  0.637436  0.564293  1
  I  I11  1  0.222074  0.076551  0.697209  1
  I  I12  1  0.637472  0.563052  0.860355  1
  I  I13  1  0.367653  0.438048  0.140099  1
  I  I14  1  0.777355  0.922109  0.301851  1
  I  I15  1  0.140659  0.363108  0.440234  1
  I  I16  1  0.564500  0.861103  0.638250  1
  I  I17  1  0.302830  0.775303  0.922068  1
  I  I18  1  0.077157  0.695015  0.221761  1
