# generated using pymatgen
data_Sm4Al6TcRu
_symmetry_space_group_name_H-M   'P 1'
_cell_length_a   5.61002600
_cell_length_b   5.61002684
_cell_length_c   8.91743000
_cell_angle_alpha   90.00000000
_cell_angle_beta   90.00000000
_cell_angle_gamma   119.99999506
_symmetry_Int_Tables_number   1
_chemical_formula_structural   Sm4Al6TcRu
_chemical_formula_sum   'Sm4 Al6 Tc1 Ru1'
_cell_volume   243.05254626
_cell_formula_units_Z   1
loop_
 _symmetry_equiv_pos_site_id
 _symmetry_equiv_pos_as_xyz
  1  'x, y, z'
loop_
 _atom_site_type_symbol
 _atom_site_label
 _atom_site_symmetry_multiplicity
 _atom_site_fract_x
 _atom_site_fract_y
 _atom_site_fract_z
 _atom_site_occupancy
  Sm  Sm0  1  0.333333  0.666667  0.948857  1
  Sm  Sm1  1  0.666667  0.333333  0.051143  1
  Sm  Sm2  1  0.666667  0.333333  0.449240  1
  Sm  Sm3  1  0.333333  0.666667  0.550760  1
  Al  Al4  1  0.839536  0.160464  0.748314  1
  Al  Al5  1  0.839536  0.679074  0.748314  1
  Al  Al6  1  0.320926  0.160464  0.748314  1
  Al  Al7  1  0.160464  0.839536  0.251686  1
  Al  Al8  1  0.160464  0.320926  0.251686  1
  Al  Al9  1  0.679074  0.839536  0.251686  1
  Tc  Tc10  1  0.000000  0.000000  0.000000  1
  Ru  Ru11  1  0.000000  0.000000  0.500000  1
