# generated using pymatgen
data_Li4VNi9As7
_symmetry_space_group_name_H-M   'P 1'
_cell_length_a   9.42025619
_cell_length_b   9.41974616
_cell_length_c   3.74772600
_cell_angle_alpha   90.00000000
_cell_angle_beta   90.00000000
_cell_angle_gamma   120.02423535
_symmetry_Int_Tables_number   1
_chemical_formula_structural   Li4VNi9As7
_chemical_formula_sum   'Li4 V1 Ni9 As7'
_cell_volume   287.93487159
_cell_formula_units_Z   1
loop_
 _symmetry_equiv_pos_site_id
 _symmetry_equiv_pos_as_xyz
  1  'x, y, z'
loop_
 _atom_site_type_symbol
 _atom_site_label
 _atom_site_symmetry_multiplicity
 _atom_site_fract_x
 _atom_site_fract_y
 _atom_site_fract_z
 _atom_site_occupancy
  Li  Li0  1  0.446653  0.214002  0.500000  1
  Li  Li1  1  0.786406  0.234091  0.500000  1
  Li  Li2  1  0.334959  0.667133  0.000000  1
  Li  Li3  1  0.998631  0.999939  0.500000  1
  V  V4  1  0.759047  0.550487  0.500000  1
  Ni  Ni5  1  0.278622  0.376032  0.500000  1
  Ni  Ni6  1  0.625428  0.901751  0.500000  1
  Ni  Ni7  1  0.099692  0.720839  0.500000  1
  Ni  Ni8  1  0.497875  0.451616  0.000000  1
  Ni  Ni9  1  0.547699  0.047090  0.000000  1
  Ni  Ni10  1  0.956863  0.502121  0.000000  1
  Ni  Ni11  1  0.718789  0.761715  0.000000  1
  Ni  Ni12  1  0.235758  0.954302  0.000000  1
  Ni  Ni13  1  0.044386  0.282990  0.000000  1
  As  As14  1  0.959810  0.753934  0.000000  1
  As  As15  1  0.241233  0.205209  0.000000  1
  As  As16  1  0.794262  0.037819  0.000000  1
  As  As17  1  0.671232  0.339436  0.000000  1
  As  As18  1  0.537855  0.622140  0.500000  1
  As  As19  1  0.376868  0.913197  0.500000  1
  As  As20  1  0.087934  0.464155  0.500000  1
