# generated using pymatgen
data_Cd3IO6
_symmetry_space_group_name_H-M   'P 1'
_cell_length_a   5.77311000
_cell_length_b   5.64296026
_cell_length_c   10.04746640
_cell_angle_alpha   55.95822375
_cell_angle_beta   90.00000000
_cell_angle_gamma   90.00000000
_symmetry_Int_Tables_number   1
_chemical_formula_structural   Cd3IO6
_chemical_formula_sum   'Cd6 I2 O12'
_cell_volume   271.22757652
_cell_formula_units_Z   2
loop_
 _symmetry_equiv_pos_site_id
 _symmetry_equiv_pos_as_xyz
  1  'x, y, z'
loop_
 _atom_site_type_symbol
 _atom_site_label
 _atom_site_symmetry_multiplicity
 _atom_site_fract_x
 _atom_site_fract_y
 _atom_site_fract_z
 _atom_site_occupancy
  Cd  Cd0  1  0.955413  0.248062  0.240256  1
  Cd  Cd1  1  0.455413  0.751938  0.259744  1
  Cd  Cd2  1  0.044587  0.751938  0.759744  1
  Cd  Cd3  1  0.544587  0.248062  0.740256  1
  Cd  Cd4  1  0.000000  0.500000  0.500000  1
  Cd  Cd5  1  0.500000  0.500000  0.000000  1
  I  I6  1  0.000000  0.000000  0.000000  1
  I  I7  1  0.500000  0.000000  0.500000  1
  O  O8  1  0.281783  0.913706  0.915946  1
  O  O9  1  0.781783  0.086294  0.584054  1
  O  O10  1  0.718217  0.086294  0.084054  1
  O  O11  1  0.218217  0.913706  0.415946  1
  O  O12  1  0.178242  0.240965  0.051274  1
  O  O13  1  0.678242  0.759035  0.448726  1
  O  O14  1  0.821758  0.759035  0.948726  1
  O  O15  1  0.321758  0.240965  0.551274  1
  O  O16  1  0.422042  0.654186  0.723621  1
  O  O17  1  0.922042  0.345814  0.776379  1
  O  O18  1  0.577958  0.345814  0.276379  1
  O  O19  1  0.077958  0.654186  0.223621  1
