# generated using pymatgen
data_RbCdGeP2
_symmetry_space_group_name_H-M   'P 1'
_cell_length_a   8.35102365
_cell_length_b   8.55670904
_cell_length_c   8.63644370
_cell_angle_alpha   69.72417307
_cell_angle_beta   75.26217231
_cell_angle_gamma   72.67840108
_symmetry_Int_Tables_number   1
_chemical_formula_structural   RbCdGeP2
_chemical_formula_sum   'Rb4 Cd4 Ge4 P8'
_cell_volume   544.70570814
_cell_formula_units_Z   4
loop_
 _symmetry_equiv_pos_site_id
 _symmetry_equiv_pos_as_xyz
  1  'x, y, z'
loop_
 _atom_site_type_symbol
 _atom_site_label
 _atom_site_symmetry_multiplicity
 _atom_site_fract_x
 _atom_site_fract_y
 _atom_site_fract_z
 _atom_site_occupancy
  Rb  Rb0  1  0.452860  0.759526  0.319651  1
  Rb  Rb1  1  0.547140  0.240474  0.680349  1
  Rb  Rb2  1  0.442459  0.799434  0.810726  1
  Rb  Rb3  1  0.557541  0.200566  0.189274  1
  Cd  Cd4  1  0.994216  0.898091  0.692956  1
  Cd  Cd5  1  0.005784  0.101909  0.307044  1
  Cd  Cd6  1  0.960607  0.810806  0.170841  1
  Cd  Cd7  1  0.039393  0.189194  0.829159  1
  Ge  Ge8  1  0.960706  0.590249  0.597789  1
  Ge  Ge9  1  0.039294  0.409751  0.402211  1
  Ge  Ge10  1  0.154684  0.449214  0.975379  1
  Ge  Ge11  1  0.845316  0.550786  0.024621  1
  P  P12  1  0.817215  0.870811  0.459553  1
  P  P13  1  0.182785  0.129189  0.540447  1
  P  P14  1  0.789053  0.403386  0.314156  1
  P  P15  1  0.210947  0.596614  0.685844  1
  P  P16  1  0.767117  0.854643  0.962607  1
  P  P17  1  0.232883  0.145357  0.037393  1
  P  P18  1  0.775002  0.451489  0.829149  1
  P  P19  1  0.224998  0.548511  0.170851  1
