# generated using pymatgen
data_Ca6Ag2Ir
_symmetry_space_group_name_H-M   'P 1'
_cell_length_a   8.22705800
_cell_length_b   8.22705830
_cell_length_c   4.41616000
_cell_angle_alpha   90.00000000
_cell_angle_beta   90.00000000
_cell_angle_gamma   120.00000682
_symmetry_Int_Tables_number   1
_chemical_formula_structural   Ca6Ag2Ir
_chemical_formula_sum   'Ca6 Ag2 Ir1'
_cell_volume   258.85975497
_cell_formula_units_Z   1
loop_
 _symmetry_equiv_pos_site_id
 _symmetry_equiv_pos_as_xyz
  1  'x, y, z'
loop_
 _atom_site_type_symbol
 _atom_site_label
 _atom_site_symmetry_multiplicity
 _atom_site_fract_x
 _atom_site_fract_y
 _atom_site_fract_z
 _atom_site_occupancy
  Ca  Ca0  1  0.757764  0.000000  0.000000  1
  Ca  Ca1  1  0.242237  0.242236  0.000000  1
  Ca  Ca2  1  0.000000  0.757764  0.000000  1
  Ca  Ca3  1  0.395601  0.000000  0.500001  1
  Ca  Ca4  1  0.000000  0.395601  0.500001  1
  Ca  Ca5  1  0.604399  0.604399  0.500001  1
  Ag  Ag6  1  0.666667  0.333333  0.000000  1
  Ag  Ag7  1  0.333333  0.666666  0.000000  1
  Ir  Ir8  1  0.000000  0.000000  0.500001  1
