# generated using pymatgen
data_Er3Tm5(Si3Rh)4
_symmetry_space_group_name_H-M   'P 1'
_cell_length_a   8.14080100
_cell_length_b   8.14289671
_cell_length_c   7.78173200
_cell_angle_alpha   90.00000000
_cell_angle_beta   90.00000000
_cell_angle_gamma   119.99149080
_symmetry_Int_Tables_number   1
_chemical_formula_structural   Er3Tm5(Si3Rh)4
_chemical_formula_sum   'Er3 Tm5 Si12 Rh4'
_cell_volume   446.77637291
_cell_formula_units_Z   1
loop_
 _symmetry_equiv_pos_site_id
 _symmetry_equiv_pos_as_xyz
  1  'x, y, z'
loop_
 _atom_site_type_symbol
 _atom_site_label
 _atom_site_symmetry_multiplicity
 _atom_site_fract_x
 _atom_site_fract_y
 _atom_site_fract_z
 _atom_site_occupancy
  Er  Er0  1  0.509201  0.018403  0.250000  1
  Er  Er1  1  0.000001  0.000001  0.750000  1
  Er  Er2  1  0.999969  0.999938  0.250000  1
  Tm  Tm3  1  0.981922  0.491022  0.250000  1
  Tm  Tm4  1  0.509099  0.491022  0.250000  1
  Tm  Tm5  1  0.490893  0.981786  0.750000  1
  Tm  Tm6  1  0.018207  0.509097  0.750000  1
  Tm  Tm7  1  0.490891  0.509097  0.750000  1
  Si  Si8  1  0.166853  0.833031  0.499944  1
  Si  Si9  1  0.166923  0.333844  0.499883  1
  Si  Si10  1  0.666179  0.833031  0.499944  1
  Si  Si11  1  0.333795  0.166995  0.999616  1
  Si  Si12  1  0.833051  0.666104  0.500170  1
  Si  Si13  1  0.833199  0.166995  0.999616  1
  Si  Si14  1  0.833051  0.666104  0.999830  1
  Si  Si15  1  0.166923  0.333844  0.000117  1
  Si  Si16  1  0.666179  0.833031  0.000056  1
  Si  Si17  1  0.333795  0.166995  0.500384  1
  Si  Si18  1  0.833199  0.166995  0.500384  1
  Si  Si19  1  0.166853  0.833031  0.000056  1
  Rh  Rh20  1  0.333134  0.666269  0.033929  1
  Rh  Rh21  1  0.666774  0.333547  0.965406  1
  Rh  Rh22  1  0.666774  0.333547  0.534594  1
  Rh  Rh23  1  0.333134  0.666269  0.466071  1
