# generated using pymatgen
data_Tm5HfAuO12
_symmetry_space_group_name_H-M   'P 1'
_cell_length_a   6.34624911
_cell_length_b   6.35246960
_cell_length_c   6.37633094
_cell_angle_alpha   99.47150916
_cell_angle_beta   98.68962417
_cell_angle_gamma   98.88530132
_symmetry_Int_Tables_number   1
_chemical_formula_structural   Tm5HfAuO12
_chemical_formula_sum   'Tm5 Hf1 Au1 O12'
_cell_volume   246.36777404
_cell_formula_units_Z   1
loop_
 _symmetry_equiv_pos_site_id
 _symmetry_equiv_pos_as_xyz
  1  'x, y, z'
loop_
 _atom_site_type_symbol
 _atom_site_label
 _atom_site_symmetry_multiplicity
 _atom_site_fract_x
 _atom_site_fract_y
 _atom_site_fract_z
 _atom_site_occupancy
  Tm  Tm0  1  0.390101  0.690691  0.854662  1
  Tm  Tm1  1  0.858408  0.388795  0.691859  1
  Tm  Tm2  1  0.310500  0.143818  0.609944  1
  Tm  Tm3  1  0.610289  0.310678  0.140477  1
  Tm  Tm4  1  0.140795  0.610391  0.308091  1
  Hf  Hf5  1  0.685934  0.856155  0.387404  1
  Au  Au6  1  0.997097  0.996430  0.000272  1
  O  O7  1  0.444392  0.605725  0.183575  1
  O  O8  1  0.176017  0.434602  0.582697  1
  O  O9  1  0.596975  0.167439  0.428322  1
  O  O10  1  0.563398  0.408576  0.821260  1
  O  O11  1  0.816212  0.582434  0.417419  1
  O  O12  1  0.432722  0.824173  0.564660  1
  O  O13  1  0.926850  0.035708  0.681289  1
  O  O14  1  0.951250  0.312567  0.061282  1
  O  O15  1  0.309296  0.062884  0.947830  1
  O  O16  1  0.053343  0.952685  0.315267  1
  O  O17  1  0.048371  0.684456  0.941125  1
  O  O18  1  0.688050  0.931794  0.062564  1
