# generated using pymatgen
data_La9Dy(Ga2Pb)2
_symmetry_space_group_name_H-M   'P 1'
_cell_length_a   8.56220100
_cell_length_b   8.56220100
_cell_length_c   13.15009700
_cell_angle_alpha   90.00000000
_cell_angle_beta   90.00000000
_cell_angle_gamma   90.00000000
_symmetry_Int_Tables_number   1
_chemical_formula_structural   La9Dy(Ga2Pb)2
_chemical_formula_sum   'La18 Dy2 Ga8 Pb4'
_cell_volume   964.05052163
_cell_formula_units_Z   2
loop_
 _symmetry_equiv_pos_site_id
 _symmetry_equiv_pos_as_xyz
  1  'x, y, z'
loop_
 _atom_site_type_symbol
 _atom_site_label
 _atom_site_symmetry_multiplicity
 _atom_site_fract_x
 _atom_site_fract_y
 _atom_site_fract_z
 _atom_site_occupancy
  La  La0  1  0.837985  0.831237  0.897653  1
  La  La1  1  0.167805  0.163911  0.598942  1
  La  La2  1  0.836089  0.167805  0.401058  1
  La  La3  1  0.163911  0.832195  0.401058  1
  La  La4  1  0.332195  0.336089  0.401058  1
  La  La5  1  0.831237  0.162015  0.102347  1
  La  La6  1  0.331237  0.662015  0.897653  1
  La  La7  1  0.168763  0.837985  0.102347  1
  La  La8  1  0.500000  0.000000  0.763866  1
  La  La9  1  0.000000  0.500000  0.236134  1
  La  La10  1  0.336089  0.667805  0.598942  1
  La  La11  1  0.662015  0.668763  0.102347  1
  La  La12  1  0.663911  0.332195  0.598942  1
  La  La13  1  0.832195  0.836089  0.598942  1
  La  La14  1  0.668763  0.337985  0.897653  1
  La  La15  1  0.162015  0.168763  0.897653  1
  La  La16  1  0.667805  0.663911  0.401058  1
  La  La17  1  0.337985  0.331237  0.102347  1
  Dy  Dy18  1  0.000000  0.500000  0.740698  1
  Dy  Dy19  1  0.500000  0.000000  0.259302  1
  Ga  Ga20  1  0.629497  0.363456  0.252778  1
  Ga  Ga21  1  0.370503  0.636544  0.252778  1
  Ga  Ga22  1  0.136544  0.129497  0.252778  1
  Ga  Ga23  1  0.363456  0.370503  0.747222  1
  Ga  Ga24  1  0.129497  0.863456  0.747222  1
  Ga  Ga25  1  0.863456  0.870503  0.252778  1
  Ga  Ga26  1  0.636544  0.629497  0.747222  1
  Ga  Ga27  1  0.870503  0.136544  0.747222  1
  Pb  Pb28  1  0.000000  0.500000  0.985618  1
  Pb  Pb29  1  0.500000  0.000000  0.014382  1
  Pb  Pb30  1  0.500000  0.000000  0.503200  1
  Pb  Pb31  1  0.000000  0.500000  0.496800  1
