# generated using pymatgen
data_Y6Co11P12Ir7
_symmetry_space_group_name_H-M   'P 1'
_cell_length_a   3.78837500
_cell_length_b   10.80537651
_cell_length_c   12.52305900
_cell_angle_alpha   89.89055274
_cell_angle_beta   90.00000000
_cell_angle_gamma   90.00000000
_symmetry_Int_Tables_number   1
_chemical_formula_structural   Y6Co11P12Ir7
_chemical_formula_sum   'Y6 Co11 P12 Ir7'
_cell_volume   512.62820845
_cell_formula_units_Z   1
loop_
 _symmetry_equiv_pos_site_id
 _symmetry_equiv_pos_as_xyz
  1  'x, y, z'
loop_
 _atom_site_type_symbol
 _atom_site_label
 _atom_site_symmetry_multiplicity
 _atom_site_fract_x
 _atom_site_fract_y
 _atom_site_fract_z
 _atom_site_occupancy
  Y  Y0  1  0.000000  0.502056  0.522450  1
  Y  Y1  1  0.500000  0.995475  0.481799  1
  Y  Y2  1  0.500000  0.814047  0.200374  1
  Y  Y3  1  0.500000  0.185542  0.197575  1
  Y  Y4  1  0.000000  0.687296  0.797939  1
  Y  Y5  1  0.000000  0.314397  0.802087  1
  Co  Co6  1  0.000000  0.500582  0.990001  1
  Co  Co7  1  0.500000  0.999347  0.009433  1
  Co  Co8  1  0.000000  0.797246  0.571379  1
  Co  Co9  1  0.500000  0.880421  0.713503  1
  Co  Co10  1  0.500000  0.119432  0.716175  1
  Co  Co11  1  0.000000  0.620042  0.285222  1
  Co  Co12  1  0.000000  0.379932  0.283875  1
  Co  Co13  1  0.500000  0.332734  0.994070  1
  Co  Co14  1  0.500000  0.668013  0.994201  1
  Co  Co15  1  0.000000  0.166324  0.005312  1
  Co  Co16  1  0.000000  0.832821  0.005082  1
  P  P17  1  0.500000  0.309679  0.624768  1
  P  P18  1  0.500000  0.698194  0.621712  1
  P  P19  1  0.000000  0.189921  0.376013  1
  P  P20  1  0.000000  0.812029  0.382890  1
  P  P21  1  0.500000  0.500915  0.892605  1
  P  P22  1  0.000000  0.999112  0.107108  1
  P  P23  1  0.500000  0.844133  0.896309  1
  P  P24  1  0.500000  0.155238  0.896842  1
  P  P25  1  0.000000  0.656107  0.102798  1
  P  P26  1  0.000000  0.344010  0.101893  1
  P  P27  1  0.500000  0.500648  0.344298  1
  P  P28  1  0.000000  0.991368  0.653628  1
  Ir  Ir29  1  0.500000  0.298504  0.426568  1
  Ir  Ir30  1  0.500000  0.701729  0.428602  1
  Ir  Ir31  1  0.000000  0.199230  0.574635  1
  Ir  Ir32  1  0.500000  0.500861  0.159254  1
  Ir  Ir33  1  0.000000  0.000920  0.840161  1
  Ir  Ir34  1  0.500000  0.501780  0.707058  1
  Ir  Ir35  1  0.000000  0.999914  0.292382  1
