# generated using pymatgen
data_TbCe7(Si4Mo3)4
_symmetry_space_group_name_H-M   'P 1'
_cell_length_a   6.87987350
_cell_length_b   6.97461997
_cell_length_c   13.02594200
_cell_angle_alpha   89.81332437
_cell_angle_beta   89.95113945
_cell_angle_gamma   89.91894051
_symmetry_Int_Tables_number   1
_chemical_formula_structural   TbCe7(Si4Mo3)4
_chemical_formula_sum   'Tb1 Ce7 Si16 Mo12'
_cell_volume   625.03918676
_cell_formula_units_Z   1
loop_
 _symmetry_equiv_pos_site_id
 _symmetry_equiv_pos_as_xyz
  1  'x, y, z'
loop_
 _atom_site_type_symbol
 _atom_site_label
 _atom_site_symmetry_multiplicity
 _atom_site_fract_x
 _atom_site_fract_y
 _atom_site_fract_z
 _atom_site_occupancy
  Tb  Tb0  1  0.995154  0.165221  0.093786  1
  Ce  Ce1  1  0.494806  0.340418  0.091926  1
  Ce  Ce2  1  0.994814  0.161278  0.407101  1
  Ce  Ce3  1  0.504857  0.660542  0.592773  1
  Ce  Ce4  1  0.003527  0.833932  0.905645  1
  Ce  Ce5  1  0.505338  0.660862  0.908777  1
  Ce  Ce6  1  0.006125  0.838935  0.592768  1
  Ce  Ce7  1  0.494860  0.338586  0.406072  1
  Si  Si8  1  0.655520  0.045568  0.547118  1
  Si  Si9  1  0.154180  0.452301  0.953443  1
  Si  Si10  1  0.341680  0.956866  0.047498  1
  Si  Si11  1  0.844650  0.545917  0.452815  1
  Si  Si12  1  0.346329  0.953689  0.451973  1
  Si  Si13  1  0.845786  0.543961  0.047316  1
  Si  Si14  1  0.657317  0.044648  0.954256  1
  Si  Si15  1  0.154627  0.453610  0.547260  1
  Si  Si16  1  0.537836  0.358873  0.751364  1
  Si  Si17  1  0.037982  0.139155  0.750550  1
  Si  Si18  1  0.462051  0.642271  0.250216  1
  Si  Si19  1  0.962970  0.862690  0.248616  1
  Si  Si20  1  0.807764  0.624457  0.749881  1
  Si  Si21  1  0.308871  0.873147  0.750658  1
  Si  Si22  1  0.190604  0.374207  0.249216  1
  Si  Si23  1  0.693201  0.127613  0.248294  1
  Mo  Mo24  1  0.830332  0.335116  0.626014  1
  Mo  Mo25  1  0.330199  0.162683  0.875331  1
  Mo  Mo26  1  0.166799  0.666124  0.125482  1
  Mo  Mo27  1  0.672096  0.838102  0.373220  1
  Mo  Mo28  1  0.167690  0.663720  0.373570  1
  Mo  Mo29  1  0.667311  0.835480  0.124660  1
  Mo  Mo30  1  0.830828  0.335686  0.874779  1
  Mo  Mo31  1  0.332382  0.163163  0.625994  1
  Mo  Mo32  1  0.668621  0.995519  0.751103  1
  Mo  Mo33  1  0.169224  0.501482  0.750346  1
  Mo  Mo34  1  0.332529  0.004530  0.249986  1
  Mo  Mo35  1  0.831142  0.499646  0.250191  1
