# generated using pymatgen
data_LiMn4(NiP2)2
_symmetry_space_group_name_H-M   'P 1'
_cell_length_a   6.79787635
_cell_length_b   6.78868994
_cell_length_c   3.33239200
_cell_angle_alpha   90.00000000
_cell_angle_beta   90.00000000
_cell_angle_gamma   119.95530950
_symmetry_Int_Tables_number   1
_chemical_formula_structural   LiMn4(NiP2)2
_chemical_formula_sum   'Li1 Mn4 Ni2 P4'
_cell_volume   133.24206326
_cell_formula_units_Z   1
loop_
 _symmetry_equiv_pos_site_id
 _symmetry_equiv_pos_as_xyz
  1  'x, y, z'
loop_
 _atom_site_type_symbol
 _atom_site_label
 _atom_site_symmetry_multiplicity
 _atom_site_fract_x
 _atom_site_fract_y
 _atom_site_fract_z
 _atom_site_occupancy
  Li  Li0  1  0.336944  0.668473  0.000000  1
  Mn  Mn1  1  0.926146  0.463073  0.500000  1
  Mn  Mn2  1  0.873482  0.135216  0.000000  1
  Mn  Mn3  1  0.873482  0.738265  0.000000  1
  Mn  Mn4  1  0.257897  0.128949  0.000000  1
  Ni  Ni5  1  0.530044  0.470688  0.500000  1
  Ni  Ni6  1  0.530044  0.059358  0.500000  1
  P  P7  1  0.664350  0.332174  0.000000  1
  P  P8  1  0.701379  0.850690  0.500000  1
  P  P9  1  0.153115  0.309996  0.500000  1
  P  P10  1  0.153115  0.843119  0.500000  1
