# generated using pymatgen
data_Mn2Zn3Co(PO4)4
_symmetry_space_group_name_H-M   'P 1'
_cell_length_a   5.11321392
_cell_length_b   7.79513619
_cell_length_c   8.65145747
_cell_angle_alpha   90.01331423
_cell_angle_beta   89.92947515
_cell_angle_gamma   94.38456180
_symmetry_Int_Tables_number   1
_chemical_formula_structural   Mn2Zn3Co(PO4)4
_chemical_formula_sum   'Mn2 Zn3 Co1 P4 O16'
_cell_volume   343.82206018
_cell_formula_units_Z   1
loop_
 _symmetry_equiv_pos_site_id
 _symmetry_equiv_pos_as_xyz
  1  'x, y, z'
loop_
 _atom_site_type_symbol
 _atom_site_label
 _atom_site_symmetry_multiplicity
 _atom_site_fract_x
 _atom_site_fract_y
 _atom_site_fract_z
 _atom_site_occupancy
  Mn  Mn0  1  0.000148  0.499931  0.500339  1
  Mn  Mn1  1  0.498712  0.000204  0.000392  1
  Zn  Zn2  1  0.916164  0.383105  0.862900  1
  Zn  Zn3  1  0.083200  0.616750  0.136366  1
  Zn  Zn4  1  0.417643  0.883720  0.636644  1
  Co  Co5  1  0.587529  0.114739  0.361534  1
  P  P6  1  0.467239  0.296353  0.695270  1
  P  P7  1  0.966883  0.796609  0.804461  1
  P  P8  1  0.533076  0.703111  0.304056  1
  P  P9  1  0.033248  0.204167  0.196147  1
  O  O10  1  0.461989  0.139083  0.581937  1
  O  O11  1  0.959477  0.638839  0.917270  1
  O  O12  1  0.539630  0.861394  0.416550  1
  O  O13  1  0.039485  0.360548  0.082101  1
  O  O14  1  0.567121  0.240812  0.858144  1
  O  O15  1  0.068021  0.741343  0.641828  1
  O  O16  1  0.432757  0.758195  0.141250  1
  O  O17  1  0.935604  0.260949  0.358685  1
  O  O18  1  0.186477  0.358555  0.702355  1
  O  O19  1  0.686193  0.858958  0.797726  1
  O  O20  1  0.813990  0.641259  0.297308  1
  O  O21  1  0.311735  0.139389  0.200984  1
  O  O22  1  0.665469  0.442062  0.640522  1
  O  O23  1  0.164633  0.941876  0.860216  1
  O  O24  1  0.334838  0.558383  0.360056  1
  O  O25  1  0.828740  0.059664  0.144959  1
