# generated using pymatgen
data_Sr2HoPaO6
_symmetry_space_group_name_H-M   'P 1'
_cell_length_a   6.13916800
_cell_length_b   6.01225412
_cell_length_c   10.47339993
_cell_angle_alpha   55.04670642
_cell_angle_beta   90.00000000
_cell_angle_gamma   90.00000000
_symmetry_Int_Tables_number   1
_chemical_formula_structural   Sr2HoPaO6
_chemical_formula_sum   'Sr4 Ho2 Pa2 O12'
_cell_volume   316.84490830
_cell_formula_units_Z   2
loop_
 _symmetry_equiv_pos_site_id
 _symmetry_equiv_pos_as_xyz
  1  'x, y, z'
loop_
 _atom_site_type_symbol
 _atom_site_label
 _atom_site_symmetry_multiplicity
 _atom_site_fract_x
 _atom_site_fract_y
 _atom_site_fract_z
 _atom_site_occupancy
  Sr  Sr0  1  0.041939  0.238160  0.250827  1
  Sr  Sr1  1  0.541939  0.761840  0.249173  1
  Sr  Sr2  1  0.458061  0.238160  0.750827  1
  Sr  Sr3  1  0.958061  0.761840  0.749173  1
  Ho  Ho4  1  0.500000  0.000000  0.500000  1
  Ho  Ho5  1  0.000000  0.000000  0.000000  1
  Pa  Pa6  1  0.500000  0.500000  0.000000  1
  Pa  Pa7  1  0.000000  0.500000  0.500000  1
  O  O8  1  0.537340  0.645360  0.754824  1
  O  O9  1  0.037340  0.354640  0.745176  1
  O  O10  1  0.462660  0.354640  0.245176  1
  O  O11  1  0.962660  0.645360  0.254824  1
  O  O12  1  0.801428  0.844087  0.448604  1
  O  O13  1  0.301428  0.155913  0.051396  1
  O  O14  1  0.198572  0.155913  0.551396  1
  O  O15  1  0.698572  0.844087  0.948604  1
  O  O16  1  0.209066  0.753488  0.944733  1
  O  O17  1  0.709066  0.246512  0.555267  1
  O  O18  1  0.790934  0.246512  0.055267  1
  O  O19  1  0.290934  0.753488  0.444733  1
