# generated using pymatgen
data_La4ErOsRh
_symmetry_space_group_name_H-M   'P 1'
_cell_length_a   6.59240914
_cell_length_b   7.27774369
_cell_length_c   9.17586900
_cell_angle_alpha   95.20740975
_cell_angle_beta   111.05261595
_cell_angle_gamma   90.00000003
_symmetry_Int_Tables_number   1
_chemical_formula_structural   La4ErOsRh
_chemical_formula_sum   'La8 Er2 Os2 Rh2'
_cell_volume   408.90551401
_cell_formula_units_Z   2
loop_
 _symmetry_equiv_pos_site_id
 _symmetry_equiv_pos_as_xyz
  1  'x, y, z'
loop_
 _atom_site_type_symbol
 _atom_site_label
 _atom_site_symmetry_multiplicity
 _atom_site_fract_x
 _atom_site_fract_y
 _atom_site_fract_z
 _atom_site_occupancy
  La  La0  1  0.808683  0.584767  0.817504  1
  La  La1  1  0.991179  0.915233  0.182496  1
  La  La2  1  0.201694  0.411710  0.182017  1
  La  La3  1  0.019679  0.088290  0.817983  1
  La  La4  1  0.214182  0.683242  0.581293  1
  La  La5  1  0.632890  0.816758  0.418707  1
  La  La6  1  0.785072  0.313865  0.426878  1
  La  La7  1  0.358193  0.186135  0.573122  1
  Er  Er8  1  0.433805  0.750000  0.000000  1
  Er  Er9  1  0.565302  0.250000  0.000000  1
  Os  Os10  1  0.400774  0.074244  0.215564  1
  Os  Os11  1  0.185211  0.425756  0.784436  1
  Rh  Rh12  1  0.597342  0.924288  0.791345  1
  Rh  Rh13  1  0.805996  0.575712  0.208655  1
