# generated using pymatgen
data_CaS4(BrO8)2
_symmetry_space_group_name_H-M   'P 1'
_cell_length_a   6.52880885
_cell_length_b   6.52880897
_cell_length_c   9.10670135
_cell_angle_alpha   73.79808640
_cell_angle_beta   73.79808575
_cell_angle_gamma   88.13099867
_symmetry_Int_Tables_number   1
_chemical_formula_structural   CaS4(BrO8)2
_chemical_formula_sum   'Ca1 S4 Br2 O16'
_cell_volume   357.52422217
_cell_formula_units_Z   1
loop_
 _symmetry_equiv_pos_site_id
 _symmetry_equiv_pos_as_xyz
  1  'x, y, z'
loop_
 _atom_site_type_symbol
 _atom_site_label
 _atom_site_symmetry_multiplicity
 _atom_site_fract_x
 _atom_site_fract_y
 _atom_site_fract_z
 _atom_site_occupancy
  Ca  Ca0  1  0.000000  0.000000  0.000000  1
  S  S1  1  0.087768  0.590330  0.746631  1
  S  S2  1  0.590330  0.087768  0.746631  1
  S  S3  1  0.912232  0.409670  0.253369  1
  S  S4  1  0.409670  0.912232  0.253369  1
  Br  Br5  1  0.000000  0.000000  0.500000  1
  Br  Br6  1  0.500000  0.500000  0.500000  1
  O  O7  1  0.331802  0.639490  0.671852  1
  O  O8  1  0.639490  0.331802  0.671852  1
  O  O9  1  0.668198  0.360510  0.328148  1
  O  O10  1  0.360510  0.668198  0.328148  1
  O  O11  1  0.024722  0.711009  0.862006  1
  O  O12  1  0.711009  0.024722  0.862006  1
  O  O13  1  0.975278  0.288991  0.137994  1
  O  O14  1  0.288991  0.975278  0.137994  1
  O  O15  1  0.985502  0.675098  0.607337  1
  O  O16  1  0.675098  0.985502  0.607337  1
  O  O17  1  0.014498  0.324902  0.392663  1
  O  O18  1  0.324902  0.014498  0.392663  1
  O  O19  1  0.036007  0.362536  0.802340  1
  O  O20  1  0.362536  0.036007  0.802340  1
  O  O21  1  0.963993  0.637464  0.197660  1
  O  O22  1  0.637464  0.963993  0.197660  1
