# generated using pymatgen
data_Y8Sc12Si15Bi
_symmetry_space_group_name_H-M   'P 1'
_cell_length_a   7.17457231
_cell_length_b   7.41919753
_cell_length_c   14.06828926
_cell_angle_alpha   90.06100524
_cell_angle_beta   88.67743439
_cell_angle_gamma   90.15283621
_symmetry_Int_Tables_number   1
_chemical_formula_structural   Y8Sc12Si15Bi
_chemical_formula_sum   'Y8 Sc12 Si15 Bi1'
_cell_volume   748.64643966
_cell_formula_units_Z   1
loop_
 _symmetry_equiv_pos_site_id
 _symmetry_equiv_pos_as_xyz
  1  'x, y, z'
loop_
 _atom_site_type_symbol
 _atom_site_label
 _atom_site_symmetry_multiplicity
 _atom_site_fract_x
 _atom_site_fract_y
 _atom_site_fract_z
 _atom_site_occupancy
  Y  Y0  1  0.011723  0.176491  0.096628  1
  Y  Y1  1  0.988583  0.824854  0.904120  1
  Y  Y2  1  0.489423  0.675608  0.904021  1
  Y  Y3  1  0.994053  0.831366  0.598414  1
  Y  Y4  1  0.511142  0.324468  0.097375  1
  Y  Y5  1  0.999111  0.170122  0.399009  1
  Y  Y6  1  0.510796  0.317304  0.397608  1
  Y  Y7  1  0.511882  0.686121  0.601118  1
  Sc  Sc8  1  0.165079  0.500408  0.756113  1
  Sc  Sc9  1  0.834194  0.499755  0.251482  1
  Sc  Sc10  1  0.334264  0.000959  0.250330  1
  Sc  Sc11  1  0.667663  0.999475  0.751274  1
  Sc  Sc12  1  0.349842  0.155989  0.631781  1
  Sc  Sc13  1  0.657808  0.827464  0.372446  1
  Sc  Sc14  1  0.153721  0.682846  0.368857  1
  Sc  Sc15  1  0.666935  0.822616  0.123939  1
  Sc  Sc16  1  0.827239  0.326465  0.626044  1
  Sc  Sc17  1  0.331159  0.175620  0.875327  1
  Sc  Sc18  1  0.831916  0.323546  0.875533  1
  Sc  Sc19  1  0.168045  0.676662  0.124960  1
  Si  Si20  1  0.037426  0.120040  0.751235  1
  Si  Si21  1  0.959888  0.884352  0.245956  1
  Si  Si22  1  0.460265  0.617157  0.247541  1
  Si  Si23  1  0.536528  0.383687  0.752933  1
  Si  Si24  1  0.289878  0.868040  0.753096  1
  Si  Si25  1  0.710306  0.125523  0.246354  1
  Si  Si26  1  0.209184  0.374031  0.248820  1
  Si  Si27  1  0.794072  0.627783  0.751877  1
  Si  Si28  1  0.812507  0.541759  0.456329  1
  Si  Si29  1  0.329396  0.962660  0.459646  1
  Si  Si30  1  0.843939  0.534570  0.039863  1
  Si  Si31  1  0.671986  0.039456  0.538732  1
  Si  Si32  1  0.155245  0.465111  0.961369  1
  Si  Si33  1  0.655088  0.034973  0.960297  1
  Si  Si34  1  0.343623  0.965841  0.040190  1
  Bi  Bi35  1  0.186089  0.456874  0.539384  1
