# generated using pymatgen
data_Sr3Nd(ZnGa)4
_symmetry_space_group_name_H-M   'P 1'
_cell_length_a   4.54169100
_cell_length_b   4.54169107
_cell_length_c   16.12600300
_cell_angle_alpha   90.00000000
_cell_angle_beta   90.00000000
_cell_angle_gamma   120.00002132
_symmetry_Int_Tables_number   1
_chemical_formula_structural   Sr3Nd(ZnGa)4
_chemical_formula_sum   'Sr3 Nd1 Zn4 Ga4'
_cell_volume   288.06629556
_cell_formula_units_Z   1
loop_
 _symmetry_equiv_pos_site_id
 _symmetry_equiv_pos_as_xyz
  1  'x, y, z'
loop_
 _atom_site_type_symbol
 _atom_site_label
 _atom_site_symmetry_multiplicity
 _atom_site_fract_x
 _atom_site_fract_y
 _atom_site_fract_z
 _atom_site_occupancy
  Sr  Sr0  1  0.000000  0.000000  0.260650  1
  Sr  Sr1  1  0.000000  0.000000  0.739350  1
  Sr  Sr2  1  0.000000  0.000000  0.000000  1
  Nd  Nd3  1  0.000000  0.000000  0.500000  1
  Zn  Zn4  1  0.333333  0.666667  0.128442  1
  Zn  Zn5  1  0.666667  0.333333  0.871558  1
  Zn  Zn6  1  0.666667  0.333333  0.600011  1
  Zn  Zn7  1  0.333333  0.666667  0.399989  1
  Ga  Ga8  1  0.333333  0.666667  0.605907  1
  Ga  Ga9  1  0.666667  0.333333  0.394093  1
  Ga  Ga10  1  0.666667  0.333333  0.134565  1
  Ga  Ga11  1  0.333333  0.666667  0.865435  1
