# generated using pymatgen
data_Y15Er5(Cd3Pt)2
_symmetry_space_group_name_H-M   'P 1'
_cell_length_a   9.71571700
_cell_length_b   9.71571611
_cell_length_c   9.75925600
_cell_angle_alpha   90.00000000
_cell_angle_beta   90.00000000
_cell_angle_gamma   119.99999962
_symmetry_Int_Tables_number   1
_chemical_formula_structural   Y15Er5(Cd3Pt)2
_chemical_formula_sum   'Y15 Er5 Cd6 Pt2'
_cell_volume   797.80548219
_cell_formula_units_Z   1
loop_
 _symmetry_equiv_pos_site_id
 _symmetry_equiv_pos_as_xyz
  1  'x, y, z'
loop_
 _atom_site_type_symbol
 _atom_site_label
 _atom_site_symmetry_multiplicity
 _atom_site_fract_x
 _atom_site_fract_y
 _atom_site_fract_z
 _atom_site_occupancy
  Y  Y0  1  0.792887  0.207113  0.059341  1
  Y  Y1  1  0.792887  0.585774  0.059341  1
  Y  Y2  1  0.414226  0.207113  0.059341  1
  Y  Y3  1  0.792668  0.207332  0.440600  1
  Y  Y4  1  0.792668  0.585336  0.440600  1
  Y  Y5  1  0.414664  0.207332  0.440600  1
  Y  Y6  1  0.207267  0.792733  0.559681  1
  Y  Y7  1  0.207267  0.414534  0.559681  1
  Y  Y8  1  0.585466  0.792733  0.559681  1
  Y  Y9  1  0.542365  0.457635  0.750469  1
  Y  Y10  1  0.542365  0.084729  0.750469  1
  Y  Y11  1  0.915271  0.457635  0.750469  1
  Y  Y12  1  0.457236  0.542764  0.249256  1
  Y  Y13  1  0.457236  0.914473  0.249256  1
  Y  Y14  1  0.085527  0.542764  0.249256  1
  Er  Er15  1  0.208131  0.791869  0.939869  1
  Er  Er16  1  0.208131  0.416262  0.939869  1
  Er  Er17  1  0.583738  0.791869  0.939869  1
  Er  Er18  1  0.000000  0.000000  0.999794  1
  Er  Er19  1  0.000000  0.000000  0.499762  1
  Cd  Cd20  1  0.884536  0.115464  0.750148  1
  Cd  Cd21  1  0.884536  0.769073  0.750148  1
  Cd  Cd22  1  0.230927  0.115464  0.750148  1
  Cd  Cd23  1  0.115569  0.884431  0.250010  1
  Cd  Cd24  1  0.115569  0.231135  0.250010  1
  Cd  Cd25  1  0.768865  0.884431  0.250010  1
  Pt  Pt26  1  0.333333  0.666667  0.752650  1
  Pt  Pt27  1  0.666667  0.333333  0.249673  1
