# generated using pymatgen
data_Y3CdIn2Ga2Ag
_symmetry_space_group_name_H-M   'P 1'
_cell_length_a   7.28138000
_cell_length_b   7.28161984
_cell_length_c   4.50788100
_cell_angle_alpha   90.00000000
_cell_angle_beta   90.00000000
_cell_angle_gamma   119.99891042
_symmetry_Int_Tables_number   1
_chemical_formula_structural   Y3CdIn2Ga2Ag
_chemical_formula_sum   'Y3 Cd1 In2 Ga2 Ag1'
_cell_volume   206.99008410
_cell_formula_units_Z   1
loop_
 _symmetry_equiv_pos_site_id
 _symmetry_equiv_pos_as_xyz
  1  'x, y, z'
loop_
 _atom_site_type_symbol
 _atom_site_label
 _atom_site_symmetry_multiplicity
 _atom_site_fract_x
 _atom_site_fract_y
 _atom_site_fract_z
 _atom_site_occupancy
  Y  Y0  1  0.000008  0.575916  0.500000  1
  Y  Y1  1  0.424092  0.424084  0.500000  1
  Y  Y2  1  0.575141  0.000000  0.500000  1
  Cd  Cd3  1  0.251425  0.000000  0.000000  1
  In  In4  1  0.002992  0.252291  0.000000  1
  In  In5  1  0.750700  0.747709  0.000000  1
  Ga  Ga6  1  0.333236  0.669257  0.000000  1
  Ga  Ga7  1  0.663980  0.330743  0.000000  1
  Ag  Ag8  1  0.998426  0.000000  0.500000  1
