# generated using pymatgen
data_Cr2Br2O
_symmetry_space_group_name_H-M   'P 1'
_cell_length_a   7.39935619
_cell_length_b   6.60241292
_cell_length_c   6.48324889
_cell_angle_alpha   68.86087975
_cell_angle_beta   56.33066534
_cell_angle_gamma   54.80846336
_symmetry_Int_Tables_number   1
_chemical_formula_structural   Cr2Br2O
_chemical_formula_sum   'Cr4 Br4 O2'
_cell_volume   215.02675199
_cell_formula_units_Z   2
loop_
 _symmetry_equiv_pos_site_id
 _symmetry_equiv_pos_as_xyz
  1  'x, y, z'
loop_
 _atom_site_type_symbol
 _atom_site_label
 _atom_site_symmetry_multiplicity
 _atom_site_fract_x
 _atom_site_fract_y
 _atom_site_fract_z
 _atom_site_occupancy
  Cr  Cr0  1  0.624999  0.125000  0.125001  1
  Cr  Cr1  1  0.124999  0.625000  0.125001  1
  Cr  Cr2  1  0.124999  0.125000  0.125001  1
  Cr  Cr3  1  0.124999  0.125000  0.625001  1
  Br  Br4  1  0.314886  0.685114  0.314885  1
  Br  Br5  1  0.564887  0.935113  0.564886  1
  Br  Br6  1  0.685115  0.314886  0.685114  1
  Br  Br7  1  0.935114  0.564886  0.935114  1
  O  O8  1  0.000000  0.000000  0.000000  1
  O  O9  1  0.250000  0.250000  0.250000  1
