# generated using pymatgen
data_NdGaPdO5
_symmetry_space_group_name_H-M   'P 1'
_cell_length_a   5.98093700
_cell_length_b   7.57762200
_cell_length_c   8.82067300
_cell_angle_alpha   90.00000000
_cell_angle_beta   90.00000000
_cell_angle_gamma   90.00000000
_symmetry_Int_Tables_number   1
_chemical_formula_structural   NdGaPdO5
_chemical_formula_sum   'Nd4 Ga4 Pd4 O20'
_cell_volume   399.76418899
_cell_formula_units_Z   4
loop_
 _symmetry_equiv_pos_site_id
 _symmetry_equiv_pos_as_xyz
  1  'x, y, z'
loop_
 _atom_site_type_symbol
 _atom_site_label
 _atom_site_symmetry_multiplicity
 _atom_site_fract_x
 _atom_site_fract_y
 _atom_site_fract_z
 _atom_site_occupancy
  Nd  Nd0  1  0.500000  0.366400  0.331061  1
  Nd  Nd1  1  0.500000  0.633600  0.668939  1
  Nd  Nd2  1  0.500000  0.133600  0.831061  1
  Nd  Nd3  1  0.500000  0.866400  0.168939  1
  Ga  Ga4  1  0.000000  0.103505  0.143746  1
  Ga  Ga5  1  0.000000  0.896495  0.856254  1
  Ga  Ga6  1  0.000000  0.396495  0.643746  1
  Ga  Ga7  1  0.000000  0.603505  0.356254  1
  Pd  Pd8  1  0.247459  0.000000  0.500000  1
  Pd  Pd9  1  0.752541  0.000000  0.500000  1
  Pd  Pd10  1  0.752541  0.500000  0.000000  1
  Pd  Pd11  1  0.247459  0.500000  0.000000  1
  O  O12  1  0.500000  0.334042  0.057970  1
  O  O13  1  0.500000  0.665958  0.942030  1
  O  O14  1  0.500000  0.165958  0.557970  1
  O  O15  1  0.500000  0.834042  0.442030  1
  O  O16  1  0.220500  0.000000  0.000000  1
  O  O17  1  0.779500  0.000000  0.000000  1
  O  O18  1  0.779500  0.500000  0.500000  1
  O  O19  1  0.220500  0.500000  0.500000  1
  O  O20  1  0.254806  0.103921  0.285155  1
  O  O21  1  0.745194  0.896079  0.714845  1
  O  O22  1  0.254806  0.896079  0.714845  1
  O  O23  1  0.745194  0.396079  0.785155  1
  O  O24  1  0.745194  0.103921  0.285155  1
  O  O25  1  0.254806  0.603921  0.214845  1
  O  O26  1  0.745194  0.603921  0.214845  1
  O  O27  1  0.254806  0.396079  0.785155  1
  O  O28  1  0.000000  0.342563  0.071675  1
  O  O29  1  0.000000  0.657437  0.928325  1
  O  O30  1  0.000000  0.157437  0.571675  1
  O  O31  1  0.000000  0.842563  0.428325  1
