# generated using pymatgen
data_Y15Ho5Cd6IrRu
_symmetry_space_group_name_H-M   'P 1'
_cell_length_a   9.64228400
_cell_length_b   9.64228323
_cell_length_c   9.84873800
_cell_angle_alpha   90.00000000
_cell_angle_beta   90.00000000
_cell_angle_gamma   120.00000266
_symmetry_Int_Tables_number   1
_chemical_formula_structural   Y15Ho5Cd6IrRu
_chemical_formula_sum   'Y15 Ho5 Cd6 Ir1 Ru1'
_cell_volume   792.99601931
_cell_formula_units_Z   1
loop_
 _symmetry_equiv_pos_site_id
 _symmetry_equiv_pos_as_xyz
  1  'x, y, z'
loop_
 _atom_site_type_symbol
 _atom_site_label
 _atom_site_symmetry_multiplicity
 _atom_site_fract_x
 _atom_site_fract_y
 _atom_site_fract_z
 _atom_site_occupancy
  Y  Y0  1  0.790591  0.209409  0.559971  1
  Y  Y1  1  0.790591  0.581181  0.559971  1
  Y  Y2  1  0.418819  0.209409  0.559971  1
  Y  Y3  1  0.790516  0.209484  0.939935  1
  Y  Y4  1  0.790516  0.581029  0.939935  1
  Y  Y5  1  0.418971  0.209484  0.939935  1
  Y  Y6  1  0.209230  0.790770  0.059620  1
  Y  Y7  1  0.209230  0.418460  0.059620  1
  Y  Y8  1  0.581540  0.790770  0.059620  1
  Y  Y9  1  0.541209  0.458791  0.250233  1
  Y  Y10  1  0.541209  0.082418  0.250233  1
  Y  Y11  1  0.917582  0.458791  0.250233  1
  Y  Y12  1  0.458566  0.541434  0.749666  1
  Y  Y13  1  0.458566  0.917132  0.749666  1
  Y  Y14  1  0.082868  0.541434  0.749666  1
  Ho  Ho15  1  0.000000  0.000000  0.499394  1
  Ho  Ho16  1  0.000000  0.000000  0.000431  1
  Ho  Ho17  1  0.209735  0.790265  0.440115  1
  Ho  Ho18  1  0.209735  0.419469  0.440115  1
  Ho  Ho19  1  0.580531  0.790265  0.440115  1
  Cd  Cd20  1  0.885532  0.114468  0.250012  1
  Cd  Cd21  1  0.885532  0.771065  0.250012  1
  Cd  Cd22  1  0.228935  0.114468  0.250012  1
  Cd  Cd23  1  0.114558  0.885442  0.749999  1
  Cd  Cd24  1  0.114558  0.229115  0.749999  1
  Cd  Cd25  1  0.770885  0.885442  0.749999  1
  Ir  Ir26  1  0.333333  0.666667  0.251638  1
  Ru  Ru27  1  0.666667  0.333333  0.749882  1
