# generated using pymatgen
data_PrNd5CoCl11
_symmetry_space_group_name_H-M   'P 1'
_cell_length_a   8.27582511
_cell_length_b   8.25634513
_cell_length_c   7.32000880
_cell_angle_alpha   86.65096984
_cell_angle_beta   86.70296973
_cell_angle_gamma   101.66346570
_symmetry_Int_Tables_number   1
_chemical_formula_structural   PrNd5CoCl11
_chemical_formula_sum   'Pr1 Nd5 Co1 Cl11'
_cell_volume   487.76735977
_cell_formula_units_Z   1
loop_
 _symmetry_equiv_pos_site_id
 _symmetry_equiv_pos_as_xyz
  1  'x, y, z'
loop_
 _atom_site_type_symbol
 _atom_site_label
 _atom_site_symmetry_multiplicity
 _atom_site_fract_x
 _atom_site_fract_y
 _atom_site_fract_z
 _atom_site_occupancy
  Pr  Pr0  1  0.292068  0.983360  0.227227  1
  Nd  Nd1  1  0.709767  0.016355  0.773444  1
  Nd  Nd2  1  0.182180  0.183008  0.771146  1
  Nd  Nd3  1  0.983729  0.290965  0.226643  1
  Nd  Nd4  1  0.015738  0.709185  0.773595  1
  Nd  Nd5  1  0.817518  0.817237  0.228705  1
  Co  Co6  1  0.999647  0.000114  0.999772  1
  Cl  Cl7  1  0.999921  0.000075  0.500058  1
  Cl  Cl8  1  0.663015  0.094465  0.362215  1
  Cl  Cl9  1  0.488490  0.203162  0.938327  1
  Cl  Cl10  1  0.302728  0.305242  0.366668  1
  Cl  Cl11  1  0.905358  0.337082  0.638020  1
  Cl  Cl12  1  0.201723  0.488276  0.940828  1
  Cl  Cl13  1  0.797943  0.511811  0.059282  1
  Cl  Cl14  1  0.092841  0.661354  0.363046  1
  Cl  Cl15  1  0.696879  0.696758  0.633968  1
  Cl  Cl16  1  0.513781  0.796621  0.057999  1
  Cl  Cl17  1  0.336674  0.904927  0.639055  1
