# generated using pymatgen
data_Dy3Y3Al24Ru7Rh
_symmetry_space_group_name_H-M   'P 1'
_cell_length_a   8.80584700
_cell_length_b   8.80377056
_cell_length_c   9.57811204
_cell_angle_alpha   89.89301924
_cell_angle_beta   89.99991205
_cell_angle_gamma   120.00799386
_symmetry_Int_Tables_number   1
_chemical_formula_structural   Dy3Y3Al24Ru7Rh
_chemical_formula_sum   'Dy3 Y3 Al24 Ru7 Rh1'
_cell_volume   643.00506854
_cell_formula_units_Z   1
loop_
 _symmetry_equiv_pos_site_id
 _symmetry_equiv_pos_as_xyz
  1  'x, y, z'
loop_
 _atom_site_type_symbol
 _atom_site_label
 _atom_site_symmetry_multiplicity
 _atom_site_fract_x
 _atom_site_fract_y
 _atom_site_fract_z
 _atom_site_occupancy
  Dy  Dy0  1  0.808210  0.194473  0.751016  1
  Dy  Dy1  1  0.806504  0.613007  0.750826  1
  Dy  Dy2  1  0.386265  0.194475  0.751014  1
  Y  Y3  1  0.191600  0.805947  0.249132  1
  Y  Y4  1  0.193243  0.386485  0.249172  1
  Y  Y5  1  0.614346  0.805946  0.249130  1
  Al  Al6  1  0.560974  0.437815  0.250350  1
  Al  Al7  1  0.561074  0.122145  0.249268  1
  Al  Al8  1  0.876842  0.437814  0.250348  1
  Al  Al9  1  0.439124  0.562127  0.749612  1
  Al  Al10  1  0.439008  0.878016  0.750578  1
  Al  Al11  1  0.123002  0.562124  0.749609  1
  Al  Al12  1  0.325220  0.164204  0.422779  1
  Al  Al13  1  0.838970  0.164194  0.422777  1
  Al  Al14  1  0.837070  0.674138  0.422735  1
  Al  Al15  1  0.675092  0.835947  0.577813  1
  Al  Al16  1  0.160842  0.835940  0.577815  1
  Al  Al17  1  0.162754  0.325505  0.577861  1
  Al  Al18  1  0.674806  0.837783  0.922262  1
  Al  Al19  1  0.162984  0.837783  0.922261  1
  Al  Al20  1  0.162984  0.325963  0.922314  1
  Al  Al21  1  0.325492  0.162370  0.077164  1
  Al  Al22  1  0.836883  0.162367  0.077165  1
  Al  Al23  1  0.836918  0.673829  0.077144  1
  Al  Al24  1  0.667495  0.334990  0.517420  1
  Al  Al25  1  0.332370  0.664735  0.483391  1
  Al  Al26  1  0.333384  0.666766  0.015627  1
  Al  Al27  1  0.666642  0.333279  0.983740  1
  Al  Al28  1  0.999676  0.999352  0.249992  1
  Al  Al29  1  0.000434  0.000864  0.750030  1
  Ru  Ru30  1  0.999986  0.999990  0.499883  1
  Ru  Ru31  1  0.999999  0.999999  0.000140  1
  Ru  Ru32  1  0.500034  0.499916  0.500178  1
  Ru  Ru33  1  0.999886  0.499906  0.500171  1
  Ru  Ru34  1  0.500016  0.499914  0.999740  1
  Ru  Ru35  1  0.500022  0.000042  0.999791  1
  Ru  Ru36  1  0.999895  0.499913  0.999736  1
  Rh  Rh37  1  0.499955  0.999940  0.500017  1
