# generated using pymatgen
data_Ca7Nd(Si4Mo3)4
_symmetry_space_group_name_H-M   'P 1'
_cell_length_a   6.76676381
_cell_length_b   6.98495914
_cell_length_c   13.12820433
_cell_angle_alpha   90.04068533
_cell_angle_beta   90.04176956
_cell_angle_gamma   89.94278165
_symmetry_Int_Tables_number   1
_chemical_formula_structural   Ca7Nd(Si4Mo3)4
_chemical_formula_sum   'Ca7 Nd1 Si16 Mo12'
_cell_volume   620.51141310
_cell_formula_units_Z   1
loop_
 _symmetry_equiv_pos_site_id
 _symmetry_equiv_pos_as_xyz
  1  'x, y, z'
loop_
 _atom_site_type_symbol
 _atom_site_label
 _atom_site_symmetry_multiplicity
 _atom_site_fract_x
 _atom_site_fract_y
 _atom_site_fract_z
 _atom_site_occupancy
  Ca  Ca0  1  0.498790  0.333477  0.091012  1
  Ca  Ca1  1  0.998499  0.166796  0.408491  1
  Ca  Ca2  1  0.501125  0.667154  0.591760  1
  Ca  Ca3  1  0.001492  0.832310  0.906049  1
  Ca  Ca4  1  0.502000  0.666824  0.906731  1
  Ca  Ca5  1  0.001074  0.832387  0.591787  1
  Ca  Ca6  1  0.498483  0.334132  0.410429  1
  Nd  Nd7  1  0.001256  0.167922  0.092829  1
  Si  Si8  1  0.657327  0.043142  0.546136  1
  Si  Si9  1  0.158048  0.459703  0.952338  1
  Si  Si10  1  0.346508  0.953170  0.045279  1
  Si  Si11  1  0.843080  0.543186  0.454314  1
  Si  Si12  1  0.342668  0.956835  0.454661  1
  Si  Si13  1  0.841454  0.548287  0.044869  1
  Si  Si14  1  0.656788  0.042883  0.952117  1
  Si  Si15  1  0.156988  0.456193  0.546387  1
  Si  Si16  1  0.535063  0.371577  0.749736  1
  Si  Si17  1  0.034932  0.127838  0.749605  1
  Si  Si18  1  0.465221  0.629204  0.249882  1
  Si  Si19  1  0.963770  0.868301  0.251808  1
  Si  Si20  1  0.800808  0.627385  0.749301  1
  Si  Si21  1  0.301417  0.872113  0.749530  1
  Si  Si22  1  0.201080  0.374925  0.252331  1
  Si  Si23  1  0.693915  0.127692  0.252514  1
  Mo  Mo24  1  0.834906  0.330111  0.627973  1
  Mo  Mo25  1  0.333589  0.168976  0.871918  1
  Mo  Mo26  1  0.164704  0.668897  0.127862  1
  Mo  Mo27  1  0.664642  0.829365  0.372534  1
  Mo  Mo28  1  0.165791  0.669712  0.372336  1
  Mo  Mo29  1  0.667137  0.831800  0.128199  1
  Mo  Mo30  1  0.834997  0.331141  0.871889  1
  Mo  Mo31  1  0.334602  0.168923  0.628171  1
  Mo  Mo32  1  0.661052  0.011761  0.749458  1
  Mo  Mo33  1  0.161431  0.488511  0.749743  1
  Mo  Mo34  1  0.337742  0.988387  0.250650  1
  Mo  Mo35  1  0.837622  0.508980  0.249377  1
