# generated using pymatgen
data_Rb4YPaI12
_symmetry_space_group_name_H-M   'P 1'
_cell_length_a   8.43936800
_cell_length_b   8.43936800
_cell_length_c   12.56594500
_cell_angle_alpha   90.00000000
_cell_angle_beta   90.00000000
_cell_angle_gamma   90.00000000
_symmetry_Int_Tables_number   1
_chemical_formula_structural   Rb4YPaI12
_chemical_formula_sum   'Rb4 Y1 Pa1 I12'
_cell_volume   894.98344926
_cell_formula_units_Z   1
loop_
 _symmetry_equiv_pos_site_id
 _symmetry_equiv_pos_as_xyz
  1  'x, y, z'
loop_
 _atom_site_type_symbol
 _atom_site_label
 _atom_site_symmetry_multiplicity
 _atom_site_fract_x
 _atom_site_fract_y
 _atom_site_fract_z
 _atom_site_occupancy
  Rb  Rb0  1  0.000000  0.500000  0.197751  1
  Rb  Rb1  1  0.500000  0.000000  0.197751  1
  Rb  Rb2  1  0.000000  0.500000  0.802249  1
  Rb  Rb3  1  0.500000  0.000000  0.802249  1
  Y  Y4  1  0.000000  0.000000  0.000000  1
  Pa  Pa5  1  0.500000  0.500000  0.500000  1
  I  I6  1  0.000000  0.000000  0.242011  1
  I  I7  1  0.500000  0.500000  0.263729  1
  I  I8  1  0.000000  0.000000  0.757988  1
  I  I9  1  0.500000  0.500000  0.736271  1
  I  I10  1  0.247548  0.261524  0.000000  1
  I  I11  1  0.738476  0.247548  0.000000  1
  I  I12  1  0.261524  0.752452  0.000000  1
  I  I13  1  0.670523  0.194420  0.500000  1
  I  I14  1  0.329477  0.805580  0.500000  1
  I  I15  1  0.752452  0.738476  0.000000  1
  I  I16  1  0.805580  0.670523  0.500000  1
  I  I17  1  0.194420  0.329477  0.500000  1
