# generated using pymatgen
data_Ce4ZnSi6Rh
_symmetry_space_group_name_H-M   'P 1'
_cell_length_a   8.22216900
_cell_length_b   8.22216855
_cell_length_c   4.15310800
_cell_angle_alpha   90.00000000
_cell_angle_beta   90.00000000
_cell_angle_gamma   119.99999778
_symmetry_Int_Tables_number   1
_chemical_formula_structural   Ce4ZnSi6Rh
_chemical_formula_sum   'Ce4 Zn1 Si6 Rh1'
_cell_volume   243.15132523
_cell_formula_units_Z   1
loop_
 _symmetry_equiv_pos_site_id
 _symmetry_equiv_pos_as_xyz
  1  'x, y, z'
loop_
 _atom_site_type_symbol
 _atom_site_label
 _atom_site_symmetry_multiplicity
 _atom_site_fract_x
 _atom_site_fract_y
 _atom_site_fract_z
 _atom_site_occupancy
  Ce  Ce0  1  0.000000  0.000000  0.500000  1
  Ce  Ce1  1  0.008074  0.504037  0.500000  1
  Ce  Ce2  1  0.495963  0.504037  0.500000  1
  Ce  Ce3  1  0.495963  0.991926  0.500000  1
  Zn  Zn4  1  0.666667  0.333333  0.000000  1
  Si  Si5  1  0.330161  0.165081  0.000000  1
  Si  Si6  1  0.834919  0.165081  0.000000  1
  Si  Si7  1  0.834919  0.669839  0.000000  1
  Si  Si8  1  0.166243  0.332486  0.000000  1
  Si  Si9  1  0.166243  0.833757  0.000000  1
  Si  Si10  1  0.667514  0.833757  0.000000  1
  Rh  Rh11  1  0.333333  0.666667  0.000000  1
