# generated using pymatgen
data_Dy8Lu12Si15Rh
_symmetry_space_group_name_H-M   'P 1'
_cell_length_a   7.25269072
_cell_length_b   7.65549378
_cell_length_c   14.33084800
_cell_angle_alpha   90.00000000
_cell_angle_beta   90.00000000
_cell_angle_gamma   90.01691707
_symmetry_Int_Tables_number   1
_chemical_formula_structural   Dy8Lu12Si15Rh
_chemical_formula_sum   'Dy8 Lu12 Si15 Rh1'
_cell_volume   795.69061661
_cell_formula_units_Z   1
loop_
 _symmetry_equiv_pos_site_id
 _symmetry_equiv_pos_as_xyz
  1  'x, y, z'
loop_
 _atom_site_type_symbol
 _atom_site_label
 _atom_site_symmetry_multiplicity
 _atom_site_fract_x
 _atom_site_fract_y
 _atom_site_fract_z
 _atom_site_occupancy
  Dy  Dy0  1  0.016421  0.182186  0.096696  1
  Dy  Dy1  1  0.986333  0.823247  0.905544  1
  Dy  Dy2  1  0.485282  0.678573  0.905229  1
  Dy  Dy3  1  0.986333  0.823247  0.594456  1
  Dy  Dy4  1  0.515945  0.320586  0.096466  1
  Dy  Dy5  1  0.016421  0.182186  0.403304  1
  Dy  Dy6  1  0.515945  0.320586  0.403534  1
  Dy  Dy7  1  0.485282  0.678573  0.594771  1
  Lu  Lu8  1  0.156914  0.514318  0.750000  1
  Lu  Lu9  1  0.840731  0.490105  0.250000  1
  Lu  Lu10  1  0.342235  0.012249  0.250000  1
  Lu  Lu11  1  0.666290  0.990095  0.750000  1
  Lu  Lu12  1  0.313417  0.172553  0.626774  1
  Lu  Lu13  1  0.675893  0.825062  0.374675  1
  Lu  Lu14  1  0.174938  0.679211  0.375017  1
  Lu  Lu15  1  0.675893  0.825062  0.125325  1
  Lu  Lu16  1  0.832926  0.317640  0.626135  1
  Lu  Lu17  1  0.313417  0.172553  0.873226  1
  Lu  Lu18  1  0.832926  0.317640  0.873865  1
  Lu  Lu19  1  0.174938  0.679211  0.124983  1
  Si  Si20  1  0.973007  0.893017  0.250000  1
  Si  Si21  1  0.472699  0.609144  0.250000  1
  Si  Si22  1  0.527489  0.392972  0.750000  1
  Si  Si23  1  0.282236  0.866300  0.750000  1
  Si  Si24  1  0.719131  0.132890  0.250000  1
  Si  Si25  1  0.219002  0.370066  0.250000  1
  Si  Si26  1  0.771919  0.624721  0.750000  1
  Si  Si27  1  0.158129  0.471223  0.537631  1
  Si  Si28  1  0.844265  0.533128  0.461951  1
  Si  Si29  1  0.345780  0.969084  0.460649  1
  Si  Si30  1  0.844265  0.533128  0.038049  1
  Si  Si31  1  0.652990  0.031959  0.538375  1
  Si  Si32  1  0.158129  0.471223  0.962369  1
  Si  Si33  1  0.652990  0.031959  0.961625  1
  Si  Si34  1  0.345780  0.969084  0.039351  1
  Rh  Rh35  1  0.023705  0.095218  0.750000  1
