# generated using pymatgen
data_Sc5Co15(P3Os)4
_symmetry_space_group_name_H-M   'P 1'
_cell_length_a   11.91082261
_cell_length_b   11.91644933
_cell_length_c   3.65857300
_cell_angle_alpha   90.00000000
_cell_angle_beta   90.00000000
_cell_angle_gamma   119.94637296
_symmetry_Int_Tables_number   1
_chemical_formula_structural   Sc5Co15(P3Os)4
_chemical_formula_sum   'Sc5 Co15 P12 Os4'
_cell_volume   449.95120085
_cell_formula_units_Z   1
loop_
 _symmetry_equiv_pos_site_id
 _symmetry_equiv_pos_as_xyz
  1  'x, y, z'
loop_
 _atom_site_type_symbol
 _atom_site_label
 _atom_site_symmetry_multiplicity
 _atom_site_fract_x
 _atom_site_fract_y
 _atom_site_fract_z
 _atom_site_occupancy
  Sc  Sc0  1  0.662058  0.333156  0.000000  1
  Sc  Sc1  1  0.332301  0.665941  0.000000  1
  Sc  Sc2  1  0.818715  0.817866  0.500000  1
  Sc  Sc3  1  0.180378  0.000771  0.500000  1
  Sc  Sc4  1  0.000380  0.178111  0.500000  1
  Co  Co5  1  0.642858  0.517754  0.500000  1
  Co  Co6  1  0.479518  0.125904  0.500000  1
  Co  Co7  1  0.355307  0.871309  0.500000  1
  Co  Co8  1  0.516230  0.644677  0.500000  1
  Co  Co9  1  0.132651  0.486615  0.500000  1
  Co  Co10  1  0.804639  0.171583  0.000000  1
  Co  Co11  1  0.822486  0.627266  0.000000  1
  Co  Co12  1  0.373180  0.196086  0.000000  1
  Co  Co13  1  0.180424  0.808653  0.000000  1
  Co  Co14  1  0.625265  0.820459  0.000000  1
  Co  Co15  1  0.196072  0.373908  0.000000  1
  Co  Co16  1  0.283048  0.283414  0.500000  1
  Co  Co17  1  0.715873  0.997300  0.500000  1
  Co  Co18  1  0.002052  0.718962  0.500000  1
  Co  Co19  1  0.000833  0.000468  0.000000  1
  P  P20  1  0.677408  0.159423  0.500000  1
  P  P21  1  0.831008  0.522776  0.500000  1
  P  P22  1  0.482002  0.315354  0.500000  1
  P  P23  1  0.168651  0.686922  0.500000  1
  P  P24  1  0.516648  0.831345  0.500000  1
  P  P25  1  0.316762  0.482698  0.500000  1
  P  P26  1  0.176405  0.176661  0.000000  1
  P  P27  1  0.822966  0.996412  0.000000  1
  P  P28  1  0.000180  0.824216  0.000000  1
  P  P29  1  0.643021  0.643287  0.000000  1
  P  P30  1  0.356637  0.001276  0.000000  1
  P  P31  1  0.003511  0.358114  0.000000  1
  Os  Os32  1  0.870469  0.354039  0.500000  1
  Os  Os33  1  0.448870  0.449281  0.000000  1
  Os  Os34  1  0.549976  0.999350  0.000000  1
  Os  Os35  1  0.011220  0.558640  0.000000  1
