# generated using pymatgen
data_Nd6TcBr10
_symmetry_space_group_name_H-M   'P 1'
_cell_length_a   7.63887418
_cell_length_b   9.56440935
_cell_length_c   9.61977016
_cell_angle_alpha   108.26820932
_cell_angle_beta   97.04309597
_cell_angle_gamma   105.70207079
_symmetry_Int_Tables_number   1
_chemical_formula_structural   Nd6TcBr10
_chemical_formula_sum   'Nd6 Tc1 Br10'
_cell_volume   625.74136450
_cell_formula_units_Z   1
loop_
 _symmetry_equiv_pos_site_id
 _symmetry_equiv_pos_as_xyz
  1  'x, y, z'
loop_
 _atom_site_type_symbol
 _atom_site_label
 _atom_site_symmetry_multiplicity
 _atom_site_fract_x
 _atom_site_fract_y
 _atom_site_fract_z
 _atom_site_occupancy
  Nd  Nd0  1  0.470343  0.799742  0.593797  1
  Nd  Nd1  1  0.529657  0.200258  0.406203  1
  Nd  Nd2  1  0.374474  0.453506  0.746296  1
  Nd  Nd3  1  0.625526  0.546494  0.253704  1
  Nd  Nd4  1  0.862771  0.638841  0.681748  1
  Nd  Nd5  1  0.137229  0.361159  0.318252  1
  Tc  Tc6  1  0.500000  0.500000  0.500000  1
  Br  Br7  1  0.413016  0.134457  0.672854  1
  Br  Br8  1  0.586984  0.865543  0.327146  1
  Br  Br9  1  0.045680  0.676228  0.416699  1
  Br  Br10  1  0.954320  0.323772  0.583301  1
  Br  Br11  1  0.294727  0.757194  0.847529  1
  Br  Br12  1  0.705273  0.242806  0.152471  1
  Br  Br13  1  0.247390  0.414996  0.047057  1
  Br  Br14  1  0.752610  0.585004  0.952943  1
  Br  Br15  1  0.851989  0.955127  0.772358  1
  Br  Br16  1  0.148011  0.044873  0.227642  1
