# generated using pymatgen
data_Dy15Lu3(ZrIr6)2
_symmetry_space_group_name_H-M   'P 1'
_cell_length_a   10.85088791
_cell_length_b   10.86351740
_cell_length_c   6.29998348
_cell_angle_alpha   89.98015674
_cell_angle_beta   89.95987720
_cell_angle_gamma   89.97584797
_symmetry_Int_Tables_number   1
_chemical_formula_structural   Dy15Lu3(ZrIr6)2
_chemical_formula_sum   'Dy15 Lu3 Zr2 Ir12'
_cell_volume   742.63426076
_cell_formula_units_Z   1
loop_
 _symmetry_equiv_pos_site_id
 _symmetry_equiv_pos_as_xyz
  1  'x, y, z'
loop_
 _atom_site_type_symbol
 _atom_site_label
 _atom_site_symmetry_multiplicity
 _atom_site_fract_x
 _atom_site_fract_y
 _atom_site_fract_z
 _atom_site_occupancy
  Dy  Dy0  1  0.288909  0.914101  0.876033  1
  Dy  Dy1  1  0.710801  0.086513  0.875694  1
  Dy  Dy2  1  0.710875  0.913565  0.375957  1
  Dy  Dy3  1  0.587385  0.792087  0.876065  1
  Dy  Dy4  1  0.586567  0.207956  0.375927  1
  Dy  Dy5  1  0.412008  0.792552  0.375953  1
  Dy  Dy6  1  0.411783  0.207908  0.876103  1
  Dy  Dy7  1  0.208211  0.412246  0.623744  1
  Dy  Dy8  1  0.208064  0.587555  0.124103  1
  Dy  Dy9  1  0.791942  0.412397  0.124048  1
  Dy  Dy10  1  0.791818  0.587534  0.624129  1
  Dy  Dy11  1  0.913408  0.710983  0.124196  1
  Dy  Dy12  1  0.913499  0.289042  0.624510  1
  Dy  Dy13  1  0.086550  0.711013  0.623866  1
  Dy  Dy14  1  0.087518  0.288292  0.124826  1
  Lu  Lu15  1  0.290296  0.085936  0.377317  1
  Lu  Lu16  1  0.499825  0.499853  0.000023  1
  Lu  Lu17  1  0.499814  0.499945  0.499597  1
  Zr  Zr18  1  0.001217  0.000526  0.499223  1
  Zr  Zr19  1  0.000157  0.000273  0.999666  1
  Ir  Ir20  1  0.855636  0.144237  0.249964  1
  Ir  Ir21  1  0.855798  0.855764  0.750049  1
  Ir  Ir22  1  0.145493  0.143814  0.747520  1
  Ir  Ir23  1  0.145187  0.856908  0.250592  1
  Ir  Ir24  1  0.652118  0.347743  0.749947  1
  Ir  Ir25  1  0.652169  0.652059  0.249850  1
  Ir  Ir26  1  0.347542  0.346088  0.251037  1
  Ir  Ir27  1  0.347850  0.652124  0.750011  1
  Ir  Ir28  1  0.498686  0.000584  0.124889  1
  Ir  Ir29  1  0.498728  0.000556  0.622640  1
  Ir  Ir30  1  0.000104  0.499997  0.876253  1
  Ir  Ir31  1  0.000044  0.499848  0.376267  1
