# generated using pymatgen
data_Er3Tm3Sc4(In2Rh)4
_symmetry_space_group_name_H-M   'P 1'
_cell_length_a   3.51505000
_cell_length_b   7.85580229
_cell_length_c   17.91027767
_cell_angle_alpha   90.03133931
_cell_angle_beta   90.00000000
_cell_angle_gamma   90.00000000
_symmetry_Int_Tables_number   1
_chemical_formula_structural   Er3Tm3Sc4(In2Rh)4
_chemical_formula_sum   'Er3 Tm3 Sc4 In8 Rh4'
_cell_volume   494.56605641
_cell_formula_units_Z   1
loop_
 _symmetry_equiv_pos_site_id
 _symmetry_equiv_pos_as_xyz
  1  'x, y, z'
loop_
 _atom_site_type_symbol
 _atom_site_label
 _atom_site_symmetry_multiplicity
 _atom_site_fract_x
 _atom_site_fract_y
 _atom_site_fract_z
 _atom_site_occupancy
  Er  Er0  1  0.000000  0.999943  0.000005  1
  Er  Er1  1  0.000000  0.499914  0.499945  1
  Er  Er2  1  0.000000  0.748205  0.781397  1
  Tm  Tm3  1  0.000000  0.251893  0.218761  1
  Tm  Tm4  1  0.000000  0.248148  0.718737  1
  Tm  Tm5  1  0.000000  0.751898  0.281221  1
  Sc  Sc6  1  0.000000  0.877976  0.588327  1
  Sc  Sc7  1  0.000000  0.122100  0.411599  1
  Sc  Sc8  1  0.000000  0.377831  0.911653  1
  Sc  Sc9  1  0.000000  0.622081  0.088391  1
  In  In10  1  0.500000  0.807518  0.437377  1
  In  In11  1  0.500000  0.192520  0.562590  1
  In  In12  1  0.500000  0.307577  0.062598  1
  In  In13  1  0.500000  0.692326  0.937566  1
  In  In14  1  0.500000  0.926300  0.149449  1
  In  In15  1  0.500000  0.074006  0.850566  1
  In  In16  1  0.500000  0.426305  0.350515  1
  In  In17  1  0.500000  0.573565  0.649362  1
  Rh  Rh18  1  0.500000  0.963628  0.692923  1
  Rh  Rh19  1  0.500000  0.036644  0.306983  1
  Rh  Rh20  1  0.500000  0.462987  0.807011  1
  Rh  Rh21  1  0.500000  0.536634  0.193020  1
