# generated using pymatgen
data_Zr6Zn19GaPt4
_symmetry_space_group_name_H-M   'P 1'
_cell_length_a   8.84524267
_cell_length_b   8.84524119
_cell_length_c   8.84524204
_cell_angle_alpha   59.78054225
_cell_angle_beta   59.78054632
_cell_angle_gamma   59.78054111
_symmetry_Int_Tables_number   1
_chemical_formula_structural   Zr6Zn19GaPt4
_chemical_formula_sum   'Zr6 Zn19 Ga1 Pt4'
_cell_volume   486.90573859
_cell_formula_units_Z   1
loop_
 _symmetry_equiv_pos_site_id
 _symmetry_equiv_pos_as_xyz
  1  'x, y, z'
loop_
 _atom_site_type_symbol
 _atom_site_label
 _atom_site_symmetry_multiplicity
 _atom_site_fract_x
 _atom_site_fract_y
 _atom_site_fract_z
 _atom_site_occupancy
  Zr  Zr0  1  0.712887  0.283036  0.283036  1
  Zr  Zr1  1  0.287113  0.716964  0.716964  1
  Zr  Zr2  1  0.283036  0.712887  0.283036  1
  Zr  Zr3  1  0.716964  0.287113  0.716964  1
  Zr  Zr4  1  0.283036  0.283036  0.712887  1
  Zr  Zr5  1  0.716964  0.716964  0.287113  1
  Zn  Zn6  1  0.122353  0.122353  0.122353  1
  Zn  Zn7  1  0.877647  0.877647  0.877647  1
  Zn  Zn8  1  0.124390  0.124390  0.626744  1
  Zn  Zn9  1  0.124390  0.626744  0.124390  1
  Zn  Zn10  1  0.875610  0.875610  0.373256  1
  Zn  Zn11  1  0.875610  0.373256  0.875610  1
  Zn  Zn12  1  0.626744  0.124390  0.124390  1
  Zn  Zn13  1  0.373256  0.875610  0.875610  1
  Zn  Zn14  1  0.500000  0.000000  0.000000  1
  Zn  Zn15  1  0.000000  0.500000  0.000000  1
  Zn  Zn16  1  0.000000  0.000000  0.500000  1
  Zn  Zn17  1  0.340998  0.340998  0.340998  1
  Zn  Zn18  1  0.659002  0.659002  0.659002  1
  Zn  Zn19  1  0.341272  0.341272  0.972336  1
  Zn  Zn20  1  0.341272  0.972336  0.341272  1
  Zn  Zn21  1  0.658728  0.658728  0.027664  1
  Zn  Zn22  1  0.658728  0.027664  0.658728  1
  Zn  Zn23  1  0.972336  0.341272  0.341272  1
  Zn  Zn24  1  0.027664  0.658728  0.658728  1
  Ga  Ga25  1  0.500000  0.500000  0.500000  1
  Pt  Pt26  1  0.000000  0.500000  0.500000  1
  Pt  Pt27  1  0.500000  0.000000  0.500000  1
  Pt  Pt28  1  0.500000  0.500000  0.000000  1
  Pt  Pt29  1  0.000000  0.000000  0.000000  1
