# generated using pymatgen
data_Pr7Sm(Si3Rh)4
_symmetry_space_group_name_H-M   'P 1'
_cell_length_a   8.29554100
_cell_length_b   8.29847337
_cell_length_c   8.40026300
_cell_angle_alpha   90.00000000
_cell_angle_beta   90.00000000
_cell_angle_gamma   119.98819489
_symmetry_Int_Tables_number   1
_chemical_formula_structural   Pr7Sm(Si3Rh)4
_chemical_formula_sum   'Pr7 Sm1 Si12 Rh4'
_cell_volume   500.86200033
_cell_formula_units_Z   1
loop_
 _symmetry_equiv_pos_site_id
 _symmetry_equiv_pos_as_xyz
  1  'x, y, z'
loop_
 _atom_site_type_symbol
 _atom_site_label
 _atom_site_symmetry_multiplicity
 _atom_site_fract_x
 _atom_site_fract_y
 _atom_site_fract_z
 _atom_site_occupancy
  Pr  Pr0  1  0.999949  0.999889  0.250000  1
  Pr  Pr1  1  0.000003  0.000012  0.750000  1
  Pr  Pr2  1  0.495194  0.504809  0.250000  1
  Pr  Pr3  1  0.495125  0.990249  0.250000  1
  Pr  Pr4  1  0.009612  0.504809  0.250000  1
  Pr  Pr5  1  0.505028  0.495206  0.750000  1
  Pr  Pr6  1  0.990179  0.495208  0.750000  1
  Sm  Sm7  1  0.504985  0.009967  0.750000  1
  Si  Si8  1  0.832484  0.165963  0.503079  1
  Si  Si9  1  0.833705  0.667409  0.501511  1
  Si  Si10  1  0.333476  0.165961  0.503079  1
  Si  Si11  1  0.832484  0.165963  0.996921  1
  Si  Si12  1  0.833705  0.667409  0.998489  1
  Si  Si13  1  0.333476  0.165961  0.996921  1
  Si  Si14  1  0.167489  0.833757  0.000971  1
  Si  Si15  1  0.666269  0.833757  0.000970  1
  Si  Si16  1  0.166489  0.332978  0.001999  1
  Si  Si17  1  0.167489  0.833757  0.499029  1
  Si  Si18  1  0.666269  0.833757  0.499030  1
  Si  Si19  1  0.166489  0.332978  0.498001  1
  Rh  Rh20  1  0.666311  0.332624  0.479964  1
  Rh  Rh21  1  0.666311  0.332624  0.020036  1
  Rh  Rh22  1  0.333739  0.667476  0.977590  1
  Rh  Rh23  1  0.333739  0.667476  0.522410  1
