# generated using pymatgen
data_Ho5CoRuO12
_symmetry_space_group_name_H-M   'P 1'
_cell_length_a   6.76100381
_cell_length_b   6.76100498
_cell_length_c   7.21423304
_cell_angle_alpha   74.44802614
_cell_angle_beta   74.44802141
_cell_angle_gamma   50.92413778
_symmetry_Int_Tables_number   1
_chemical_formula_structural   Ho5CoRuO12
_chemical_formula_sum   'Ho5 Co1 Ru1 O12'
_cell_volume   244.45720147
_cell_formula_units_Z   1
loop_
 _symmetry_equiv_pos_site_id
 _symmetry_equiv_pos_as_xyz
  1  'x, y, z'
loop_
 _atom_site_type_symbol
 _atom_site_label
 _atom_site_symmetry_multiplicity
 _atom_site_fract_x
 _atom_site_fract_y
 _atom_site_fract_z
 _atom_site_occupancy
  Ho  Ho0  1  0.686216  0.693678  0.668785  1
  Ho  Ho1  1  0.680275  0.712014  0.142229  1
  Ho  Ho2  1  0.997363  0.002637  0.000000  1
  Ho  Ho3  1  0.287986  0.319725  0.857771  1
  Ho  Ho4  1  0.306322  0.313784  0.331215  1
  Co  Co5  1  0.258163  0.741837  0.500000  1
  Ru  Ru6  1  0.769821  0.230179  0.500000  1
  O  O7  1  0.398233  0.911640  0.922143  1
  O  O8  1  0.575859  0.102487  0.582743  1
  O  O9  1  0.897513  0.424141  0.417257  1
  O  O10  1  0.088360  0.601767  0.077857  1
  O  O11  1  0.014945  0.984885  0.323632  1
  O  O12  1  0.502417  0.497553  0.682842  1
  O  O13  1  0.895072  0.403279  0.929332  1
  O  O14  1  0.096988  0.569815  0.582611  1
  O  O15  1  0.430185  0.903012  0.417389  1
  O  O16  1  0.596721  0.104928  0.070668  1
  O  O17  1  0.502447  0.497583  0.317158  1
  O  O18  1  0.015115  0.985055  0.676368  1
