# generated using pymatgen
data_Zr8Be(Si5Mo4)3
_symmetry_space_group_name_H-M   'P 1'
_cell_length_a   6.60593200
_cell_length_b   6.72803309
_cell_length_c   12.70942600
_cell_angle_alpha   90.00000000
_cell_angle_beta   90.00000000
_cell_angle_gamma   89.87643048
_symmetry_Int_Tables_number   1
_chemical_formula_structural   Zr8Be(Si5Mo4)3
_chemical_formula_sum   'Zr8 Be1 Si15 Mo12'
_cell_volume   564.86822382
_cell_formula_units_Z   1
loop_
 _symmetry_equiv_pos_site_id
 _symmetry_equiv_pos_as_xyz
  1  'x, y, z'
loop_
 _atom_site_type_symbol
 _atom_site_label
 _atom_site_symmetry_multiplicity
 _atom_site_fract_x
 _atom_site_fract_y
 _atom_site_fract_z
 _atom_site_occupancy
  Zr  Zr0  1  0.996140  0.170361  0.091952  1
  Zr  Zr1  1  0.003002  0.832340  0.905530  1
  Zr  Zr2  1  0.502680  0.671363  0.904510  1
  Zr  Zr3  1  0.003002  0.832340  0.594470  1
  Zr  Zr4  1  0.495808  0.329816  0.092150  1
  Zr  Zr5  1  0.996140  0.170361  0.408048  1
  Zr  Zr6  1  0.495808  0.329816  0.407850  1
  Zr  Zr7  1  0.502680  0.671363  0.595490  1
  Be  Be8  1  0.038408  0.124077  0.750000  1
  Si  Si9  1  0.965518  0.876238  0.250000  1
  Si  Si10  1  0.465361  0.624661  0.250000  1
  Si  Si11  1  0.536967  0.373445  0.750000  1
  Si  Si12  1  0.291287  0.870448  0.750000  1
  Si  Si13  1  0.699166  0.138720  0.250000  1
  Si  Si14  1  0.199256  0.361603  0.250000  1
  Si  Si15  1  0.801530  0.637757  0.750000  1
  Si  Si16  1  0.166828  0.457861  0.543347  1
  Si  Si17  1  0.832912  0.541455  0.459226  1
  Si  Si18  1  0.333965  0.958136  0.457464  1
  Si  Si19  1  0.832912  0.541455  0.040774  1
  Si  Si20  1  0.666340  0.042091  0.543449  1
  Si  Si21  1  0.166828  0.457861  0.956653  1
  Si  Si22  1  0.666340  0.042091  0.956551  1
  Si  Si23  1  0.333965  0.958136  0.042536  1
  Mo  Mo24  1  0.165432  0.502384  0.750000  1
  Mo  Mo25  1  0.832650  0.491223  0.250000  1
  Mo  Mo26  1  0.331975  0.009343  0.250000  1
  Mo  Mo27  1  0.666777  0.993992  0.750000  1
  Mo  Mo28  1  0.332630  0.164251  0.624112  1
  Mo  Mo29  1  0.667067  0.835925  0.376632  1
  Mo  Mo30  1  0.165789  0.663376  0.376597  1
  Mo  Mo31  1  0.667067  0.835925  0.123368  1
  Mo  Mo32  1  0.839673  0.331078  0.625624  1
  Mo  Mo33  1  0.332630  0.164251  0.875888  1
  Mo  Mo34  1  0.839673  0.331078  0.874376  1
  Mo  Mo35  1  0.165789  0.663376  0.123403  1
