# generated using pymatgen
data_La4Pr4ScPd24
_symmetry_space_group_name_H-M   'P 1'
_cell_length_a   8.58886118
_cell_length_b   8.58772419
_cell_length_c   8.58772400
_cell_angle_alpha   90.00188813
_cell_angle_beta   90.03004592
_cell_angle_gamma   90.03004890
_symmetry_Int_Tables_number   1
_chemical_formula_structural   La4Pr4ScPd24
_chemical_formula_sum   'La4 Pr4 Sc1 Pd24'
_cell_volume   633.41979244
_cell_formula_units_Z   1
loop_
 _symmetry_equiv_pos_site_id
 _symmetry_equiv_pos_as_xyz
  1  'x, y, z'
loop_
 _atom_site_type_symbol
 _atom_site_label
 _atom_site_symmetry_multiplicity
 _atom_site_fract_x
 _atom_site_fract_y
 _atom_site_fract_z
 _atom_site_occupancy
  La  La0  1  0.252454  0.252439  0.747501  1
  La  La1  1  0.252454  0.747501  0.252439  1
  La  La2  1  0.252283  0.747679  0.747679  1
  La  La3  1  0.747514  0.252901  0.252901  1
  Pr  Pr4  1  0.251297  0.251404  0.251404  1
  Pr  Pr5  1  0.748336  0.748026  0.748026  1
  Pr  Pr6  1  0.748536  0.748473  0.251691  1
  Pr  Pr7  1  0.748536  0.251691  0.748473  1
  Sc  Sc8  1  0.998899  0.000070  0.000070  1
  Pd  Pd9  1  0.266733  0.500068  0.999875  1
  Pd  Pd10  1  0.733192  0.499985  0.000134  1
  Pd  Pd11  1  0.999887  0.266719  0.500036  1
  Pd  Pd12  1  0.500123  0.266712  0.000062  1
  Pd  Pd13  1  0.000121  0.733236  0.500015  1
  Pd  Pd14  1  0.500008  0.733253  0.999942  1
  Pd  Pd15  1  0.500123  0.000062  0.266712  1
  Pd  Pd16  1  0.266733  0.999875  0.500068  1
  Pd  Pd17  1  0.500008  0.999942  0.733253  1
  Pd  Pd18  1  0.733192  0.000134  0.499985  1
  Pd  Pd19  1  0.999887  0.500036  0.266719  1
  Pd  Pd20  1  0.000121  0.500015  0.733236  1
  Pd  Pd21  1  0.255309  0.499713  0.499713  1
  Pd  Pd22  1  0.744950  0.500253  0.500253  1
  Pd  Pd23  1  0.499876  0.255103  0.500013  1
  Pd  Pd24  1  0.500397  0.744853  0.499976  1
  Pd  Pd25  1  0.499876  0.500013  0.255103  1
  Pd  Pd26  1  0.500397  0.499976  0.744853  1
  Pd  Pd27  1  0.311606  0.000351  0.000351  1
  Pd  Pd28  1  0.687918  0.999588  0.999588  1
  Pd  Pd29  1  0.000200  0.311828  0.999983  1
  Pd  Pd30  1  0.999416  0.688176  0.999947  1
  Pd  Pd31  1  0.000200  0.999983  0.311828  1
  Pd  Pd32  1  0.999416  0.999947  0.688176  1
