# generated using pymatgen
data_Tb6Dy3Tm11Pt16
_symmetry_space_group_name_H-M   'P 1'
_cell_length_a   7.45900703
_cell_length_b   7.52993515
_cell_length_c   14.65943000
_cell_angle_alpha   89.95707725
_cell_angle_beta   90.00493915
_cell_angle_gamma   90.00548984
_symmetry_Int_Tables_number   1
_chemical_formula_structural   Tb6Dy3Tm11Pt16
_chemical_formula_sum   'Tb6 Dy3 Tm11 Pt16'
_cell_volume   823.35895002
_cell_formula_units_Z   1
loop_
 _symmetry_equiv_pos_site_id
 _symmetry_equiv_pos_as_xyz
  1  'x, y, z'
loop_
 _atom_site_type_symbol
 _atom_site_label
 _atom_site_symmetry_multiplicity
 _atom_site_fract_x
 _atom_site_fract_y
 _atom_site_fract_z
 _atom_site_occupancy
  Tb  Tb0  1  0.656423  0.832119  0.878169  1
  Tb  Tb1  1  0.998792  0.820868  0.406615  1
  Tb  Tb2  1  0.498189  0.678525  0.094202  1
  Tb  Tb3  1  0.501331  0.321262  0.592760  1
  Tb  Tb4  1  0.002011  0.180237  0.907016  1
  Tb  Tb5  1  0.001155  0.178735  0.593034  1
  Dy  Dy6  1  0.501094  0.321023  0.906759  1
  Dy  Dy7  1  0.498320  0.679011  0.406530  1
  Dy  Dy8  1  0.998691  0.820782  0.093536  1
  Tm  Tm9  1  0.680832  0.990133  0.250111  1
  Tm  Tm10  1  0.180762  0.509942  0.250243  1
  Tm  Tm11  1  0.819500  0.489520  0.749392  1
  Tm  Tm12  1  0.318844  0.010566  0.749502  1
  Tm  Tm13  1  0.655767  0.832209  0.622237  1
  Tm  Tm14  1  0.156239  0.667492  0.877321  1
  Tm  Tm15  1  0.843879  0.332691  0.377385  1
  Tm  Tm16  1  0.343626  0.167887  0.122832  1
  Tm  Tm17  1  0.343834  0.167436  0.377380  1
  Tm  Tm18  1  0.844298  0.332773  0.123169  1
  Tm  Tm19  1  0.156338  0.667404  0.622165  1
  Pt  Pt20  1  0.817024  0.642141  0.250074  1
  Pt  Pt21  1  0.316640  0.857998  0.250308  1
  Pt  Pt22  1  0.683058  0.143006  0.749013  1
  Pt  Pt23  1  0.182479  0.357707  0.749821  1
  Pt  Pt24  1  0.546508  0.383439  0.250391  1
  Pt  Pt25  1  0.046665  0.116645  0.250154  1
  Pt  Pt26  1  0.954821  0.883979  0.748817  1
  Pt  Pt27  1  0.452622  0.614778  0.749020  1
  Pt  Pt28  1  0.817774  0.534303  0.541861  1
  Pt  Pt29  1  0.315133  0.967070  0.958593  1
  Pt  Pt30  1  0.682012  0.033637  0.457659  1
  Pt  Pt31  1  0.182910  0.466638  0.042249  1
  Pt  Pt32  1  0.182592  0.466332  0.457663  1
  Pt  Pt33  1  0.682034  0.035245  0.043905  1
  Pt  Pt34  1  0.318183  0.965949  0.541941  1
  Pt  Pt35  1  0.819616  0.530512  0.958172  1
