# generated using pymatgen
data_Ho2Lu4CoP12Ir17
_symmetry_space_group_name_H-M   'P 1'
_cell_length_a   3.94705400
_cell_length_b   11.13228700
_cell_length_c   12.77272600
_cell_angle_alpha   90.00000000
_cell_angle_beta   90.00000000
_cell_angle_gamma   90.00000000
_symmetry_Int_Tables_number   1
_chemical_formula_structural   Ho2Lu4CoP12Ir17
_chemical_formula_sum   'Ho2 Lu4 Co1 P12 Ir17'
_cell_volume   561.23023312
_cell_formula_units_Z   1
loop_
 _symmetry_equiv_pos_site_id
 _symmetry_equiv_pos_as_xyz
  1  'x, y, z'
loop_
 _atom_site_type_symbol
 _atom_site_label
 _atom_site_symmetry_multiplicity
 _atom_site_fract_x
 _atom_site_fract_y
 _atom_site_fract_z
 _atom_site_occupancy
  Ho  Ho0  1  0.000000  0.500000  0.522407  1
  Ho  Ho1  1  0.500000  0.000000  0.477152  1
  Lu  Lu2  1  0.500000  0.818940  0.202330  1
  Lu  Lu3  1  0.500000  0.181060  0.202330  1
  Lu  Lu4  1  0.000000  0.688607  0.798061  1
  Lu  Lu5  1  0.000000  0.311393  0.798061  1
  Co  Co6  1  0.500000  0.000000  0.026206  1
  P  P7  1  0.500000  0.315534  0.618683  1
  P  P8  1  0.500000  0.684466  0.618683  1
  P  P9  1  0.000000  0.184223  0.381074  1
  P  P10  1  0.000000  0.815777  0.381074  1
  P  P11  1  0.500000  0.500000  0.875716  1
  P  P12  1  0.000000  0.000000  0.121869  1
  P  P13  1  0.500000  0.854331  0.896460  1
  P  P14  1  0.500000  0.145669  0.896460  1
  P  P15  1  0.000000  0.657644  0.106192  1
  P  P16  1  0.000000  0.342356  0.106192  1
  P  P17  1  0.500000  0.500000  0.358496  1
  P  P18  1  0.000000  0.000000  0.639624  1
  Ir  Ir19  1  0.000000  0.500000  0.969877  1
  Ir  Ir20  1  0.500000  0.293937  0.429370  1
  Ir  Ir21  1  0.500000  0.706063  0.429370  1
  Ir  Ir22  1  0.000000  0.207369  0.570306  1
  Ir  Ir23  1  0.000000  0.792631  0.570306  1
  Ir  Ir24  1  0.500000  0.868294  0.714765  1
  Ir  Ir25  1  0.500000  0.131706  0.714765  1
  Ir  Ir26  1  0.000000  0.632644  0.284500  1
  Ir  Ir27  1  0.000000  0.367356  0.284500  1
  Ir  Ir28  1  0.500000  0.333226  0.001800  1
  Ir  Ir29  1  0.500000  0.666774  0.001800  1
  Ir  Ir30  1  0.000000  0.157681  0.001487  1
  Ir  Ir31  1  0.000000  0.842319  0.001487  1
  Ir  Ir32  1  0.500000  0.500000  0.179735  1
  Ir  Ir33  1  0.000000  0.000000  0.819409  1
  Ir  Ir34  1  0.500000  0.500000  0.700633  1
  Ir  Ir35  1  0.000000  0.000000  0.298813  1
