# generated using pymatgen
data_Dy3Ho6Lu11Sn16
_symmetry_space_group_name_H-M   'P 1'
_cell_length_a   7.94255205
_cell_length_b   8.06815980
_cell_length_c   15.25058904
_cell_angle_alpha   90.03164099
_cell_angle_beta   90.00916035
_cell_angle_gamma   90.06882919
_symmetry_Int_Tables_number   1
_chemical_formula_structural   Dy3Ho6Lu11Sn16
_chemical_formula_sum   'Dy3 Ho6 Lu11 Sn16'
_cell_volume   977.28401240
_cell_formula_units_Z   1
loop_
 _symmetry_equiv_pos_site_id
 _symmetry_equiv_pos_as_xyz
  1  'x, y, z'
loop_
 _atom_site_type_symbol
 _atom_site_label
 _atom_site_symmetry_multiplicity
 _atom_site_fract_x
 _atom_site_fract_y
 _atom_site_fract_z
 _atom_site_occupancy
  Dy  Dy0  1  0.979451  0.821772  0.403476  1
  Dy  Dy1  1  0.519732  0.321151  0.595382  1
  Dy  Dy2  1  0.020411  0.178354  0.903728  1
  Ho  Ho3  1  0.866203  0.663526  0.877733  1
  Ho  Ho4  1  0.520467  0.321206  0.904169  1
  Ho  Ho5  1  0.020672  0.178692  0.595631  1
  Ho  Ho6  1  0.479188  0.678427  0.403877  1
  Ho  Ho7  1  0.978776  0.822463  0.097467  1
  Ho  Ho8  1  0.480658  0.677877  0.096208  1
  Lu  Lu9  1  0.364599  0.837462  0.876215  1
  Lu  Lu10  1  0.865234  0.661951  0.623060  1
  Lu  Lu11  1  0.634923  0.161573  0.376665  1
  Lu  Lu12  1  0.135005  0.337963  0.123643  1
  Lu  Lu13  1  0.633808  0.161936  0.124610  1
  Lu  Lu14  1  0.134678  0.337475  0.376605  1
  Lu  Lu15  1  0.365991  0.838140  0.622732  1
  Lu  Lu16  1  0.196919  0.504758  0.749696  1
  Lu  Lu17  1  0.696214  0.995743  0.749259  1
  Lu  Lu18  1  0.803541  0.495028  0.250384  1
  Lu  Lu19  1  0.303184  0.004676  0.249988  1
  Sn  Sn20  1  0.296451  0.039329  0.041512  1
  Sn  Sn21  1  0.796841  0.460690  0.458153  1
  Sn  Sn22  1  0.704259  0.960317  0.541234  1
  Sn  Sn23  1  0.206880  0.538177  0.959006  1
  Sn  Sn24  1  0.700988  0.963653  0.958689  1
  Sn  Sn25  1  0.202584  0.539591  0.541415  1
  Sn  Sn26  1  0.296493  0.039130  0.458358  1
  Sn  Sn27  1  0.796526  0.459029  0.043053  1
  Sn  Sn28  1  0.561797  0.620044  0.748993  1
  Sn  Sn29  1  0.063053  0.880977  0.748974  1
  Sn  Sn30  1  0.437666  0.379890  0.250717  1
  Sn  Sn31  1  0.937610  0.120288  0.250054  1
  Sn  Sn32  1  0.330645  0.149461  0.749615  1
  Sn  Sn33  1  0.830165  0.350353  0.749345  1
  Sn  Sn34  1  0.668945  0.849778  0.250221  1
  Sn  Sn35  1  0.169445  0.649123  0.250134  1
