# generated using pymatgen
data_Ca2Y4Sb7AsPd16
_symmetry_space_group_name_H-M   'P 1'
_cell_length_a   9.39785374
_cell_length_b   9.34982662
_cell_length_c   9.34982699
_cell_angle_alpha   60.34012951
_cell_angle_beta   59.82993325
_cell_angle_gamma   59.82993116
_symmetry_Int_Tables_number   1
_chemical_formula_structural   Ca2Y4Sb7AsPd16
_chemical_formula_sum   'Ca2 Y4 Sb7 As1 Pd16'
_cell_volume   580.89516124
_cell_formula_units_Z   1
loop_
 _symmetry_equiv_pos_site_id
 _symmetry_equiv_pos_as_xyz
  1  'x, y, z'
loop_
 _atom_site_type_symbol
 _atom_site_label
 _atom_site_symmetry_multiplicity
 _atom_site_fract_x
 _atom_site_fract_y
 _atom_site_fract_z
 _atom_site_occupancy
  Ca  Ca0  1  0.717955  0.282045  0.282045  1
  Ca  Ca1  1  0.282045  0.717955  0.717955  1
  Y  Y2  1  0.285345  0.714655  0.285345  1
  Y  Y3  1  0.714655  0.285345  0.714655  1
  Y  Y4  1  0.285345  0.285345  0.714655  1
  Y  Y5  1  0.714655  0.714655  0.285345  1
  Sb  Sb6  1  0.000000  0.000000  0.000000  1
  Sb  Sb7  1  0.500000  0.000000  0.000000  1
  Sb  Sb8  1  0.000000  0.500000  0.500000  1
  Sb  Sb9  1  0.000000  0.500000  0.000000  1
  Sb  Sb10  1  0.500000  0.000000  0.500000  1
  Sb  Sb11  1  0.000000  0.000000  0.500000  1
  Sb  Sb12  1  0.500000  0.500000  0.000000  1
  As  As13  1  0.500000  0.500000  0.500000  1
  Pd  Pd14  1  0.124334  0.115903  0.115903  1
  Pd  Pd15  1  0.875666  0.884097  0.884097  1
  Pd  Pd16  1  0.115903  0.124334  0.643860  1
  Pd  Pd17  1  0.115903  0.643860  0.124334  1
  Pd  Pd18  1  0.884097  0.875666  0.356140  1
  Pd  Pd19  1  0.884097  0.356140  0.875666  1
  Pd  Pd20  1  0.643860  0.115903  0.115903  1
  Pd  Pd21  1  0.356140  0.884097  0.884097  1
  Pd  Pd22  1  0.332453  0.332155  0.332155  1
  Pd  Pd23  1  0.667547  0.667845  0.667845  1
  Pd  Pd24  1  0.332155  0.332453  0.003237  1
  Pd  Pd25  1  0.332155  0.003237  0.332453  1
  Pd  Pd26  1  0.667845  0.667547  0.996763  1
  Pd  Pd27  1  0.667845  0.996763  0.667547  1
  Pd  Pd28  1  0.003237  0.332155  0.332155  1
  Pd  Pd29  1  0.996763  0.667845  0.667845  1
