# generated using pymatgen
data_Ta12Tc11B12Ru
_symmetry_space_group_name_H-M   'P 1'
_cell_length_a   3.17240500
_cell_length_b   9.05580416
_cell_length_c   15.70097798
_cell_angle_alpha   89.87754838
_cell_angle_beta   90.00000000
_cell_angle_gamma   90.00000000
_symmetry_Int_Tables_number   1
_chemical_formula_structural   Ta12Tc11B12Ru
_chemical_formula_sum   'Ta12 Tc11 B12 Ru1'
_cell_volume   451.06731682
_cell_formula_units_Z   1
loop_
 _symmetry_equiv_pos_site_id
 _symmetry_equiv_pos_as_xyz
  1  'x, y, z'
loop_
 _atom_site_type_symbol
 _atom_site_label
 _atom_site_symmetry_multiplicity
 _atom_site_fract_x
 _atom_site_fract_y
 _atom_site_fract_z
 _atom_site_occupancy
  Ta  Ta0  1  0.000000  0.806257  0.493592  1
  Ta  Ta1  1  0.000000  0.194013  0.506569  1
  Ta  Ta2  1  0.000000  0.305628  0.006759  1
  Ta  Ta3  1  0.000000  0.693796  0.993063  1
  Ta  Ta4  1  0.000000  0.516688  0.595395  1
  Ta  Ta5  1  0.000000  0.484200  0.404210  1
  Ta  Ta6  1  0.000000  0.016474  0.904355  1
  Ta  Ta7  1  0.000000  0.983502  0.095998  1
  Ta  Ta8  1  0.000000  0.679199  0.207249  1
  Ta  Ta9  1  0.000000  0.319654  0.792667  1
  Ta  Ta10  1  0.000000  0.183021  0.293172  1
  Ta  Ta11  1  0.000000  0.819640  0.707672  1
  Tc  Tc12  1  0.500000  0.718805  0.357677  1
  Tc  Tc13  1  0.500000  0.282351  0.642040  1
  Tc  Tc14  1  0.500000  0.216716  0.142067  1
  Tc  Tc15  1  0.500000  0.782131  0.858137  1
  Tc  Tc16  1  0.500000  0.519355  0.095391  1
  Tc  Tc17  1  0.500000  0.481333  0.905880  1
  Tc  Tc18  1  0.500000  0.019093  0.403613  1
  Tc  Tc19  1  0.500000  0.980753  0.594211  1
  Tc  Tc20  1  0.500000  0.566776  0.732407  1
  Tc  Tc21  1  0.500000  0.432992  0.267433  1
  Tc  Tc22  1  0.500000  0.068163  0.767460  1
  B  B23  1  0.500000  0.604791  0.493869  1
  B  B24  1  0.500000  0.395355  0.505906  1
  B  B25  1  0.500000  0.104256  0.005886  1
  B  B26  1  0.500000  0.895449  0.994643  1
  B  B27  1  0.000000  0.608665  0.832348  1
  B  B28  1  0.000000  0.390940  0.167095  1
  B  B29  1  0.000000  0.108271  0.667070  1
  B  B30  1  0.000000  0.890331  0.334158  1
  B  B31  1  0.500000  0.717371  0.602768  1
  B  B32  1  0.500000  0.283728  0.397429  1
  B  B33  1  0.500000  0.216850  0.898027  1
  B  B34  1  0.500000  0.781755  0.101665  1
  Ru  Ru35  1  0.500000  0.931698  0.232120  1
