# generated using pymatgen
data_Nd4CdCuNi3Hg
_symmetry_space_group_name_H-M   'P 1'
_cell_length_a   7.57185756
_cell_length_b   7.60561954
_cell_length_c   3.80011300
_cell_angle_alpha   90.00000000
_cell_angle_beta   90.00000000
_cell_angle_gamma   90.04733429
_symmetry_Int_Tables_number   1
_chemical_formula_structural   Nd4CdCuNi3Hg
_chemical_formula_sum   'Nd4 Cd1 Cu1 Ni3 Hg1'
_cell_volume   218.84337059
_cell_formula_units_Z   1
loop_
 _symmetry_equiv_pos_site_id
 _symmetry_equiv_pos_as_xyz
  1  'x, y, z'
loop_
 _atom_site_type_symbol
 _atom_site_label
 _atom_site_symmetry_multiplicity
 _atom_site_fract_x
 _atom_site_fract_y
 _atom_site_fract_z
 _atom_site_occupancy
  Nd  Nd0  1  0.672839  0.189840  0.000000  1
  Nd  Nd1  1  0.314472  0.823301  0.000000  1
  Nd  Nd2  1  0.181446  0.322396  0.000000  1
  Nd  Nd3  1  0.829969  0.665946  0.000000  1
  Cd  Cd4  1  0.996419  0.001344  0.500000  1
  Cu  Cu5  1  0.617831  0.885227  0.500000  1
  Ni  Ni6  1  0.888774  0.378996  0.500000  1
  Ni  Ni7  1  0.116750  0.614869  0.500000  1
  Ni  Ni8  1  0.382515  0.114194  0.500000  1
  Hg  Hg9  1  0.498985  0.503888  0.500000  1
