# generated using pymatgen
data_Nb12Al9Zn13Pd2
_symmetry_space_group_name_H-M   'P 1'
_cell_length_a   8.86474100
_cell_length_b   8.86474033
_cell_length_c   8.16207200
_cell_angle_alpha   90.00000000
_cell_angle_beta   90.00000000
_cell_angle_gamma   119.99999129
_symmetry_Int_Tables_number   1
_chemical_formula_structural   Nb12Al9Zn13Pd2
_chemical_formula_sum   'Nb12 Al9 Zn13 Pd2'
_cell_volume   555.47326536
_cell_formula_units_Z   1
loop_
 _symmetry_equiv_pos_site_id
 _symmetry_equiv_pos_as_xyz
  1  'x, y, z'
loop_
 _atom_site_type_symbol
 _atom_site_label
 _atom_site_symmetry_multiplicity
 _atom_site_fract_x
 _atom_site_fract_y
 _atom_site_fract_z
 _atom_site_occupancy
  Nb  Nb0  1  0.335247  0.000015  0.067939  1
  Nb  Nb1  1  0.664769  0.000015  0.932061  1
  Nb  Nb2  1  0.999985  0.335231  0.067939  1
  Nb  Nb3  1  0.665992  0.001026  0.568738  1
  Nb  Nb4  1  0.998974  0.334008  0.431262  1
  Nb  Nb5  1  0.999985  0.664753  0.932061  1
  Nb  Nb6  1  0.335034  0.001026  0.431262  1
  Nb  Nb7  1  0.998974  0.664966  0.568738  1
  Nb  Nb8  1  0.664769  0.664753  0.067939  1
  Nb  Nb9  1  0.335247  0.335231  0.932061  1
  Nb  Nb10  1  0.335034  0.334008  0.568738  1
  Nb  Nb11  1  0.665992  0.664966  0.431262  1
  Al  Al12  1  0.666667  0.333333  0.500000  1
  Al  Al13  1  0.666667  0.333333  0.000000  1
  Al  Al14  1  0.333333  0.666667  0.000000  1
  Al  Al15  1  0.173769  0.999728  0.750204  1
  Al  Al16  1  0.825960  0.999728  0.249796  1
  Al  Al17  1  0.000272  0.174040  0.750204  1
  Al  Al18  1  0.000272  0.826231  0.249796  1
  Al  Al19  1  0.825960  0.826231  0.750204  1
  Al  Al20  1  0.173769  0.174040  0.249796  1
  Zn  Zn21  1  0.161247  0.495860  0.747020  1
  Zn  Zn22  1  0.839788  0.505019  0.249869  1
  Zn  Zn23  1  0.504140  0.665387  0.747020  1
  Zn  Zn24  1  0.494981  0.160212  0.750131  1
  Zn  Zn25  1  0.494981  0.334769  0.249869  1
  Zn  Zn26  1  0.504140  0.838753  0.252980  1
  Zn  Zn27  1  0.334613  0.838753  0.747020  1
  Zn  Zn28  1  0.665231  0.505019  0.750131  1
  Zn  Zn29  1  0.665231  0.160212  0.249869  1
  Zn  Zn30  1  0.334613  0.495860  0.252980  1
  Zn  Zn31  1  0.839788  0.334769  0.750131  1
  Zn  Zn32  1  0.161247  0.665387  0.252980  1
  Zn  Zn33  1  0.333333  0.666667  0.500000  1
  Pd  Pd34  1  0.000000  0.000000  0.500000  1
  Pd  Pd35  1  0.000000  0.000000  0.000000  1
