# generated using pymatgen
data_CsTi(CuSe2)2
_symmetry_space_group_name_H-M   'P 1'
_cell_length_a   10.52825675
_cell_length_b   10.52825654
_cell_length_c   7.88941100
_cell_angle_alpha   90.00000000
_cell_angle_beta   90.00000000
_cell_angle_gamma   148.17906653
_symmetry_Int_Tables_number   1
_chemical_formula_structural   CsTi(CuSe2)2
_chemical_formula_sum   'Cs2 Ti2 Cu4 Se8'
_cell_volume   461.09190921
_cell_formula_units_Z   2
loop_
 _symmetry_equiv_pos_site_id
 _symmetry_equiv_pos_as_xyz
  1  'x, y, z'
loop_
 _atom_site_type_symbol
 _atom_site_label
 _atom_site_symmetry_multiplicity
 _atom_site_fract_x
 _atom_site_fract_y
 _atom_site_fract_z
 _atom_site_occupancy
  Cs  Cs0  1  0.471992  0.103001  0.750000  1
  Cs  Cs1  1  0.103001  0.471992  0.250000  1
  Ti  Ti2  1  0.437935  0.648368  0.750000  1
  Ti  Ti3  1  0.648368  0.437935  0.250000  1
  Cu  Cu4  1  0.570681  0.570681  0.500000  1
  Cu  Cu5  1  0.570681  0.570681  0.000000  1
  Cu  Cu6  1  0.144519  0.945748  0.250000  1
  Cu  Cu7  1  0.945748  0.144519  0.750000  1
  Se  Se8  1  0.089788  0.484302  0.750000  1
  Se  Se9  1  0.319958  0.311839  0.250000  1
  Se  Se10  1  0.891070  0.686286  0.003588  1
  Se  Se11  1  0.686286  0.891070  0.996412  1
  Se  Se12  1  0.891070  0.686286  0.496412  1
  Se  Se13  1  0.686286  0.891070  0.503588  1
  Se  Se14  1  0.311839  0.319958  0.750000  1
  Se  Se15  1  0.484302  0.089788  0.250000  1
