# generated using pymatgen
data_HfZr12PaPt20
_symmetry_space_group_name_H-M   'P 1'
_cell_length_a   8.24397952
_cell_length_b   8.24397991
_cell_length_c   9.76094817
_cell_angle_alpha   90.05723386
_cell_angle_beta   90.05724500
_cell_angle_gamma   107.31888609
_symmetry_Int_Tables_number   1
_chemical_formula_structural   HfZr12PaPt20
_chemical_formula_sum   'Hf1 Zr12 Pa1 Pt20'
_cell_volume   633.30830753
_cell_formula_units_Z   1
loop_
 _symmetry_equiv_pos_site_id
 _symmetry_equiv_pos_as_xyz
  1  'x, y, z'
loop_
 _atom_site_type_symbol
 _atom_site_label
 _atom_site_symmetry_multiplicity
 _atom_site_fract_x
 _atom_site_fract_y
 _atom_site_fract_z
 _atom_site_occupancy
  Hf  Hf0  1  0.999882  0.000118  0.000000  1
  Zr  Zr1  1  0.309660  0.690340  0.000000  1
  Zr  Zr2  1  0.809910  0.190090  0.500000  1
  Zr  Zr3  1  0.190108  0.809892  0.500000  1
  Zr  Zr4  1  0.500238  0.499762  0.500000  1
  Zr  Zr5  1  0.004037  0.503309  0.251863  1
  Zr  Zr6  1  0.001128  0.500579  0.747652  1
  Zr  Zr7  1  0.496691  0.995963  0.748137  1
  Zr  Zr8  1  0.499421  0.998872  0.252348  1
  Zr  Zr9  1  0.312517  0.315817  0.185661  1
  Zr  Zr10  1  0.684183  0.687483  0.814339  1
  Zr  Zr11  1  0.181985  0.181117  0.682232  1
  Zr  Zr12  1  0.818883  0.818015  0.317768  1
  Pa  Pa13  1  0.690341  0.309659  0.000000  1
  Pt  Pt14  1  0.854263  0.142477  0.208503  1
  Pt  Pt15  1  0.145701  0.855759  0.792217  1
  Pt  Pt16  1  0.647721  0.353795  0.707783  1
  Pt  Pt17  1  0.646205  0.352279  0.292217  1
  Pt  Pt18  1  0.352055  0.645375  0.291987  1
  Pt  Pt19  1  0.354625  0.647945  0.708013  1
  Pt  Pt20  1  0.857523  0.145737  0.791497  1
  Pt  Pt21  1  0.144241  0.854299  0.207783  1
  Pt  Pt22  1  0.937729  0.647499  0.999313  1
  Pt  Pt23  1  0.063149  0.353313  0.001342  1
  Pt  Pt24  1  0.562799  0.854365  0.499077  1
  Pt  Pt25  1  0.145635  0.437201  0.500923  1
  Pt  Pt26  1  0.437050  0.145323  0.500883  1
  Pt  Pt27  1  0.854677  0.562950  0.499117  1
  Pt  Pt28  1  0.352501  0.062271  0.000687  1
  Pt  Pt29  1  0.646687  0.936851  0.998658  1
  Pt  Pt30  1  0.108230  0.107723  0.394560  1
  Pt  Pt31  1  0.892277  0.891770  0.605440  1
  Pt  Pt32  1  0.391865  0.393915  0.891928  1
  Pt  Pt33  1  0.606085  0.608135  0.108072  1
