# generated using pymatgen
data_NaSnSb11Rh4
_symmetry_space_group_name_H-M   'P 1'
_cell_length_a   8.16954100
_cell_length_b   8.16954192
_cell_length_c   8.17185900
_cell_angle_alpha   109.56067695
_cell_angle_beta   109.61767952
_cell_angle_gamma   109.22403744
_symmetry_Int_Tables_number   1
_chemical_formula_structural   NaSnSb11Rh4
_chemical_formula_sum   'Na1 Sn1 Sb11 Rh4'
_cell_volume   419.90421007
_cell_formula_units_Z   1
loop_
 _symmetry_equiv_pos_site_id
 _symmetry_equiv_pos_as_xyz
  1  'x, y, z'
loop_
 _atom_site_type_symbol
 _atom_site_label
 _atom_site_symmetry_multiplicity
 _atom_site_fract_x
 _atom_site_fract_y
 _atom_site_fract_z
 _atom_site_occupancy
  Na  Na0  1  0.999875  0.000802  0.000676  1
  Sn  Sn1  1  0.841966  0.659845  0.501811  1
  Sb  Sb2  1  0.154582  0.342207  0.496791  1
  Sb  Sb3  1  0.153662  0.659599  0.813262  1
  Sb  Sb4  1  0.843786  0.342674  0.186459  1
  Sb  Sb5  1  0.660557  0.503140  0.843407  1
  Sb  Sb6  1  0.342988  0.497018  0.157204  1
  Sb  Sb7  1  0.660187  0.814218  0.157204  1
  Sb  Sb8  1  0.340267  0.182849  0.843407  1
  Sb  Sb9  1  0.504304  0.843345  0.659835  1
  Sb  Sb10  1  0.497496  0.157179  0.340790  1
  Sb  Sb11  1  0.183610  0.843294  0.340790  1
  Sb  Sb12  1  0.816491  0.155531  0.659835  1
  Rh  Rh13  1  0.495961  0.497918  0.499313  1
  Rh  Rh14  1  0.501056  0.998134  0.999950  1
  Rh  Rh15  1  0.001816  0.498894  0.999950  1
  Rh  Rh16  1  0.001395  0.003353  0.499313  1
