# generated using pymatgen
data_Dy7Tm(InPd)2
_symmetry_space_group_name_H-M   'P 1'
_cell_length_a   9.71267051
_cell_length_b   9.72298385
_cell_length_c   9.72152300
_cell_angle_alpha   59.99502532
_cell_angle_beta   59.96238058
_cell_angle_gamma   59.96487039
_symmetry_Int_Tables_number   1
_chemical_formula_structural   Dy7Tm(InPd)2
_chemical_formula_sum   'Dy14 Tm2 In4 Pd4'
_cell_volume   648.78712585
_cell_formula_units_Z   2
loop_
 _symmetry_equiv_pos_site_id
 _symmetry_equiv_pos_as_xyz
  1  'x, y, z'
loop_
 _atom_site_type_symbol
 _atom_site_label
 _atom_site_symmetry_multiplicity
 _atom_site_fract_x
 _atom_site_fract_y
 _atom_site_fract_z
 _atom_site_occupancy
  Dy  Dy0  1  0.311080  0.689442  0.310038  1
  Dy  Dy1  1  0.936745  0.937905  0.562539  1
  Dy  Dy2  1  0.148786  0.148931  0.553352  1
  Dy  Dy3  1  0.563032  0.937563  0.561843  1
  Dy  Dy4  1  0.148233  0.148997  0.149448  1
  Dy  Dy5  1  0.310401  0.310221  0.689290  1
  Dy  Dy6  1  0.936745  0.562812  0.562539  1
  Dy  Dy7  1  0.563038  0.561993  0.937978  1
  Dy  Dy8  1  0.563038  0.936992  0.937978  1
  Dy  Dy9  1  0.936191  0.562725  0.938358  1
  Dy  Dy10  1  0.148233  0.553321  0.149448  1
  Dy  Dy11  1  0.310401  0.690088  0.689290  1
  Dy  Dy12  1  0.690015  0.310333  0.689319  1
  Dy  Dy13  1  0.554462  0.148080  0.149376  1
  Tm  Tm14  1  0.689816  0.310687  0.309793  1
  Tm  Tm15  1  0.689816  0.689704  0.309793  1
  In  In16  1  0.916798  0.917176  0.248851  1
  In  In17  1  0.248324  0.917206  0.917263  1
  In  In18  1  0.916801  0.249258  0.917202  1
  In  In19  1  0.916801  0.916741  0.917202  1
  Pd  Pd20  1  0.358475  0.356020  0.356462  1
  Pd  Pd21  1  0.927424  0.358356  0.355866  1
  Pd  Pd22  1  0.356873  0.356410  0.930307  1
  Pd  Pd23  1  0.358475  0.929044  0.356462  1
