# generated using pymatgen
data_Ho4LuHg2Bi
_symmetry_space_group_name_H-M   'P 1'
_cell_length_a   8.78413523
_cell_length_b   8.78413453
_cell_length_c   8.78413588
_cell_angle_alpha   124.29652984
_cell_angle_beta   124.29652588
_cell_angle_gamma   82.70650715
_symmetry_Int_Tables_number   1
_chemical_formula_structural   Ho4LuHg2Bi
_chemical_formula_sum   'Ho8 Lu2 Hg4 Bi2'
_cell_volume   444.19419201
_cell_formula_units_Z   2
loop_
 _symmetry_equiv_pos_site_id
 _symmetry_equiv_pos_as_xyz
  1  'x, y, z'
loop_
 _atom_site_type_symbol
 _atom_site_label
 _atom_site_symmetry_multiplicity
 _atom_site_fract_x
 _atom_site_fract_y
 _atom_site_fract_z
 _atom_site_occupancy
  Ho  Ho0  1  0.008027  0.508027  0.807928  1
  Ho  Ho1  1  0.700099  0.200099  0.192072  1
  Ho  Ho2  1  0.508027  0.700099  0.500000  1
  Ho  Ho3  1  0.200099  0.008027  0.500000  1
  Ho  Ho4  1  0.991973  0.491973  0.192072  1
  Ho  Ho5  1  0.299901  0.799901  0.807928  1
  Ho  Ho6  1  0.491973  0.299901  0.500000  1
  Ho  Ho7  1  0.799901  0.991973  0.500000  1
  Lu  Lu8  1  0.000000  0.000000  0.000000  1
  Lu  Lu9  1  0.500000  0.500000  0.000000  1
  Hg  Hg10  1  0.640341  0.140341  0.780681  1
  Hg  Hg11  1  0.359659  0.859659  0.219319  1
  Hg  Hg12  1  0.140341  0.359659  0.500000  1
  Hg  Hg13  1  0.859659  0.640341  0.500000  1
  Bi  Bi14  1  0.750000  0.750000  0.000000  1
  Bi  Bi15  1  0.250000  0.250000  0.000000  1
