# generated using pymatgen
data_Sm5Dy3(SiBr6)2
_symmetry_space_group_name_H-M   'P 1'
_cell_length_a   4.11271400
_cell_length_b   13.44648614
_cell_length_c   14.22013733
_cell_angle_alpha   90.26940562
_cell_angle_beta   90.00000000
_cell_angle_gamma   90.00000000
_symmetry_Int_Tables_number   1
_chemical_formula_structural   Sm5Dy3(SiBr6)2
_chemical_formula_sum   'Sm5 Dy3 Si2 Br12'
_cell_volume   786.38696748
_cell_formula_units_Z   1
loop_
 _symmetry_equiv_pos_site_id
 _symmetry_equiv_pos_as_xyz
  1  'x, y, z'
loop_
 _atom_site_type_symbol
 _atom_site_label
 _atom_site_symmetry_multiplicity
 _atom_site_fract_x
 _atom_site_fract_y
 _atom_site_fract_z
 _atom_site_occupancy
  Sm  Sm0  1  0.500000  0.117900  0.341329  1
  Sm  Sm1  1  0.000000  0.119920  0.579938  1
  Sm  Sm2  1  0.000000  0.880132  0.419977  1
  Sm  Sm3  1  0.000000  0.619645  0.920407  1
  Sm  Sm4  1  0.000000  0.381265  0.078924  1
  Dy  Dy5  1  0.500000  0.882001  0.658887  1
  Dy  Dy6  1  0.500000  0.617545  0.158028  1
  Dy  Dy7  1  0.500000  0.382607  0.841854  1
  Si  Si8  1  0.500000  0.998864  0.501560  1
  Si  Si9  1  0.500000  0.500539  0.999630  1
  Br  Br10  1  0.500000  0.243046  0.162233  1
  Br  Br11  1  0.500000  0.758483  0.834542  1
  Br  Br12  1  0.500000  0.740796  0.334243  1
  Br  Br13  1  0.500000  0.258711  0.666461  1
  Br  Br14  1  0.000000  0.256959  0.412140  1
  Br  Br15  1  0.000000  0.747160  0.592445  1
  Br  Br16  1  0.000000  0.752371  0.092608  1
  Br  Br17  1  0.000000  0.247611  0.907177  1
  Br  Br18  1  0.000000  0.000622  0.241502  1
  Br  Br19  1  0.000000  0.993781  0.756261  1
  Br  Br20  1  0.000000  0.506625  0.255706  1
  Br  Br21  1  0.000000  0.493418  0.744148  1
