# generated using pymatgen
data_Zr2Si7Ir12
_symmetry_space_group_name_H-M   'P 1'
_cell_length_a   9.72999100
_cell_length_b   9.72999055
_cell_length_c   3.84312100
_cell_angle_alpha   90.00000000
_cell_angle_beta   90.00000000
_cell_angle_gamma   120.00001173
_symmetry_Int_Tables_number   1
_chemical_formula_structural   Zr2Si7Ir12
_chemical_formula_sum   'Zr2 Si7 Ir12'
_cell_volume   315.09353738
_cell_formula_units_Z   1
loop_
 _symmetry_equiv_pos_site_id
 _symmetry_equiv_pos_as_xyz
  1  'x, y, z'
loop_
 _atom_site_type_symbol
 _atom_site_label
 _atom_site_symmetry_multiplicity
 _atom_site_fract_x
 _atom_site_fract_y
 _atom_site_fract_z
 _atom_site_occupancy
  Zr  Zr0  1  0.333333  0.666667  0.750533  1
  Zr  Zr1  1  0.666667  0.333333  0.249467  1
  Si  Si2  1  0.000000  0.000000  0.500000  1
  Si  Si3  1  0.407472  0.291311  0.751248  1
  Si  Si4  1  0.708689  0.116160  0.751248  1
  Si  Si5  1  0.883840  0.592528  0.751248  1
  Si  Si6  1  0.592528  0.708689  0.248752  1
  Si  Si7  1  0.291311  0.883840  0.248752  1
  Si  Si8  1  0.116160  0.407472  0.248752  1
  Ir  Ir9  1  0.447732  0.068710  0.751404  1
  Ir  Ir10  1  0.931290  0.379022  0.751404  1
  Ir  Ir11  1  0.620978  0.552268  0.751404  1
  Ir  Ir12  1  0.552268  0.931290  0.248596  1
  Ir  Ir13  1  0.068710  0.620978  0.248596  1
  Ir  Ir14  1  0.379022  0.447732  0.248596  1
  Ir  Ir15  1  0.145390  0.265099  0.746953  1
  Ir  Ir16  1  0.734901  0.880292  0.746953  1
  Ir  Ir17  1  0.119708  0.854610  0.746953  1
  Ir  Ir18  1  0.854610  0.734901  0.253047  1
  Ir  Ir19  1  0.265099  0.119708  0.253047  1
  Ir  Ir20  1  0.880292  0.145390  0.253047  1
