# generated using pymatgen
data_CsPaTiTe5
_symmetry_space_group_name_H-M   'P 1'
_cell_length_a   6.21564600
_cell_length_b   8.72358800
_cell_length_c   10.35739500
_cell_angle_alpha   90.00000000
_cell_angle_beta   90.00000000
_cell_angle_gamma   90.00000000
_symmetry_Int_Tables_number   1
_chemical_formula_structural   CsPaTiTe5
_chemical_formula_sum   'Cs2 Pa2 Ti2 Te10'
_cell_volume   561.60628290
_cell_formula_units_Z   2
loop_
 _symmetry_equiv_pos_site_id
 _symmetry_equiv_pos_as_xyz
  1  'x, y, z'
loop_
 _atom_site_type_symbol
 _atom_site_label
 _atom_site_symmetry_multiplicity
 _atom_site_fract_x
 _atom_site_fract_y
 _atom_site_fract_z
 _atom_site_occupancy
  Cs  Cs0  1  0.750001  0.500000  0.216677  1
  Cs  Cs1  1  0.249999  0.500000  0.783323  1
  Pa  Pa2  1  0.249999  0.000000  0.327688  1
  Pa  Pa3  1  0.750001  0.000000  0.672311  1
  Ti  Ti4  1  0.000000  0.000000  0.000000  1
  Ti  Ti5  1  0.500000  0.000000  0.000000  1
  Te  Te6  1  0.249999  0.236946  0.109353  1
  Te  Te7  1  0.249999  0.763053  0.109353  1
  Te  Te8  1  0.750001  0.000000  0.226540  1
  Te  Te9  1  0.000000  0.234152  0.500000  1
  Te  Te10  1  0.500000  0.234152  0.500000  1
  Te  Te11  1  0.000000  0.765848  0.500000  1
  Te  Te12  1  0.500000  0.765848  0.500000  1
  Te  Te13  1  0.249999  0.000000  0.773460  1
  Te  Te14  1  0.750001  0.236946  0.890646  1
  Te  Te15  1  0.750001  0.763053  0.890646  1
