# generated using pymatgen
data_BeNb9Si5Mo
_symmetry_space_group_name_H-M   'P 1'
_cell_length_a   7.53698716
_cell_length_b   7.49984439
_cell_length_c   7.51496572
_cell_angle_alpha   128.25093615
_cell_angle_beta   128.43736570
_cell_angle_gamma   76.07500314
_symmetry_Int_Tables_number   1
_chemical_formula_structural   BeNb9Si5Mo
_chemical_formula_sum   'Be1 Nb9 Si5 Mo1'
_cell_volume   254.01560843
_cell_formula_units_Z   1
loop_
 _symmetry_equiv_pos_site_id
 _symmetry_equiv_pos_as_xyz
  1  'x, y, z'
loop_
 _atom_site_type_symbol
 _atom_site_label
 _atom_site_symmetry_multiplicity
 _atom_site_fract_x
 _atom_site_fract_y
 _atom_site_fract_z
 _atom_site_occupancy
  Be  Be0  1  0.123514  0.622708  0.747736  1
  Nb  Nb1  1  0.518090  0.017733  0.834637  1
  Nb  Nb2  1  0.180488  0.680128  0.155806  1
  Nb  Nb3  1  0.473942  0.974730  0.155706  1
  Nb  Nb4  1  0.690221  0.516119  0.506112  1
  Nb  Nb5  1  0.986053  0.819967  0.504490  1
  Nb  Nb6  1  0.316466  0.487399  0.505286  1
  Nb  Nb7  1  0.815087  0.316022  0.834089  1
  Nb  Nb8  1  0.494124  0.499320  0.995242  1
  Nb  Nb9  1  0.999699  0.996254  0.996861  1
  Si  Si10  1  0.626967  0.868271  0.497077  1
  Si  Si11  1  0.368042  0.127400  0.497037  1
  Si  Si12  1  0.879582  0.378665  0.259478  1
  Si  Si13  1  0.753327  0.755053  0.006136  1
  Si  Si14  1  0.249732  0.251550  0.999149  1
  Mo  Mo15  1  0.024666  0.188682  0.505160  1
