# generated using pymatgen
data_Ta4NbAlSi2
_symmetry_space_group_name_H-M   'P 1'
_cell_length_a   7.61989442
_cell_length_b   7.61989380
_cell_length_c   7.61648420
_cell_angle_alpha   128.33914555
_cell_angle_beta   128.33912717
_cell_angle_gamma   76.10906503
_symmetry_Int_Tables_number   1
_chemical_formula_structural   Ta4NbAlSi2
_chemical_formula_sum   'Ta8 Nb2 Al2 Si4'
_cell_volume   264.43237380
_cell_formula_units_Z   2
loop_
 _symmetry_equiv_pos_site_id
 _symmetry_equiv_pos_as_xyz
  1  'x, y, z'
loop_
 _atom_site_type_symbol
 _atom_site_label
 _atom_site_symmetry_multiplicity
 _atom_site_fract_x
 _atom_site_fract_y
 _atom_site_fract_z
 _atom_site_occupancy
  Ta  Ta0  1  0.515587  0.015587  0.828758  1
  Ta  Ta1  1  0.186829  0.686829  0.171242  1
  Ta  Ta2  1  0.984846  0.812380  0.500000  1
  Ta  Ta3  1  0.312380  0.484846  0.500000  1
  Ta  Ta4  1  0.483751  0.983751  0.170943  1
  Ta  Ta5  1  0.812808  0.312808  0.829057  1
  Ta  Ta6  1  0.000131  0.000131  0.000000  1
  Ta  Ta7  1  0.500131  0.500131  0.000000  1
  Nb  Nb8  1  0.016060  0.187593  0.500000  1
  Nb  Nb9  1  0.687593  0.516060  0.500000  1
  Al  Al10  1  0.750039  0.750039  0.000000  1
  Al  Al11  1  0.250039  0.250039  0.000000  1
  Si  Si12  1  0.370018  0.129851  0.500000  1
  Si  Si13  1  0.629851  0.870018  0.500000  1
  Si  Si14  1  0.870049  0.370049  0.240161  1
  Si  Si15  1  0.129888  0.629888  0.759839  1
