# generated using pymatgen
data_TbScB6Ir
_symmetry_space_group_name_H-M   'P 1'
_cell_length_a   3.55731500
_cell_length_b   9.02720200
_cell_length_c   11.40204700
_cell_angle_alpha   90.00000000
_cell_angle_beta   90.00000000
_cell_angle_gamma   90.00000000
_symmetry_Int_Tables_number   1
_chemical_formula_structural   TbScB6Ir
_chemical_formula_sum   'Tb4 Sc4 B24 Ir4'
_cell_volume   366.14938684
_cell_formula_units_Z   4
loop_
 _symmetry_equiv_pos_site_id
 _symmetry_equiv_pos_as_xyz
  1  'x, y, z'
loop_
 _atom_site_type_symbol
 _atom_site_label
 _atom_site_symmetry_multiplicity
 _atom_site_fract_x
 _atom_site_fract_y
 _atom_site_fract_z
 _atom_site_occupancy
  Tb  Tb0  1  0.500000  0.319969  0.413894  1
  Tb  Tb1  1  0.500000  0.680031  0.586106  1
  Tb  Tb2  1  0.500000  0.180031  0.913894  1
  Tb  Tb3  1  0.500000  0.819969  0.086106  1
  Sc  Sc4  1  0.500000  0.445203  0.124227  1
  Sc  Sc5  1  0.500000  0.554797  0.875773  1
  Sc  Sc6  1  0.500000  0.054797  0.624227  1
  Sc  Sc7  1  0.500000  0.945203  0.375773  1
  B  B8  1  0.000000  0.099940  0.472864  1
  B  B9  1  0.000000  0.900060  0.527136  1
  B  B10  1  0.000000  0.400060  0.972864  1
  B  B11  1  0.000000  0.599940  0.027136  1
  B  B12  1  0.000000  0.129732  0.318256  1
  B  B13  1  0.000000  0.870268  0.681744  1
  B  B14  1  0.000000  0.370268  0.818256  1
  B  B15  1  0.000000  0.629732  0.181744  1
  B  B16  1  0.000000  0.054764  0.065984  1
  B  B17  1  0.000000  0.945236  0.934016  1
  B  B18  1  0.000000  0.445236  0.565984  1
  B  B19  1  0.000000  0.554764  0.434016  1
  B  B20  1  0.000000  0.481860  0.284872  1
  B  B21  1  0.000000  0.518140  0.715128  1
  B  B22  1  0.000000  0.018140  0.784872  1
  B  B23  1  0.000000  0.981860  0.215128  1
  B  B24  1  0.000000  0.254330  0.080336  1
  B  B25  1  0.000000  0.745670  0.919664  1
  B  B26  1  0.000000  0.245670  0.580336  1
  B  B27  1  0.000000  0.754330  0.419664  1
  B  B28  1  0.000000  0.295811  0.234990  1
  B  B29  1  0.000000  0.704189  0.765010  1
  B  B30  1  0.000000  0.204189  0.734990  1
  B  B31  1  0.000000  0.795811  0.265010  1
  Ir  Ir32  1  0.500000  0.141590  0.181473  1
  Ir  Ir33  1  0.500000  0.858410  0.818527  1
  Ir  Ir34  1  0.500000  0.358410  0.681473  1
  Ir  Ir35  1  0.500000  0.641590  0.318527  1
