# generated using pymatgen
data_Ho16Er4Ir7Ru5
_symmetry_space_group_name_H-M   'P 1'
_cell_length_a   10.78415255
_cell_length_b   10.78415291
_cell_length_c   6.38478701
_cell_angle_alpha   89.97273176
_cell_angle_beta   89.97272445
_cell_angle_gamma   90.08832835
_symmetry_Int_Tables_number   1
_chemical_formula_structural   Ho16Er4Ir7Ru5
_chemical_formula_sum   'Ho16 Er4 Ir7 Ru5'
_cell_volume   742.53659041
_cell_formula_units_Z   1
loop_
 _symmetry_equiv_pos_site_id
 _symmetry_equiv_pos_as_xyz
  1  'x, y, z'
loop_
 _atom_site_type_symbol
 _atom_site_label
 _atom_site_symmetry_multiplicity
 _atom_site_fract_x
 _atom_site_fract_y
 _atom_site_fract_z
 _atom_site_occupancy
  Ho  Ho0  1  0.293345  0.086053  0.377497  1
  Ho  Ho1  1  0.292642  0.913566  0.877412  1
  Ho  Ho2  1  0.707375  0.086446  0.877660  1
  Ho  Ho3  1  0.707179  0.913903  0.376227  1
  Ho  Ho4  1  0.586157  0.793359  0.877432  1
  Ho  Ho5  1  0.586945  0.206796  0.377490  1
  Ho  Ho6  1  0.413613  0.793098  0.377283  1
  Ho  Ho7  1  0.413594  0.206588  0.876495  1
  Ho  Ho8  1  0.206641  0.413843  0.622568  1
  Ho  Ho9  1  0.206902  0.586387  0.122717  1
  Ho  Ho10  1  0.793204  0.413055  0.122510  1
  Ho  Ho11  1  0.793412  0.586406  0.623505  1
  Ho  Ho12  1  0.913947  0.706655  0.122503  1
  Ho  Ho13  1  0.913554  0.292625  0.622340  1
  Ho  Ho14  1  0.086434  0.707358  0.622588  1
  Ho  Ho15  1  0.086097  0.292821  0.123773  1
  Er  Er16  1  0.999611  0.001005  0.499664  1
  Er  Er17  1  0.998995  0.000389  0.000336  1
  Er  Er18  1  0.500230  0.500239  0.000411  1
  Er  Er19  1  0.499761  0.499770  0.499589  1
  Ir  Ir20  1  0.847112  0.846866  0.749817  1
  Ir  Ir21  1  0.153134  0.152888  0.750183  1
  Ir  Ir22  1  0.152765  0.847235  0.250000  1
  Ir  Ir23  1  0.651708  0.348292  0.750000  1
  Ir  Ir24  1  0.652805  0.652344  0.249740  1
  Ir  Ir25  1  0.347656  0.347195  0.250260  1
  Ir  Ir26  1  0.347704  0.652296  0.750000  1
  Ru  Ru27  1  0.847799  0.152201  0.250000  1
  Ru  Ru28  1  0.500271  0.000350  0.122373  1
  Ru  Ru29  1  0.499845  0.000087  0.622356  1
  Ru  Ru30  1  0.999913  0.500155  0.877644  1
  Ru  Ru31  1  0.999650  0.499729  0.377627  1
