# generated using pymatgen
data_CeEr(TcOs)2
_symmetry_space_group_name_H-M   'P 1'
_cell_length_a   5.25575797
_cell_length_b   5.32654810
_cell_length_c   9.14808077
_cell_angle_alpha   89.99999912
_cell_angle_beta   90.04094016
_cell_angle_gamma   120.44656093
_symmetry_Int_Tables_number   1
_chemical_formula_structural   CeEr(TcOs)2
_chemical_formula_sum   'Ce2 Er2 Tc4 Os4'
_cell_volume   220.78511272
_cell_formula_units_Z   2
loop_
 _symmetry_equiv_pos_site_id
 _symmetry_equiv_pos_as_xyz
  1  'x, y, z'
loop_
 _atom_site_type_symbol
 _atom_site_label
 _atom_site_symmetry_multiplicity
 _atom_site_fract_x
 _atom_site_fract_y
 _atom_site_fract_z
 _atom_site_occupancy
  Ce  Ce0  1  0.334189  0.667095  0.438296  1
  Ce  Ce1  1  0.665344  0.332672  0.559665  1
  Er  Er2  1  0.665900  0.332950  0.937010  1
  Er  Er3  1  0.334915  0.667458  0.067492  1
  Tc  Tc4  1  0.337398  0.168700  0.244725  1
  Tc  Tc5  1  0.170064  0.829035  0.754168  1
  Tc  Tc6  1  0.170064  0.341028  0.754168  1
  Tc  Tc7  1  0.659957  0.829978  0.754807  1
  Os  Os8  1  0.000777  0.000389  0.499029  1
  Os  Os9  1  0.001827  0.000914  0.000027  1
  Os  Os10  1  0.829783  0.170022  0.245306  1
  Os  Os11  1  0.829783  0.659762  0.245306  1
