# generated using pymatgen
data_Er5Tm5(FeSb2)2
_symmetry_space_group_name_H-M   'P 1'
_cell_length_a   7.79755000
_cell_length_b   8.74054500
_cell_length_c   12.09821200
_cell_angle_alpha   90.00000000
_cell_angle_beta   90.00000000
_cell_angle_gamma   90.00000000
_symmetry_Int_Tables_number   1
_chemical_formula_structural   Er5Tm5(FeSb2)2
_chemical_formula_sum   'Er10 Tm10 Fe4 Sb8'
_cell_volume   824.55166280
_cell_formula_units_Z   2
loop_
 _symmetry_equiv_pos_site_id
 _symmetry_equiv_pos_as_xyz
  1  'x, y, z'
loop_
 _atom_site_type_symbol
 _atom_site_label
 _atom_site_symmetry_multiplicity
 _atom_site_fract_x
 _atom_site_fract_y
 _atom_site_fract_z
 _atom_site_occupancy
  Er  Er0  1  0.621708  0.750000  0.308639  1
  Er  Er1  1  0.878292  0.750000  0.808639  1
  Er  Er2  1  0.378415  0.250000  0.691292  1
  Er  Er3  1  0.121585  0.250000  0.191292  1
  Er  Er4  1  0.155187  0.750000  0.204337  1
  Er  Er5  1  0.344813  0.750000  0.704337  1
  Er  Er6  1  0.844703  0.250000  0.795812  1
  Er  Er7  1  0.655297  0.250000  0.295812  1
  Er  Er8  1  0.449085  0.750000  0.996469  1
  Er  Er9  1  0.050915  0.750000  0.496469  1
  Tm  Tm10  1  0.551336  0.250000  0.003469  1
  Tm  Tm11  1  0.948664  0.250000  0.503469  1
  Tm  Tm12  1  0.824925  0.535114  0.064232  1
  Tm  Tm13  1  0.675075  0.964886  0.564232  1
  Tm  Tm14  1  0.174977  0.035636  0.935718  1
  Tm  Tm15  1  0.325023  0.464364  0.435718  1
  Tm  Tm16  1  0.174977  0.464364  0.935718  1
  Tm  Tm17  1  0.325023  0.035636  0.435718  1
  Tm  Tm18  1  0.824925  0.964886  0.064232  1
  Tm  Tm19  1  0.675075  0.535114  0.564232  1
  Fe  Fe20  1  0.431339  0.750000  0.490299  1
  Fe  Fe21  1  0.068661  0.750000  0.990299  1
  Fe  Fe22  1  0.568818  0.250000  0.509837  1
  Fe  Fe23  1  0.931182  0.250000  0.009837  1
  Sb  Sb24  1  0.930179  0.507086  0.328183  1
  Sb  Sb25  1  0.569821  0.992914  0.828183  1
  Sb  Sb26  1  0.069639  0.007675  0.671790  1
  Sb  Sb27  1  0.430361  0.492325  0.171790  1
  Sb  Sb28  1  0.069639  0.492325  0.671790  1
  Sb  Sb29  1  0.430361  0.007675  0.171790  1
  Sb  Sb30  1  0.930179  0.992914  0.328183  1
  Sb  Sb31  1  0.569821  0.507086  0.828183  1
