# generated using pymatgen
data_La2HoSi5PPd20
_symmetry_space_group_name_H-M   'P 1'
_cell_length_a   8.77428206
_cell_length_b   8.77428112
_cell_length_c   8.77583400
_cell_angle_alpha   59.99414536
_cell_angle_beta   59.99414889
_cell_angle_gamma   60.01169625
_symmetry_Int_Tables_number   1
_chemical_formula_structural   La2HoSi5PPd20
_chemical_formula_sum   'La2 Ho1 Si5 P1 Pd20'
_cell_volume   477.74536214
_cell_formula_units_Z   1
loop_
 _symmetry_equiv_pos_site_id
 _symmetry_equiv_pos_as_xyz
  1  'x, y, z'
loop_
 _atom_site_type_symbol
 _atom_site_label
 _atom_site_symmetry_multiplicity
 _atom_site_fract_x
 _atom_site_fract_y
 _atom_site_fract_z
 _atom_site_occupancy
  La  La0  1  0.249517  0.249517  0.250483  1
  La  La1  1  0.749517  0.749517  0.750483  1
  Ho  Ho2  1  0.000515  0.000515  0.999485  1
  Si  Si3  1  0.734279  0.264263  0.265721  1
  Si  Si4  1  0.264263  0.734279  0.735737  1
  Si  Si5  1  0.264263  0.734279  0.265721  1
  Si  Si6  1  0.734279  0.264263  0.735737  1
  Si  Si7  1  0.265675  0.265675  0.734325  1
  P  P8  1  0.736229  0.736229  0.263771  1
  Pd  Pd9  1  0.385635  0.385635  0.385524  1
  Pd  Pd10  1  0.614575  0.614575  0.612768  1
  Pd  Pd11  1  0.385635  0.385635  0.843208  1
  Pd  Pd12  1  0.387232  0.841919  0.385425  1
  Pd  Pd13  1  0.614575  0.614575  0.158081  1
  Pd  Pd14  1  0.614476  0.156792  0.614365  1
  Pd  Pd15  1  0.841919  0.387232  0.385425  1
  Pd  Pd16  1  0.156792  0.614476  0.614365  1
  Pd  Pd17  1  0.345642  0.000200  0.999800  1
  Pd  Pd18  1  0.654723  0.998122  0.001878  1
  Pd  Pd19  1  0.000200  0.345642  0.654358  1
  Pd  Pd20  1  0.998122  0.654723  0.345277  1
  Pd  Pd21  1  0.000200  0.345642  0.999800  1
  Pd  Pd22  1  0.654723  0.998122  0.345277  1
  Pd  Pd23  1  0.998122  0.654723  0.001878  1
  Pd  Pd24  1  0.345642  0.000200  0.654358  1
  Pd  Pd25  1  0.000812  0.000812  0.345215  1
  Pd  Pd26  1  0.000812  0.000812  0.653160  1
  Pd  Pd27  1  0.654785  0.346840  0.999188  1
  Pd  Pd28  1  0.346840  0.654785  0.999188  1
