# generated using pymatgen
data_MgGa6Fe5Rh12
_symmetry_space_group_name_H-M   'P 1'
_cell_length_a   4.29738567
_cell_length_b   6.03887500
_cell_length_c   12.90446502
_cell_angle_alpha   90.00000000
_cell_angle_beta   89.89904852
_cell_angle_gamma   90.00000000
_symmetry_Int_Tables_number   1
_chemical_formula_structural   MgGa6Fe5Rh12
_chemical_formula_sum   'Mg1 Ga6 Fe5 Rh12'
_cell_volume   334.88808914
_cell_formula_units_Z   1
loop_
 _symmetry_equiv_pos_site_id
 _symmetry_equiv_pos_as_xyz
  1  'x, y, z'
loop_
 _atom_site_type_symbol
 _atom_site_label
 _atom_site_symmetry_multiplicity
 _atom_site_fract_x
 _atom_site_fract_y
 _atom_site_fract_z
 _atom_site_occupancy
  Mg  Mg0  1  0.000000  0.500000  0.000000  1
  Ga  Ga1  1  0.000000  0.000000  0.000000  1
  Ga  Ga2  1  0.499639  0.500000  0.165513  1
  Ga  Ga3  1  0.999740  0.000000  0.334887  1
  Ga  Ga4  1  0.500001  0.500000  0.500000  1
  Ga  Ga5  1  0.000259  0.000000  0.665113  1
  Ga  Ga6  1  0.500360  0.500000  0.834487  1
  Fe  Fe7  1  0.499716  0.000000  0.167195  1
  Fe  Fe8  1  0.999717  0.500000  0.333565  1
  Fe  Fe9  1  0.500001  0.000000  0.500000  1
  Fe  Fe10  1  0.000284  0.500000  0.666435  1
  Fe  Fe11  1  0.500285  0.000000  0.832805  1
  Rh  Rh12  1  0.500001  0.241494  0.000000  1
  Rh  Rh13  1  0.500001  0.758506  0.000000  1
  Rh  Rh14  1  0.999635  0.246589  0.171019  1
  Rh  Rh15  1  0.999635  0.753412  0.171019  1
  Rh  Rh16  1  0.499641  0.250884  0.334167  1
  Rh  Rh17  1  0.499641  0.749114  0.334167  1
  Rh  Rh18  1  0.000000  0.250864  0.500000  1
  Rh  Rh19  1  0.000000  0.749136  0.500000  1
  Rh  Rh20  1  0.500360  0.250884  0.665833  1
  Rh  Rh21  1  0.500360  0.749114  0.665833  1
  Rh  Rh22  1  0.000367  0.246589  0.828981  1
  Rh  Rh23  1  0.000367  0.753412  0.828981  1
