# generated using pymatgen
data_MgHgPdO4
_symmetry_space_group_name_H-M   'P 1'
_cell_length_a   6.34875146
_cell_length_b   6.27423864
_cell_length_c   6.34877238
_cell_angle_alpha   60.39715182
_cell_angle_beta   89.93159139
_cell_angle_gamma   119.60276264
_symmetry_Int_Tables_number   1
_chemical_formula_structural   MgHgPdO4
_chemical_formula_sum   'Mg2 Hg2 Pd2 O8'
_cell_volume   180.84591420
_cell_formula_units_Z   2
loop_
 _symmetry_equiv_pos_site_id
 _symmetry_equiv_pos_as_xyz
  1  'x, y, z'
loop_
 _atom_site_type_symbol
 _atom_site_label
 _atom_site_symmetry_multiplicity
 _atom_site_fract_x
 _atom_site_fract_y
 _atom_site_fract_z
 _atom_site_occupancy
  Mg  Mg0  1  0.375053  0.250065  0.374955  1
  Mg  Mg1  1  0.374995  0.749930  0.375062  1
  Hg  Hg2  1  0.970601  0.000003  0.970597  1
  Hg  Hg3  1  0.779397  0.499998  0.779397  1
  Pd  Pd4  1  0.875195  0.250160  0.374868  1
  Pd  Pd5  1  0.374844  0.749862  0.875167  1
  O  O6  1  0.135005  0.292477  0.134876  1
  O  O7  1  0.606108  0.207307  0.191460  1
  O  O8  1  0.558578  0.707425  0.143771  1
  O  O9  1  0.134873  0.707520  0.135022  1
  O  O10  1  0.615008  0.207632  0.615116  1
  O  O11  1  0.143774  0.292570  0.558576  1
  O  O12  1  0.191462  0.792687  0.606108  1
  O  O13  1  0.615110  0.792361  0.615028  1
