# generated using pymatgen
data_CaNd3Er4(B6Ru)4
_symmetry_space_group_name_H-M   'P 1'
_cell_length_a   3.68868500
_cell_length_b   9.18504555
_cell_length_c   11.61130721
_cell_angle_alpha   89.92407405
_cell_angle_beta   90.00000000
_cell_angle_gamma   90.00000000
_symmetry_Int_Tables_number   1
_chemical_formula_structural   CaNd3Er4(B6Ru)4
_chemical_formula_sum   'Ca1 Nd3 Er4 B24 Ru4'
_cell_volume   393.39933241
_cell_formula_units_Z   1
loop_
 _symmetry_equiv_pos_site_id
 _symmetry_equiv_pos_as_xyz
  1  'x, y, z'
loop_
 _atom_site_type_symbol
 _atom_site_label
 _atom_site_symmetry_multiplicity
 _atom_site_fract_x
 _atom_site_fract_y
 _atom_site_fract_z
 _atom_site_occupancy
  Ca  Ca0  1  0.000000  0.322302  0.414607  1
  Nd  Nd1  1  0.000000  0.675372  0.584298  1
  Nd  Nd2  1  0.000000  0.822905  0.086242  1
  Nd  Nd3  1  0.000000  0.177567  0.914799  1
  Er  Er4  1  0.000000  0.944825  0.371115  1
  Er  Er5  1  0.000000  0.058062  0.627569  1
  Er  Er6  1  0.000000  0.443204  0.130572  1
  Er  Er7  1  0.000000  0.555721  0.871079  1
  B  B8  1  0.500000  0.554488  0.430418  1
  B  B9  1  0.500000  0.443264  0.568325  1
  B  B10  1  0.500000  0.056329  0.069957  1
  B  B11  1  0.500000  0.943563  0.929799  1
  B  B12  1  0.500000  0.749309  0.416628  1
  B  B13  1  0.500000  0.250848  0.581543  1
  B  B14  1  0.500000  0.249789  0.083876  1
  B  B15  1  0.500000  0.749858  0.916850  1
  B  B16  1  0.500000  0.790754  0.266721  1
  B  B17  1  0.500000  0.210076  0.732905  1
  B  B18  1  0.500000  0.290938  0.235095  1
  B  B19  1  0.500000  0.709519  0.766129  1
  B  B20  1  0.500000  0.630094  0.186340  1
  B  B21  1  0.500000  0.369584  0.814686  1
  B  B22  1  0.500000  0.131607  0.315484  1
  B  B23  1  0.500000  0.869779  0.684630  1
  B  B24  1  0.500000  0.986208  0.213877  1
  B  B25  1  0.500000  0.014611  0.785638  1
  B  B26  1  0.500000  0.483933  0.287543  1
  B  B27  1  0.500000  0.513944  0.713161  1
  B  B28  1  0.500000  0.601456  0.027989  1
  B  B29  1  0.500000  0.398401  0.972789  1
  B  B30  1  0.500000  0.102597  0.471955  1
  B  B31  1  0.500000  0.899016  0.527414  1
  Ru  Ru32  1  0.000000  0.639935  0.319295  1
  Ru  Ru33  1  0.000000  0.360393  0.680922  1
  Ru  Ru34  1  0.000000  0.139433  0.180790  1
  Ru  Ru35  1  0.000000  0.860315  0.818959  1
