# generated using pymatgen
data_LaCeSc3Pt4
_symmetry_space_group_name_H-M   'P 1'
_cell_length_a   7.44607700
_cell_length_b   7.42121900
_cell_length_c   14.07904400
_cell_angle_alpha   90.00000000
_cell_angle_beta   90.00000000
_cell_angle_gamma   90.00000000
_symmetry_Int_Tables_number   1
_chemical_formula_structural   LaCeSc3Pt4
_chemical_formula_sum   'La4 Ce4 Sc12 Pt16'
_cell_volume   777.99344339
_cell_formula_units_Z   4
loop_
 _symmetry_equiv_pos_site_id
 _symmetry_equiv_pos_as_xyz
  1  'x, y, z'
loop_
 _atom_site_type_symbol
 _atom_site_label
 _atom_site_symmetry_multiplicity
 _atom_site_fract_x
 _atom_site_fract_y
 _atom_site_fract_z
 _atom_site_occupancy
  La  La0  1  0.003395  0.826708  0.406237  1
  La  La1  1  0.503395  0.673292  0.093763  1
  La  La2  1  0.496605  0.326708  0.593763  1
  La  La3  1  0.996605  0.173292  0.906237  1
  Ce  Ce4  1  0.998049  0.176292  0.598518  1
  Ce  Ce5  1  0.498049  0.323708  0.901482  1
  Ce  Ce6  1  0.501951  0.676292  0.401482  1
  Ce  Ce7  1  0.001951  0.823708  0.098518  1
  Sc  Sc8  1  0.677183  0.004189  0.249921  1
  Sc  Sc9  1  0.177183  0.495811  0.250079  1
  Sc  Sc10  1  0.822817  0.504189  0.750079  1
  Sc  Sc11  1  0.322817  0.995811  0.749921  1
  Sc  Sc12  1  0.653895  0.832813  0.624494  1
  Sc  Sc13  1  0.153895  0.667187  0.875506  1
  Sc  Sc14  1  0.846105  0.332813  0.375506  1
  Sc  Sc15  1  0.346105  0.167187  0.124494  1
  Sc  Sc16  1  0.344024  0.163893  0.372139  1
  Sc  Sc17  1  0.844024  0.336107  0.127861  1
  Sc  Sc18  1  0.155976  0.663893  0.627861  1
  Sc  Sc19  1  0.655976  0.836107  0.872139  1
  Pt  Pt20  1  0.810352  0.640482  0.250146  1
  Pt  Pt21  1  0.310352  0.859518  0.249854  1
  Pt  Pt22  1  0.689648  0.140482  0.749854  1
  Pt  Pt23  1  0.189648  0.359518  0.750146  1
  Pt  Pt24  1  0.543783  0.369045  0.252346  1
  Pt  Pt25  1  0.043783  0.130955  0.247654  1
  Pt  Pt26  1  0.956217  0.869045  0.747654  1
  Pt  Pt27  1  0.456217  0.630955  0.752346  1
  Pt  Pt28  1  0.827750  0.543200  0.543426  1
  Pt  Pt29  1  0.327750  0.956800  0.956574  1
  Pt  Pt30  1  0.672250  0.043200  0.456574  1
  Pt  Pt31  1  0.172250  0.456800  0.043426  1
  Pt  Pt32  1  0.177236  0.451489  0.456736  1
  Pt  Pt33  1  0.677236  0.048511  0.043264  1
  Pt  Pt34  1  0.322764  0.951489  0.543264  1
  Pt  Pt35  1  0.822764  0.548511  0.956736  1
