# generated using pymatgen
data_TbYZnAg
_symmetry_space_group_name_H-M   'P 1'
_cell_length_a   3.61303400
_cell_length_b   3.61303400
_cell_length_c   7.22228800
_cell_angle_alpha   90.00000000
_cell_angle_beta   90.00000000
_cell_angle_gamma   90.00000000
_symmetry_Int_Tables_number   1
_chemical_formula_structural   TbYZnAg
_chemical_formula_sum   'Tb1 Y1 Zn1 Ag1'
_cell_volume   94.27985361
_cell_formula_units_Z   1
loop_
 _symmetry_equiv_pos_site_id
 _symmetry_equiv_pos_as_xyz
  1  'x, y, z'
loop_
 _atom_site_type_symbol
 _atom_site_label
 _atom_site_symmetry_multiplicity
 _atom_site_fract_x
 _atom_site_fract_y
 _atom_site_fract_z
 _atom_site_occupancy
  Tb  Tb0  1  0.500000  0.500000  0.741102  1
  Y  Y1  1  0.500000  0.500000  0.258955  1
  Zn  Zn2  1  0.000000  0.000000  0.499979  1
  Ag  Ag3  1  0.000000  0.000000  0.999964  1
