# generated using pymatgen
data_Y3In3IrRhAu
_symmetry_space_group_name_H-M   'P 1'
_cell_length_a   7.76538400
_cell_length_b   7.76538329
_cell_length_c   3.83960100
_cell_angle_alpha   90.00000000
_cell_angle_beta   90.00000000
_cell_angle_gamma   120.00000300
_symmetry_Int_Tables_number   1
_chemical_formula_structural   Y3In3IrRhAu
_chemical_formula_sum   'Y3 In3 Ir1 Rh1 Au1'
_cell_volume   200.51300626
_cell_formula_units_Z   1
loop_
 _symmetry_equiv_pos_site_id
 _symmetry_equiv_pos_as_xyz
  1  'x, y, z'
loop_
 _atom_site_type_symbol
 _atom_site_label
 _atom_site_symmetry_multiplicity
 _atom_site_fract_x
 _atom_site_fract_y
 _atom_site_fract_z
 _atom_site_occupancy
  Y  Y0  1  0.978367  0.585520  0.500000  1
  Y  Y1  1  0.414480  0.392847  0.500000  1
  Y  Y2  1  0.607153  0.021633  0.500000  1
  In  In3  1  0.997630  0.255273  0.000000  1
  In  In4  1  0.257643  0.002370  0.000000  1
  In  In5  1  0.744727  0.742357  0.000000  1
  Ir  Ir6  1  0.666667  0.333333  0.000000  1
  Rh  Rh7  1  0.000000  0.000000  0.500000  1
  Au  Au8  1  0.333333  0.666667  0.000000  1
