# generated using pymatgen
data_Hf3Si3Mo2Pt
_symmetry_space_group_name_H-M   'P 1'
_cell_length_a   6.88846800
_cell_length_b   6.96530024
_cell_length_c   3.54612800
_cell_angle_alpha   90.00000000
_cell_angle_beta   90.00000000
_cell_angle_gamma   119.63577284
_symmetry_Int_Tables_number   1
_chemical_formula_structural   Hf3Si3Mo2Pt
_chemical_formula_sum   'Hf3 Si3 Mo2 Pt1'
_cell_volume   147.88693208
_cell_formula_units_Z   1
loop_
 _symmetry_equiv_pos_site_id
 _symmetry_equiv_pos_as_xyz
  1  'x, y, z'
loop_
 _atom_site_type_symbol
 _atom_site_label
 _atom_site_symmetry_multiplicity
 _atom_site_fract_x
 _atom_site_fract_y
 _atom_site_fract_z
 _atom_site_occupancy
  Hf  Hf0  1  0.601118  0.000000  0.000000  1
  Hf  Hf1  1  0.405615  0.417403  0.000000  1
  Hf  Hf2  1  0.988212  0.582598  0.000000  1
  Si  Si3  1  0.004505  0.000000  0.000000  1
  Si  Si4  1  0.662096  0.330345  0.499999  1
  Si  Si5  1  0.331751  0.669654  0.499999  1
  Mo  Mo6  1  0.002174  0.252364  0.499999  1
  Mo  Mo7  1  0.749810  0.747636  0.499999  1
  Pt  Pt8  1  0.254718  0.000000  0.499999  1
