# generated using pymatgen
data_Sr3YBi3
_symmetry_space_group_name_H-M   'P 1'
_cell_length_a   8.61481810
_cell_length_b   8.74401564
_cell_length_c   8.61481834
_cell_angle_alpha   109.67344741
_cell_angle_beta   108.92081607
_cell_angle_gamma   109.67344133
_symmetry_Int_Tables_number   1
_chemical_formula_structural   Sr3YBi3
_chemical_formula_sum   'Sr6 Y2 Bi6'
_cell_volume   500.42892225
_cell_formula_units_Z   2
loop_
 _symmetry_equiv_pos_site_id
 _symmetry_equiv_pos_as_xyz
  1  'x, y, z'
loop_
 _atom_site_type_symbol
 _atom_site_label
 _atom_site_symmetry_multiplicity
 _atom_site_fract_x
 _atom_site_fract_y
 _atom_site_fract_z
 _atom_site_occupancy
  Sr  Sr0  1  0.358682  0.355366  0.356859  1
  Sr  Sr1  1  0.000249  0.141531  0.498361  1
  Sr  Sr2  1  0.856859  0.855366  0.858682  1
  Sr  Sr3  1  0.998361  0.641531  0.500249  1
  Sr  Sr4  1  0.503302  0.002945  0.140902  1
  Sr  Sr5  1  0.640902  0.502945  0.003302  1
  Y  Y6  1  0.501551  0.002189  0.639017  1
  Y  Y7  1  0.139017  0.502189  0.001551  1
  Bi  Bi8  1  0.876152  0.252334  0.107162  1
  Bi  Bi9  1  0.138331  0.866350  0.255485  1
  Bi  Bi10  1  0.371349  0.629285  0.752598  1
  Bi  Bi11  1  0.252598  0.129285  0.871349  1
  Bi  Bi12  1  0.755485  0.366350  0.638331  1
  Bi  Bi13  1  0.607162  0.752334  0.376152  1
