# generated using pymatgen
data_DyHoNiB8Pt
_symmetry_space_group_name_H-M   'P 1'
_cell_length_a   6.92821443
_cell_length_b   6.92821350
_cell_length_c   6.92821303
_cell_angle_alpha   111.43749650
_cell_angle_beta   113.44316055
_cell_angle_gamma   103.69037156
_symmetry_Int_Tables_number   1
_chemical_formula_structural   DyHoNiB8Pt
_chemical_formula_sum   'Dy2 Ho2 Ni2 B16 Pt2'
_cell_volume   253.98639780
_cell_formula_units_Z   2
loop_
 _symmetry_equiv_pos_site_id
 _symmetry_equiv_pos_as_xyz
  1  'x, y, z'
loop_
 _atom_site_type_symbol
 _atom_site_label
 _atom_site_symmetry_multiplicity
 _atom_site_fract_x
 _atom_site_fract_y
 _atom_site_fract_z
 _atom_site_occupancy
  Dy  Dy0  1  0.796524  0.796524  0.000000  1
  Dy  Dy1  1  0.203476  0.203476  0.000000  1
  Ho  Ho2  1  0.746422  0.246422  0.500000  1
  Ho  Ho3  1  0.253578  0.753578  0.500000  1
  Ni  Ni4  1  0.500000  0.743433  0.243433  1
  Ni  Ni5  1  0.500000  0.256567  0.756567  1
  B  B6  1  0.272858  0.107958  0.380817  1
  B  B7  1  0.727142  0.892042  0.619183  1
  B  B8  1  0.272858  0.892042  0.164900  1
  B  B9  1  0.727142  0.107958  0.835100  1
  B  B10  1  0.109926  0.735340  0.845266  1
  B  B11  1  0.890074  0.264660  0.154734  1
  B  B12  1  0.109926  0.264660  0.374585  1
  B  B13  1  0.890074  0.735340  0.625415  1
  B  B14  1  0.113562  0.106148  0.526263  1
  B  B15  1  0.579884  0.587299  0.473737  1
  B  B16  1  0.113562  0.587299  0.007415  1
  B  B17  1  0.579884  0.106148  0.992585  1
  B  B18  1  0.886438  0.893852  0.473737  1
  B  B19  1  0.420116  0.412701  0.526263  1
  B  B20  1  0.886438  0.412701  0.992585  1
  B  B21  1  0.420116  0.893852  0.007415  1
  Pt  Pt22  1  0.272402  0.500000  0.772402  1
  Pt  Pt23  1  0.727598  0.500000  0.227598  1
