# generated using pymatgen
data_CaAc8YbSn8
_symmetry_space_group_name_H-M   'P 1'
_cell_length_a   8.52558000
_cell_length_b   8.87264800
_cell_length_c   17.03288400
_cell_angle_alpha   90.00000000
_cell_angle_beta   90.00000000
_cell_angle_gamma   90.00000000
_symmetry_Int_Tables_number   1
_chemical_formula_structural   CaAc8YbSn8
_chemical_formula_sum   'Ca2 Ac16 Yb2 Sn16'
_cell_volume   1288.44348847
_cell_formula_units_Z   2
loop_
 _symmetry_equiv_pos_site_id
 _symmetry_equiv_pos_as_xyz
  1  'x, y, z'
loop_
 _atom_site_type_symbol
 _atom_site_label
 _atom_site_symmetry_multiplicity
 _atom_site_fract_x
 _atom_site_fract_y
 _atom_site_fract_z
 _atom_site_occupancy
  Ca  Ca0  1  0.815801  0.509192  0.750000  1
  Ca  Ca1  1  0.315801  0.990808  0.750000  1
  Ac  Ac2  1  0.649092  0.170314  0.623896  1
  Ac  Ac3  1  0.149092  0.329686  0.876104  1
  Ac  Ac4  1  0.351036  0.829623  0.124066  1
  Ac  Ac5  1  0.851036  0.670377  0.375934  1
  Ac  Ac6  1  0.351036  0.829623  0.375934  1
  Ac  Ac7  1  0.851036  0.670377  0.124066  1
  Ac  Ac8  1  0.649092  0.170314  0.876104  1
  Ac  Ac9  1  0.149092  0.329686  0.623896  1
  Ac  Ac10  1  0.497046  0.685046  0.596683  1
  Ac  Ac11  1  0.997046  0.814954  0.903317  1
  Ac  Ac12  1  0.502864  0.314855  0.096786  1
  Ac  Ac13  1  0.002864  0.185145  0.403214  1
  Ac  Ac14  1  0.502864  0.314855  0.403214  1
  Ac  Ac15  1  0.002864  0.185145  0.096786  1
  Ac  Ac16  1  0.497046  0.685046  0.903317  1
  Ac  Ac17  1  0.997046  0.814954  0.596683  1
  Yb  Yb18  1  0.184117  0.490928  0.250000  1
  Yb  Yb19  1  0.684117  0.009072  0.250000  1
  Sn  Sn20  1  0.687420  0.966272  0.460802  1
  Sn  Sn21  1  0.187420  0.533728  0.039198  1
  Sn  Sn22  1  0.312602  0.033688  0.960866  1
  Sn  Sn23  1  0.812602  0.466312  0.539134  1
  Sn  Sn24  1  0.312602  0.033688  0.539134  1
  Sn  Sn25  1  0.812602  0.466312  0.960866  1
  Sn  Sn26  1  0.687420  0.966272  0.039198  1
  Sn  Sn27  1  0.187420  0.533728  0.460802  1
  Sn  Sn28  1  0.453354  0.402609  0.750000  1
  Sn  Sn29  1  0.953354  0.097391  0.750000  1
  Sn  Sn30  1  0.546575  0.597339  0.250000  1
  Sn  Sn31  1  0.046575  0.902661  0.250000  1
  Sn  Sn32  1  0.693171  0.858451  0.750000  1
  Sn  Sn33  1  0.193171  0.641549  0.750000  1
  Sn  Sn34  1  0.306861  0.141727  0.250000  1
  Sn  Sn35  1  0.806861  0.358273  0.250000  1
