# generated using pymatgen
data_Y12AlCo4Ir
_symmetry_space_group_name_H-M   'P 1'
_cell_length_a   8.30538395
_cell_length_b   8.30538470
_cell_length_c   8.30538344
_cell_angle_alpha   111.12147170
_cell_angle_beta   110.65076894
_cell_angle_gamma   106.67740029
_symmetry_Int_Tables_number   1
_chemical_formula_structural   Y12AlCo4Ir
_chemical_formula_sum   'Y12 Al1 Co4 Ir1'
_cell_volume   440.22952074
_cell_formula_units_Z   1
loop_
 _symmetry_equiv_pos_site_id
 _symmetry_equiv_pos_as_xyz
  1  'x, y, z'
loop_
 _atom_site_type_symbol
 _atom_site_label
 _atom_site_symmetry_multiplicity
 _atom_site_fract_x
 _atom_site_fract_y
 _atom_site_fract_z
 _atom_site_occupancy
  Y  Y0  1  0.587087  0.280183  0.306904  1
  Y  Y1  1  0.183864  0.214343  0.398206  1
  Y  Y2  1  0.183864  0.785657  0.969522  1
  Y  Y3  1  0.683500  0.487533  0.804033  1
  Y  Y4  1  0.683500  0.879468  0.195967  1
  Y  Y5  1  0.973279  0.280183  0.693096  1
  Y  Y6  1  0.026721  0.719817  0.306904  1
  Y  Y7  1  0.316500  0.120532  0.804033  1
  Y  Y8  1  0.316500  0.512467  0.195967  1
  Y  Y9  1  0.816136  0.214343  0.030478  1
  Y  Y10  1  0.816136  0.785657  0.601794  1
  Y  Y11  1  0.412913  0.719817  0.693096  1
  Al  Al12  1  0.500000  0.000000  0.500000  1
  Co  Co13  1  0.888965  0.888965  0.000000  1
  Co  Co14  1  0.378397  0.500000  0.878397  1
  Co  Co15  1  0.621603  0.500000  0.121603  1
  Co  Co16  1  0.111035  0.111035  0.000000  1
  Ir  Ir17  1  0.000000  0.500000  0.500000  1
