# generated using pymatgen
data_AcMnSi2Tc
_symmetry_space_group_name_H-M   'P 1'
_cell_length_a   6.16520008
_cell_length_b   6.16519964
_cell_length_c   6.16520132
_cell_angle_alpha   140.16284264
_cell_angle_beta   140.16285747
_cell_angle_gamma   57.60612077
_symmetry_Int_Tables_number   1
_chemical_formula_structural   AcMnSi2Tc
_chemical_formula_sum   'Ac1 Mn1 Si2 Tc1'
_cell_volume   95.33433851
_cell_formula_units_Z   1
loop_
 _symmetry_equiv_pos_site_id
 _symmetry_equiv_pos_as_xyz
  1  'x, y, z'
loop_
 _atom_site_type_symbol
 _atom_site_label
 _atom_site_symmetry_multiplicity
 _atom_site_fract_x
 _atom_site_fract_y
 _atom_site_fract_z
 _atom_site_occupancy
  Ac  Ac0  1  0.000000  0.000000  0.000000  1
  Mn  Mn1  1  0.250000  0.750000  0.500000  1
  Si  Si2  1  0.636186  0.636186  0.000000  1
  Si  Si3  1  0.363814  0.363814  0.000000  1
  Tc  Tc4  1  0.750000  0.250000  0.500000  1
