# generated using pymatgen
data_ErHf2Sc(Al3Ir)6
_symmetry_space_group_name_H-M   'P 1'
_cell_length_a   7.49425900
_cell_length_b   7.49074902
_cell_length_c   9.30278000
_cell_angle_alpha   90.00000000
_cell_angle_beta   90.00000000
_cell_angle_gamma   119.75683429
_symmetry_Int_Tables_number   1
_chemical_formula_structural   ErHf2Sc(Al3Ir)6
_chemical_formula_sum   'Er1 Hf2 Sc1 Al18 Ir6'
_cell_volume   453.37364562
_cell_formula_units_Z   1
loop_
 _symmetry_equiv_pos_site_id
 _symmetry_equiv_pos_as_xyz
  1  'x, y, z'
loop_
 _atom_site_type_symbol
 _atom_site_label
 _atom_site_symmetry_multiplicity
 _atom_site_fract_x
 _atom_site_fract_y
 _atom_site_fract_z
 _atom_site_occupancy
  Er  Er0  1  0.327509  0.004369  0.750000  1
  Hf  Hf1  1  0.005302  0.329271  0.750000  1
  Hf  Hf2  1  0.671296  0.994847  0.250000  1
  Sc  Sc3  1  0.995294  0.672934  0.250000  1
  Al  Al4  1  0.122628  0.124594  0.250000  1
  Al  Al5  1  0.872261  0.874882  0.750000  1
  Al  Al6  1  0.997594  0.335071  0.079012  1
  Al  Al7  1  0.999644  0.663008  0.924892  1
  Al  Al8  1  0.999644  0.663008  0.575108  1
  Al  Al9  1  0.334825  0.997695  0.418847  1
  Al  Al10  1  0.997594  0.335071  0.420988  1
  Al  Al11  1  0.667146  0.001582  0.575715  1
  Al  Al12  1  0.667146  0.001582  0.924285  1
  Al  Al13  1  0.334825  0.997695  0.081153  1
  Al  Al14  1  0.331743  0.333506  0.556720  1
  Al  Al15  1  0.668884  0.668587  0.439088  1
  Al  Al16  1  0.668884  0.668587  0.060912  1
  Al  Al17  1  0.331743  0.333506  0.943280  1
  Al  Al18  1  0.340799  0.553823  0.250000  1
  Al  Al19  1  0.665054  0.451439  0.750000  1
  Al  Al20  1  0.553404  0.338290  0.250000  1
  Al  Al21  1  0.447253  0.656929  0.750000  1
  Ir  Ir22  1  0.672342  0.326658  0.999955  1
  Ir  Ir23  1  0.327811  0.672708  0.999975  1
  Ir  Ir24  1  0.327811  0.672708  0.500025  1
  Ir  Ir25  1  0.672342  0.326658  0.500045  1
  Ir  Ir26  1  0.999612  0.000496  0.999962  1
  Ir  Ir27  1  0.999612  0.000496  0.500038  1
