# generated using pymatgen
data_Hf18ZnRe8P
_symmetry_space_group_name_H-M   'P 1'
_cell_length_a   8.55937400
_cell_length_b   8.55937372
_cell_length_c   8.64880600
_cell_angle_alpha   90.00000000
_cell_angle_beta   90.00000000
_cell_angle_gamma   120.00000109
_symmetry_Int_Tables_number   1
_chemical_formula_structural   Hf18ZnRe8P
_chemical_formula_sum   'Hf18 Zn1 Re8 P1'
_cell_volume   548.74525093
_cell_formula_units_Z   1
loop_
 _symmetry_equiv_pos_site_id
 _symmetry_equiv_pos_as_xyz
  1  'x, y, z'
loop_
 _atom_site_type_symbol
 _atom_site_label
 _atom_site_symmetry_multiplicity
 _atom_site_fract_x
 _atom_site_fract_y
 _atom_site_fract_z
 _atom_site_occupancy
  Hf  Hf0  1  0.194939  0.805061  0.451437  1
  Hf  Hf1  1  0.194939  0.389877  0.451437  1
  Hf  Hf2  1  0.610123  0.805061  0.451437  1
  Hf  Hf3  1  0.803999  0.196001  0.548952  1
  Hf  Hf4  1  0.803999  0.607998  0.548952  1
  Hf  Hf5  1  0.392002  0.196001  0.548952  1
  Hf  Hf6  1  0.803999  0.196001  0.951048  1
  Hf  Hf7  1  0.803999  0.607998  0.951048  1
  Hf  Hf8  1  0.392002  0.196001  0.951048  1
  Hf  Hf9  1  0.194939  0.805061  0.048563  1
  Hf  Hf10  1  0.194939  0.389877  0.048563  1
  Hf  Hf11  1  0.610123  0.805061  0.048563  1
  Hf  Hf12  1  0.540898  0.459102  0.250000  1
  Hf  Hf13  1  0.540898  0.081796  0.250000  1
  Hf  Hf14  1  0.918204  0.459102  0.250000  1
  Hf  Hf15  1  0.459438  0.540562  0.750000  1
  Hf  Hf16  1  0.459438  0.918877  0.750000  1
  Hf  Hf17  1  0.081123  0.540562  0.750000  1
  Zn  Zn18  1  0.333333  0.666667  0.250000  1
  Re  Re19  1  0.890267  0.109733  0.250000  1
  Re  Re20  1  0.890267  0.780534  0.250000  1
  Re  Re21  1  0.219466  0.109733  0.250000  1
  Re  Re22  1  0.109448  0.890552  0.750000  1
  Re  Re23  1  0.109448  0.218897  0.750000  1
  Re  Re24  1  0.781103  0.890552  0.750000  1
  Re  Re25  1  0.000000  0.000000  0.500146  1
  Re  Re26  1  0.000000  0.000000  0.999854  1
  P  P27  1  0.666667  0.333333  0.750000  1
