# generated using pymatgen
data_Nb6V(BC)4
_symmetry_space_group_name_H-M   'P 1'
_cell_length_a   3.14852396
_cell_length_b   3.21127837
_cell_length_c   16.14553427
_cell_angle_alpha   95.70735788
_cell_angle_beta   95.59549847
_cell_angle_gamma   90.00000175
_symmetry_Int_Tables_number   1
_chemical_formula_structural   Nb6V(BC)4
_chemical_formula_sum   'Nb6 V1 B4 C4'
_cell_volume   161.65308241
_cell_formula_units_Z   1
loop_
 _symmetry_equiv_pos_site_id
 _symmetry_equiv_pos_as_xyz
  1  'x, y, z'
loop_
 _atom_site_type_symbol
 _atom_site_label
 _atom_site_symmetry_multiplicity
 _atom_site_fract_x
 _atom_site_fract_y
 _atom_site_fract_z
 _atom_site_occupancy
  Nb  Nb0  1  0.503001  0.003001  0.006001  1
  Nb  Nb1  1  0.642776  0.642775  0.285552  1
  Nb  Nb2  1  0.211454  0.211454  0.422909  1
  Nb  Nb3  1  0.784381  0.784380  0.568761  1
  Nb  Nb4  1  0.352232  0.352232  0.704464  1
  Nb  Nb5  1  0.919700  0.919699  0.839399  1
  V  V6  1  0.080928  0.080928  0.161857  1
  B  B7  1  0.032432  0.532431  0.064865  1
  B  B8  1  0.562065  0.562064  0.124130  1
  B  B9  1  0.444926  0.444926  0.889852  1
  B  B10  1  0.974227  0.474227  0.948453  1
  C  C11  1  0.142702  0.142702  0.285404  1
  C  C12  1  0.712796  0.712795  0.425592  1
  C  C13  1  0.283375  0.283375  0.566750  1
  C  C14  1  0.853006  0.853005  0.706011  1
