# generated using pymatgen
data_Tb6CrCo16TcP12
_symmetry_space_group_name_H-M   'P 1'
_cell_length_a   3.70749500
_cell_length_b   10.54182200
_cell_length_c   12.22814100
_cell_angle_alpha   90.00000000
_cell_angle_beta   90.00000000
_cell_angle_gamma   90.00000000
_symmetry_Int_Tables_number   1
_chemical_formula_structural   Tb6CrCo16TcP12
_chemical_formula_sum   'Tb6 Cr1 Co16 Tc1 P12'
_cell_volume   477.92163462
_cell_formula_units_Z   1
loop_
 _symmetry_equiv_pos_site_id
 _symmetry_equiv_pos_as_xyz
  1  'x, y, z'
loop_
 _atom_site_type_symbol
 _atom_site_label
 _atom_site_symmetry_multiplicity
 _atom_site_fract_x
 _atom_site_fract_y
 _atom_site_fract_z
 _atom_site_occupancy
  Tb  Tb0  1  0.000000  0.500000  0.524066  1
  Tb  Tb1  1  0.500000  0.000000  0.477677  1
  Tb  Tb2  1  0.500000  0.818184  0.205256  1
  Tb  Tb3  1  0.500000  0.181816  0.205256  1
  Tb  Tb4  1  0.000000  0.682508  0.794686  1
  Tb  Tb5  1  0.000000  0.317492  0.794686  1
  Cr  Cr6  1  0.000000  0.000000  0.842876  1
  Co  Co7  1  0.500000  0.500000  0.703269  1
  Co  Co8  1  0.000000  0.000000  0.296997  1
  Co  Co9  1  0.000000  0.500000  0.987414  1
  Co  Co10  1  0.500000  0.000000  0.013380  1
  Co  Co11  1  0.500000  0.332022  0.990595  1
  Co  Co12  1  0.500000  0.667978  0.990595  1
  Co  Co13  1  0.000000  0.166879  0.006952  1
  Co  Co14  1  0.000000  0.833121  0.006952  1
  Co  Co15  1  0.500000  0.296417  0.430872  1
  Co  Co16  1  0.500000  0.703583  0.430872  1
  Co  Co17  1  0.000000  0.203870  0.569201  1
  Co  Co18  1  0.000000  0.796130  0.569201  1
  Co  Co19  1  0.500000  0.879849  0.709093  1
  Co  Co20  1  0.500000  0.120151  0.709093  1
  Co  Co21  1  0.000000  0.620553  0.292086  1
  Co  Co22  1  0.000000  0.379447  0.292086  1
  Tc  Tc23  1  0.500000  0.500000  0.155914  1
  P  P24  1  0.500000  0.500000  0.882194  1
  P  P25  1  0.000000  0.000000  0.116999  1
  P  P26  1  0.500000  0.500000  0.347621  1
  P  P27  1  0.000000  0.000000  0.655577  1
  P  P28  1  0.500000  0.310653  0.616063  1
  P  P29  1  0.500000  0.689347  0.616063  1
  P  P30  1  0.000000  0.189053  0.384417  1
  P  P31  1  0.000000  0.810947  0.384417  1
  P  P32  1  0.500000  0.848609  0.892401  1
  P  P33  1  0.500000  0.151391  0.892401  1
  P  P34  1  0.000000  0.654636  0.106386  1
  P  P35  1  0.000000  0.345364  0.106386  1
