# generated using pymatgen
data_ThSiAsRu2
_symmetry_space_group_name_H-M   'P 1'
_cell_length_a   5.82307851
_cell_length_b   5.82307896
_cell_length_c   5.82307967
_cell_angle_alpha   137.48868585
_cell_angle_beta   137.48869586
_cell_angle_gamma   61.68699830
_symmetry_Int_Tables_number   1
_chemical_formula_structural   ThSiAsRu2
_chemical_formula_sum   'Th1 Si1 As1 Ru2'
_cell_volume   89.12143250
_cell_formula_units_Z   1
loop_
 _symmetry_equiv_pos_site_id
 _symmetry_equiv_pos_as_xyz
  1  'x, y, z'
loop_
 _atom_site_type_symbol
 _atom_site_label
 _atom_site_symmetry_multiplicity
 _atom_site_fract_x
 _atom_site_fract_y
 _atom_site_fract_z
 _atom_site_occupancy
  Th  Th0  1  0.999238  0.999238  0.000000  1
  Si  Si1  1  0.366596  0.366596  0.000000  1
  As  As2  1  0.624044  0.624044  0.000000  1
  Ru  Ru3  1  0.255061  0.755061  0.500000  1
  Ru  Ru4  1  0.755061  0.255061  0.500000  1
