# generated using pymatgen
data_Na3Eu(ZnAu)4
_symmetry_space_group_name_H-M   'P 1'
_cell_length_a   4.58353100
_cell_length_b   7.47715594
_cell_length_c   7.80620019
_cell_angle_alpha   90.07289915
_cell_angle_beta   90.00000000
_cell_angle_gamma   90.00000000
_symmetry_Int_Tables_number   1
_chemical_formula_structural   Na3Eu(ZnAu)4
_chemical_formula_sum   'Na3 Eu1 Zn4 Au4'
_cell_volume   267.53212809
_cell_formula_units_Z   1
loop_
 _symmetry_equiv_pos_site_id
 _symmetry_equiv_pos_as_xyz
  1  'x, y, z'
loop_
 _atom_site_type_symbol
 _atom_site_label
 _atom_site_symmetry_multiplicity
 _atom_site_fract_x
 _atom_site_fract_y
 _atom_site_fract_z
 _atom_site_occupancy
  Na  Na0  1  0.250000  0.003280  0.310762  1
  Na  Na1  1  0.250000  0.502921  0.198967  1
  Na  Na2  1  0.750000  0.996727  0.686212  1
  Eu  Eu3  1  0.750000  0.496413  0.807479  1
  Zn  Zn4  1  0.250000  0.675742  0.571458  1
  Zn  Zn5  1  0.250000  0.162202  0.921435  1
  Zn  Zn6  1  0.750000  0.329907  0.416070  1
  Zn  Zn7  1  0.750000  0.837071  0.084702  1
  Au  Au8  1  0.250000  0.299003  0.599418  1
  Au  Au9  1  0.250000  0.790658  0.902736  1
  Au  Au10  1  0.750000  0.702289  0.403039  1
  Au  Au11  1  0.750000  0.203787  0.097722  1
