# generated using pymatgen
data_Ce2CdAg2Hg
_symmetry_space_group_name_H-M   'P 1'
_cell_length_a   5.03260200
_cell_length_b   5.03260098
_cell_length_c   6.47220100
_cell_angle_alpha   90.00000000
_cell_angle_beta   90.00000000
_cell_angle_gamma   120.00000671
_symmetry_Int_Tables_number   1
_chemical_formula_structural   Ce2CdAg2Hg
_chemical_formula_sum   'Ce2 Cd1 Ag2 Hg1'
_cell_volume   141.96055290
_cell_formula_units_Z   1
loop_
 _symmetry_equiv_pos_site_id
 _symmetry_equiv_pos_as_xyz
  1  'x, y, z'
loop_
 _atom_site_type_symbol
 _atom_site_label
 _atom_site_symmetry_multiplicity
 _atom_site_fract_x
 _atom_site_fract_y
 _atom_site_fract_z
 _atom_site_occupancy
  Ce  Ce0  1  0.000000  0.000000  0.002555  1
  Ce  Ce1  1  0.000000  0.000000  0.497445  1
  Cd  Cd2  1  0.666666  0.333333  0.750000  1
  Ag  Ag3  1  0.666666  0.333333  0.249999  1
  Ag  Ag4  1  0.333334  0.666668  0.750000  1
  Hg  Hg5  1  0.333334  0.666668  0.249999  1
