# generated using pymatgen
data_ErSc2(FeCo2)3
_symmetry_space_group_name_H-M   'P 1'
_cell_length_a   8.31475132
_cell_length_b   8.31475098
_cell_length_c   8.31475061
_cell_angle_alpha   34.73083240
_cell_angle_beta   34.73083769
_cell_angle_gamma   34.73082608
_symmetry_Int_Tables_number   1
_chemical_formula_structural   ErSc2(FeCo2)3
_chemical_formula_sum   'Er1 Sc2 Fe3 Co6'
_cell_volume   166.52056885
_cell_formula_units_Z   1
loop_
 _symmetry_equiv_pos_site_id
 _symmetry_equiv_pos_as_xyz
  1  'x, y, z'
loop_
 _atom_site_type_symbol
 _atom_site_label
 _atom_site_symmetry_multiplicity
 _atom_site_fract_x
 _atom_site_fract_y
 _atom_site_fract_z
 _atom_site_occupancy
  Er  Er0  1  0.000000  0.000000  0.000000  1
  Sc  Sc1  1  0.142439  0.142439  0.142439  1
  Sc  Sc2  1  0.857561  0.857561  0.857561  1
  Fe  Fe3  1  0.334200  0.334200  0.334200  1
  Fe  Fe4  1  0.665800  0.665800  0.665800  1
  Fe  Fe5  1  0.500000  0.500000  0.500000  1
  Co  Co6  1  0.413264  0.413264  0.920734  1
  Co  Co7  1  0.920734  0.413264  0.413264  1
  Co  Co8  1  0.586736  0.079266  0.586736  1
  Co  Co9  1  0.586736  0.586736  0.079266  1
  Co  Co10  1  0.413264  0.920734  0.413264  1
  Co  Co11  1  0.079266  0.586736  0.586736  1
