# generated using pymatgen
data_Ta6Nb(BC)4
_symmetry_space_group_name_H-M   'P 1'
_cell_length_a   3.14878715
_cell_length_b   3.22236509
_cell_length_c   16.31021570
_cell_angle_alpha   95.66911861
_cell_angle_beta   95.53928342
_cell_angle_gamma   90.00000457
_symmetry_Int_Tables_number   1
_chemical_formula_structural   Ta6Nb(BC)4
_chemical_formula_sum   'Ta6 Nb1 B4 C4'
_cell_volume   163.90623091
_cell_formula_units_Z   1
loop_
 _symmetry_equiv_pos_site_id
 _symmetry_equiv_pos_as_xyz
  1  'x, y, z'
loop_
 _atom_site_type_symbol
 _atom_site_label
 _atom_site_symmetry_multiplicity
 _atom_site_fract_x
 _atom_site_fract_y
 _atom_site_fract_z
 _atom_site_occupancy
  Ta  Ta0  1  0.081671  0.081671  0.163344  1
  Ta  Ta1  1  0.646937  0.646936  0.293874  1
  Ta  Ta2  1  0.214317  0.214317  0.428635  1
  Ta  Ta3  1  0.785683  0.785682  0.571365  1
  Ta  Ta4  1  0.353063  0.353063  0.706126  1
  Ta  Ta5  1  0.918329  0.918328  0.836656  1
  Nb  Nb6  1  0.500000  0.000000  0.000000  1
  B  B7  1  0.028599  0.528598  0.057199  1
  B  B8  1  0.558137  0.558136  0.116274  1
  B  B9  1  0.441863  0.441863  0.883726  1
  B  B10  1  0.971401  0.471401  0.942801  1
  C  C11  1  0.147520  0.147520  0.295040  1
  C  C12  1  0.715367  0.715366  0.430734  1
  C  C13  1  0.284633  0.284633  0.569266  1
  C  C14  1  0.852480  0.852479  0.704960  1
