# generated using pymatgen
data_RbDyY2F10
_symmetry_space_group_name_H-M   'P 1'
_cell_length_a   8.30616843
_cell_length_b   8.30187243
_cell_length_c   8.30186836
_cell_angle_alpha   60.03401274
_cell_angle_beta   59.98271229
_cell_angle_gamma   59.98272730
_symmetry_Int_Tables_number   1
_chemical_formula_structural   RbDyY2F10
_chemical_formula_sum   'Rb2 Dy2 Y4 F20'
_cell_volume   404.79543245
_cell_formula_units_Z   2
loop_
 _symmetry_equiv_pos_site_id
 _symmetry_equiv_pos_as_xyz
  1  'x, y, z'
loop_
 _atom_site_type_symbol
 _atom_site_label
 _atom_site_symmetry_multiplicity
 _atom_site_fract_x
 _atom_site_fract_y
 _atom_site_fract_z
 _atom_site_occupancy
  Rb  Rb0  1  0.249999  0.250001  0.250000  1
  Rb  Rb1  1  0.750001  0.750000  0.750000  1
  Dy  Dy2  1  0.759434  0.240566  0.240566  1
  Dy  Dy3  1  0.240565  0.759434  0.759435  1
  Y  Y4  1  0.240525  0.759475  0.240525  1
  Y  Y5  1  0.759475  0.240525  0.759475  1
  Y  Y6  1  0.240525  0.240525  0.759475  1
  Y  Y7  1  0.759475  0.759475  0.240525  1
  F  F8  1  0.829474  0.500000  0.500000  1
  F  F9  1  0.170526  0.500000  0.500000  1
  F  F10  1  0.500000  0.829473  0.170527  1
  F  F11  1  0.500000  0.170527  0.829473  1
  F  F12  1  0.499350  0.829164  0.500650  1
  F  F13  1  0.170837  0.500650  0.829164  1
  F  F14  1  0.500650  0.170835  0.499351  1
  F  F15  1  0.829163  0.499350  0.170836  1
  F  F16  1  0.499350  0.500650  0.829165  1
  F  F17  1  0.500650  0.499350  0.170835  1
  F  F18  1  0.170837  0.829164  0.500650  1
  F  F19  1  0.829163  0.170836  0.499350  1
  F  F20  1  0.109940  0.110742  0.110742  1
  F  F21  1  0.890061  0.889258  0.889258  1
  F  F22  1  0.110742  0.109940  0.668577  1
  F  F23  1  0.110742  0.668576  0.109939  1
  F  F24  1  0.889258  0.890061  0.331424  1
  F  F25  1  0.889258  0.331424  0.890060  1
  F  F26  1  0.668576  0.110742  0.110742  1
  F  F27  1  0.331424  0.889258  0.889258  1
