# generated using pymatgen
data_HoPaNi2Sn
_symmetry_space_group_name_H-M   'P 1'
_cell_length_a   7.37357162
_cell_length_b   7.37357162
_cell_length_c   3.61936800
_cell_angle_alpha   90.00000000
_cell_angle_beta   90.00000000
_cell_angle_gamma   93.70926917
_symmetry_Int_Tables_number   1
_chemical_formula_structural   HoPaNi2Sn
_chemical_formula_sum   'Ho2 Pa2 Ni4 Sn2'
_cell_volume   196.37121094
_cell_formula_units_Z   2
loop_
 _symmetry_equiv_pos_site_id
 _symmetry_equiv_pos_as_xyz
  1  'x, y, z'
loop_
 _atom_site_type_symbol
 _atom_site_label
 _atom_site_symmetry_multiplicity
 _atom_site_fract_x
 _atom_site_fract_y
 _atom_site_fract_z
 _atom_site_occupancy
  Ho  Ho0  1  0.173498  0.326502  0.500000  1
  Ho  Ho1  1  0.826502  0.673498  0.500000  1
  Pa  Pa2  1  0.675167  0.175167  0.500000  1
  Pa  Pa3  1  0.324833  0.824833  0.500000  1
  Ni  Ni4  1  0.867700  0.367700  0.000000  1
  Ni  Ni5  1  0.132300  0.632300  0.000000  1
  Ni  Ni6  1  0.383178  0.116822  0.000000  1
  Ni  Ni7  1  0.616822  0.883178  0.000000  1
  Sn  Sn8  1  0.500000  0.500000  0.000000  1
  Sn  Sn9  1  0.000000  0.000000  0.000000  1
