# generated using pymatgen
data_Eu4Mg4NiRh3
_symmetry_space_group_name_H-M   'P 1'
_cell_length_a   4.25665100
_cell_length_b   7.30013325
_cell_length_c   8.56875555
_cell_angle_alpha   90.04125194
_cell_angle_beta   90.00000000
_cell_angle_gamma   90.00000000
_symmetry_Int_Tables_number   1
_chemical_formula_structural   Eu4Mg4NiRh3
_chemical_formula_sum   'Eu4 Mg4 Ni1 Rh3'
_cell_volume   266.26646481
_cell_formula_units_Z   1
loop_
 _symmetry_equiv_pos_site_id
 _symmetry_equiv_pos_as_xyz
  1  'x, y, z'
loop_
 _atom_site_type_symbol
 _atom_site_label
 _atom_site_symmetry_multiplicity
 _atom_site_fract_x
 _atom_site_fract_y
 _atom_site_fract_z
 _atom_site_occupancy
  Eu  Eu0  1  0.250000  0.029783  0.324532  1
  Eu  Eu1  1  0.250000  0.531772  0.177341  1
  Eu  Eu2  1  0.750000  0.970260  0.675355  1
  Eu  Eu3  1  0.750000  0.471077  0.823769  1
  Mg  Mg4  1  0.250000  0.137282  0.941690  1
  Mg  Mg5  1  0.250000  0.636549  0.558000  1
  Mg  Mg6  1  0.750000  0.862380  0.058079  1
  Mg  Mg7  1  0.750000  0.362453  0.442599  1
  Ni  Ni8  1  0.750000  0.230164  0.127428  1
  Rh  Rh9  1  0.250000  0.266689  0.630294  1
  Rh  Rh10  1  0.250000  0.767789  0.871668  1
  Rh  Rh11  1  0.750000  0.733803  0.369246  1
