# generated using pymatgen
data_Ho10In8IrPtRh2
_symmetry_space_group_name_H-M   'P 1'
_cell_length_a   3.62035700
_cell_length_b   8.06019302
_cell_length_c   18.23185895
_cell_angle_alpha   89.95729901
_cell_angle_beta   90.00000000
_cell_angle_gamma   90.00000000
_symmetry_Int_Tables_number   1
_chemical_formula_structural   Ho10In8IrPtRh2
_chemical_formula_sum   'Ho10 In8 Ir1 Pt1 Rh2'
_cell_volume   532.01964810
_cell_formula_units_Z   1
loop_
 _symmetry_equiv_pos_site_id
 _symmetry_equiv_pos_as_xyz
  1  'x, y, z'
loop_
 _atom_site_type_symbol
 _atom_site_label
 _atom_site_symmetry_multiplicity
 _atom_site_fract_x
 _atom_site_fract_y
 _atom_site_fract_z
 _atom_site_occupancy
  Ho  Ho0  1  0.000000  0.115367  0.412096  1
  Ho  Ho1  1  0.000000  0.884174  0.588957  1
  Ho  Ho2  1  0.000000  0.384419  0.910887  1
  Ho  Ho3  1  0.000000  0.617492  0.086062  1
  Ho  Ho4  1  0.000000  0.237483  0.221797  1
  Ho  Ho5  1  0.000000  0.755070  0.779108  1
  Ho  Ho6  1  0.000000  0.254832  0.721069  1
  Ho  Ho7  1  0.000000  0.750501  0.280173  1
  Ho  Ho8  1  0.000000  0.000442  0.000034  1
  Ho  Ho9  1  0.000000  0.500564  0.499823  1
  In  In10  1  0.500000  0.423814  0.351190  1
  In  In11  1  0.500000  0.574020  0.649973  1
  In  In12  1  0.500000  0.074176  0.849966  1
  In  In13  1  0.500000  0.926108  0.149640  1
  In  In14  1  0.500000  0.292059  0.066167  1
  In  In15  1  0.500000  0.706849  0.932180  1
  In  In16  1  0.500000  0.206843  0.567693  1
  In  In17  1  0.500000  0.793347  0.432730  1
  Ir  Ir18  1  0.500000  0.022339  0.304062  1
  Pt  Pt19  1  0.500000  0.523903  0.196444  1
  Rh  Rh20  1  0.500000  0.978176  0.695251  1
  Rh  Rh21  1  0.500000  0.478025  0.804696  1
