# generated using pymatgen
data_Ta12Re5Tc6Ru
_symmetry_space_group_name_H-M   'P 1'
_cell_length_a   4.51704500
_cell_length_b   6.38692500
_cell_length_c   13.62941900
_cell_angle_alpha   90.00000000
_cell_angle_beta   90.00049736
_cell_angle_gamma   90.00000000
_symmetry_Int_Tables_number   1
_chemical_formula_structural   Ta12Re5Tc6Ru
_chemical_formula_sum   'Ta12 Re5 Tc6 Ru1'
_cell_volume   393.20911481
_cell_formula_units_Z   1
loop_
 _symmetry_equiv_pos_site_id
 _symmetry_equiv_pos_as_xyz
  1  'x, y, z'
loop_
 _atom_site_type_symbol
 _atom_site_label
 _atom_site_symmetry_multiplicity
 _atom_site_fract_x
 _atom_site_fract_y
 _atom_site_fract_z
 _atom_site_occupancy
  Ta  Ta0  1  0.500027  0.250626  0.000586  1
  Ta  Ta1  1  0.500027  0.749373  0.000586  1
  Ta  Ta2  1  0.000081  0.249810  0.166692  1
  Ta  Ta3  1  0.000081  0.750189  0.166692  1
  Ta  Ta4  1  0.499930  0.250092  0.333302  1
  Ta  Ta5  1  0.499930  0.749908  0.333302  1
  Ta  Ta6  1  0.000037  0.249844  0.500074  1
  Ta  Ta7  1  0.000037  0.750156  0.500074  1
  Ta  Ta8  1  0.499936  0.250511  0.666052  1
  Ta  Ta9  1  0.499936  0.749489  0.666052  1
  Ta  Ta10  1  0.000134  0.251461  0.833346  1
  Ta  Ta11  1  0.000134  0.748538  0.833346  1
  Re  Re12  1  0.000103  0.500001  0.999403  1
  Re  Re13  1  0.499763  0.000000  0.166172  1
  Re  Re14  1  0.000042  0.500001  0.333377  1
  Re  Re15  1  0.499764  0.000000  0.500448  1
  Re  Re16  1  0.999941  0.500001  0.667246  1
  Tc  Tc17  1  0.000026  0.000000  0.998260  1
  Tc  Tc18  1  0.499990  0.500001  0.166214  1
  Tc  Tc19  1  0.999972  0.000000  0.333308  1
  Tc  Tc20  1  0.500162  0.500001  0.500521  1
  Tc  Tc21  1  0.999888  0.000000  0.668300  1
  Tc  Tc22  1  0.500140  0.500001  0.833332  1
  Ru  Ru23  1  0.499918  0.000000  0.833311  1
