# generated using pymatgen
data_Ho7Co3Sn23Ru3
_symmetry_space_group_name_H-M   'P 1'
_cell_length_a   9.77819800
_cell_length_b   9.77819675
_cell_length_c   10.02377000
_cell_angle_alpha   90.00000000
_cell_angle_beta   90.00000000
_cell_angle_gamma   119.99999748
_symmetry_Int_Tables_number   1
_chemical_formula_structural   Ho7Co3Sn23Ru3
_chemical_formula_sum   'Ho7 Co3 Sn23 Ru3'
_cell_volume   830.00237337
_cell_formula_units_Z   1
loop_
 _symmetry_equiv_pos_site_id
 _symmetry_equiv_pos_as_xyz
  1  'x, y, z'
loop_
 _atom_site_type_symbol
 _atom_site_label
 _atom_site_symmetry_multiplicity
 _atom_site_fract_x
 _atom_site_fract_y
 _atom_site_fract_z
 _atom_site_occupancy
  Ho  Ho0  1  0.000000  0.000000  0.985175  1
  Ho  Ho1  1  0.517766  0.482234  0.694897  1
  Ho  Ho2  1  0.517766  0.035531  0.694897  1
  Ho  Ho3  1  0.964469  0.482234  0.694897  1
  Ho  Ho4  1  0.038491  0.519246  0.306320  1
  Ho  Ho5  1  0.480754  0.961509  0.306320  1
  Ho  Ho6  1  0.480754  0.519246  0.306320  1
  Co  Co7  1  0.338588  0.169294  0.200432  1
  Co  Co8  1  0.830706  0.661412  0.200432  1
  Co  Co9  1  0.830706  0.169294  0.200432  1
  Sn  Sn10  1  0.666667  0.333333  0.183940  1
  Sn  Sn11  1  0.666667  0.333333  0.880241  1
  Sn  Sn12  1  0.333333  0.666667  0.123168  1
  Sn  Sn13  1  0.349967  0.345932  0.004828  1
  Sn  Sn14  1  0.995965  0.650033  0.004828  1
  Sn  Sn15  1  0.654068  0.004035  0.004828  1
  Sn  Sn16  1  0.654068  0.650033  0.004828  1
  Sn  Sn17  1  0.333333  0.666667  0.820063  1
  Sn  Sn18  1  0.436211  0.218106  0.452987  1
  Sn  Sn19  1  0.220030  0.779970  0.542812  1
  Sn  Sn20  1  0.220030  0.440058  0.542812  1
  Sn  Sn21  1  0.559942  0.779970  0.542812  1
  Sn  Sn22  1  0.117014  0.882986  0.270925  1
  Sn  Sn23  1  0.781894  0.563789  0.452987  1
  Sn  Sn24  1  0.781894  0.218106  0.452987  1
  Sn  Sn25  1  0.349967  0.004035  0.004828  1
  Sn  Sn26  1  0.117014  0.234028  0.270925  1
  Sn  Sn27  1  0.765972  0.882986  0.270925  1
  Sn  Sn28  1  0.237596  0.118798  0.723046  1
  Sn  Sn29  1  0.881202  0.762404  0.723046  1
  Sn  Sn30  1  0.881202  0.118798  0.723046  1
  Sn  Sn31  1  0.000000  0.000000  0.495408  1
  Sn  Sn32  1  0.995965  0.345932  0.004828  1
  Ru  Ru33  1  0.168184  0.831816  0.802925  1
  Ru  Ru34  1  0.168184  0.336368  0.802925  1
  Ru  Ru35  1  0.663632  0.831816  0.802925  1
