# generated using pymatgen
data_Tb4Tc3NiB16
_symmetry_space_group_name_H-M   'P 1'
_cell_length_a   3.57091300
_cell_length_b   5.95790407
_cell_length_c   11.54796318
_cell_angle_alpha   89.96774821
_cell_angle_beta   90.00000000
_cell_angle_gamma   90.00000000
_symmetry_Int_Tables_number   1
_chemical_formula_structural   Tb4Tc3NiB16
_chemical_formula_sum   'Tb4 Tc3 Ni1 B16'
_cell_volume   245.68469212
_cell_formula_units_Z   1
loop_
 _symmetry_equiv_pos_site_id
 _symmetry_equiv_pos_as_xyz
  1  'x, y, z'
loop_
 _atom_site_type_symbol
 _atom_site_label
 _atom_site_symmetry_multiplicity
 _atom_site_fract_x
 _atom_site_fract_y
 _atom_site_fract_z
 _atom_site_occupancy
  Tb  Tb0  1  0.500000  0.373597  0.146616  1
  Tb  Tb1  1  0.500000  0.627918  0.851333  1
  Tb  Tb2  1  0.500000  0.127614  0.652898  1
  Tb  Tb3  1  0.500000  0.873225  0.347288  1
  Tc  Tc4  1  0.500000  0.367790  0.412768  1
  Tc  Tc5  1  0.500000  0.631463  0.585377  1
  Tc  Tc6  1  0.500000  0.131060  0.914876  1
  Ni  Ni7  1  0.500000  0.858762  0.095365  1
  B  B8  1  0.000000  0.113449  0.046494  1
  B  B9  1  0.000000  0.887489  0.952413  1
  B  B10  1  0.000000  0.386771  0.546640  1
  B  B11  1  0.000000  0.613552  0.452127  1
  B  B12  1  0.000000  0.135696  0.467994  1
  B  B13  1  0.000000  0.864456  0.531059  1
  B  B14  1  0.000000  0.365536  0.969262  1
  B  B15  1  0.000000  0.639276  0.032304  1
  B  B16  1  0.000000  0.024216  0.190930  1
  B  B17  1  0.000000  0.974925  0.808247  1
  B  B18  1  0.000000  0.476777  0.692290  1
  B  B19  1  0.000000  0.525908  0.306384  1
  B  B20  1  0.000000  0.213503  0.313496  1
  B  B21  1  0.000000  0.785431  0.685577  1
  B  B22  1  0.000000  0.285235  0.815609  1
  B  B23  1  0.000000  0.716350  0.182651  1
