# generated using pymatgen
data_CePaTlRh2
_symmetry_space_group_name_H-M   'P 1'
_cell_length_a   7.74777100
_cell_length_b   7.74777006
_cell_length_c   3.63808300
_cell_angle_alpha   90.00000000
_cell_angle_beta   90.00000000
_cell_angle_gamma   92.80548796
_symmetry_Int_Tables_number   1
_chemical_formula_structural   CePaTlRh2
_chemical_formula_sum   'Ce2 Pa2 Tl2 Rh4'
_cell_volume   218.12491133
_cell_formula_units_Z   2
loop_
 _symmetry_equiv_pos_site_id
 _symmetry_equiv_pos_as_xyz
  1  'x, y, z'
loop_
 _atom_site_type_symbol
 _atom_site_label
 _atom_site_symmetry_multiplicity
 _atom_site_fract_x
 _atom_site_fract_y
 _atom_site_fract_z
 _atom_site_occupancy
  Ce  Ce0  1  0.169706  0.330294  0.500000  1
  Ce  Ce1  1  0.830294  0.669706  0.500000  1
  Pa  Pa2  1  0.667469  0.167469  0.500000  1
  Pa  Pa3  1  0.332531  0.832531  0.500000  1
  Tl  Tl4  1  0.000000  0.000000  0.000000  1
  Tl  Tl5  1  0.500000  0.500000  0.000000  1
  Rh  Rh6  1  0.143001  0.643001  0.000000  1
  Rh  Rh7  1  0.856999  0.356999  0.000000  1
  Rh  Rh8  1  0.626087  0.873913  0.000000  1
  Rh  Rh9  1  0.373913  0.126087  0.000000  1
