# generated using pymatgen
data_Tm12Mg3Ag9C4
_symmetry_space_group_name_H-M   'P 1'
_cell_length_a   9.21837654
_cell_length_b   9.21837603
_cell_length_c   9.21837800
_cell_angle_alpha   59.62357936
_cell_angle_beta   59.62358124
_cell_angle_gamma   59.62358230
_symmetry_Int_Tables_number   1
_chemical_formula_structural   Tm12Mg3Ag9C4
_chemical_formula_sum   'Tm12 Mg3 Ag9 C4'
_cell_volume   549.18326795
_cell_formula_units_Z   1
loop_
 _symmetry_equiv_pos_site_id
 _symmetry_equiv_pos_as_xyz
  1  'x, y, z'
loop_
 _atom_site_type_symbol
 _atom_site_label
 _atom_site_symmetry_multiplicity
 _atom_site_fract_x
 _atom_site_fract_y
 _atom_site_fract_z
 _atom_site_occupancy
  Tm  Tm0  1  0.440924  0.440924  0.056513  1
  Tm  Tm1  1  0.060911  0.438977  0.060911  1
  Tm  Tm2  1  0.438977  0.060911  0.060911  1
  Tm  Tm3  1  0.060911  0.060911  0.438977  1
  Tm  Tm4  1  0.440924  0.056513  0.440924  1
  Tm  Tm5  1  0.056513  0.440924  0.440924  1
  Tm  Tm6  1  0.809076  0.809076  0.193487  1
  Tm  Tm7  1  0.189089  0.811023  0.189089  1
  Tm  Tm8  1  0.811023  0.189089  0.189089  1
  Tm  Tm9  1  0.189089  0.189089  0.811023  1
  Tm  Tm10  1  0.809076  0.193487  0.809076  1
  Tm  Tm11  1  0.193487  0.809076  0.809076  1
  Mg  Mg12  1  0.625000  0.625000  0.125000  1
  Mg  Mg13  1  0.625000  0.125000  0.625000  1
  Mg  Mg14  1  0.125000  0.625000  0.625000  1
  Ag  Ag15  1  0.834148  0.834148  0.503192  1
  Ag  Ag16  1  0.834148  0.503192  0.834148  1
  Ag  Ag17  1  0.503192  0.834148  0.834148  1
  Ag  Ag18  1  0.833233  0.833233  0.833233  1
  Ag  Ag19  1  0.415852  0.415852  0.746808  1
  Ag  Ag20  1  0.415852  0.746808  0.415852  1
  Ag  Ag21  1  0.746808  0.415852  0.415852  1
  Ag  Ag22  1  0.416767  0.416767  0.416767  1
  Ag  Ag23  1  0.625000  0.625000  0.625000  1
  C  C24  1  0.125000  0.125000  0.625000  1
  C  C25  1  0.125000  0.625000  0.125000  1
  C  C26  1  0.625000  0.125000  0.125000  1
  C  C27  1  0.125000  0.125000  0.125000  1
