# generated using pymatgen
data_Ho4Mg4Ir3Au
_symmetry_space_group_name_H-M   'P 1'
_cell_length_a   4.11407400
_cell_length_b   7.12080345
_cell_length_c   8.65247749
_cell_angle_alpha   91.13274685
_cell_angle_beta   90.00000000
_cell_angle_gamma   90.00000000
_symmetry_Int_Tables_number   1
_chemical_formula_structural   Ho4Mg4Ir3Au
_chemical_formula_sum   'Ho4 Mg4 Ir3 Au1'
_cell_volume   253.42922511
_cell_formula_units_Z   1
loop_
 _symmetry_equiv_pos_site_id
 _symmetry_equiv_pos_as_xyz
  1  'x, y, z'
loop_
 _atom_site_type_symbol
 _atom_site_label
 _atom_site_symmetry_multiplicity
 _atom_site_fract_x
 _atom_site_fract_y
 _atom_site_fract_z
 _atom_site_occupancy
  Ho  Ho0  1  0.250000  0.026810  0.337917  1
  Ho  Ho1  1  0.250000  0.560089  0.177696  1
  Ho  Ho2  1  0.750000  0.960887  0.675858  1
  Ho  Ho3  1  0.750000  0.469385  0.814322  1
  Mg  Mg4  1  0.250000  0.134096  0.931580  1
  Mg  Mg5  1  0.250000  0.636003  0.560902  1
  Mg  Mg6  1  0.750000  0.859392  0.059808  1
  Mg  Mg7  1  0.750000  0.363730  0.442349  1
  Ir  Ir8  1  0.250000  0.247394  0.627061  1
  Ir  Ir9  1  0.250000  0.746539  0.875929  1
  Ir  Ir10  1  0.750000  0.747759  0.370702  1
  Au  Au11  1  0.750000  0.247915  0.125878  1
