# generated using pymatgen
data_La3Ho2TlIn2Br
_symmetry_space_group_name_H-M   'P 1'
_cell_length_a   9.59885262
_cell_length_b   9.59885276
_cell_length_c   6.84276200
_cell_angle_alpha   90.00000000
_cell_angle_beta   90.00000000
_cell_angle_gamma   119.95870984
_symmetry_Int_Tables_number   1
_chemical_formula_structural   La3Ho2TlIn2Br
_chemical_formula_sum   'La6 Ho4 Tl2 In4 Br2'
_cell_volume   546.23719035
_cell_formula_units_Z   2
loop_
 _symmetry_equiv_pos_site_id
 _symmetry_equiv_pos_as_xyz
  1  'x, y, z'
loop_
 _atom_site_type_symbol
 _atom_site_label
 _atom_site_symmetry_multiplicity
 _atom_site_fract_x
 _atom_site_fract_y
 _atom_site_fract_z
 _atom_site_occupancy
  La  La0  1  0.730617  0.731004  0.250000  1
  La  La1  1  0.999492  0.730689  0.750000  1
  La  La2  1  0.730804  0.000015  0.750000  1
  La  La3  1  0.268996  0.269383  0.750000  1
  La  La4  1  0.999985  0.269196  0.250000  1
  La  La5  1  0.269311  0.000508  0.250000  1
  Ho  Ho6  1  0.333867  0.666133  0.500000  1
  Ho  Ho7  1  0.666683  0.333317  0.500000  1
  Ho  Ho8  1  0.333867  0.666133  0.000000  1
  Ho  Ho9  1  0.666683  0.333317  0.000000  1
  Tl  Tl10  1  0.393893  0.000028  0.750000  1
  Tl  Tl11  1  0.999972  0.606107  0.250000  1
  In  In12  1  0.605836  0.000017  0.250000  1
  In  In13  1  0.999983  0.394164  0.750000  1
  In  In14  1  0.394557  0.394596  0.250000  1
  In  In15  1  0.605404  0.605443  0.750000  1
  Br  Br16  1  0.000025  0.999975  0.500000  1
  Br  Br17  1  0.000025  0.999975  0.000000  1
