# generated using pymatgen
data_Ca20GaSi8Bi3
_symmetry_space_group_name_H-M   'P 1'
_cell_length_a   7.78719200
_cell_length_b   7.78719200
_cell_length_c   15.06205000
_cell_angle_alpha   90.00000000
_cell_angle_beta   90.00000000
_cell_angle_gamma   90.00000000
_symmetry_Int_Tables_number   1
_chemical_formula_structural   Ca20GaSi8Bi3
_chemical_formula_sum   'Ca20 Ga1 Si8 Bi3'
_cell_volume   913.36812296
_cell_formula_units_Z   1
loop_
 _symmetry_equiv_pos_site_id
 _symmetry_equiv_pos_as_xyz
  1  'x, y, z'
loop_
 _atom_site_type_symbol
 _atom_site_label
 _atom_site_symmetry_multiplicity
 _atom_site_fract_x
 _atom_site_fract_y
 _atom_site_fract_z
 _atom_site_occupancy
  Ca  Ca0  1  0.680619  0.166511  0.110918  1
  Ca  Ca1  1  0.173151  0.672438  0.614903  1
  Ca  Ca2  1  0.319381  0.833489  0.110918  1
  Ca  Ca3  1  0.826849  0.327562  0.614903  1
  Ca  Ca4  1  0.833489  0.680619  0.110918  1
  Ca  Ca5  1  0.327562  0.173151  0.614903  1
  Ca  Ca6  1  0.166511  0.319381  0.110918  1
  Ca  Ca7  1  0.672438  0.826849  0.614903  1
  Ca  Ca8  1  0.833489  0.319381  0.889082  1
  Ca  Ca9  1  0.327562  0.826849  0.385097  1
  Ca  Ca10  1  0.166511  0.680619  0.889082  1
  Ca  Ca11  1  0.672438  0.173151  0.385097  1
  Ca  Ca12  1  0.680619  0.833489  0.889082  1
  Ca  Ca13  1  0.173151  0.327562  0.385097  1
  Ca  Ca14  1  0.319381  0.166511  0.889082  1
  Ca  Ca15  1  0.826849  0.672438  0.385097  1
  Ca  Ca16  1  0.500000  0.500000  0.755428  1
  Ca  Ca17  1  0.000000  0.000000  0.245997  1
  Ca  Ca18  1  0.000000  0.000000  0.754003  1
  Ca  Ca19  1  0.500000  0.500000  0.244572  1
  Ga  Ga20  1  0.000000  0.000000  0.000000  1
  Si  Si21  1  0.612714  0.115112  0.749722  1
  Si  Si22  1  0.115112  0.612714  0.250278  1
  Si  Si23  1  0.884888  0.387286  0.250278  1
  Si  Si24  1  0.387286  0.884888  0.749722  1
  Si  Si25  1  0.884888  0.612714  0.749722  1
  Si  Si26  1  0.387286  0.115112  0.250278  1
  Si  Si27  1  0.115112  0.387286  0.749722  1
  Si  Si28  1  0.612714  0.884888  0.250278  1
  Bi  Bi29  1  0.500000  0.500000  0.500000  1
  Bi  Bi30  1  0.500000  0.500000  0.000000  1
  Bi  Bi31  1  0.000000  0.000000  0.500000  1
