# generated using pymatgen
data_Y4In7Hg5
_symmetry_space_group_name_H-M   'P 1'
_cell_length_a   6.54113105
_cell_length_b   6.55583269
_cell_length_c   9.18717700
_cell_angle_alpha   90.01223553
_cell_angle_beta   89.99281737
_cell_angle_gamma   89.30916674
_symmetry_Int_Tables_number   1
_chemical_formula_structural   Y4In7Hg5
_chemical_formula_sum   'Y4 In7 Hg5'
_cell_volume   393.94102651
_cell_formula_units_Z   1
loop_
 _symmetry_equiv_pos_site_id
 _symmetry_equiv_pos_as_xyz
  1  'x, y, z'
loop_
 _atom_site_type_symbol
 _atom_site_label
 _atom_site_symmetry_multiplicity
 _atom_site_fract_x
 _atom_site_fract_y
 _atom_site_fract_z
 _atom_site_occupancy
  Y  Y0  1  0.752479  0.251035  0.999034  1
  Y  Y1  1  0.247529  0.748941  0.999010  1
  Y  Y2  1  0.250232  0.748853  0.501005  1
  Y  Y3  1  0.749736  0.251223  0.500975  1
  In  In4  1  0.499982  0.999998  0.249290  1
  In  In5  1  0.499994  0.499991  0.249309  1
  In  In6  1  0.999983  0.500042  0.250650  1
  In  In7  1  0.999984  0.000010  0.250687  1
  In  In8  1  0.000040  0.000014  0.749403  1
  In  In9  1  0.999929  0.500051  0.749417  1
  In  In10  1  0.499963  0.499986  0.750671  1
  Hg  Hg11  1  0.749328  0.750321  0.999601  1
  Hg  Hg12  1  0.249933  0.249750  0.500380  1
  Hg  Hg13  1  0.750031  0.750275  0.500358  1
  Hg  Hg14  1  0.250638  0.249659  0.999542  1
  Hg  Hg15  1  0.500212  0.999851  0.750664  1
