# generated using pymatgen
data_Ti4I7Cl5
_symmetry_space_group_name_H-M   'P 1'
_cell_length_a   6.18882000
_cell_length_b   7.56986357
_cell_length_c   13.15610918
_cell_angle_alpha   89.02937832
_cell_angle_beta   90.00000000
_cell_angle_gamma   90.00000000
_symmetry_Int_Tables_number   1
_chemical_formula_structural   Ti4I7Cl5
_chemical_formula_sum   'Ti4 I7 Cl5'
_cell_volume   616.25584626
_cell_formula_units_Z   1
loop_
 _symmetry_equiv_pos_site_id
 _symmetry_equiv_pos_as_xyz
  1  'x, y, z'
loop_
 _atom_site_type_symbol
 _atom_site_label
 _atom_site_symmetry_multiplicity
 _atom_site_fract_x
 _atom_site_fract_y
 _atom_site_fract_z
 _atom_site_occupancy
  Ti  Ti0  1  0.276690  0.251219  0.498128  1
  Ti  Ti1  1  0.723310  0.251219  0.498128  1
  Ti  Ti2  1  0.782327  0.748247  0.001469  1
  Ti  Ti3  1  0.217673  0.748247  0.001469  1
  I  I4  1  0.500000  0.406317  0.653838  1
  I  I5  1  0.500000  0.897736  0.853056  1
  I  I6  1  0.000000  0.102943  0.349407  1
  I  I7  1  0.000000  0.086586  0.641911  1
  I  I8  1  0.500000  0.894061  0.147515  1
  I  I9  1  0.500000  0.452825  0.002274  1
  I  I10  1  0.000000  0.546865  0.486889  1
  Cl  Cl11  1  0.500000  0.374802  0.366252  1
  Cl  Cl12  1  0.000000  0.620451  0.871859  1
  Cl  Cl13  1  0.000000  0.617210  0.131997  1
  Cl  Cl14  1  0.500000  0.992377  0.495883  1
  Cl  Cl15  1  0.000000  0.008895  0.999924  1
