# generated using pymatgen
data_Tb4YZr3(As3Pd4)4
_symmetry_space_group_name_H-M   'P 1'
_cell_length_a   13.56678509
_cell_length_b   13.56406090
_cell_length_c   4.10538600
_cell_angle_alpha   90.00000000
_cell_angle_beta   90.00000000
_cell_angle_gamma   119.99336375
_symmetry_Int_Tables_number   1
_chemical_formula_structural   Tb4YZr3(As3Pd4)4
_chemical_formula_sum   'Tb4 Y1 Zr3 As12 Pd16'
_cell_volume   654.30515670
_cell_formula_units_Z   1
loop_
 _symmetry_equiv_pos_site_id
 _symmetry_equiv_pos_as_xyz
  1  'x, y, z'
loop_
 _atom_site_type_symbol
 _atom_site_label
 _atom_site_symmetry_multiplicity
 _atom_site_fract_x
 _atom_site_fract_y
 _atom_site_fract_z
 _atom_site_occupancy
  Tb  Tb0  1  0.189392  0.189410  0.500000  1
  Tb  Tb1  1  0.810608  0.000018  0.500000  1
  Tb  Tb2  1  0.333346  0.666673  0.000000  1
  Tb  Tb3  1  0.666654  0.333326  0.000000  1
  Y  Y4  1  0.000000  0.810572  0.500000  1
  Zr  Zr5  1  0.556465  0.556470  0.000000  1
  Zr  Zr6  1  0.443535  0.000005  0.000000  1
  Zr  Zr7  1  0.000000  0.443535  0.000000  1
  As  As8  1  0.826053  0.826003  0.000000  1
  As  As9  1  0.173947  0.999950  0.000000  1
  As  As10  1  0.000000  0.173995  0.000000  1
  As  As11  1  0.166886  0.483316  0.500000  1
  As  As12  1  0.516673  0.683559  0.500000  1
  As  As13  1  0.316421  0.833099  0.500000  1
  As  As14  1  0.683579  0.516678  0.500000  1
  As  As15  1  0.833114  0.316430  0.500000  1
  As  As16  1  0.483327  0.166886  0.500000  1
  As  As17  1  0.358351  0.358377  0.000000  1
  As  As18  1  0.641649  0.000026  0.000000  1
  As  As19  1  0.000000  0.641747  0.000000  1
  Pd  Pd20  1  0.721960  0.721989  0.500000  1
  Pd  Pd21  1  0.278040  0.000029  0.500000  1
  Pd  Pd22  1  0.000000  0.278048  0.500000  1
  Pd  Pd23  1  0.181539  0.372459  0.000000  1
  Pd  Pd24  1  0.627564  0.809091  0.000000  1
  Pd  Pd25  1  0.190821  0.818419  0.000000  1
  Pd  Pd26  1  0.809179  0.627598  0.000000  1
  Pd  Pd27  1  0.818461  0.190920  0.000000  1
  Pd  Pd28  1  0.372436  0.181527  0.000000  1
  Pd  Pd29  1  0.356973  0.485375  0.500000  1
  Pd  Pd30  1  0.514610  0.871592  0.500000  1
  Pd  Pd31  1  0.128446  0.643003  0.500000  1
  Pd  Pd32  1  0.871554  0.514557  0.500000  1
  Pd  Pd33  1  0.643027  0.128401  0.500000  1
  Pd  Pd34  1  0.485390  0.356982  0.500000  1
  Pd  Pd35  1  0.000000  0.999932  0.000000  1
