# generated using pymatgen
data_Ac4Co3GeI2
_symmetry_space_group_name_H-M   'P 1'
_cell_length_a   4.22750100
_cell_length_b   4.22750189
_cell_length_c   18.90365500
_cell_angle_alpha   90.00000000
_cell_angle_beta   90.00000000
_cell_angle_gamma   120.00000086
_symmetry_Int_Tables_number   1
_chemical_formula_structural   Ac4Co3GeI2
_chemical_formula_sum   'Ac4 Co3 Ge1 I2'
_cell_volume   292.57953143
_cell_formula_units_Z   1
loop_
 _symmetry_equiv_pos_site_id
 _symmetry_equiv_pos_as_xyz
  1  'x, y, z'
loop_
 _atom_site_type_symbol
 _atom_site_label
 _atom_site_symmetry_multiplicity
 _atom_site_fract_x
 _atom_site_fract_y
 _atom_site_fract_z
 _atom_site_occupancy
  Ac  Ac0  1  0.000000  0.000000  0.106234  1
  Ac  Ac1  1  0.000000  0.000000  0.398229  1
  Ac  Ac2  1  0.000000  0.000000  0.895136  1
  Ac  Ac3  1  0.000000  0.000000  0.601361  1
  Co  Co4  1  0.666667  0.333333  0.999731  1
  Co  Co5  1  0.333333  0.666667  0.500088  1
  Co  Co6  1  0.666667  0.333333  0.499759  1
  Ge  Ge7  1  0.333333  0.666667  0.000545  1
  I  I8  1  0.333333  0.666667  0.750380  1
  I  I9  1  0.666667  0.333333  0.248535  1
