# generated using pymatgen
data_TbDy3Mg3ZnRh4
_symmetry_space_group_name_H-M   'P 1'
_cell_length_a   4.10200800
_cell_length_b   7.08384134
_cell_length_c   8.44528563
_cell_angle_alpha   90.05735873
_cell_angle_beta   90.00000000
_cell_angle_gamma   90.00000000
_symmetry_Int_Tables_number   1
_chemical_formula_structural   TbDy3Mg3ZnRh4
_chemical_formula_sum   'Tb1 Dy3 Mg3 Zn1 Rh4'
_cell_volume   245.40276598
_cell_formula_units_Z   1
loop_
 _symmetry_equiv_pos_site_id
 _symmetry_equiv_pos_as_xyz
  1  'x, y, z'
loop_
 _atom_site_type_symbol
 _atom_site_label
 _atom_site_symmetry_multiplicity
 _atom_site_fract_x
 _atom_site_fract_y
 _atom_site_fract_z
 _atom_site_occupancy
  Tb  Tb0  1  0.250000  0.534393  0.183549  1
  Dy  Dy1  1  0.750000  0.459676  0.818747  1
  Dy  Dy2  1  0.250000  0.048923  0.328714  1
  Dy  Dy3  1  0.750000  0.962319  0.674879  1
  Mg  Mg4  1  0.250000  0.135096  0.939820  1
  Mg  Mg5  1  0.750000  0.863613  0.059595  1
  Mg  Mg6  1  0.250000  0.630806  0.555773  1
  Zn  Zn7  1  0.750000  0.366020  0.439857  1
  Rh  Rh8  1  0.750000  0.750113  0.372678  1
  Rh  Rh9  1  0.250000  0.253563  0.625143  1
  Rh  Rh10  1  0.750000  0.248205  0.132049  1
  Rh  Rh11  1  0.250000  0.747274  0.869196  1
