# generated using pymatgen
data_DyErGa7Ni2Ag
_symmetry_space_group_name_H-M   'P 1'
_cell_length_a   4.10876466
_cell_length_b   6.48629025
_cell_length_c   8.01358520
_cell_angle_alpha   90.61686005
_cell_angle_beta   104.85431838
_cell_angle_gamma   89.99999722
_symmetry_Int_Tables_number   1
_chemical_formula_structural   DyErGa7Ni2Ag
_chemical_formula_sum   'Dy1 Er1 Ga7 Ni2 Ag1'
_cell_volume   206.41712232
_cell_formula_units_Z   1
loop_
 _symmetry_equiv_pos_site_id
 _symmetry_equiv_pos_as_xyz
  1  'x, y, z'
loop_
 _atom_site_type_symbol
 _atom_site_label
 _atom_site_symmetry_multiplicity
 _atom_site_fract_x
 _atom_site_fract_y
 _atom_site_fract_z
 _atom_site_occupancy
  Dy  Dy0  1  0.623104  0.238357  0.246207  1
  Er  Er1  1  0.376750  0.761610  0.753500  1
  Ga  Ga2  1  0.999755  0.999598  0.999510  1
  Ga  Ga3  1  0.568320  0.740769  0.136641  1
  Ga  Ga4  1  0.431396  0.259315  0.862792  1
  Ga  Ga5  1  0.184575  0.544490  0.369150  1
  Ga  Ga6  1  0.815760  0.456122  0.631522  1
  Ga  Ga7  1  0.186636  0.946840  0.373271  1
  Ga  Ga8  1  0.813813  0.052390  0.627626  1
  Ni  Ni9  1  0.721028  0.750459  0.442056  1
  Ni  Ni10  1  0.279135  0.249434  0.558269  1
  Ag  Ag11  1  0.999728  0.500617  0.999456  1
