# generated using pymatgen
data_SrNd5YOsBr12
_symmetry_space_group_name_H-M   'P 1'
_cell_length_a   9.52555901
_cell_length_b   9.60533586
_cell_length_c   9.51305762
_cell_angle_alpha   106.53003254
_cell_angle_beta   106.32845353
_cell_angle_gamma   105.85426799
_symmetry_Int_Tables_number   1
_chemical_formula_structural   SrNd5YOsBr12
_chemical_formula_sum   'Sr1 Nd5 Y1 Os1 Br12'
_cell_volume   739.42171490
_cell_formula_units_Z   1
loop_
 _symmetry_equiv_pos_site_id
 _symmetry_equiv_pos_as_xyz
  1  'x, y, z'
loop_
 _atom_site_type_symbol
 _atom_site_label
 _atom_site_symmetry_multiplicity
 _atom_site_fract_x
 _atom_site_fract_y
 _atom_site_fract_z
 _atom_site_occupancy
  Sr  Sr0  1  0.499684  0.500408  0.499273  1
  Nd  Nd1  1  0.307516  0.019361  0.101797  1
  Nd  Nd2  1  0.020593  0.103988  0.309302  1
  Nd  Nd3  1  0.980386  0.899510  0.691934  1
  Nd  Nd4  1  0.693151  0.981211  0.898273  1
  Nd  Nd5  1  0.895143  0.682218  0.980013  1
  Y  Y6  1  0.103121  0.311259  0.021024  1
  Os  Os7  1  0.000528  0.000545  0.000909  1
  Br  Br8  1  0.217183  0.673228  0.070203  1
  Br  Br9  1  0.440493  0.366415  0.144739  1
  Br  Br10  1  0.679870  0.072063  0.219877  1
  Br  Br11  1  0.929080  0.782884  0.320972  1
  Br  Br12  1  0.148230  0.448739  0.359570  1
  Br  Br13  1  0.367929  0.151285  0.450518  1
  Br  Br14  1  0.632214  0.849372  0.549690  1
  Br  Br15  1  0.850711  0.551038  0.632479  1
  Br  Br16  1  0.073159  0.223161  0.688047  1
  Br  Br17  1  0.320115  0.928285  0.780239  1
  Br  Br18  1  0.550590  0.633881  0.850541  1
  Br  Br19  1  0.790304  0.321152  0.930600  1
