# generated using pymatgen
data_Er2TmSc2Sb3
_symmetry_space_group_name_H-M   'P 1'
_cell_length_a   8.74122713
_cell_length_b   8.74891282
_cell_length_c   6.07015800
_cell_angle_alpha   90.00000000
_cell_angle_beta   90.00000000
_cell_angle_gamma   120.02908647
_symmetry_Int_Tables_number   1
_chemical_formula_structural   Er2TmSc2Sb3
_chemical_formula_sum   'Er4 Tm2 Sc4 Sb6'
_cell_volume   401.91087464
_cell_formula_units_Z   2
loop_
 _symmetry_equiv_pos_site_id
 _symmetry_equiv_pos_as_xyz
  1  'x, y, z'
loop_
 _atom_site_type_symbol
 _atom_site_label
 _atom_site_symmetry_multiplicity
 _atom_site_fract_x
 _atom_site_fract_y
 _atom_site_fract_z
 _atom_site_occupancy
  Er  Er0  1  0.754596  0.754521  0.250000  1
  Er  Er1  1  0.754596  0.000075  0.750000  1
  Er  Er2  1  0.245404  0.245479  0.750000  1
  Er  Er3  1  0.245404  0.999925  0.250000  1
  Tm  Tm4  1  0.000000  0.754352  0.750000  1
  Tm  Tm5  1  0.000000  0.245648  0.250000  1
  Sc  Sc6  1  0.333354  0.666677  0.500000  1
  Sc  Sc7  1  0.666646  0.333323  0.000000  1
  Sc  Sc8  1  0.666646  0.333323  0.500000  1
  Sc  Sc9  1  0.333354  0.666677  0.000000  1
  Sb  Sb10  1  0.393968  0.999760  0.750000  1
  Sb  Sb11  1  0.393968  0.394208  0.250000  1
  Sb  Sb12  1  0.000000  0.605467  0.250000  1
  Sb  Sb13  1  0.000000  0.394533  0.750000  1
  Sb  Sb14  1  0.606032  0.605792  0.750000  1
  Sb  Sb15  1  0.606032  0.000240  0.250000  1
