# generated using pymatgen
data_DyTm3ReRu7
_symmetry_space_group_name_H-M   'P 1'
_cell_length_a   5.22535534
_cell_length_b   5.40500837
_cell_length_c   8.89282100
_cell_angle_alpha   90.00000350
_cell_angle_beta   90.00127118
_cell_angle_gamma   121.14399290
_symmetry_Int_Tables_number   1
_chemical_formula_structural   DyTm3ReRu7
_chemical_formula_sum   'Dy1 Tm3 Re1 Ru7'
_cell_volume   214.96099804
_cell_formula_units_Z   1
loop_
 _symmetry_equiv_pos_site_id
 _symmetry_equiv_pos_as_xyz
  1  'x, y, z'
loop_
 _atom_site_type_symbol
 _atom_site_label
 _atom_site_symmetry_multiplicity
 _atom_site_fract_x
 _atom_site_fract_y
 _atom_site_fract_z
 _atom_site_occupancy
  Dy  Dy0  1  0.325708  0.662855  0.432647  1
  Tm  Tm1  1  0.652062  0.326030  0.566419  1
  Tm  Tm2  1  0.652245  0.326121  0.934323  1
  Tm  Tm3  1  0.326434  0.663218  0.066983  1
  Re  Re4  1  0.691110  0.845555  0.750623  1
  Ru  Ru5  1  0.973091  0.986546  0.500367  1
  Ru  Ru6  1  0.972988  0.986495  0.999865  1
  Ru  Ru7  1  0.837728  0.167219  0.249011  1
  Ru  Ru8  1  0.837728  0.670508  0.249011  1
  Ru  Ru9  1  0.363208  0.181604  0.249040  1
  Ru  Ru10  1  0.183850  0.824503  0.750855  1
  Ru  Ru11  1  0.183850  0.359348  0.750855  1
