# generated using pymatgen
data_Dy3Ho3Al21Si3Os8
_symmetry_space_group_name_H-M   'P 1'
_cell_length_a   8.72319700
_cell_length_b   8.72294470
_cell_length_c   9.65182300
_cell_angle_alpha   90.00140928
_cell_angle_beta   89.99717500
_cell_angle_gamma   120.00352978
_symmetry_Int_Tables_number   1
_chemical_formula_structural   Dy3Ho3Al21Si3Os8
_chemical_formula_sum   'Dy3 Ho3 Al21 Si3 Os8'
_cell_volume   636.00910324
_cell_formula_units_Z   1
loop_
 _symmetry_equiv_pos_site_id
 _symmetry_equiv_pos_as_xyz
  1  'x, y, z'
loop_
 _atom_site_type_symbol
 _atom_site_label
 _atom_site_symmetry_multiplicity
 _atom_site_fract_x
 _atom_site_fract_y
 _atom_site_fract_z
 _atom_site_occupancy
  Dy  Dy0  1  0.194716  0.389586  0.247656  1
  Dy  Dy1  1  0.804650  0.609249  0.752681  1
  Dy  Dy2  1  0.610394  0.805293  0.247652  1
  Ho  Ho3  1  0.391441  0.195619  0.752703  1
  Ho  Ho4  1  0.195088  0.804948  0.247548  1
  Ho  Ho5  1  0.804203  0.195655  0.752699  1
  Al  Al6  1  0.333233  0.666748  0.475855  1
  Al  Al7  1  0.164289  0.328586  0.574265  1
  Al  Al8  1  0.835086  0.670008  0.423700  1
  Al  Al9  1  0.671375  0.835768  0.574236  1
  Al  Al10  1  0.834938  0.669705  0.076591  1
  Al  Al11  1  0.330007  0.164923  0.423774  1
  Al  Al12  1  0.165502  0.331013  0.922791  1
  Al  Al13  1  0.164396  0.835754  0.574154  1
  Al  Al14  1  0.330309  0.165066  0.076493  1
  Al  Al15  1  0.834972  0.165028  0.423812  1
  Al  Al16  1  0.668943  0.834563  0.922823  1
  Al  Al17  1  0.834821  0.165172  0.076458  1
  Al  Al18  1  0.165625  0.834549  0.922914  1
  Al  Al19  1  0.563421  0.127074  0.248892  1
  Al  Al20  1  0.436880  0.873766  0.748833  1
  Al  Al21  1  0.872907  0.436567  0.248894  1
  Al  Al22  1  0.126464  0.563114  0.748829  1
  Al  Al23  1  0.563658  0.436335  0.248893  1
  Al  Al24  1  0.436640  0.563119  0.748840  1
  Al  Al25  1  0.000096  0.999904  0.248698  1
  Al  Al26  1  0.000092  0.000186  0.749363  1
  Si  Si27  1  0.333178  0.666811  0.039571  1
  Si  Si28  1  0.666510  0.333035  0.961654  1
  Si  Si29  1  0.666538  0.333064  0.539653  1
  Os  Os30  1  0.499880  0.000006  0.998842  1
  Os  Os31  1  0.000040  0.500009  0.998932  1
  Os  Os32  1  0.504204  0.008673  0.501616  1
  Os  Os33  1  0.499858  0.499867  0.998858  1
  Os  Os34  1  0.991364  0.495672  0.501498  1
  Os  Os35  1  0.504182  0.495507  0.501600  1
  Os  Os36  1  0.000052  0.000034  0.998710  1
  Os  Os37  1  0.000047  0.000024  0.499018  1
