# generated using pymatgen
data_Dy4LuPb4
_symmetry_space_group_name_H-M   'P 1'
_cell_length_a   8.17570900
_cell_length_b   8.26529800
_cell_length_c   15.64349400
_cell_angle_alpha   90.00000000
_cell_angle_beta   90.00000000
_cell_angle_gamma   90.00000000
_symmetry_Int_Tables_number   1
_chemical_formula_structural   Dy4LuPb4
_chemical_formula_sum   'Dy16 Lu4 Pb16'
_cell_volume   1057.10396419
_cell_formula_units_Z   4
loop_
 _symmetry_equiv_pos_site_id
 _symmetry_equiv_pos_as_xyz
  1  'x, y, z'
loop_
 _atom_site_type_symbol
 _atom_site_label
 _atom_site_symmetry_multiplicity
 _atom_site_fract_x
 _atom_site_fract_y
 _atom_site_fract_z
 _atom_site_occupancy
  Dy  Dy0  1  0.376621  0.841342  0.879183  1
  Dy  Dy1  1  0.876621  0.658658  0.620817  1
  Dy  Dy2  1  0.623379  0.158658  0.379183  1
  Dy  Dy3  1  0.123379  0.341342  0.120817  1
  Dy  Dy4  1  0.623379  0.158658  0.120817  1
  Dy  Dy5  1  0.123379  0.341342  0.379183  1
  Dy  Dy6  1  0.376621  0.841342  0.620817  1
  Dy  Dy7  1  0.876621  0.658658  0.879183  1
  Dy  Dy8  1  0.535951  0.323427  0.900059  1
  Dy  Dy9  1  0.035951  0.176573  0.599941  1
  Dy  Dy10  1  0.464049  0.676573  0.400059  1
  Dy  Dy11  1  0.964049  0.823427  0.099941  1
  Dy  Dy12  1  0.464049  0.676573  0.099941  1
  Dy  Dy13  1  0.964049  0.823427  0.400059  1
  Dy  Dy14  1  0.535951  0.323427  0.599941  1
  Dy  Dy15  1  0.035951  0.176573  0.900059  1
  Lu  Lu16  1  0.208494  0.504298  0.750000  1
  Lu  Lu17  1  0.708494  0.995702  0.750000  1
  Lu  Lu18  1  0.791506  0.495702  0.250000  1
  Lu  Lu19  1  0.291506  0.004298  0.250000  1
  Pb  Pb20  1  0.281190  0.032687  0.043491  1
  Pb  Pb21  1  0.781190  0.467313  0.456509  1
  Pb  Pb22  1  0.718810  0.967313  0.543491  1
  Pb  Pb23  1  0.218810  0.532687  0.956509  1
  Pb  Pb24  1  0.718810  0.967313  0.956509  1
  Pb  Pb25  1  0.218810  0.532687  0.543491  1
  Pb  Pb26  1  0.281190  0.032687  0.456509  1
  Pb  Pb27  1  0.781190  0.467313  0.043491  1
  Pb  Pb28  1  0.570991  0.626120  0.750000  1
  Pb  Pb29  1  0.070991  0.873880  0.750000  1
  Pb  Pb30  1  0.429009  0.373880  0.250000  1
  Pb  Pb31  1  0.929009  0.126120  0.250000  1
  Pb  Pb32  1  0.347601  0.154788  0.750000  1
  Pb  Pb33  1  0.847601  0.345212  0.750000  1
  Pb  Pb34  1  0.652399  0.845212  0.250000  1
  Pb  Pb35  1  0.152399  0.654788  0.250000  1
