# generated using pymatgen
data_Nd2ZnGa8Ru5
_symmetry_space_group_name_H-M   'P 1'
_cell_length_a   8.19619438
_cell_length_b   8.19619420
_cell_length_c   8.19619450
_cell_angle_alpha   135.42672927
_cell_angle_beta   135.42673846
_cell_angle_gamma   64.86787460
_symmetry_Int_Tables_number   1
_chemical_formula_structural   Nd2ZnGa8Ru5
_chemical_formula_sum   'Nd2 Zn1 Ga8 Ru5'
_cell_volume   267.34588115
_cell_formula_units_Z   1
loop_
 _symmetry_equiv_pos_site_id
 _symmetry_equiv_pos_as_xyz
  1  'x, y, z'
loop_
 _atom_site_type_symbol
 _atom_site_label
 _atom_site_symmetry_multiplicity
 _atom_site_fract_x
 _atom_site_fract_y
 _atom_site_fract_z
 _atom_site_occupancy
  Nd  Nd0  1  0.000000  0.500000  0.500000  1
  Nd  Nd1  1  0.500000  0.000000  0.500000  1
  Zn  Zn2  1  0.000000  0.000000  0.000000  1
  Ga  Ga3  1  0.440350  0.861449  0.000000  1
  Ga  Ga4  1  0.138551  0.138551  0.578901  1
  Ga  Ga5  1  0.861449  0.440350  0.000000  1
  Ga  Ga6  1  0.861449  0.861449  0.421099  1
  Ga  Ga7  1  0.559650  0.138551  0.000000  1
  Ga  Ga8  1  0.138551  0.559650  0.000000  1
  Ga  Ga9  1  0.559650  0.559650  0.421099  1
  Ga  Ga10  1  0.440350  0.440350  0.578901  1
  Ru  Ru11  1  0.184867  0.184867  0.000000  1
  Ru  Ru12  1  0.815133  0.815133  0.000000  1
  Ru  Ru13  1  0.250000  0.750000  0.500000  1
  Ru  Ru14  1  0.750000  0.250000  0.500000  1
  Ru  Ru15  1  0.500000  0.500000  0.000000  1
