# generated using pymatgen
data_Hf8Nb12Si15As
_symmetry_space_group_name_H-M   'P 1'
_cell_length_a   6.67673347
_cell_length_b   6.86308648
_cell_length_c   13.10729700
_cell_angle_alpha   90.00000000
_cell_angle_beta   90.00000000
_cell_angle_gamma   90.12405491
_symmetry_Int_Tables_number   1
_chemical_formula_structural   Hf8Nb12Si15As
_chemical_formula_sum   'Hf8 Nb12 Si15 As1'
_cell_volume   600.61425287
_cell_formula_units_Z   1
loop_
 _symmetry_equiv_pos_site_id
 _symmetry_equiv_pos_as_xyz
  1  'x, y, z'
loop_
 _atom_site_type_symbol
 _atom_site_label
 _atom_site_symmetry_multiplicity
 _atom_site_fract_x
 _atom_site_fract_y
 _atom_site_fract_z
 _atom_site_occupancy
  Hf  Hf0  1  0.495988  0.672780  0.593853  1
  Hf  Hf1  1  0.996357  0.827217  0.905978  1
  Hf  Hf2  1  0.502427  0.328275  0.092435  1
  Hf  Hf3  1  0.007804  0.168907  0.409868  1
  Hf  Hf4  1  0.502427  0.328275  0.407565  1
  Hf  Hf5  1  0.007804  0.168907  0.090132  1
  Hf  Hf6  1  0.495988  0.672780  0.906147  1
  Hf  Hf7  1  0.996357  0.827217  0.594022  1
  Nb  Nb8  1  0.664670  0.170757  0.623484  1
  Nb  Nb9  1  0.164280  0.329594  0.876559  1
  Nb  Nb10  1  0.334134  0.830874  0.122694  1
  Nb  Nb11  1  0.834433  0.670893  0.376917  1
  Nb  Nb12  1  0.334134  0.830874  0.377306  1
  Nb  Nb13  1  0.834433  0.670893  0.123083  1
  Nb  Nb14  1  0.664670  0.170757  0.876516  1
  Nb  Nb15  1  0.164280  0.329594  0.623441  1
  Nb  Nb16  1  0.837103  0.498408  0.750000  1
  Nb  Nb17  1  0.337667  0.001863  0.750000  1
  Nb  Nb18  1  0.164494  0.499992  0.250000  1
  Nb  Nb19  1  0.662141  0.998720  0.250000  1
  Si  Si20  1  0.671294  0.963936  0.460909  1
  Si  Si21  1  0.171183  0.536531  0.038841  1
  Si  Si22  1  0.328724  0.036050  0.960127  1
  Si  Si23  1  0.828381  0.464309  0.539254  1
  Si  Si24  1  0.328724  0.036050  0.539873  1
  Si  Si25  1  0.828381  0.464309  0.960746  1
  Si  Si26  1  0.671294  0.963936  0.039091  1
  Si  Si27  1  0.171183  0.536531  0.461159  1
  Si  Si28  1  0.462398  0.387158  0.750000  1
  Si  Si29  1  0.962680  0.112888  0.750000  1
  Si  Si30  1  0.532582  0.619105  0.250000  1
  Si  Si31  1  0.037432  0.886818  0.250000  1
  Si  Si32  1  0.703530  0.861346  0.750000  1
  Si  Si33  1  0.203747  0.638705  0.750000  1
  Si  Si34  1  0.296101  0.138689  0.250000  1
  As  As35  1  0.800772  0.356058  0.250000  1
