# generated using pymatgen
data_La2Er2Zn4Si3Ge
_symmetry_space_group_name_H-M   'P 1'
_cell_length_a   4.23993900
_cell_length_b   4.23993885
_cell_length_c   16.20364600
_cell_angle_alpha   90.00000000
_cell_angle_beta   90.00000000
_cell_angle_gamma   119.99999337
_symmetry_Int_Tables_number   1
_chemical_formula_structural   La2Er2Zn4Si3Ge
_chemical_formula_sum   'La2 Er2 Zn4 Si3 Ge1'
_cell_volume   252.26825835
_cell_formula_units_Z   1
loop_
 _symmetry_equiv_pos_site_id
 _symmetry_equiv_pos_as_xyz
  1  'x, y, z'
loop_
 _atom_site_type_symbol
 _atom_site_label
 _atom_site_symmetry_multiplicity
 _atom_site_fract_x
 _atom_site_fract_y
 _atom_site_fract_z
 _atom_site_occupancy
  La  La0  1  0.000000  0.000000  0.001567  1
  La  La1  1  0.000000  0.000000  0.498993  1
  Er  Er2  1  0.000000  0.000000  0.250486  1
  Er  Er3  1  0.000000  0.000000  0.748430  1
  Zn  Zn4  1  0.333333  0.666667  0.151165  1
  Zn  Zn5  1  0.666667  0.333333  0.845466  1
  Zn  Zn6  1  0.666667  0.333333  0.650057  1
  Zn  Zn7  1  0.333333  0.666667  0.349365  1
  Si  Si8  1  0.333333  0.666667  0.623944  1
  Si  Si9  1  0.666667  0.333333  0.375524  1
  Si  Si10  1  0.666667  0.333333  0.125268  1
  Ge  Ge11  1  0.333333  0.666667  0.879734  1
