# generated using pymatgen
data_Pm4Ni3PtO12
_symmetry_space_group_name_H-M   'P 1'
_cell_length_a   5.41421000
_cell_length_b   5.72201768
_cell_length_c   7.79741000
_cell_angle_alpha   90.23818497
_cell_angle_beta   90.00061378
_cell_angle_gamma   90.62847933
_symmetry_Int_Tables_number   1
_chemical_formula_structural   Pm4Ni3PtO12
_chemical_formula_sum   'Pm4 Ni3 Pt1 O12'
_cell_volume   241.54874303
_cell_formula_units_Z   1
loop_
 _symmetry_equiv_pos_site_id
 _symmetry_equiv_pos_as_xyz
  1  'x, y, z'
loop_
 _atom_site_type_symbol
 _atom_site_label
 _atom_site_symmetry_multiplicity
 _atom_site_fract_x
 _atom_site_fract_y
 _atom_site_fract_z
 _atom_site_occupancy
  Pm  Pm0  1  0.978305  0.072270  0.260975  1
  Pm  Pm1  1  0.516248  0.564682  0.262426  1
  Pm  Pm2  1  0.483752  0.435319  0.737573  1
  Pm  Pm3  1  0.021696  0.927730  0.739024  1
  Ni  Ni4  1  0.000000  0.500000  0.000000  1
  Ni  Ni5  1  0.499999  0.000000  0.500000  1
  Ni  Ni6  1  0.000000  0.500000  0.500000  1
  Pt  Pt7  1  0.499999  0.000000  0.000000  1
  O  O8  1  0.690919  0.294348  0.062710  1
  O  O9  1  0.799577  0.802836  0.059257  1
  O  O10  1  0.095480  0.473033  0.250103  1
  O  O11  1  0.392081  0.964816  0.245423  1
  O  O12  1  0.697116  0.299792  0.454711  1
  O  O13  1  0.797014  0.803690  0.454958  1
  O  O14  1  0.202984  0.196310  0.545042  1
  O  O15  1  0.302885  0.700209  0.545289  1
  O  O16  1  0.607920  0.035185  0.754576  1
  O  O17  1  0.904520  0.526969  0.749896  1
  O  O18  1  0.200421  0.197164  0.940743  1
  O  O19  1  0.309082  0.705653  0.937290  1
