# generated using pymatgen
data_Na4BiRhO6
_symmetry_space_group_name_H-M   'P 1'
_cell_length_a   5.70380363
_cell_length_b   5.70391428
_cell_length_c   5.69181000
_cell_angle_alpha   99.65373770
_cell_angle_beta   99.65195001
_cell_angle_gamma   120.08114546
_symmetry_Int_Tables_number   1
_chemical_formula_structural   Na4BiRhO6
_chemical_formula_sum   'Na4 Bi1 Rh1 O6'
_cell_volume   150.93442319
_cell_formula_units_Z   1
loop_
 _symmetry_equiv_pos_site_id
 _symmetry_equiv_pos_as_xyz
  1  'x, y, z'
loop_
 _atom_site_type_symbol
 _atom_site_label
 _atom_site_symmetry_multiplicity
 _atom_site_fract_x
 _atom_site_fract_y
 _atom_site_fract_z
 _atom_site_occupancy
  Na  Na0  1  0.500990  0.499023  0.999998  1
  Na  Na1  1  0.988948  0.011044  0.499998  1
  Na  Na2  1  0.342406  0.657613  0.499993  1
  Na  Na3  1  0.663783  0.336226  0.500004  1
  Bi  Bi4  1  0.167142  0.832852  0.000000  1
  Rh  Rh5  1  0.833125  0.166932  0.000004  1
  O  O6  1  0.592266  0.942965  0.211371  1
  O  O7  1  0.923536  0.549272  0.216023  1
  O  O8  1  0.200341  0.220237  0.216331  1
  O  O9  1  0.779723  0.799629  0.783668  1
  O  O10  1  0.450728  0.076472  0.783972  1
  O  O11  1  0.057019  0.407738  0.788643  1
