# generated using pymatgen
data_La4H12PtRh
_symmetry_space_group_name_H-M   'P 1'
_cell_length_a   7.27091592
_cell_length_b   7.27091537
_cell_length_c   5.51954237
_cell_angle_alpha   89.90217877
_cell_angle_beta   89.90217369
_cell_angle_gamma   135.90521861
_symmetry_Int_Tables_number   1
_chemical_formula_structural   La4H12PtRh
_chemical_formula_sum   'La4 H12 Pt1 Rh1'
_cell_volume   203.04429489
_cell_formula_units_Z   1
loop_
 _symmetry_equiv_pos_site_id
 _symmetry_equiv_pos_as_xyz
  1  'x, y, z'
loop_
 _atom_site_type_symbol
 _atom_site_label
 _atom_site_symmetry_multiplicity
 _atom_site_fract_x
 _atom_site_fract_y
 _atom_site_fract_z
 _atom_site_occupancy
  La  La0  1  0.640115  0.359885  0.000000  1
  La  La1  1  0.359885  0.640115  0.000000  1
  La  La2  1  0.860144  0.139856  0.500000  1
  La  La3  1  0.139856  0.860144  0.500000  1
  H  H4  1  0.871620  0.128380  0.000000  1
  H  H5  1  0.128380  0.871620  0.000000  1
  H  H6  1  0.627378  0.372622  0.500000  1
  H  H7  1  0.372622  0.627378  0.500000  1
  H  H8  1  0.999698  0.500306  0.251069  1
  H  H9  1  0.000302  0.499694  0.748931  1
  H  H10  1  0.499694  0.000302  0.748931  1
  H  H11  1  0.500306  0.999698  0.251069  1
  H  H12  1  0.234240  0.234240  0.235759  1
  H  H13  1  0.765760  0.765760  0.764241  1
  H  H14  1  0.238361  0.238361  0.762651  1
  H  H15  1  0.761639  0.761639  0.237349  1
  Pt  Pt16  1  0.500000  0.500000  0.500000  1
  Rh  Rh17  1  0.000000  0.000000  0.000000  1
