# generated using pymatgen
data_Ta3Mn2Fe2P4W
_symmetry_space_group_name_H-M   'P 1'
_cell_length_a   3.61054300
_cell_length_b   6.09458395
_cell_length_c   6.93490006
_cell_angle_alpha   90.20257605
_cell_angle_beta   90.00000000
_cell_angle_gamma   90.00000000
_symmetry_Int_Tables_number   1
_chemical_formula_structural   Ta3Mn2Fe2P4W
_chemical_formula_sum   'Ta3 Mn2 Fe2 P4 W1'
_cell_volume   152.59983983
_cell_formula_units_Z   1
loop_
 _symmetry_equiv_pos_site_id
 _symmetry_equiv_pos_as_xyz
  1  'x, y, z'
loop_
 _atom_site_type_symbol
 _atom_site_label
 _atom_site_symmetry_multiplicity
 _atom_site_fract_x
 _atom_site_fract_y
 _atom_site_fract_z
 _atom_site_occupancy
  Ta  Ta0  1  0.250000  0.522651  0.323723  1
  Ta  Ta1  1  0.250000  0.021340  0.174778  1
  Ta  Ta2  1  0.750000  0.477963  0.677190  1
  Mn  Mn3  1  0.750000  0.353676  0.059085  1
  Mn  Mn4  1  0.750000  0.856347  0.441721  1
  Fe  Fe5  1  0.250000  0.646097  0.934964  1
  Fe  Fe6  1  0.250000  0.146717  0.564482  1
  P  P7  1  0.250000  0.781093  0.623558  1
  P  P8  1  0.750000  0.221217  0.378711  1
  P  P9  1  0.250000  0.275510  0.877394  1
  P  P10  1  0.750000  0.720430  0.117811  1
  W  W11  1  0.750000  0.976956  0.826582  1
