# generated using pymatgen
data_Gd2Ho4TaO12
_symmetry_space_group_name_H-M   'P 1'
_cell_length_a   6.48552006
_cell_length_b   6.50376990
_cell_length_c   6.47384264
_cell_angle_alpha   98.86379439
_cell_angle_beta   98.54929014
_cell_angle_gamma   98.77580981
_symmetry_Int_Tables_number   1
_chemical_formula_structural   Gd2Ho4TaO12
_chemical_formula_sum   'Gd2 Ho4 Ta1 O12'
_cell_volume   262.47167728
_cell_formula_units_Z   1
loop_
 _symmetry_equiv_pos_site_id
 _symmetry_equiv_pos_as_xyz
  1  'x, y, z'
loop_
 _atom_site_type_symbol
 _atom_site_label
 _atom_site_symmetry_multiplicity
 _atom_site_fract_x
 _atom_site_fract_y
 _atom_site_fract_z
 _atom_site_occupancy
  Gd  Gd0  1  0.391694  0.696056  0.858112  1
  Gd  Gd1  1  0.137283  0.607949  0.303821  1
  Ho  Ho2  1  0.859577  0.386951  0.696008  1
  Ho  Ho3  1  0.612182  0.299123  0.138700  1
  Ho  Ho4  1  0.304970  0.141922  0.610782  1
  Ho  Ho5  1  0.700316  0.865357  0.390773  1
  Ta  Ta6  1  0.001163  0.999308  0.999337  1
  O  O7  1  0.926462  0.040783  0.696267  1
  O  O8  1  0.955396  0.301621  0.069964  1
  O  O9  1  0.587746  0.178063  0.436003  1
  O  O10  1  0.819313  0.564160  0.411759  1
  O  O11  1  0.302954  0.075277  0.958837  1
  O  O12  1  0.564879  0.409783  0.824167  1
  O  O13  1  0.438374  0.587864  0.178773  1
  O  O14  1  0.698065  0.929928  0.045625  1
  O  O15  1  0.175115  0.432452  0.587985  1
  O  O16  1  0.414422  0.824471  0.563749  1
  O  O17  1  0.037334  0.697179  0.925448  1
  O  O18  1  0.072754  0.961754  0.303890  1
