# generated using pymatgen
data_Cs2FeSiO4
_symmetry_space_group_name_H-M   'P 1'
_cell_length_a   7.07653582
_cell_length_b   11.01246676
_cell_length_c   8.29458302
_cell_angle_alpha   90.00696042
_cell_angle_beta   89.99812492
_cell_angle_gamma   79.28818156
_symmetry_Int_Tables_number   1
_chemical_formula_structural   Cs2FeSiO4
_chemical_formula_sum   'Cs8 Fe4 Si4 O16'
_cell_volume   635.13398773
_cell_formula_units_Z   4
loop_
 _symmetry_equiv_pos_site_id
 _symmetry_equiv_pos_as_xyz
  1  'x, y, z'
loop_
 _atom_site_type_symbol
 _atom_site_label
 _atom_site_symmetry_multiplicity
 _atom_site_fract_x
 _atom_site_fract_y
 _atom_site_fract_z
 _atom_site_occupancy
  Cs  Cs0  1  0.882659  0.960877  0.272599  1
  Cs  Cs1  1  0.382646  0.460883  0.272588  1
  Cs  Cs2  1  0.117356  0.039107  0.772596  1
  Cs  Cs3  1  0.617341  0.539117  0.772586  1
  Cs  Cs4  1  0.611467  0.203788  0.917480  1
  Cs  Cs5  1  0.111472  0.703772  0.917493  1
  Cs  Cs6  1  0.388548  0.796211  0.417494  1
  Cs  Cs7  1  0.888525  0.296207  0.417468  1
  Fe  Fe8  1  0.805740  0.601968  0.188256  1
  Fe  Fe9  1  0.694385  0.898084  0.688264  1
  Fe  Fe10  1  0.305763  0.101998  0.188209  1
  Fe  Fe11  1  0.194115  0.397984  0.688134  1
  Si  Si12  1  0.452317  0.150739  0.478203  1
  Si  Si13  1  0.952329  0.650758  0.478238  1
  Si  Si14  1  0.547666  0.849245  0.978210  1
  Si  Si15  1  0.047671  0.349257  0.978205  1
  O  O16  1  0.532033  0.177321  0.295372  1
  O  O17  1  0.032004  0.677324  0.295386  1
  O  O18  1  0.468000  0.822704  0.795366  1
  O  O19  1  0.967978  0.322664  0.795342  1
  O  O20  1  0.261557  0.087240  0.439817  1
  O  O21  1  0.761574  0.587253  0.439856  1
  O  O22  1  0.738444  0.912740  0.939872  1
  O  O23  1  0.238412  0.412758  0.939787  1
  O  O24  1  0.620543  0.057608  0.580854  1
  O  O25  1  0.120535  0.557642  0.580878  1
  O  O26  1  0.379431  0.942359  0.080896  1
  O  O27  1  0.879381  0.442367  0.080858  1
  O  O28  1  0.396930  0.281410  0.580930  1
  O  O29  1  0.897003  0.781413  0.580951  1
  O  O30  1  0.603077  0.718592  0.080902  1
  O  O31  1  0.103102  0.218613  0.080903  1
