# generated using pymatgen
data_TbY5(Bi4Au3)2
_symmetry_space_group_name_H-M   'P 1'
_cell_length_a   8.82952278
_cell_length_b   8.82952258
_cell_length_c   8.82952300
_cell_angle_alpha   109.47121930
_cell_angle_beta   109.47121885
_cell_angle_gamma   109.47122287
_symmetry_Int_Tables_number   1
_chemical_formula_structural   TbY5(Bi4Au3)2
_chemical_formula_sum   'Tb1 Y5 Bi8 Au6'
_cell_volume   529.89498483
_cell_formula_units_Z   1
loop_
 _symmetry_equiv_pos_site_id
 _symmetry_equiv_pos_as_xyz
  1  'x, y, z'
loop_
 _atom_site_type_symbol
 _atom_site_label
 _atom_site_symmetry_multiplicity
 _atom_site_fract_x
 _atom_site_fract_y
 _atom_site_fract_z
 _atom_site_occupancy
  Tb  Tb0  1  0.375000  0.625000  0.750000  1
  Y  Y1  1  0.875000  0.250000  0.125000  1
  Y  Y2  1  0.625000  0.750000  0.375000  1
  Y  Y3  1  0.250000  0.125000  0.875000  1
  Y  Y4  1  0.750000  0.375000  0.625000  1
  Y  Y5  1  0.125000  0.875000  0.250000  1
  Bi  Bi6  1  0.681685  0.500000  0.000000  1
  Bi  Bi7  1  0.500000  0.000000  0.681685  1
  Bi  Bi8  1  0.000000  0.681685  0.500000  1
  Bi  Bi9  1  0.818315  0.818315  0.818315  1
  Bi  Bi10  1  0.500000  0.000000  0.181685  1
  Bi  Bi11  1  0.181685  0.500000  0.000000  1
  Bi  Bi12  1  0.000000  0.181685  0.500000  1
  Bi  Bi13  1  0.318315  0.318315  0.318315  1
  Au  Au14  1  0.375000  0.250000  0.625000  1
  Au  Au15  1  0.125000  0.750000  0.875000  1
  Au  Au16  1  0.250000  0.625000  0.375000  1
  Au  Au17  1  0.750000  0.875000  0.125000  1
  Au  Au18  1  0.625000  0.375000  0.250000  1
  Au  Au19  1  0.875000  0.125000  0.750000  1
