# generated using pymatgen
data_U4Si2TcNi5
_symmetry_space_group_name_H-M   'P 1'
_cell_length_a   5.10976100
_cell_length_b   5.27026604
_cell_length_c   7.64970300
_cell_angle_alpha   90.00000000
_cell_angle_beta   90.00000000
_cell_angle_gamma   118.99756776
_symmetry_Int_Tables_number   1
_chemical_formula_structural   U4Si2TcNi5
_chemical_formula_sum   'U4 Si2 Tc1 Ni5'
_cell_volume   180.18024677
_cell_formula_units_Z   1
loop_
 _symmetry_equiv_pos_site_id
 _symmetry_equiv_pos_as_xyz
  1  'x, y, z'
loop_
 _atom_site_type_symbol
 _atom_site_label
 _atom_site_symmetry_multiplicity
 _atom_site_fract_x
 _atom_site_fract_y
 _atom_site_fract_z
 _atom_site_occupancy
  U  U0  1  0.670213  0.340426  0.422144  1
  U  U1  1  0.329756  0.659513  0.575941  1
  U  U2  1  0.329756  0.659513  0.924059  1
  U  U3  1  0.670213  0.340426  0.077856  1
  Si  Si4  1  0.996654  0.993310  0.996272  1
  Si  Si5  1  0.996654  0.993310  0.503728  1
  Tc  Tc6  1  0.170980  0.341961  0.250000  1
  Ni  Ni7  1  0.827133  0.164488  0.750000  1
  Ni  Ni8  1  0.172332  0.840677  0.250000  1
  Ni  Ni9  1  0.337355  0.164488  0.750000  1
  Ni  Ni10  1  0.668343  0.840677  0.250000  1
  Ni  Ni11  1  0.830607  0.661213  0.750000  1
