# generated using pymatgen
data_NdMnInO5
_symmetry_space_group_name_H-M   'P 1'
_cell_length_a   5.86777600
_cell_length_b   7.89382300
_cell_length_c   8.88885400
_cell_angle_alpha   90.00000000
_cell_angle_beta   90.00000000
_cell_angle_gamma   90.00000000
_symmetry_Int_Tables_number   1
_chemical_formula_structural   NdMnInO5
_chemical_formula_sum   'Nd4 Mn4 In4 O20'
_cell_volume   411.72447418
_cell_formula_units_Z   4
loop_
 _symmetry_equiv_pos_site_id
 _symmetry_equiv_pos_as_xyz
  1  'x, y, z'
loop_
 _atom_site_type_symbol
 _atom_site_label
 _atom_site_symmetry_multiplicity
 _atom_site_fract_x
 _atom_site_fract_y
 _atom_site_fract_z
 _atom_site_occupancy
  Nd  Nd0  1  0.000000  0.361692  0.668862  1
  Nd  Nd1  1  0.000000  0.638308  0.331138  1
  Nd  Nd2  1  0.000000  0.861692  0.831138  1
  Nd  Nd3  1  0.000000  0.138308  0.168862  1
  Mn  Mn4  1  0.247890  0.500000  0.000000  1
  Mn  Mn5  1  0.752110  0.000000  0.500000  1
  Mn  Mn6  1  0.752110  0.500000  0.000000  1
  Mn  Mn7  1  0.247890  0.000000  0.500000  1
  In  In8  1  0.500000  0.114750  0.849192  1
  In  In9  1  0.500000  0.885250  0.150808  1
  In  In10  1  0.500000  0.614750  0.650808  1
  In  In11  1  0.500000  0.385250  0.349192  1
  O  O12  1  0.230819  0.893545  0.305585  1
  O  O13  1  0.230819  0.106455  0.694415  1
  O  O14  1  0.769181  0.393545  0.194415  1
  O  O15  1  0.769181  0.606455  0.805585  1
  O  O16  1  0.769181  0.106455  0.694415  1
  O  O17  1  0.769181  0.893545  0.305585  1
  O  O18  1  0.230819  0.606455  0.805585  1
  O  O19  1  0.230819  0.393545  0.194415  1
  O  O20  1  0.500000  0.364394  0.928642  1
  O  O21  1  0.500000  0.635606  0.071358  1
  O  O22  1  0.500000  0.864394  0.571358  1
  O  O23  1  0.500000  0.135606  0.428642  1
  O  O24  1  0.257042  0.000000  0.000000  1
  O  O25  1  0.742958  0.500000  0.500000  1
  O  O26  1  0.742958  0.000000  0.000000  1
  O  O27  1  0.257042  0.500000  0.500000  1
  O  O28  1  0.000000  0.150844  0.441428  1
  O  O29  1  0.000000  0.849156  0.558572  1
  O  O30  1  0.000000  0.650844  0.058572  1
  O  O31  1  0.000000  0.349156  0.941428  1
