# generated using pymatgen
data_Pr4Y2(Ir5Rh)3
_symmetry_space_group_name_H-M   'P 1'
_cell_length_a   5.37133500
_cell_length_b   5.37130615
_cell_length_c   17.59030800
_cell_angle_alpha   90.00004338
_cell_angle_beta   89.99989129
_cell_angle_gamma   120.00003362
_symmetry_Int_Tables_number   1
_chemical_formula_structural   Pr4Y2(Ir5Rh)3
_chemical_formula_sum   'Pr4 Y2 Ir15 Rh3'
_cell_volume   439.50728122
_cell_formula_units_Z   1
loop_
 _symmetry_equiv_pos_site_id
 _symmetry_equiv_pos_as_xyz
  1  'x, y, z'
loop_
 _atom_site_type_symbol
 _atom_site_label
 _atom_site_symmetry_multiplicity
 _atom_site_fract_x
 _atom_site_fract_y
 _atom_site_fract_z
 _atom_site_occupancy
  Pr  Pr0  1  0.333336  0.666674  0.959094  1
  Pr  Pr1  1  0.666670  0.333331  0.041692  1
  Pr  Pr2  1  0.333337  0.666667  0.747592  1
  Pr  Pr3  1  0.666670  0.333335  0.252316  1
  Y  Y4  1  0.666667  0.333331  0.459763  1
  Y  Y5  1  0.333333  0.666669  0.539681  1
  Ir  Ir6  1  0.167181  0.832811  0.375470  1
  Ir  Ir7  1  0.167189  0.334376  0.375473  1
  Ir  Ir8  1  0.665620  0.832804  0.375473  1
  Ir  Ir9  1  0.832153  0.167853  0.623760  1
  Ir  Ir10  1  0.832152  0.664305  0.623759  1
  Ir  Ir11  1  0.335704  0.167855  0.623759  1
  Ir  Ir12  1  0.833400  0.166595  0.871090  1
  Ir  Ir13  1  0.833403  0.666802  0.871087  1
  Ir  Ir14  1  0.333183  0.166602  0.871086  1
  Ir  Ir15  1  0.165899  0.834097  0.129694  1
  Ir  Ir16  1  0.165900  0.331804  0.129695  1
  Ir  Ir17  1  0.668197  0.834091  0.129697  1
  Ir  Ir18  1  0.333323  0.666661  0.251527  1
  Ir  Ir19  1  0.000003  0.000003  0.500210  1
  Ir  Ir20  1  0.000002  0.000000  0.999711  1
  Rh  Rh21  1  0.666670  0.333335  0.748307  1
  Rh  Rh22  1  0.000014  0.000004  0.252694  1
  Rh  Rh23  1  0.999995  0.999998  0.747369  1
