# generated using pymatgen
data_KSb3(SO7)2
_symmetry_space_group_name_H-M   'P 1'
_cell_length_a   7.97293008
_cell_length_b   7.97293054
_cell_length_c   7.97292982
_cell_angle_alpha   53.29297915
_cell_angle_beta   53.29297681
_cell_angle_gamma   53.29297646
_symmetry_Int_Tables_number   1
_chemical_formula_structural   KSb3(SO7)2
_chemical_formula_sum   'K1 Sb3 S2 O14'
_cell_volume   302.09260601
_cell_formula_units_Z   1
loop_
 _symmetry_equiv_pos_site_id
 _symmetry_equiv_pos_as_xyz
  1  'x, y, z'
loop_
 _atom_site_type_symbol
 _atom_site_label
 _atom_site_symmetry_multiplicity
 _atom_site_fract_x
 _atom_site_fract_y
 _atom_site_fract_z
 _atom_site_occupancy
  K  K0  1  0.000471  0.000471  0.000471  1
  Sb  Sb1  1  0.999983  0.500044  0.999983  1
  Sb  Sb2  1  0.999983  0.999983  0.500044  1
  Sb  Sb3  1  0.500044  0.999983  0.999983  1
  S  S4  1  0.706814  0.706814  0.706814  1
  S  S5  1  0.293124  0.293124  0.293124  1
  O  O6  1  0.637293  0.637293  0.637293  1
  O  O7  1  0.362665  0.362665  0.362665  1
  O  O8  1  0.848432  0.504564  0.848432  1
  O  O9  1  0.848432  0.848432  0.504564  1
  O  O10  1  0.504564  0.848432  0.848432  1
  O  O11  1  0.151514  0.495399  0.151514  1
  O  O12  1  0.151514  0.151514  0.495399  1
  O  O13  1  0.495399  0.151514  0.151514  1
  O  O14  1  0.728974  0.123510  0.728974  1
  O  O15  1  0.728974  0.728974  0.123510  1
  O  O16  1  0.123510  0.728974  0.728974  1
  O  O17  1  0.270878  0.876649  0.270878  1
  O  O18  1  0.270878  0.270878  0.876649  1
  O  O19  1  0.876649  0.270878  0.270878  1
