# generated using pymatgen
data_TbNd4YOsI10
_symmetry_space_group_name_H-M   'P 1'
_cell_length_a   7.90359673
_cell_length_b   9.98109645
_cell_length_c   9.95883004
_cell_angle_alpha   107.27901793
_cell_angle_beta   96.23864191
_cell_angle_gamma   104.60142332
_symmetry_Int_Tables_number   1
_chemical_formula_structural   TbNd4YOsI10
_chemical_formula_sum   'Tb1 Nd4 Y1 Os1 I10'
_cell_volume   711.46874889
_cell_formula_units_Z   1
loop_
 _symmetry_equiv_pos_site_id
 _symmetry_equiv_pos_as_xyz
  1  'x, y, z'
loop_
 _atom_site_type_symbol
 _atom_site_label
 _atom_site_symmetry_multiplicity
 _atom_site_fract_x
 _atom_site_fract_y
 _atom_site_fract_z
 _atom_site_occupancy
  Tb  Tb0  1  0.350398  0.125159  0.166727  1
  Nd  Nd1  1  0.116423  0.041774  0.759352  1
  Nd  Nd2  1  0.883425  0.958326  0.240625  1
  Nd  Nd3  1  0.967357  0.281921  0.084192  1
  Nd  Nd4  1  0.032446  0.717998  0.915862  1
  Y  Y5  1  0.649239  0.874557  0.833103  1
  Os  Os6  1  0.999980  0.000071  0.000044  1
  I  I7  1  0.353623  0.444023  0.270786  1
  I  I8  1  0.646364  0.556412  0.729333  1
  I  I9  1  0.262616  0.087669  0.453796  1
  I  I10  1  0.737294  0.912282  0.546409  1
  I  I11  1  0.087457  0.369228  0.817067  1
  I  I12  1  0.912511  0.630764  0.182914  1
  I  I13  1  0.455195  0.821110  0.088999  1
  I  I14  1  0.545011  0.178635  0.910702  1
  I  I15  1  0.770982  0.255514  0.346173  1
  I  I16  1  0.229679  0.744555  0.653916  1
