# generated using pymatgen
data_Dy2Ge2Os2C
_symmetry_space_group_name_H-M   'P 1'
_cell_length_a   5.87099660
_cell_length_b   5.87099648
_cell_length_c   6.81128000
_cell_angle_alpha   125.11776542
_cell_angle_beta   125.11775264
_cell_angle_gamma   41.24521229
_symmetry_Int_Tables_number   1
_chemical_formula_structural   Dy2Ge2Os2C
_chemical_formula_sum   'Dy2 Ge2 Os2 C1'
_cell_volume   122.09372315
_cell_formula_units_Z   1
loop_
 _symmetry_equiv_pos_site_id
 _symmetry_equiv_pos_as_xyz
  1  'x, y, z'
loop_
 _atom_site_type_symbol
 _atom_site_label
 _atom_site_symmetry_multiplicity
 _atom_site_fract_x
 _atom_site_fract_y
 _atom_site_fract_z
 _atom_site_occupancy
  Dy  Dy0  1  0.561454  0.561454  0.292750  1
  Dy  Dy1  1  0.438546  0.438546  0.707249  1
  Ge  Ge2  1  0.846759  0.846759  0.311724  1
  Ge  Ge3  1  0.153240  0.153240  0.688275  1
  Os  Os4  1  0.203045  0.203045  0.101715  1
  Os  Os5  1  0.796955  0.796955  0.898285  1
  C  C6  1  0.000000  0.000000  0.000000  1
