# generated using pymatgen
data_Er2TmCu12
_symmetry_space_group_name_H-M   'P 1'
_cell_length_a   4.97408125
_cell_length_b   4.97408059
_cell_length_c   10.54657823
_cell_angle_alpha   94.86671896
_cell_angle_beta   94.86671627
_cell_angle_gamma   119.63826084
_symmetry_Int_Tables_number   1
_chemical_formula_structural   Er2TmCu12
_chemical_formula_sum   'Er2 Tm1 Cu12'
_cell_volume   223.54540816
_cell_formula_units_Z   1
loop_
 _symmetry_equiv_pos_site_id
 _symmetry_equiv_pos_as_xyz
  1  'x, y, z'
loop_
 _atom_site_type_symbol
 _atom_site_label
 _atom_site_symmetry_multiplicity
 _atom_site_fract_x
 _atom_site_fract_y
 _atom_site_fract_z
 _atom_site_occupancy
  Er  Er0  1  0.999824  0.999824  0.999626  1
  Er  Er1  1  0.131482  0.131482  0.357408  1
  Tm  Tm2  1  0.868147  0.868147  0.642744  1
  Cu  Cu3  1  0.664574  0.335371  0.999983  1
  Cu  Cu4  1  0.335371  0.664574  0.999983  1
  Cu  Cu5  1  0.569679  0.068115  0.197502  1
  Cu  Cu6  1  0.068115  0.569679  0.197502  1
  Cu  Cu7  1  0.569484  0.569484  0.201851  1
  Cu  Cu8  1  0.806820  0.474580  0.407342  1
  Cu  Cu9  1  0.474580  0.806820  0.407342  1
  Cu  Cu10  1  0.526030  0.193255  0.593046  1
  Cu  Cu11  1  0.193255  0.526030  0.593046  1
  Cu  Cu12  1  0.430500  0.430500  0.797989  1
  Cu  Cu13  1  0.931859  0.430280  0.802320  1
  Cu  Cu14  1  0.430280  0.931859  0.802320  1
