# generated using pymatgen
data_Pa5Nb3Co16Ge11P
_symmetry_space_group_name_H-M   'P 1'
_cell_length_a   12.62259148
_cell_length_b   12.64964949
_cell_length_c   3.85278400
_cell_angle_alpha   90.00000000
_cell_angle_beta   90.00000000
_cell_angle_gamma   120.11974320
_symmetry_Int_Tables_number   1
_chemical_formula_structural   Pa5Nb3Co16Ge11P
_chemical_formula_sum   'Pa5 Nb3 Co16 Ge11 P1'
_cell_volume   532.11686224
_cell_formula_units_Z   1
loop_
 _symmetry_equiv_pos_site_id
 _symmetry_equiv_pos_as_xyz
  1  'x, y, z'
loop_
 _atom_site_type_symbol
 _atom_site_label
 _atom_site_symmetry_multiplicity
 _atom_site_fract_x
 _atom_site_fract_y
 _atom_site_fract_z
 _atom_site_occupancy
  Pa  Pa0  1  0.814052  0.996785  0.500000  1
  Pa  Pa1  1  0.001055  0.814150  0.500000  1
  Pa  Pa2  1  0.185515  0.185392  0.500000  1
  Pa  Pa3  1  0.332636  0.666161  0.000000  1
  Pa  Pa4  1  0.674309  0.333085  0.000000  1
  Nb  Nb5  1  0.430344  0.001389  0.000000  1
  Nb  Nb6  1  0.996362  0.428017  0.000000  1
  Nb  Nb7  1  0.571014  0.571012  0.000000  1
  Co  Co8  1  0.280242  0.000375  0.500000  1
  Co  Co9  1  0.992017  0.278876  0.500000  1
  Co  Co10  1  0.720945  0.719530  0.500000  1
  Co  Co11  1  0.627875  0.808654  0.000000  1
  Co  Co12  1  0.192886  0.819741  0.000000  1
  Co  Co13  1  0.178181  0.372598  0.000000  1
  Co  Co14  1  0.373178  0.180627  0.000000  1
  Co  Co15  1  0.807112  0.624311  0.000000  1
  Co  Co16  1  0.819660  0.200800  0.000000  1
  Co  Co17  1  0.519634  0.877914  0.500000  1
  Co  Co18  1  0.123160  0.640955  0.500000  1
  Co  Co19  1  0.357143  0.483369  0.500000  1
  Co  Co20  1  0.481172  0.358255  0.500000  1
  Co  Co21  1  0.870094  0.503706  0.500000  1
  Co  Co22  1  0.650038  0.134292  0.500000  1
  Co  Co23  1  0.999267  0.000933  0.000000  1
  Ge  Ge24  1  0.180135  0.000204  0.000000  1
  Ge  Ge25  1  0.998257  0.180617  0.000000  1
  Ge  Ge26  1  0.820324  0.818263  0.000000  1
  Ge  Ge27  1  0.521271  0.691412  0.500000  1
  Ge  Ge28  1  0.310098  0.830621  0.500000  1
  Ge  Ge29  1  0.167982  0.478268  0.500000  1
  Ge  Ge30  1  0.480832  0.172117  0.500000  1
  Ge  Ge31  1  0.689383  0.518592  0.500000  1
  Ge  Ge32  1  0.637629  0.002602  0.000000  1
  Ge  Ge33  1  0.999864  0.635098  0.000000  1
  Ge  Ge34  1  0.364147  0.364440  0.000000  1
  P  P35  1  0.832187  0.306835  0.500000  1
