# generated using pymatgen
data_LaGdTa5WO18
_symmetry_space_group_name_H-M   'P 1'
_cell_length_a   7.59929866
_cell_length_b   5.43643447
_cell_length_c   8.33236762
_cell_angle_alpha   87.64519613
_cell_angle_beta   90.08510768
_cell_angle_gamma   89.79521956
_symmetry_Int_Tables_number   1
_chemical_formula_structural   LaGdTa5WO18
_chemical_formula_sum   'La1 Gd1 Ta5 W1 O18'
_cell_volume   343.94250129
_cell_formula_units_Z   1
loop_
 _symmetry_equiv_pos_site_id
 _symmetry_equiv_pos_as_xyz
  1  'x, y, z'
loop_
 _atom_site_type_symbol
 _atom_site_label
 _atom_site_symmetry_multiplicity
 _atom_site_fract_x
 _atom_site_fract_y
 _atom_site_fract_z
 _atom_site_occupancy
  La  La0  1  0.247890  0.969160  0.437031  1
  Gd  Gd1  1  0.752383  0.038269  0.565496  1
  Ta  Ta2  1  0.499638  0.001987  0.999072  1
  Ta  Ta3  1  0.005099  0.528969  0.698578  1
  Ta  Ta4  1  0.496378  0.526524  0.698096  1
  Ta  Ta5  1  0.990514  0.472586  0.302247  1
  Ta  Ta6  1  0.507998  0.475589  0.302968  1
  W  W7  1  0.999760  0.001565  0.998733  1
  O  O8  1  0.246644  0.917874  0.980908  1
  O  O9  1  0.937890  0.849690  0.781169  1
  O  O10  1  0.557795  0.846102  0.786746  1
  O  O11  1  0.955540  0.735406  0.469705  1
  O  O12  1  0.544118  0.735113  0.468837  1
  O  O13  1  0.250626  0.641039  0.661603  1
  O  O14  1  0.951642  0.682368  0.125620  1
  O  O15  1  0.546169  0.685411  0.123390  1
  O  O16  1  0.250485  0.554247  0.317024  1
  O  O17  1  0.749856  0.426833  0.690483  1
  O  O18  1  0.049513  0.321066  0.875472  1
  O  O19  1  0.452793  0.317736  0.877638  1
  O  O20  1  0.749378  0.344404  0.339357  1
  O  O21  1  0.032446  0.265530  0.531490  1
  O  O22  1  0.467712  0.265513  0.532350  1
  O  O23  1  0.057940  0.156596  0.212785  1
  O  O24  1  0.446512  0.159877  0.207153  1
  O  O25  1  0.753282  0.080543  0.016050  1
