# generated using pymatgen
data_Lu4ZnSb5Rh7
_symmetry_space_group_name_H-M   'P 1'
_cell_length_a   7.49420452
_cell_length_b   7.49408685
_cell_length_c   7.49420492
_cell_angle_alpha   109.77819394
_cell_angle_beta   108.85549090
_cell_angle_gamma   109.77820413
_symmetry_Int_Tables_number   1
_chemical_formula_structural   Lu4ZnSb5Rh7
_chemical_formula_sum   'Lu4 Zn1 Sb5 Rh7'
_cell_volume   323.98831747
_cell_formula_units_Z   1
loop_
 _symmetry_equiv_pos_site_id
 _symmetry_equiv_pos_as_xyz
  1  'x, y, z'
loop_
 _atom_site_type_symbol
 _atom_site_label
 _atom_site_symmetry_multiplicity
 _atom_site_fract_x
 _atom_site_fract_y
 _atom_site_fract_z
 _atom_site_occupancy
  Lu  Lu0  1  0.490758  0.475832  0.490758  1
  Lu  Lu1  1  0.015267  0.525159  0.015267  1
  Lu  Lu2  1  0.490481  0.000076  0.015152  1
  Lu  Lu3  1  0.015152  0.000076  0.490481  1
  Zn  Zn4  1  0.318390  0.000477  0.318390  1
  Sb  Sb5  1  0.680876  0.000161  0.680876  1
  Sb  Sb6  1  0.685275  0.686406  0.999007  1
  Sb  Sb7  1  0.312212  0.313331  0.998994  1
  Sb  Sb8  1  0.999007  0.686406  0.685275  1
  Sb  Sb9  1  0.998994  0.313331  0.312212  1
  Rh  Rh10  1  0.749665  0.499891  0.249446  1
  Rh  Rh11  1  0.498329  0.248423  0.747086  1
  Rh  Rh12  1  0.747086  0.248423  0.498329  1
  Rh  Rh13  1  0.249873  0.751184  0.498306  1
  Rh  Rh14  1  0.249446  0.499891  0.749665  1
  Rh  Rh15  1  0.498306  0.751184  0.249873  1
  Rh  Rh16  1  0.000884  0.999752  0.000884  1
