# generated using pymatgen
data_TmTa(Nb2N3)4
_symmetry_space_group_name_H-M   'P 1'
_cell_length_a   5.30240900
_cell_length_b   5.30240934
_cell_length_c   10.51531400
_cell_angle_alpha   90.00000000
_cell_angle_beta   90.00000000
_cell_angle_gamma   120.00000411
_symmetry_Int_Tables_number   1
_chemical_formula_structural   TmTa(Nb2N3)4
_chemical_formula_sum   'Tm1 Ta1 Nb8 N12'
_cell_volume   256.03499864
_cell_formula_units_Z   1
loop_
 _symmetry_equiv_pos_site_id
 _symmetry_equiv_pos_as_xyz
  1  'x, y, z'
loop_
 _atom_site_type_symbol
 _atom_site_label
 _atom_site_symmetry_multiplicity
 _atom_site_fract_x
 _atom_site_fract_y
 _atom_site_fract_z
 _atom_site_occupancy
  Tm  Tm0  1  0.333333  0.666667  0.500000  1
  Ta  Ta1  1  0.666667  0.333333  0.500000  1
  Nb  Nb2  1  0.675109  0.676583  0.754235  1
  Nb  Nb3  1  0.323417  0.998527  0.754235  1
  Nb  Nb4  1  0.001473  0.324891  0.754235  1
  Nb  Nb5  1  0.323417  0.324891  0.245765  1
  Nb  Nb6  1  0.675109  0.998527  0.245765  1
  Nb  Nb7  1  0.001473  0.676583  0.245765  1
  Nb  Nb8  1  0.666667  0.333333  0.000000  1
  Nb  Nb9  1  0.333333  0.666667  0.000000  1
  N  N10  1  0.663949  0.646981  0.372222  1
  N  N11  1  0.353019  0.016968  0.372222  1
  N  N12  1  0.983032  0.336051  0.372222  1
  N  N13  1  0.353019  0.336051  0.627778  1
  N  N14  1  0.663949  0.016968  0.627778  1
  N  N15  1  0.983032  0.646981  0.627778  1
  N  N16  1  0.340139  0.339969  0.880139  1
  N  N17  1  0.660031  0.000171  0.880139  1
  N  N18  1  0.999829  0.659861  0.880139  1
  N  N19  1  0.660031  0.659861  0.119861  1
  N  N20  1  0.340139  0.000171  0.119861  1
  N  N21  1  0.999829  0.339969  0.119861  1
