# generated using pymatgen
data_Nd5YTaMoO14
_symmetry_space_group_name_H-M   'P 1'
_cell_length_a   6.66756776
_cell_length_b   6.60906974
_cell_length_c   7.71190582
_cell_angle_alpha   89.77860813
_cell_angle_beta   90.25157490
_cell_angle_gamma   108.84253068
_symmetry_Int_Tables_number   1
_chemical_formula_structural   Nd5YTaMoO14
_chemical_formula_sum   'Nd5 Y1 Ta1 Mo1 O14'
_cell_volume   321.62001854
_cell_formula_units_Z   1
loop_
 _symmetry_equiv_pos_site_id
 _symmetry_equiv_pos_as_xyz
  1  'x, y, z'
loop_
 _atom_site_type_symbol
 _atom_site_label
 _atom_site_symmetry_multiplicity
 _atom_site_fract_x
 _atom_site_fract_y
 _atom_site_fract_z
 _atom_site_occupancy
  Nd  Nd0  1  0.526373  0.522427  0.498598  1
  Nd  Nd1  1  0.534934  0.527820  0.000402  1
  Nd  Nd2  1  0.006281  0.459611  0.754122  1
  Nd  Nd3  1  0.532141  0.003278  0.748212  1
  Nd  Nd4  1  0.463607  0.003796  0.249160  1
  Y  Y5  1  0.003382  0.533834  0.248661  1
  Ta  Ta6  1  0.000729  0.000894  0.001848  1
  Mo  Mo7  1  0.000760  0.999467  0.498015  1
  O  O8  1  0.939429  0.058867  0.751182  1
  O  O9  1  0.061870  0.932052  0.248807  1
  O  O10  1  0.353569  0.631734  0.249492  1
  O  O11  1  0.643053  0.371506  0.749131  1
  O  O12  1  0.370275  0.629749  0.750173  1
  O  O13  1  0.645730  0.379083  0.251261  1
  O  O14  1  0.308252  0.071373  0.968155  1
  O  O15  1  0.676060  0.915509  0.472862  1
  O  O16  1  0.314277  0.077554  0.526086  1
  O  O17  1  0.678122  0.916835  0.026906  1
  O  O18  1  0.043261  0.299701  0.462589  1
  O  O19  1  0.929824  0.678604  0.976079  1
  O  O20  1  0.933437  0.685913  0.525781  1
  O  O21  1  0.034634  0.300393  0.042479  1
