# generated using pymatgen
data_Pr5Er(BiO7)2
_symmetry_space_group_name_H-M   'P 1'
_cell_length_a   6.74492317
_cell_length_b   6.76989815
_cell_length_c   7.94996230
_cell_angle_alpha   106.90323332
_cell_angle_beta   89.86230601
_cell_angle_gamma   98.70705921
_symmetry_Int_Tables_number   1
_chemical_formula_structural   Pr5Er(BiO7)2
_chemical_formula_sum   'Pr5 Er1 Bi2 O14'
_cell_volume   342.99605290
_cell_formula_units_Z   1
loop_
 _symmetry_equiv_pos_site_id
 _symmetry_equiv_pos_as_xyz
  1  'x, y, z'
loop_
 _atom_site_type_symbol
 _atom_site_label
 _atom_site_symmetry_multiplicity
 _atom_site_fract_x
 _atom_site_fract_y
 _atom_site_fract_z
 _atom_site_occupancy
  Pr  Pr0  1  0.538842  0.995611  0.746691  1
  Pr  Pr1  1  0.267399  0.540293  0.885099  1
  Pr  Pr2  1  0.730143  0.463768  0.119155  1
  Pr  Pr3  1  0.738510  0.477334  0.612560  1
  Pr  Pr4  1  0.259150  0.518478  0.380371  1
  Er  Er5  1  0.462231  0.004999  0.253334  1
  Bi  Bi6  1  0.000625  0.000421  0.497400  1
  Bi  Bi7  1  0.999948  0.000101  0.003479  1
  O  O8  1  0.445696  0.659412  0.171836  1
  O  O9  1  0.557556  0.357413  0.834885  1
  O  O10  1  0.301107  0.933345  0.963744  1
  O  O11  1  0.701304  0.065632  0.054477  1
  O  O12  1  0.297154  0.931910  0.503932  1
  O  O13  1  0.704574  0.066366  0.476610  1
  O  O14  1  0.540973  0.349874  0.340523  1
  O  O15  1  0.448482  0.635288  0.652133  1
  O  O16  1  0.926361  0.672667  0.953493  1
  O  O17  1  0.072724  0.327717  0.047067  1
  O  O18  1  0.067924  0.336589  0.615453  1
  O  O19  1  0.925671  0.661132  0.387401  1
  O  O20  1  0.890110  0.917515  0.728717  1
  O  O21  1  0.123517  0.084136  0.271641  1
