# generated using pymatgen
data_HoTm2Mg(Co4P3)2
_symmetry_space_group_name_H-M   'P 1'
_cell_length_a   3.71234400
_cell_length_b   10.58778600
_cell_length_c   12.22699600
_cell_angle_alpha   90.00000000
_cell_angle_beta   90.00000000
_cell_angle_gamma   90.00000000
_symmetry_Int_Tables_number   1
_chemical_formula_structural   HoTm2Mg(Co4P3)2
_chemical_formula_sum   'Ho2 Tm4 Mg2 Co16 P12'
_cell_volume   480.58823811
_cell_formula_units_Z   2
loop_
 _symmetry_equiv_pos_site_id
 _symmetry_equiv_pos_as_xyz
  1  'x, y, z'
loop_
 _atom_site_type_symbol
 _atom_site_label
 _atom_site_symmetry_multiplicity
 _atom_site_fract_x
 _atom_site_fract_y
 _atom_site_fract_z
 _atom_site_occupancy
  Ho  Ho0  1  0.000000  0.500000  0.526309  1
  Ho  Ho1  1  0.500000  0.000000  0.473691  1
  Tm  Tm2  1  0.500000  0.822587  0.206162  1
  Tm  Tm3  1  0.500000  0.177413  0.206162  1
  Tm  Tm4  1  0.000000  0.677413  0.793838  1
  Tm  Tm5  1  0.000000  0.322587  0.793838  1
  Mg  Mg6  1  0.500000  0.500000  0.156854  1
  Mg  Mg7  1  0.000000  0.000000  0.843146  1
  Co  Co8  1  0.500000  0.500000  0.705833  1
  Co  Co9  1  0.000000  0.000000  0.294167  1
  Co  Co10  1  0.000000  0.500000  0.988349  1
  Co  Co11  1  0.500000  0.000000  0.011651  1
  Co  Co12  1  0.500000  0.332564  0.996635  1
  Co  Co13  1  0.500000  0.667436  0.996635  1
  Co  Co14  1  0.000000  0.167436  0.003365  1
  Co  Co15  1  0.000000  0.832564  0.003365  1
  Co  Co16  1  0.500000  0.296224  0.431896  1
  Co  Co17  1  0.500000  0.703776  0.431896  1
  Co  Co18  1  0.000000  0.203776  0.568104  1
  Co  Co19  1  0.000000  0.796224  0.568104  1
  Co  Co20  1  0.500000  0.877160  0.706182  1
  Co  Co21  1  0.500000  0.122840  0.706182  1
  Co  Co22  1  0.000000  0.622840  0.293818  1
  Co  Co23  1  0.000000  0.377160  0.293818  1
  P  P24  1  0.500000  0.500000  0.884655  1
  P  P25  1  0.000000  0.000000  0.115345  1
  P  P26  1  0.500000  0.500000  0.355975  1
  P  P27  1  0.000000  0.000000  0.644025  1
  P  P28  1  0.500000  0.310167  0.616217  1
  P  P29  1  0.500000  0.689833  0.616217  1
  P  P30  1  0.000000  0.189833  0.383783  1
  P  P31  1  0.000000  0.810167  0.383783  1
  P  P32  1  0.500000  0.838136  0.892261  1
  P  P33  1  0.500000  0.161864  0.892261  1
  P  P34  1  0.000000  0.661864  0.107739  1
  P  P35  1  0.000000  0.338136  0.107739  1
