# generated using pymatgen
data_Li2La2Sc3P12Ir17
_symmetry_space_group_name_H-M   'P 1'
_cell_length_a   12.80881432
_cell_length_b   12.80881480
_cell_length_c   3.94152400
_cell_angle_alpha   90.00000000
_cell_angle_beta   90.00000000
_cell_angle_gamma   120.71264470
_symmetry_Int_Tables_number   1
_chemical_formula_structural   Li2La2Sc3P12Ir17
_chemical_formula_sum   'Li2 La2 Sc3 P12 Ir17'
_cell_volume   555.96694510
_cell_formula_units_Z   1
loop_
 _symmetry_equiv_pos_site_id
 _symmetry_equiv_pos_as_xyz
  1  'x, y, z'
loop_
 _atom_site_type_symbol
 _atom_site_label
 _atom_site_symmetry_multiplicity
 _atom_site_fract_x
 _atom_site_fract_y
 _atom_site_fract_z
 _atom_site_occupancy
  Li  Li0  1  0.441005  0.001949  0.000000  1
  Li  Li1  1  0.001949  0.441005  0.000000  1
  La  La2  1  0.808028  0.998143  0.500000  1
  La  La3  1  0.998143  0.808028  0.500000  1
  Sc  Sc4  1  0.327468  0.666595  0.000000  1
  Sc  Sc5  1  0.666595  0.327468  0.000000  1
  Sc  Sc6  1  0.195298  0.195298  0.500000  1
  P  P7  1  0.184838  0.007525  0.000000  1
  P  P8  1  0.007525  0.184838  0.000000  1
  P  P9  1  0.818024  0.818024  0.000000  1
  P  P10  1  0.174819  0.489692  0.500000  1
  P  P11  1  0.510607  0.693263  0.500000  1
  P  P12  1  0.312013  0.831308  0.500000  1
  P  P13  1  0.693263  0.510607  0.500000  1
  P  P14  1  0.831308  0.312013  0.500000  1
  P  P15  1  0.489692  0.174819  0.500000  1
  P  P16  1  0.625192  0.001026  0.000000  1
  P  P17  1  0.001026  0.625192  0.000000  1
  P  P18  1  0.357806  0.357806  0.000000  1
  Ir  Ir19  1  0.539000  0.539000  0.000000  1
  Ir  Ir20  1  0.362322  0.498168  0.500000  1
  Ir  Ir21  1  0.505558  0.869435  0.500000  1
  Ir  Ir22  1  0.133585  0.642116  0.500000  1
  Ir  Ir23  1  0.869435  0.505558  0.500000  1
  Ir  Ir24  1  0.642116  0.133585  0.500000  1
  Ir  Ir25  1  0.498168  0.362322  0.500000  1
  Ir  Ir26  1  0.187825  0.378558  0.000000  1
  Ir  Ir27  1  0.614901  0.791979  0.000000  1
  Ir  Ir28  1  0.201080  0.824192  0.000000  1
  Ir  Ir29  1  0.791979  0.614901  0.000000  1
  Ir  Ir30  1  0.824192  0.201080  0.000000  1
  Ir  Ir31  1  0.378558  0.187825  0.000000  1
  Ir  Ir32  1  0.284925  0.007400  0.500000  1
  Ir  Ir33  1  0.007400  0.284925  0.500000  1
  Ir  Ir34  1  0.708200  0.708200  0.500000  1
  Ir  Ir35  1  0.006156  0.006156  0.000000  1
