# generated using pymatgen
data_LiCeB6Ru
_symmetry_space_group_name_H-M   'P 1'
_cell_length_a   3.58987600
_cell_length_b   8.83984800
_cell_length_c   11.28839200
_cell_angle_alpha   90.00000000
_cell_angle_beta   90.00000000
_cell_angle_gamma   90.00000000
_symmetry_Int_Tables_number   1
_chemical_formula_structural   LiCeB6Ru
_chemical_formula_sum   'Li4 Ce4 B24 Ru4'
_cell_volume   358.22535963
_cell_formula_units_Z   4
loop_
 _symmetry_equiv_pos_site_id
 _symmetry_equiv_pos_as_xyz
  1  'x, y, z'
loop_
 _atom_site_type_symbol
 _atom_site_label
 _atom_site_symmetry_multiplicity
 _atom_site_fract_x
 _atom_site_fract_y
 _atom_site_fract_z
 _atom_site_occupancy
  Li  Li0  1  0.000000  0.944477  0.373372  1
  Li  Li1  1  0.000000  0.055523  0.626628  1
  Li  Li2  1  0.000000  0.444477  0.126628  1
  Li  Li3  1  0.000000  0.555523  0.873372  1
  Ce  Ce4  1  0.000000  0.316205  0.413950  1
  Ce  Ce5  1  0.000000  0.683795  0.586050  1
  Ce  Ce6  1  0.000000  0.816205  0.086050  1
  Ce  Ce7  1  0.000000  0.183795  0.913950  1
  B  B8  1  0.500000  0.555787  0.431324  1
  B  B9  1  0.500000  0.444213  0.568676  1
  B  B10  1  0.500000  0.055787  0.068676  1
  B  B11  1  0.500000  0.944213  0.931324  1
  B  B12  1  0.500000  0.757493  0.416560  1
  B  B13  1  0.500000  0.242507  0.583440  1
  B  B14  1  0.500000  0.257493  0.083440  1
  B  B15  1  0.500000  0.742507  0.916560  1
  B  B16  1  0.500000  0.792307  0.264328  1
  B  B17  1  0.500000  0.207693  0.735672  1
  B  B18  1  0.500000  0.292307  0.235672  1
  B  B19  1  0.500000  0.707693  0.764328  1
  B  B20  1  0.500000  0.624142  0.182489  1
  B  B21  1  0.500000  0.375858  0.817511  1
  B  B22  1  0.500000  0.124142  0.317511  1
  B  B23  1  0.500000  0.875858  0.682489  1
  B  B24  1  0.500000  0.979877  0.213652  1
  B  B25  1  0.500000  0.020123  0.786348  1
  B  B26  1  0.500000  0.479877  0.286348  1
  B  B27  1  0.500000  0.520123  0.713652  1
  B  B28  1  0.500000  0.590447  0.025112  1
  B  B29  1  0.500000  0.409553  0.974888  1
  B  B30  1  0.500000  0.090447  0.474888  1
  B  B31  1  0.500000  0.909553  0.525112  1
  Ru  Ru32  1  0.000000  0.640344  0.318282  1
  Ru  Ru33  1  0.000000  0.359656  0.681718  1
  Ru  Ru34  1  0.000000  0.140344  0.181718  1
  Ru  Ru35  1  0.000000  0.859656  0.818282  1
