# generated using pymatgen
data_Pr2Eu6Si12Pd3Rh
_symmetry_space_group_name_H-M   'P 1'
_cell_length_a   8.32393700
_cell_length_b   8.32393870
_cell_length_c   8.54649800
_cell_angle_alpha   90.00000000
_cell_angle_beta   90.00000000
_cell_angle_gamma   120.00000516
_symmetry_Int_Tables_number   1
_chemical_formula_structural   Pr2Eu6Si12Pd3Rh
_chemical_formula_sum   'Pr2 Eu6 Si12 Pd3 Rh1'
_cell_volume   512.83358899
_cell_formula_units_Z   1
loop_
 _symmetry_equiv_pos_site_id
 _symmetry_equiv_pos_as_xyz
  1  'x, y, z'
loop_
 _atom_site_type_symbol
 _atom_site_label
 _atom_site_symmetry_multiplicity
 _atom_site_fract_x
 _atom_site_fract_y
 _atom_site_fract_z
 _atom_site_occupancy
  Pr  Pr0  1  0.000000  0.000000  0.749847  1
  Pr  Pr1  1  0.000000  0.000000  0.250102  1
  Eu  Eu2  1  0.501147  0.498853  0.752512  1
  Eu  Eu3  1  0.501746  0.498254  0.247516  1
  Eu  Eu4  1  0.997707  0.498853  0.752512  1
  Eu  Eu5  1  0.996507  0.498254  0.247516  1
  Eu  Eu6  1  0.501147  0.002293  0.752512  1
  Eu  Eu7  1  0.501746  0.003493  0.247516  1
  Si  Si8  1  0.832833  0.167167  0.000005  1
  Si  Si9  1  0.163889  0.836111  0.999967  1
  Si  Si10  1  0.334335  0.167167  0.000005  1
  Si  Si11  1  0.164954  0.835046  0.500174  1
  Si  Si12  1  0.672222  0.836111  0.999967  1
  Si  Si13  1  0.835602  0.164398  0.499788  1
  Si  Si14  1  0.832833  0.665665  0.000005  1
  Si  Si15  1  0.670092  0.835046  0.500174  1
  Si  Si16  1  0.163889  0.327778  0.999967  1
  Si  Si17  1  0.328796  0.164398  0.499788  1
  Si  Si18  1  0.164954  0.329908  0.500174  1
  Si  Si19  1  0.835602  0.671204  0.499788  1
  Pd  Pd20  1  0.333333  0.666667  0.001081  1
  Pd  Pd21  1  0.333333  0.666667  0.499213  1
  Pd  Pd22  1  0.666667  0.333333  0.500964  1
  Rh  Rh23  1  0.666667  0.333333  0.998909  1
