# generated using pymatgen
data_Tm13Th3CdIn3Ir4
_symmetry_space_group_name_H-M   'P 1'
_cell_length_a   9.66860375
_cell_length_b   9.67708317
_cell_length_c   9.67708400
_cell_angle_alpha   59.99999717
_cell_angle_beta   59.97098181
_cell_angle_gamma   59.97098414
_symmetry_Int_Tables_number   1
_chemical_formula_structural   Tm13Th3CdIn3Ir4
_chemical_formula_sum   'Tm13 Th3 Cd1 In3 Ir4'
_cell_volume   639.95158939
_cell_formula_units_Z   1
loop_
 _symmetry_equiv_pos_site_id
 _symmetry_equiv_pos_as_xyz
  1  'x, y, z'
loop_
 _atom_site_type_symbol
 _atom_site_label
 _atom_site_symmetry_multiplicity
 _atom_site_fract_x
 _atom_site_fract_y
 _atom_site_fract_z
 _atom_site_occupancy
  Tm  Tm0  1  0.199327  0.600225  0.600225  1
  Tm  Tm1  1  0.062094  0.439518  0.439518  1
  Tm  Tm2  1  0.436991  0.062883  0.062883  1
  Tm  Tm3  1  0.436991  0.062883  0.437241  1
  Tm  Tm4  1  0.062094  0.439518  0.058870  1
  Tm  Tm5  1  0.436991  0.437241  0.062883  1
  Tm  Tm6  1  0.062094  0.058870  0.439518  1
  Tm  Tm7  1  0.187681  0.812797  0.812797  1
  Tm  Tm8  1  0.816059  0.185373  0.185373  1
  Tm  Tm9  1  0.816059  0.185373  0.813195  1
  Tm  Tm10  1  0.187681  0.812797  0.186723  1
  Tm  Tm11  1  0.816059  0.813195  0.185373  1
  Tm  Tm12  1  0.187681  0.186723  0.812797  1
  Th  Th13  1  0.596886  0.599950  0.599950  1
  Th  Th14  1  0.596886  0.599950  0.203214  1
  Th  Th15  1  0.596886  0.203214  0.599950  1
  Cd  Cd16  1  0.496445  0.834518  0.834518  1
  In  In17  1  0.834546  0.833509  0.833509  1
  In  In18  1  0.834546  0.833509  0.498435  1
  In  In19  1  0.834546  0.498435  0.833509  1
  Ir  Ir20  1  0.392622  0.391339  0.391339  1
  Ir  Ir21  1  0.392622  0.391339  0.824699  1
  Ir  Ir22  1  0.392622  0.824699  0.391339  1
  Ir  Ir23  1  0.823584  0.392139  0.392139  1
