# generated using pymatgen
data_Pr2Tm4Pb5
_symmetry_space_group_name_H-M   'P 1'
_cell_length_a   6.64939541
_cell_length_b   9.61072471
_cell_length_c   11.73000261
_cell_angle_alpha   114.17233295
_cell_angle_beta   106.44873271
_cell_angle_gamma   89.99932923
_symmetry_Int_Tables_number   1
_chemical_formula_structural   Pr2Tm4Pb5
_chemical_formula_sum   'Pr4 Tm8 Pb10'
_cell_volume   650.11212038
_cell_formula_units_Z   2
loop_
 _symmetry_equiv_pos_site_id
 _symmetry_equiv_pos_as_xyz
  1  'x, y, z'
loop_
 _atom_site_type_symbol
 _atom_site_label
 _atom_site_symmetry_multiplicity
 _atom_site_fract_x
 _atom_site_fract_y
 _atom_site_fract_z
 _atom_site_occupancy
  Pr  Pr0  1  0.139841  0.259160  0.281499  1
  Pr  Pr1  1  0.860160  0.740838  0.718499  1
  Pr  Pr2  1  0.639880  0.022254  0.281497  1
  Pr  Pr3  1  0.360122  0.977747  0.718505  1
  Tm  Tm4  1  0.556632  0.307411  0.614100  1
  Tm  Tm5  1  0.443368  0.692589  0.385900  1
  Tm  Tm6  1  0.943352  0.693280  0.385888  1
  Tm  Tm7  1  0.056648  0.306720  0.614112  1
  Tm  Tm8  1  0.438423  0.680117  0.877337  1
  Tm  Tm9  1  0.561576  0.319883  0.122663  1
  Tm  Tm10  1  0.938401  0.197225  0.877329  1
  Tm  Tm11  1  0.061598  0.802775  0.122670  1
  Pb  Pb12  1  0.290072  0.591433  0.581469  1
  Pb  Pb13  1  0.709928  0.408566  0.418531  1
  Pb  Pb14  1  0.789976  0.990027  0.581434  1
  Pb  Pb15  1  0.210024  0.009974  0.418566  1
  Pb  Pb16  1  0.250003  0.999473  0.999975  1
  Pb  Pb17  1  0.749997  0.000527  0.000025  1
  Pb  Pb18  1  0.069182  0.480041  0.139632  1
  Pb  Pb19  1  0.930817  0.519959  0.860368  1
  Pb  Pb20  1  0.569107  0.659565  0.139659  1
  Pb  Pb21  1  0.430893  0.340435  0.860342  1
