# generated using pymatgen
data_Pr5Zn2Rh3
_symmetry_space_group_name_H-M   'P 1'
_cell_length_a   8.62108477
_cell_length_b   8.62108411
_cell_length_c   8.62108400
_cell_angle_alpha   109.47121568
_cell_angle_beta   109.47121412
_cell_angle_gamma   109.47122539
_symmetry_Int_Tables_number   1
_chemical_formula_structural   Pr5Zn2Rh3
_chemical_formula_sum   'Pr10 Zn4 Rh6'
_cell_volume   493.24628146
_cell_formula_units_Z   2
loop_
 _symmetry_equiv_pos_site_id
 _symmetry_equiv_pos_as_xyz
  1  'x, y, z'
loop_
 _atom_site_type_symbol
 _atom_site_label
 _atom_site_symmetry_multiplicity
 _atom_site_fract_x
 _atom_site_fract_y
 _atom_site_fract_z
 _atom_site_occupancy
  Pr  Pr0  1  0.250000  0.685682  0.435682  1
  Pr  Pr1  1  0.750000  0.814318  0.064318  1
  Pr  Pr2  1  0.435682  0.250000  0.685682  1
  Pr  Pr3  1  0.685682  0.435682  0.250000  1
  Pr  Pr4  1  0.064318  0.750000  0.814318  1
  Pr  Pr5  1  0.814318  0.064318  0.750000  1
  Pr  Pr6  1  0.222524  0.222524  0.222524  1
  Pr  Pr7  1  0.500000  0.000000  0.277476  1
  Pr  Pr8  1  0.277476  0.500000  0.000000  1
  Pr  Pr9  1  0.000000  0.277476  0.500000  1
  Zn  Zn10  1  0.591559  0.591559  0.591559  1
  Zn  Zn11  1  0.500000  0.000000  0.908441  1
  Zn  Zn12  1  0.908441  0.500000  0.000000  1
  Zn  Zn13  1  0.000000  0.908441  0.500000  1
  Rh  Rh14  1  0.250000  0.130349  0.880349  1
  Rh  Rh15  1  0.750000  0.369651  0.619651  1
  Rh  Rh16  1  0.880348  0.250000  0.130349  1
  Rh  Rh17  1  0.130349  0.880348  0.250000  1
  Rh  Rh18  1  0.619651  0.750000  0.369651  1
  Rh  Rh19  1  0.369651  0.619651  0.750000  1
