# generated using pymatgen
data_SmRhI18
_symmetry_space_group_name_H-M   'P 1'
_cell_length_a   10.23873002
_cell_length_b   10.23872985
_cell_length_c   10.23873114
_cell_angle_alpha   96.33623875
_cell_angle_beta   96.33623070
_cell_angle_gamma   96.33625443
_symmetry_Int_Tables_number   1
_chemical_formula_structural   SmRhI18
_chemical_formula_sum   'Sm1 Rh1 I18'
_cell_volume   1052.07909196
_cell_formula_units_Z   1
loop_
 _symmetry_equiv_pos_site_id
 _symmetry_equiv_pos_as_xyz
  1  'x, y, z'
loop_
 _atom_site_type_symbol
 _atom_site_label
 _atom_site_symmetry_multiplicity
 _atom_site_fract_x
 _atom_site_fract_y
 _atom_site_fract_z
 _atom_site_occupancy
  Sm  Sm0  1  0.000000  0.000000  0.000000  1
  Rh  Rh1  1  0.500000  0.500000  0.500000  1
  I  I2  1  0.720507  0.137406  0.591912  1
  I  I3  1  0.955911  0.013904  0.697126  1
  I  I4  1  0.591912  0.720507  0.137406  1
  I  I5  1  0.986096  0.302874  0.044089  1
  I  I6  1  0.697126  0.955911  0.013904  1
  I  I7  1  0.013904  0.697126  0.955911  1
  I  I8  1  0.044089  0.986096  0.302874  1
  I  I9  1  0.862594  0.408088  0.279493  1
  I  I10  1  0.302874  0.044089  0.986096  1
  I  I11  1  0.279493  0.862594  0.408088  1
  I  I12  1  0.137406  0.591912  0.720507  1
  I  I13  1  0.408088  0.279493  0.862594  1
  I  I14  1  0.765883  0.536121  0.511631  1
  I  I15  1  0.536121  0.511631  0.765883  1
  I  I16  1  0.234117  0.463879  0.488369  1
  I  I17  1  0.463879  0.488369  0.234117  1
  I  I18  1  0.511631  0.765883  0.536121  1
  I  I19  1  0.488369  0.234117  0.463879  1
