# generated using pymatgen
data_La4Co3SiF28
_symmetry_space_group_name_H-M   'P 1'
_cell_length_a   5.52935000
_cell_length_b   8.91100883
_cell_length_c   11.90387600
_cell_angle_alpha   61.92569798
_cell_angle_beta   89.99765816
_cell_angle_gamma   89.99987522
_symmetry_Int_Tables_number   1
_chemical_formula_structural   La4Co3SiF28
_chemical_formula_sum   'La4 Co3 Si1 F28'
_cell_volume   517.51667634
_cell_formula_units_Z   1
loop_
 _symmetry_equiv_pos_site_id
 _symmetry_equiv_pos_as_xyz
  1  'x, y, z'
loop_
 _atom_site_type_symbol
 _atom_site_label
 _atom_site_symmetry_multiplicity
 _atom_site_fract_x
 _atom_site_fract_y
 _atom_site_fract_z
 _atom_site_occupancy
  La  La0  1  0.759890  0.804098  0.268314  1
  La  La1  1  0.260407  0.190388  0.236698  1
  La  La2  1  0.237830  0.196069  0.733978  1
  La  La3  1  0.739883  0.805423  0.763878  1
  Co  Co4  1  0.743105  0.274416  0.957019  1
  Co  Co5  1  0.755794  0.274446  0.456379  1
  Co  Co6  1  0.256063  0.724825  0.044167  1
  Si  Si7  1  0.243685  0.724739  0.543756  1
  F  F8  1  0.984830  0.713971  0.467425  1
  F  F9  1  0.466552  0.287021  0.033217  1
  F  F10  1  0.031444  0.287266  0.533522  1
  F  F11  1  0.530560  0.713561  0.965137  1
  F  F12  1  0.078420  0.706061  0.924254  1
  F  F13  1  0.579514  0.294712  0.575606  1
  F  F14  1  0.922967  0.294961  0.074772  1
  F  F15  1  0.419876  0.709175  0.431868  1
  F  F16  1  0.737664  0.502455  0.863894  1
  F  F17  1  0.237744  0.507838  0.631458  1
  F  F18  1  0.262230  0.497161  0.136446  1
  F  F19  1  0.761197  0.501718  0.364887  1
  F  F20  1  0.740356  0.046814  0.042859  1
  F  F21  1  0.240297  0.941296  0.458610  1
  F  F22  1  0.261667  0.951996  0.958419  1
  F  F23  1  0.762702  0.046860  0.541066  1
  F  F24  1  0.066776  0.737503  0.657934  1
  F  F25  1  0.563602  0.262245  0.834459  1
  F  F26  1  0.931622  0.263098  0.332713  1
  F  F27  1  0.433042  0.736907  0.168018  1
  F  F28  1  0.017915  0.271716  0.876065  1
  F  F29  1  0.497909  0.729968  0.623876  1
  F  F30  1  0.983574  0.726692  0.126850  1
  F  F31  1  0.482732  0.273169  0.374527  1
  F  F32  1  0.113326  0.961083  0.223401  1
  F  F33  1  0.617938  0.038965  0.276443  1
  F  F34  1  0.888284  0.036567  0.775655  1
  F  F35  1  0.388598  0.964816  0.722430  1
