# generated using pymatgen
data_Tm3Hf3Sn6(Ir2Rh)2
_symmetry_space_group_name_H-M   'P 1'
_cell_length_a   7.46716600
_cell_length_b   7.46716561
_cell_length_c   7.47167000
_cell_angle_alpha   90.00000000
_cell_angle_beta   90.00000000
_cell_angle_gamma   120.00000173
_symmetry_Int_Tables_number   1
_chemical_formula_structural   Tm3Hf3Sn6(Ir2Rh)2
_chemical_formula_sum   'Tm3 Hf3 Sn6 Ir4 Rh2'
_cell_volume   360.79448952
_cell_formula_units_Z   1
loop_
 _symmetry_equiv_pos_site_id
 _symmetry_equiv_pos_as_xyz
  1  'x, y, z'
loop_
 _atom_site_type_symbol
 _atom_site_label
 _atom_site_symmetry_multiplicity
 _atom_site_fract_x
 _atom_site_fract_y
 _atom_site_fract_z
 _atom_site_occupancy
  Tm  Tm0  1  0.999784  0.406209  0.750000  1
  Tm  Tm1  1  0.593791  0.593576  0.750000  1
  Tm  Tm2  1  0.406424  0.000216  0.750000  1
  Hf  Hf3  1  0.998581  0.392958  0.250000  1
  Hf  Hf4  1  0.607042  0.605624  0.250000  1
  Hf  Hf5  1  0.394376  0.001419  0.250000  1
  Sn  Sn6  1  0.265963  0.267035  0.495123  1
  Sn  Sn7  1  0.001072  0.734037  0.495123  1
  Sn  Sn8  1  0.001072  0.734037  0.004877  1
  Sn  Sn9  1  0.732965  0.998928  0.495123  1
  Sn  Sn10  1  0.732965  0.998928  0.004877  1
  Sn  Sn11  1  0.265963  0.267035  0.004877  1
  Ir  Ir12  1  0.333333  0.666667  0.463389  1
  Ir  Ir13  1  0.666667  0.333333  0.466119  1
  Ir  Ir14  1  0.333333  0.666667  0.036611  1
  Ir  Ir15  1  0.666667  0.333333  0.033881  1
  Rh  Rh16  1  0.000000  0.000000  0.750000  1
  Rh  Rh17  1  0.000000  0.000000  0.250000  1
