# generated using pymatgen
data_Li3Hf2Ni9As6P
_symmetry_space_group_name_H-M   'P 1'
_cell_length_a   9.37955138
_cell_length_b   9.38379993
_cell_length_c   3.76513100
_cell_angle_alpha   90.00000000
_cell_angle_beta   90.00000000
_cell_angle_gamma   119.69876417
_symmetry_Int_Tables_number   1
_chemical_formula_structural   Li3Hf2Ni9As6P
_chemical_formula_sum   'Li3 Hf2 Ni9 As6 P1'
_cell_volume   287.86033218
_cell_formula_units_Z   1
loop_
 _symmetry_equiv_pos_site_id
 _symmetry_equiv_pos_as_xyz
  1  'x, y, z'
loop_
 _atom_site_type_symbol
 _atom_site_label
 _atom_site_symmetry_multiplicity
 _atom_site_fract_x
 _atom_site_fract_y
 _atom_site_fract_z
 _atom_site_occupancy
  Li  Li0  1  0.442197  0.215340  0.500000  1
  Li  Li1  1  0.777765  0.221196  0.500000  1
  Li  Li2  1  0.004058  0.007134  0.500000  1
  Hf  Hf3  1  0.764269  0.555904  0.500000  1
  Hf  Hf4  1  0.333951  0.665277  0.000000  1
  Ni  Ni5  1  0.282336  0.388011  0.500000  1
  Ni  Ni6  1  0.618687  0.885833  0.500000  1
  Ni  Ni7  1  0.108750  0.721113  0.500000  1
  Ni  Ni8  1  0.498089  0.464808  0.000000  1
  Ni  Ni9  1  0.546754  0.035972  0.000000  1
  Ni  Ni10  1  0.956620  0.501487  0.000000  1
  Ni  Ni11  1  0.714158  0.757212  0.000000  1
  Ni  Ni12  1  0.247559  0.966887  0.000000  1
  Ni  Ni13  1  0.042455  0.280626  0.000000  1
  As  As14  1  0.975747  0.769072  0.000000  1
  As  As15  1  0.245568  0.212964  0.000000  1
  As  As16  1  0.793718  0.032583  0.000000  1
  As  As17  1  0.661276  0.324407  0.000000  1
  As  As18  1  0.381045  0.917394  0.500000  1
  As  As19  1  0.077222  0.456599  0.500000  1
  P  P20  1  0.527780  0.620183  0.500000  1
