# generated using pymatgen
data_La3Ce(SnRu)4
_symmetry_space_group_name_H-M   'P 1'
_cell_length_a   6.38064294
_cell_length_b   6.38064309
_cell_length_c   10.37005306
_cell_angle_alpha   77.60752857
_cell_angle_beta   77.60752984
_cell_angle_gamma   44.63372583
_symmetry_Int_Tables_number   1
_chemical_formula_structural   La3Ce(SnRu)4
_chemical_formula_sum   'La3 Ce1 Sn4 Ru4'
_cell_volume   288.52836753
_cell_formula_units_Z   1
loop_
 _symmetry_equiv_pos_site_id
 _symmetry_equiv_pos_as_xyz
  1  'x, y, z'
loop_
 _atom_site_type_symbol
 _atom_site_label
 _atom_site_symmetry_multiplicity
 _atom_site_fract_x
 _atom_site_fract_y
 _atom_site_fract_z
 _atom_site_occupancy
  La  La0  1  0.124488  0.124488  0.591283  1
  La  La1  1  0.871206  0.871206  0.408873  1
  La  La2  1  0.870432  0.870432  0.913684  1
  Ce  Ce3  1  0.140949  0.140949  0.085149  1
  Sn  Sn4  1  0.422105  0.422105  0.150188  1
  Sn  Sn5  1  0.404641  0.404641  0.654749  1
  Sn  Sn6  1  0.584003  0.584003  0.843107  1
  Sn  Sn7  1  0.587875  0.587875  0.347831  1
  Ru  Ru8  1  0.813697  0.813697  0.175449  1
  Ru  Ru9  1  0.190507  0.190507  0.298017  1
  Ru  Ru10  1  0.185431  0.185431  0.849904  1
  Ru  Ru11  1  0.804666  0.804666  0.681767  1
