# generated using pymatgen
data_TmLu3Re7Mo
_symmetry_space_group_name_H-M   'P 1'
_cell_length_a   5.39646900
_cell_length_b   5.39646904
_cell_length_c   8.78709800
_cell_angle_alpha   90.00000000
_cell_angle_beta   90.00000000
_cell_angle_gamma   120.00000590
_symmetry_Int_Tables_number   1
_chemical_formula_structural   TmLu3Re7Mo
_chemical_formula_sum   'Tm1 Lu3 Re7 Mo1'
_cell_volume   221.61311189
_cell_formula_units_Z   1
loop_
 _symmetry_equiv_pos_site_id
 _symmetry_equiv_pos_as_xyz
  1  'x, y, z'
loop_
 _atom_site_type_symbol
 _atom_site_label
 _atom_site_symmetry_multiplicity
 _atom_site_fract_x
 _atom_site_fract_y
 _atom_site_fract_z
 _atom_site_occupancy
  Tm  Tm0  1  0.333333  0.666667  0.061946  1
  Lu  Lu1  1  0.333333  0.666667  0.436839  1
  Lu  Lu2  1  0.666667  0.333333  0.563327  1
  Lu  Lu3  1  0.666667  0.333333  0.937865  1
  Re  Re4  1  0.000000  0.000000  0.000028  1
  Re  Re5  1  0.828560  0.171440  0.249088  1
  Re  Re6  1  0.828560  0.657119  0.249088  1
  Re  Re7  1  0.342881  0.171440  0.249088  1
  Re  Re8  1  0.171409  0.828591  0.750863  1
  Re  Re9  1  0.171409  0.342818  0.750863  1
  Re  Re10  1  0.657182  0.828591  0.750863  1
  Mo  Mo11  1  0.000000  0.000000  0.500142  1
