# generated using pymatgen
data_YbHf(PO3)6
_symmetry_space_group_name_H-M   'P 1'
_cell_length_a   6.84170200
_cell_length_b   6.84170136
_cell_length_c   10.44293700
_cell_angle_alpha   90.00000000
_cell_angle_beta   90.00000000
_cell_angle_gamma   120.00000309
_symmetry_Int_Tables_number   1
_chemical_formula_structural   YbHf(PO3)6
_chemical_formula_sum   'Yb1 Hf1 P6 O18'
_cell_volume   423.33243396
_cell_formula_units_Z   1
loop_
 _symmetry_equiv_pos_site_id
 _symmetry_equiv_pos_as_xyz
  1  'x, y, z'
loop_
 _atom_site_type_symbol
 _atom_site_label
 _atom_site_symmetry_multiplicity
 _atom_site_fract_x
 _atom_site_fract_y
 _atom_site_fract_z
 _atom_site_occupancy
  Yb  Yb0  1  0.000000  0.000000  0.500000  1
  Hf  Hf1  1  0.000000  0.000000  0.000000  1
  P  P2  1  0.731139  0.122320  0.763986  1
  P  P3  1  0.877680  0.268861  0.236014  1
  P  P4  1  0.731139  0.608819  0.236014  1
  P  P5  1  0.877680  0.608819  0.763986  1
  P  P6  1  0.391181  0.268861  0.763986  1
  P  P7  1  0.391181  0.122320  0.236014  1
  O  O8  1  0.901931  0.512571  0.217318  1
  O  O9  1  0.901931  0.389360  0.782682  1
  O  O10  1  0.487429  0.098069  0.782682  1
  O  O11  1  0.610640  0.098069  0.217318  1
  O  O12  1  0.757837  0.042395  0.637254  1
  O  O13  1  0.762766  0.011359  0.882655  1
  O  O14  1  0.487429  0.389360  0.217318  1
  O  O15  1  0.757837  0.715442  0.362746  1
  O  O16  1  0.762766  0.751408  0.117345  1
  O  O17  1  0.610640  0.512571  0.782682  1
  O  O18  1  0.957605  0.242163  0.362746  1
  O  O19  1  0.988641  0.237234  0.117345  1
  O  O20  1  0.248592  0.237234  0.882655  1
  O  O21  1  0.284558  0.242163  0.637254  1
  O  O22  1  0.988641  0.751408  0.882655  1
  O  O23  1  0.957605  0.715442  0.637254  1
  O  O24  1  0.248592  0.011359  0.117345  1
  O  O25  1  0.284558  0.042395  0.362746  1
