# generated using pymatgen
data_Hf4Mn2CuSi4Ir
_symmetry_space_group_name_H-M   'P 1'
_cell_length_a   3.79456700
_cell_length_b   6.50382095
_cell_length_c   7.49146524
_cell_angle_alpha   89.55006933
_cell_angle_beta   90.00000000
_cell_angle_gamma   90.00000000
_symmetry_Int_Tables_number   1
_chemical_formula_structural   Hf4Mn2CuSi4Ir
_chemical_formula_sum   'Hf4 Mn2 Cu1 Si4 Ir1'
_cell_volume   184.87755139
_cell_formula_units_Z   1
loop_
 _symmetry_equiv_pos_site_id
 _symmetry_equiv_pos_as_xyz
  1  'x, y, z'
loop_
 _atom_site_type_symbol
 _atom_site_label
 _atom_site_symmetry_multiplicity
 _atom_site_fract_x
 _atom_site_fract_y
 _atom_site_fract_z
 _atom_site_occupancy
  Hf  Hf0  1  0.250000  0.976953  0.316838  1
  Hf  Hf1  1  0.250000  0.471920  0.177536  1
  Hf  Hf2  1  0.750000  0.027202  0.681785  1
  Hf  Hf3  1  0.750000  0.522596  0.823780  1
  Mn  Mn4  1  0.250000  0.856676  0.938051  1
  Mn  Mn5  1  0.750000  0.142400  0.064571  1
  Cu  Cu6  1  0.750000  0.650976  0.436208  1
  Si  Si7  1  0.250000  0.732211  0.628502  1
  Si  Si8  1  0.250000  0.222845  0.881686  1
  Si  Si9  1  0.750000  0.265363  0.373054  1
  Si  Si10  1  0.750000  0.772861  0.117931  1
  Ir  Ir11  1  0.250000  0.357997  0.560058  1
