# generated using pymatgen
data_Nd4Ga4PtRh3
_symmetry_space_group_name_H-M   'P 1'
_cell_length_a   4.44324500
_cell_length_b   7.06778478
_cell_length_c   7.87774785
_cell_angle_alpha   89.71678630
_cell_angle_beta   90.00000000
_cell_angle_gamma   90.00000000
_symmetry_Int_Tables_number   1
_chemical_formula_structural   Nd4Ga4PtRh3
_chemical_formula_sum   'Nd4 Ga4 Pt1 Rh3'
_cell_volume   247.38897840
_cell_formula_units_Z   1
loop_
 _symmetry_equiv_pos_site_id
 _symmetry_equiv_pos_as_xyz
  1  'x, y, z'
loop_
 _atom_site_type_symbol
 _atom_site_label
 _atom_site_symmetry_multiplicity
 _atom_site_fract_x
 _atom_site_fract_y
 _atom_site_fract_z
 _atom_site_occupancy
  Nd  Nd0  1  0.250000  0.027047  0.686609  1
  Nd  Nd1  1  0.250000  0.530136  0.811809  1
  Nd  Nd2  1  0.750000  0.971499  0.310983  1
  Nd  Nd3  1  0.750000  0.474527  0.192181  1
  Ga  Ga4  1  0.250000  0.151867  0.072211  1
  Ga  Ga5  1  0.250000  0.653704  0.429992  1
  Ga  Ga6  1  0.750000  0.842405  0.929720  1
  Ga  Ga7  1  0.750000  0.348646  0.568026  1
  Pt  Pt8  1  0.750000  0.224196  0.890978  1
  Rh  Rh9  1  0.250000  0.274731  0.391920  1
  Rh  Rh10  1  0.250000  0.775724  0.107651  1
  Rh  Rh11  1  0.750000  0.725519  0.607922  1
