# generated using pymatgen
data_Dy4InPd6Pt5
_symmetry_space_group_name_H-M   'P 1'
_cell_length_a   4.19808700
_cell_length_b   5.83305790
_cell_length_c   11.65796600
_cell_angle_alpha   87.19136085
_cell_angle_beta   90.00000000
_cell_angle_gamma   90.00000000
_symmetry_Int_Tables_number   1
_chemical_formula_structural   Dy4InPd6Pt5
_chemical_formula_sum   'Dy4 In1 Pd6 Pt5'
_cell_volume   285.13366801
_cell_formula_units_Z   1
loop_
 _symmetry_equiv_pos_site_id
 _symmetry_equiv_pos_as_xyz
  1  'x, y, z'
loop_
 _atom_site_type_symbol
 _atom_site_label
 _atom_site_symmetry_multiplicity
 _atom_site_fract_x
 _atom_site_fract_y
 _atom_site_fract_z
 _atom_site_occupancy
  Dy  Dy0  1  0.500000  0.753844  0.375719  1
  Dy  Dy1  1  0.500000  0.717543  0.860120  1
  Dy  Dy2  1  0.500000  0.282457  0.139880  1
  Dy  Dy3  1  0.500000  0.246156  0.624281  1
  In  In4  1  0.000000  0.000000  0.000000  1
  Pd  Pd5  1  0.000000  0.500000  0.500000  1
  Pd  Pd6  1  0.500000  0.252664  0.378015  1
  Pd  Pd7  1  0.500000  0.226515  0.882314  1
  Pd  Pd8  1  0.500000  0.773485  0.117686  1
  Pd  Pd9  1  0.500000  0.747336  0.621985  1
  Pd  Pd10  1  0.000000  0.000000  0.500000  1
  Pt  Pt11  1  0.000000  0.011702  0.250765  1
  Pt  Pt12  1  0.000000  0.988298  0.749235  1
  Pt  Pt13  1  0.000000  0.500000  0.000000  1
  Pt  Pt14  1  0.000000  0.516770  0.250956  1
  Pt  Pt15  1  0.000000  0.483230  0.749044  1
