# generated using pymatgen
data_YLu2Fe8Ru
_symmetry_space_group_name_H-M   'P 1'
_cell_length_a   5.08317600
_cell_length_b   5.08317639
_cell_length_c   16.34716300
_cell_angle_alpha   90.00000000
_cell_angle_beta   90.00000000
_cell_angle_gamma   119.99999745
_symmetry_Int_Tables_number   1
_chemical_formula_structural   YLu2Fe8Ru
_chemical_formula_sum   'Y2 Lu4 Fe16 Ru2'
_cell_volume   365.79971546
_cell_formula_units_Z   2
loop_
 _symmetry_equiv_pos_site_id
 _symmetry_equiv_pos_as_xyz
  1  'x, y, z'
loop_
 _atom_site_type_symbol
 _atom_site_label
 _atom_site_symmetry_multiplicity
 _atom_site_fract_x
 _atom_site_fract_y
 _atom_site_fract_z
 _atom_site_occupancy
  Y  Y0  1  0.333333  0.666667  0.750000  1
  Y  Y1  1  0.666667  0.333333  0.250000  1
  Lu  Lu2  1  0.333333  0.666667  0.963318  1
  Lu  Lu3  1  0.666667  0.333333  0.036682  1
  Lu  Lu4  1  0.666667  0.333333  0.463318  1
  Lu  Lu5  1  0.333333  0.666667  0.536682  1
  Fe  Fe6  1  0.168684  0.831316  0.371849  1
  Fe  Fe7  1  0.168684  0.337368  0.371849  1
  Fe  Fe8  1  0.662632  0.831316  0.371849  1
  Fe  Fe9  1  0.831316  0.168684  0.628151  1
  Fe  Fe10  1  0.831316  0.662632  0.628151  1
  Fe  Fe11  1  0.337368  0.168684  0.628151  1
  Fe  Fe12  1  0.831316  0.168684  0.871849  1
  Fe  Fe13  1  0.831316  0.662632  0.871849  1
  Fe  Fe14  1  0.337368  0.168684  0.871849  1
  Fe  Fe15  1  0.168684  0.831316  0.128151  1
  Fe  Fe16  1  0.168684  0.337368  0.128151  1
  Fe  Fe17  1  0.662632  0.831316  0.128151  1
  Fe  Fe18  1  0.333333  0.666667  0.250000  1
  Fe  Fe19  1  0.666667  0.333333  0.750000  1
  Fe  Fe20  1  0.000000  0.000000  0.250000  1
  Fe  Fe21  1  0.000000  0.000000  0.750000  1
  Ru  Ru22  1  0.000000  0.000000  0.500000  1
  Ru  Ru23  1  0.000000  0.000000  0.000000  1
