# generated using pymatgen
data_NdYEr3Pt4
_symmetry_space_group_name_H-M   'P 1'
_cell_length_a   7.54165800
_cell_length_b   7.56666800
_cell_length_c   14.74397500
_cell_angle_alpha   90.00000000
_cell_angle_beta   90.00000000
_cell_angle_gamma   90.00000000
_symmetry_Int_Tables_number   1
_chemical_formula_structural   NdYEr3Pt4
_chemical_formula_sum   'Nd4 Y4 Er12 Pt16'
_cell_volume   841.36821031
_cell_formula_units_Z   4
loop_
 _symmetry_equiv_pos_site_id
 _symmetry_equiv_pos_as_xyz
  1  'x, y, z'
loop_
 _atom_site_type_symbol
 _atom_site_label
 _atom_site_symmetry_multiplicity
 _atom_site_fract_x
 _atom_site_fract_y
 _atom_site_fract_z
 _atom_site_occupancy
  Nd  Nd0  1  0.999640  0.822432  0.407536  1
  Nd  Nd1  1  0.499640  0.677568  0.092464  1
  Nd  Nd2  1  0.500360  0.322432  0.592464  1
  Nd  Nd3  1  0.000360  0.177568  0.907536  1
  Y  Y4  1  0.002244  0.179521  0.594356  1
  Y  Y5  1  0.502244  0.320479  0.905644  1
  Y  Y6  1  0.497756  0.679521  0.405644  1
  Y  Y7  1  0.997756  0.820479  0.094356  1
  Er  Er8  1  0.680689  0.990042  0.249716  1
  Er  Er9  1  0.180689  0.509958  0.250284  1
  Er  Er10  1  0.819311  0.490042  0.750284  1
  Er  Er11  1  0.319311  0.009958  0.749716  1
  Er  Er12  1  0.656044  0.832298  0.622307  1
  Er  Er13  1  0.156044  0.667702  0.877693  1
  Er  Er14  1  0.843956  0.332298  0.377693  1
  Er  Er15  1  0.343956  0.167702  0.122307  1
  Er  Er16  1  0.343593  0.166685  0.376756  1
  Er  Er17  1  0.843593  0.333315  0.123244  1
  Er  Er18  1  0.156407  0.666685  0.623244  1
  Er  Er19  1  0.656407  0.833315  0.876756  1
  Pt  Pt20  1  0.815568  0.639781  0.249243  1
  Pt  Pt21  1  0.315568  0.860219  0.250757  1
  Pt  Pt22  1  0.684432  0.139781  0.750757  1
  Pt  Pt23  1  0.184432  0.360219  0.749243  1
  Pt  Pt24  1  0.546263  0.381004  0.251004  1
  Pt  Pt25  1  0.046263  0.118996  0.248996  1
  Pt  Pt26  1  0.953737  0.881004  0.748996  1
  Pt  Pt27  1  0.453737  0.618996  0.751004  1
  Pt  Pt28  1  0.821284  0.534505  0.542438  1
  Pt  Pt29  1  0.321284  0.965495  0.957562  1
  Pt  Pt30  1  0.678716  0.034505  0.457562  1
  Pt  Pt31  1  0.178716  0.465495  0.042438  1
  Pt  Pt32  1  0.182326  0.464133  0.457585  1
  Pt  Pt33  1  0.682326  0.035867  0.042415  1
  Pt  Pt34  1  0.317674  0.964133  0.542415  1
  Pt  Pt35  1  0.817674  0.535867  0.957585  1
