# generated using pymatgen
data_Sc2Sb2PtRh
_symmetry_space_group_name_H-M   'P 1'
_cell_length_a   7.79983785
_cell_length_b   7.79983768
_cell_length_c   7.79983689
_cell_angle_alpha   33.46260716
_cell_angle_beta   33.46260895
_cell_angle_gamma   33.46260710
_symmetry_Int_Tables_number   1
_chemical_formula_structural   Sc2Sb2PtRh
_chemical_formula_sum   'Sc2 Sb2 Pt1 Rh1'
_cell_volume   128.48546556
_cell_formula_units_Z   1
loop_
 _symmetry_equiv_pos_site_id
 _symmetry_equiv_pos_as_xyz
  1  'x, y, z'
loop_
 _atom_site_type_symbol
 _atom_site_label
 _atom_site_symmetry_multiplicity
 _atom_site_fract_x
 _atom_site_fract_y
 _atom_site_fract_z
 _atom_site_occupancy
  Sc  Sc0  1  0.248609  0.248609  0.248609  1
  Sc  Sc1  1  0.751674  0.751674  0.751674  1
  Sb  Sb2  1  0.997694  0.997694  0.997694  1
  Sb  Sb3  1  0.501285  0.501285  0.501285  1
  Pt  Pt4  1  0.375803  0.375803  0.375803  1
  Rh  Rh5  1  0.874934  0.874934  0.874934  1
