# generated using pymatgen
data_Li4Tb3NdPt4
_symmetry_space_group_name_H-M   'P 1'
_cell_length_a   4.04771700
_cell_length_b   7.10523647
_cell_length_c   8.32401200
_cell_angle_alpha   89.97910648
_cell_angle_beta   90.00000000
_cell_angle_gamma   90.00000000
_symmetry_Int_Tables_number   1
_chemical_formula_structural   Li4Tb3NdPt4
_chemical_formula_sum   'Li4 Tb3 Nd1 Pt4'
_cell_volume   239.39845648
_cell_formula_units_Z   1
loop_
 _symmetry_equiv_pos_site_id
 _symmetry_equiv_pos_as_xyz
  1  'x, y, z'
loop_
 _atom_site_type_symbol
 _atom_site_label
 _atom_site_symmetry_multiplicity
 _atom_site_fract_x
 _atom_site_fract_y
 _atom_site_fract_z
 _atom_site_occupancy
  Li  Li0  1  0.250000  0.127702  0.942634  1
  Li  Li1  1  0.250000  0.630257  0.556022  1
  Li  Li2  1  0.750000  0.875164  0.059603  1
  Li  Li3  1  0.750000  0.368022  0.439888  1
  Tb  Tb4  1  0.250000  0.043818  0.315482  1
  Tb  Tb5  1  0.250000  0.545000  0.186870  1
  Tb  Tb6  1  0.750000  0.953332  0.680971  1
  Nd  Nd7  1  0.750000  0.456268  0.814627  1
  Pt  Pt8  1  0.250000  0.239274  0.617074  1
  Pt  Pt9  1  0.250000  0.754231  0.882501  1
  Pt  Pt10  1  0.750000  0.752614  0.377265  1
  Pt  Pt11  1  0.750000  0.254315  0.127063  1
