# generated using pymatgen
data_Ho4MnNbOs6
_symmetry_space_group_name_H-M   'P 1'
_cell_length_a   5.27727512
_cell_length_b   5.27727417
_cell_length_c   8.89407100
_cell_angle_alpha   90.00000000
_cell_angle_beta   90.00000000
_cell_angle_gamma   117.64575664
_symmetry_Int_Tables_number   1
_chemical_formula_structural   Ho4MnNbOs6
_chemical_formula_sum   'Ho4 Mn1 Nb1 Os6'
_cell_volume   219.41786786
_cell_formula_units_Z   1
loop_
 _symmetry_equiv_pos_site_id
 _symmetry_equiv_pos_as_xyz
  1  'x, y, z'
loop_
 _atom_site_type_symbol
 _atom_site_label
 _atom_site_symmetry_multiplicity
 _atom_site_fract_x
 _atom_site_fract_y
 _atom_site_fract_z
 _atom_site_occupancy
  Ho  Ho0  1  0.328780  0.671220  0.440741  1
  Ho  Ho1  1  0.667228  0.332772  0.568094  1
  Ho  Ho2  1  0.667228  0.332772  0.931906  1
  Ho  Ho3  1  0.328780  0.671220  0.059259  1
  Mn  Mn4  1  0.168584  0.831416  0.750000  1
  Nb  Nb5  1  0.838371  0.161629  0.250000  1
  Os  Os6  1  0.998796  0.001204  0.508667  1
  Os  Os7  1  0.998796  0.001204  0.991333  1
  Os  Os8  1  0.823569  0.654258  0.250000  1
  Os  Os9  1  0.345742  0.176431  0.250000  1
  Os  Os10  1  0.178644  0.344514  0.750000  1
  Os  Os11  1  0.655486  0.821356  0.750000  1
