# generated using pymatgen
data_Eu9Ga4
_symmetry_space_group_name_H-M   'P 1'
_cell_length_a   9.20022995
_cell_length_b   9.20023018
_cell_length_c   9.20023000
_cell_angle_alpha   94.67516740
_cell_angle_beta   94.67516752
_cell_angle_gamma   146.82330133
_symmetry_Int_Tables_number   1
_chemical_formula_structural   Eu9Ga4
_chemical_formula_sum   'Eu9 Ga4'
_cell_volume   408.41185072
_cell_formula_units_Z   1
loop_
 _symmetry_equiv_pos_site_id
 _symmetry_equiv_pos_as_xyz
  1  'x, y, z'
loop_
 _atom_site_type_symbol
 _atom_site_label
 _atom_site_symmetry_multiplicity
 _atom_site_fract_x
 _atom_site_fract_y
 _atom_site_fract_z
 _atom_site_occupancy
  Eu  Eu0  1  0.500000  0.500000  0.000000  1
  Eu  Eu1  1  0.186999  0.888600  0.075599  1
  Eu  Eu2  1  0.880128  0.390823  0.270949  1
  Eu  Eu3  1  0.111401  0.186999  0.298400  1
  Eu  Eu4  1  0.609178  0.880128  0.489305  1
  Eu  Eu5  1  0.390823  0.119873  0.510696  1
  Eu  Eu6  1  0.888600  0.813002  0.701601  1
  Eu  Eu7  1  0.119873  0.609178  0.729052  1
  Eu  Eu8  1  0.813002  0.111401  0.924401  1
  Ga  Ga9  1  0.401872  0.736261  0.138133  1
  Ga  Ga10  1  0.736261  0.598129  0.334389  1
  Ga  Ga11  1  0.263739  0.401872  0.665611  1
  Ga  Ga12  1  0.598129  0.263739  0.861868  1
