# generated using pymatgen
data_Ho8MgHgIr2
_symmetry_space_group_name_H-M   'P 1'
_cell_length_a   9.60189587
_cell_length_b   9.60189792
_cell_length_c   9.59679300
_cell_angle_alpha   60.01759585
_cell_angle_beta   60.01758881
_cell_angle_gamma   60.20515078
_symmetry_Int_Tables_number   1
_chemical_formula_structural   Ho8MgHgIr2
_chemical_formula_sum   'Ho16 Mg2 Hg2 Ir4'
_cell_volume   626.77233209
_cell_formula_units_Z   2
loop_
 _symmetry_equiv_pos_site_id
 _symmetry_equiv_pos_as_xyz
  1  'x, y, z'
loop_
 _atom_site_type_symbol
 _atom_site_label
 _atom_site_symmetry_multiplicity
 _atom_site_fract_x
 _atom_site_fract_y
 _atom_site_fract_z
 _atom_site_occupancy
  Ho  Ho0  1  0.348237  0.348237  0.345602  1
  Ho  Ho1  1  0.348237  0.348237  0.957924  1
  Ho  Ho2  1  0.350554  0.952465  0.348491  1
  Ho  Ho3  1  0.952465  0.350554  0.348491  1
  Ho  Ho4  1  0.810294  0.187659  0.190296  1
  Ho  Ho5  1  0.187659  0.810294  0.811750  1
  Ho  Ho6  1  0.187659  0.810294  0.190296  1
  Ho  Ho7  1  0.810294  0.187659  0.811750  1
  Ho  Ho8  1  0.187707  0.187707  0.812293  1
  Ho  Ho9  1  0.807134  0.807134  0.192866  1
  Ho  Ho10  1  0.935902  0.561266  0.563093  1
  Ho  Ho11  1  0.561266  0.935902  0.939738  1
  Ho  Ho12  1  0.561266  0.935902  0.563093  1
  Ho  Ho13  1  0.935902  0.561266  0.939738  1
  Ho  Ho14  1  0.562198  0.562198  0.937802  1
  Ho  Ho15  1  0.937440  0.937440  0.562560  1
  Mg  Mg16  1  0.580320  0.271911  0.573885  1
  Mg  Mg17  1  0.271911  0.580320  0.573885  1
  Hg  Hg18  1  0.581866  0.581866  0.588224  1
  Hg  Hg19  1  0.581866  0.581866  0.248046  1
  Ir  Ir20  1  0.141711  0.141711  0.141886  1
  Ir  Ir21  1  0.141711  0.141711  0.574693  1
  Ir  Ir22  1  0.140686  0.575715  0.141799  1
  Ir  Ir23  1  0.575715  0.140686  0.141799  1
