# generated using pymatgen
data_Er4Lu4Mn(B8Ru)3
_symmetry_space_group_name_H-M   'P 1'
_cell_length_a   3.59014800
_cell_length_b   9.03920702
_cell_length_c   11.42020003
_cell_angle_alpha   89.99181268
_cell_angle_beta   90.00000000
_cell_angle_gamma   90.00000000
_symmetry_Int_Tables_number   1
_chemical_formula_structural   Er4Lu4Mn(B8Ru)3
_chemical_formula_sum   'Er4 Lu4 Mn1 B24 Ru3'
_cell_volume   370.60936698
_cell_formula_units_Z   1
loop_
 _symmetry_equiv_pos_site_id
 _symmetry_equiv_pos_as_xyz
  1  'x, y, z'
loop_
 _atom_site_type_symbol
 _atom_site_label
 _atom_site_symmetry_multiplicity
 _atom_site_fract_x
 _atom_site_fract_y
 _atom_site_fract_z
 _atom_site_occupancy
  Er  Er0  1  0.000000  0.325371  0.412667  1
  Er  Er1  1  0.000000  0.677322  0.582183  1
  Er  Er2  1  0.000000  0.819480  0.088535  1
  Er  Er3  1  0.000000  0.178511  0.915216  1
  Lu  Lu4  1  0.000000  0.940521  0.371481  1
  Lu  Lu5  1  0.000000  0.056565  0.627858  1
  Lu  Lu6  1  0.000000  0.446413  0.130027  1
  Lu  Lu7  1  0.000000  0.556288  0.872110  1
  Mn  Mn8  1  0.000000  0.638435  0.320145  1
  B  B9  1  0.500000  0.554398  0.431761  1
  B  B10  1  0.500000  0.446468  0.566435  1
  B  B11  1  0.500000  0.053770  0.067010  1
  B  B12  1  0.500000  0.946088  0.933314  1
  B  B13  1  0.500000  0.747376  0.417761  1
  B  B14  1  0.500000  0.250815  0.580130  1
  B  B15  1  0.500000  0.250239  0.080634  1
  B  B16  1  0.500000  0.750398  0.919866  1
  B  B17  1  0.500000  0.790208  0.266183  1
  B  B18  1  0.500000  0.208025  0.734493  1
  B  B19  1  0.500000  0.292611  0.234612  1
  B  B20  1  0.500000  0.708172  0.765342  1
  B  B21  1  0.500000  0.630909  0.186081  1
  B  B22  1  0.500000  0.369269  0.815945  1
  B  B23  1  0.500000  0.130560  0.315499  1
  B  B24  1  0.500000  0.869117  0.684023  1
  B  B25  1  0.500000  0.981517  0.213162  1
  B  B26  1  0.500000  0.017845  0.787091  1
  B  B27  1  0.500000  0.484607  0.287821  1
  B  B28  1  0.500000  0.517761  0.712805  1
  B  B29  1  0.500000  0.604628  0.029029  1
  B  B30  1  0.500000  0.395545  0.971568  1
  B  B31  1  0.500000  0.103952  0.471089  1
  B  B32  1  0.500000  0.895619  0.528420  1
  Ru  Ru33  1  0.000000  0.361187  0.680155  1
  Ru  Ru34  1  0.000000  0.138327  0.179500  1
  Ru  Ru35  1  0.000000  0.861684  0.820051  1
