# generated using pymatgen
data_Tb2AlGaI2
_symmetry_space_group_name_H-M   'P 1'
_cell_length_a   4.23836500
_cell_length_b   4.23836546
_cell_length_c   12.01102800
_cell_angle_alpha   90.00000000
_cell_angle_beta   90.00000000
_cell_angle_gamma   120.00000423
_symmetry_Int_Tables_number   1
_chemical_formula_structural   Tb2AlGaI2
_chemical_formula_sum   'Tb2 Al1 Ga1 I2'
_cell_volume   186.85621552
_cell_formula_units_Z   1
loop_
 _symmetry_equiv_pos_site_id
 _symmetry_equiv_pos_as_xyz
  1  'x, y, z'
loop_
 _atom_site_type_symbol
 _atom_site_label
 _atom_site_symmetry_multiplicity
 _atom_site_fract_x
 _atom_site_fract_y
 _atom_site_fract_z
 _atom_site_occupancy
  Tb  Tb0  1  0.000000  0.000000  0.172058  1
  Tb  Tb1  1  0.000000  0.000000  0.831006  1
  Al  Al2  1  0.333333  0.666667  0.021958  1
  Ga  Ga3  1  0.666667  0.333333  0.973951  1
  I  I4  1  0.333333  0.666667  0.663883  1
  I  I5  1  0.666667  0.333333  0.337144  1
