# generated using pymatgen
data_Lu12Mn2Sn2Ir
_symmetry_space_group_name_H-M   'P 1'
_cell_length_a   8.21979704
_cell_length_b   8.21964482
_cell_length_c   8.21979800
_cell_angle_alpha   108.59878475
_cell_angle_beta   108.60578974
_cell_angle_gamma   111.22419661
_symmetry_Int_Tables_number   1
_chemical_formula_structural   Lu12Mn2Sn2Ir
_chemical_formula_sum   'Lu12 Mn2 Sn2 Ir1'
_cell_volume   427.21190068
_cell_formula_units_Z   1
loop_
 _symmetry_equiv_pos_site_id
 _symmetry_equiv_pos_as_xyz
  1  'x, y, z'
loop_
 _atom_site_type_symbol
 _atom_site_label
 _atom_site_symmetry_multiplicity
 _atom_site_fract_x
 _atom_site_fract_y
 _atom_site_fract_z
 _atom_site_occupancy
  Lu  Lu0  1  0.309066  0.309136  0.618194  1
  Lu  Lu1  1  0.690934  0.690864  0.381806  1
  Lu  Lu2  1  0.690941  0.309136  0.000070  1
  Lu  Lu3  1  0.309059  0.690864  0.999930  1
  Lu  Lu4  1  0.193659  0.430676  0.237016  1
  Lu  Lu5  1  0.806341  0.569324  0.762984  1
  Lu  Lu6  1  0.193638  0.956693  0.763056  1
  Lu  Lu7  1  0.956777  0.193573  0.763230  1
  Lu  Lu8  1  0.806362  0.043307  0.236944  1
  Lu  Lu9  1  0.043223  0.806427  0.236770  1
  Lu  Lu10  1  0.430344  0.193573  0.236795  1
  Lu  Lu11  1  0.569656  0.806427  0.763205  1
  Mn  Mn12  1  0.385773  0.385893  0.000120  1
  Mn  Mn13  1  0.614227  0.614107  0.999880  1
  Sn  Sn14  1  0.000000  0.500000  0.500000  1
  Sn  Sn15  1  0.500000  0.000000  0.500000  1
  Ir  Ir16  1  0.000000  0.000000  0.000000  1
