# generated using pymatgen
data_CCl31
_symmetry_space_group_name_H-M   'P 1'
_cell_length_a   7.49043800
_cell_length_b   8.61829865
_cell_length_c   17.07018100
_cell_angle_alpha   80.71571633
_cell_angle_beta   90.00000000
_cell_angle_gamma   90.00000000
_symmetry_Int_Tables_number   1
_chemical_formula_structural   CCl31
_chemical_formula_sum   'C1 Cl31'
_cell_volume   1087.52695870
_cell_formula_units_Z   1
loop_
 _symmetry_equiv_pos_site_id
 _symmetry_equiv_pos_as_xyz
  1  'x, y, z'
loop_
 _atom_site_type_symbol
 _atom_site_label
 _atom_site_symmetry_multiplicity
 _atom_site_fract_x
 _atom_site_fract_y
 _atom_site_fract_z
 _atom_site_occupancy
  C  C0  1  0.750000  0.868244  0.150818  1
  Cl  Cl1  1  0.750000  0.422460  0.341281  1
  Cl  Cl2  1  0.250000  0.573336  0.651587  1
  Cl  Cl3  1  0.250000  0.158266  0.851001  1
  Cl  Cl4  1  0.250000  0.374043  0.153580  1
  Cl  Cl5  1  0.750000  0.899242  0.789540  1
  Cl  Cl6  1  0.750000  0.877457  0.254080  1
  Cl  Cl7  1  0.556673  0.767239  0.126327  1
  Cl  Cl8  1  0.250000  0.624865  0.306692  1
  Cl  Cl9  1  0.514041  0.742769  0.607767  1
  Cl  Cl10  1  0.250000  0.638361  0.773884  1
  Cl  Cl11  1  0.250000  0.124415  0.431706  1
  Cl  Cl12  1  0.750000  0.542310  0.450391  1
  Cl  Cl13  1  0.503702  0.264015  0.901701  1
  Cl  Cl14  1  0.250000  0.819719  0.945705  1
  Cl  Cl15  1  0.750000  0.332459  0.224711  1
  Cl  Cl16  1  0.485616  0.258636  0.390081  1
  Cl  Cl17  1  0.750000  0.180740  0.652263  1
  Cl  Cl18  1  0.250000  0.830102  0.346342  1
  Cl  Cl19  1  0.014384  0.258636  0.390081  1
  Cl  Cl20  1  0.750000  0.879509  0.568789  1
  Cl  Cl21  1  0.943327  0.767239  0.126327  1
  Cl  Cl22  1  0.250000  0.142379  0.192841  1
  Cl  Cl23  1  0.750000  0.061071  0.095480  1
  Cl  Cl24  1  0.750000  0.685917  0.857618  1
  Cl  Cl25  1  0.750000  0.384583  0.693129  1
  Cl  Cl26  1  0.250000  0.599455  0.006228  1
  Cl  Cl27  1  0.985959  0.742769  0.607767  1
  Cl  Cl28  1  0.750000  0.362142  0.953876  1
  Cl  Cl29  1  0.250000  0.474435  0.536283  1
  Cl  Cl30  1  0.250000  0.079171  0.720428  1
  Cl  Cl31  1  0.996298  0.264015  0.901701  1
