# generated using pymatgen
data_Tb3Y17(GaBi2)4
_symmetry_space_group_name_H-M   'P 1'
_cell_length_a   12.13044814
_cell_length_b   9.34324600
_cell_length_c   8.12002310
_cell_angle_alpha   90.00000000
_cell_angle_beta   90.01762170
_cell_angle_gamma   90.00000000
_symmetry_Int_Tables_number   1
_chemical_formula_structural   Tb3Y17(GaBi2)4
_chemical_formula_sum   'Tb3 Y17 Ga4 Bi8'
_cell_volume   920.30519421
_cell_formula_units_Z   1
loop_
 _symmetry_equiv_pos_site_id
 _symmetry_equiv_pos_as_xyz
  1  'x, y, z'
loop_
 _atom_site_type_symbol
 _atom_site_label
 _atom_site_symmetry_multiplicity
 _atom_site_fract_x
 _atom_site_fract_y
 _atom_site_fract_z
 _atom_site_occupancy
  Tb  Tb0  1  0.715526  0.250000  0.671661  1
  Tb  Tb1  1  0.215081  0.250000  0.828814  1
  Tb  Tb2  1  0.284591  0.750000  0.328643  1
  Y  Y3  1  0.563482  0.052111  0.318716  1
  Y  Y4  1  0.063454  0.447681  0.181266  1
  Y  Y5  1  0.436630  0.552380  0.681205  1
  Y  Y6  1  0.936532  0.947486  0.818646  1
  Y  Y7  1  0.436630  0.947620  0.681205  1
  Y  Y8  1  0.936532  0.552514  0.818646  1
  Y  Y9  1  0.563482  0.447889  0.318716  1
  Y  Y10  1  0.063454  0.052319  0.181266  1
  Y  Y11  1  0.784742  0.750000  0.171120  1
  Y  Y12  1  0.502599  0.250000  0.962740  1
  Y  Y13  1  0.002502  0.250000  0.537176  1
  Y  Y14  1  0.497323  0.750000  0.037410  1
  Y  Y15  1  0.997639  0.750000  0.462678  1
  Y  Y16  1  0.794621  0.250000  0.143934  1
  Y  Y17  1  0.294773  0.250000  0.356224  1
  Y  Y18  1  0.205220  0.750000  0.855997  1
  Y  Y19  1  0.705341  0.750000  0.643896  1
  Ga  Ga20  1  0.975292  0.250000  0.907397  1
  Ga  Ga21  1  0.475408  0.250000  0.592540  1
  Ga  Ga22  1  0.024381  0.750000  0.092214  1
  Ga  Ga23  1  0.524552  0.750000  0.407722  1
  Bi  Bi24  1  0.825113  0.008820  0.436653  1
  Bi  Bi25  1  0.325113  0.490938  0.063135  1
  Bi  Bi26  1  0.174885  0.509084  0.563268  1
  Bi  Bi27  1  0.674996  0.990572  0.937029  1
  Bi  Bi28  1  0.174885  0.990916  0.563268  1
  Bi  Bi29  1  0.674996  0.509428  0.937029  1
  Bi  Bi30  1  0.825113  0.491180  0.436653  1
  Bi  Bi31  1  0.325113  0.009062  0.063135  1
