# generated using pymatgen
data_Tb6Dy10Cd4Ir3Rh
_symmetry_space_group_name_H-M   'P 1'
_cell_length_a   9.65037634
_cell_length_b   9.65037697
_cell_length_c   9.65037621
_cell_angle_alpha   60.04683238
_cell_angle_beta   60.04682926
_cell_angle_gamma   60.04683444
_symmetry_Int_Tables_number   1
_chemical_formula_structural   Tb6Dy10Cd4Ir3Rh
_chemical_formula_sum   'Tb6 Dy10 Cd4 Ir3 Rh1'
_cell_volume   636.17782590
_cell_formula_units_Z   1
loop_
 _symmetry_equiv_pos_site_id
 _symmetry_equiv_pos_as_xyz
  1  'x, y, z'
loop_
 _atom_site_type_symbol
 _atom_site_label
 _atom_site_symmetry_multiplicity
 _atom_site_fract_x
 _atom_site_fract_y
 _atom_site_fract_z
 _atom_site_occupancy
  Tb  Tb0  1  0.189193  0.811800  0.811800  1
  Tb  Tb1  1  0.812724  0.187855  0.187855  1
  Tb  Tb2  1  0.811800  0.189193  0.811800  1
  Tb  Tb3  1  0.187855  0.812724  0.187855  1
  Tb  Tb4  1  0.811800  0.811800  0.189193  1
  Tb  Tb5  1  0.187855  0.187855  0.812724  1
  Dy  Dy6  1  0.598020  0.598020  0.598020  1
  Dy  Dy7  1  0.599891  0.599891  0.203012  1
  Dy  Dy8  1  0.599891  0.203012  0.599891  1
  Dy  Dy9  1  0.203012  0.599891  0.599891  1
  Dy  Dy10  1  0.059136  0.439180  0.439180  1
  Dy  Dy11  1  0.437823  0.060863  0.060863  1
  Dy  Dy12  1  0.439180  0.059136  0.439180  1
  Dy  Dy13  1  0.060863  0.437823  0.060863  1
  Dy  Dy14  1  0.439180  0.439180  0.059136  1
  Dy  Dy15  1  0.060863  0.060863  0.437823  1
  Cd  Cd16  1  0.830491  0.830491  0.830491  1
  Cd  Cd17  1  0.830912  0.830912  0.506763  1
  Cd  Cd18  1  0.830912  0.506763  0.830912  1
  Cd  Cd19  1  0.506763  0.830912  0.830912  1
  Ir  Ir20  1  0.392610  0.392610  0.824913  1
  Ir  Ir21  1  0.392610  0.824913  0.392610  1
  Ir  Ir22  1  0.824913  0.392610  0.392610  1
  Rh  Rh23  1  0.391706  0.391706  0.391706  1
