# generated using pymatgen
data_YbYHoGa9Pd2
_symmetry_space_group_name_H-M   'P 1'
_cell_length_a   8.14349534
_cell_length_b   8.14349447
_cell_length_c   8.14349505
_cell_angle_alpha   149.10006332
_cell_angle_beta   109.04785141
_cell_angle_gamma   79.37249525
_symmetry_Int_Tables_number   1
_chemical_formula_structural   YbYHoGa9Pd2
_chemical_formula_sum   'Yb1 Y1 Ho1 Ga9 Pd2'
_cell_volume   257.01569411
_cell_formula_units_Z   1
loop_
 _symmetry_equiv_pos_site_id
 _symmetry_equiv_pos_as_xyz
  1  'x, y, z'
loop_
 _atom_site_type_symbol
 _atom_site_label
 _atom_site_symmetry_multiplicity
 _atom_site_fract_x
 _atom_site_fract_y
 _atom_site_fract_z
 _atom_site_occupancy
  Yb  Yb0  1  0.200158  0.200158  0.000000  1
  Y  Y1  1  0.500077  0.500077  0.000000  1
  Ho  Ho2  1  0.799197  0.799197  0.000000  1
  Ga  Ga3  1  0.644157  0.362142  0.282015  1
  Ga  Ga4  1  0.356385  0.639530  0.716854  1
  Ga  Ga5  1  0.080128  0.362142  0.717985  1
  Ga  Ga6  1  0.922675  0.639530  0.283146  1
  Ga  Ga7  1  0.522091  0.155302  0.366789  1
  Ga  Ga8  1  0.477357  0.842715  0.634643  1
  Ga  Ga9  1  0.788514  0.155302  0.633211  1
  Ga  Ga10  1  0.208072  0.842715  0.365357  1
  Ga  Ga11  1  0.000116  0.500116  0.500000  1
  Pd  Pd12  1  0.182718  0.000537  0.182182  1
  Pd  Pd13  1  0.818356  0.000537  0.817818  1
