# generated using pymatgen
data_Tb2Y8OsRu3
_symmetry_space_group_name_H-M   'P 1'
_cell_length_a   6.37652655
_cell_length_b   7.32867777
_cell_length_c   8.51895000
_cell_angle_alpha   96.67263658
_cell_angle_beta   112.10129951
_cell_angle_gamma   89.92710377
_symmetry_Int_Tables_number   1
_chemical_formula_structural   Tb2Y8OsRu3
_chemical_formula_sum   'Tb2 Y8 Os1 Ru3'
_cell_volume   365.96237059
_cell_formula_units_Z   1
loop_
 _symmetry_equiv_pos_site_id
 _symmetry_equiv_pos_as_xyz
  1  'x, y, z'
loop_
 _atom_site_type_symbol
 _atom_site_label
 _atom_site_symmetry_multiplicity
 _atom_site_fract_x
 _atom_site_fract_y
 _atom_site_fract_z
 _atom_site_occupancy
  Tb  Tb0  1  0.421544  0.749038  0.999764  1
  Tb  Tb1  1  0.579151  0.250775  0.000445  1
  Y  Y2  1  0.979232  0.916277  0.186143  1
  Y  Y3  1  0.793124  0.584963  0.815942  1
  Y  Y4  1  0.020880  0.084887  0.814094  1
  Y  Y5  1  0.208180  0.415524  0.186475  1
  Y  Y6  1  0.640913  0.814508  0.434189  1
  Y  Y7  1  0.204096  0.683519  0.563842  1
  Y  Y8  1  0.360102  0.184622  0.565382  1
  Y  Y9  1  0.793463  0.315718  0.434900  1
  Os  Os10  1  0.821246  0.576410  0.218298  1
  Ru  Ru11  1  0.602487  0.925611  0.780280  1
  Ru  Ru12  1  0.178031  0.423733  0.781365  1
  Ru  Ru13  1  0.397551  0.074416  0.218880  1
