# generated using pymatgen
data_Ba4Sr2Pr2Al3GaO15
_symmetry_space_group_name_H-M   'P 1'
_cell_length_a   11.62025784
_cell_length_b   11.62025888
_cell_length_c   6.99678500
_cell_angle_alpha   89.77470678
_cell_angle_beta   89.77470183
_cell_angle_gamma   119.86863140
_symmetry_Int_Tables_number   1
_chemical_formula_structural   Ba4Sr2Pr2Al3GaO15
_chemical_formula_sum   'Ba8 Sr4 Pr4 Al6 Ga2 O30'
_cell_volume   819.25807622
_cell_formula_units_Z   2
loop_
 _symmetry_equiv_pos_site_id
 _symmetry_equiv_pos_as_xyz
  1  'x, y, z'
loop_
 _atom_site_type_symbol
 _atom_site_label
 _atom_site_symmetry_multiplicity
 _atom_site_fract_x
 _atom_site_fract_y
 _atom_site_fract_z
 _atom_site_occupancy
  Ba  Ba0  1  0.830542  0.170701  0.333342  1
  Ba  Ba1  1  0.833818  0.660354  0.327515  1
  Ba  Ba2  1  0.338232  0.166465  0.334771  1
  Ba  Ba3  1  0.170701  0.830542  0.833342  1
  Ba  Ba4  1  0.166465  0.338232  0.834771  1
  Ba  Ba5  1  0.660354  0.833818  0.827515  1
  Ba  Ba6  1  0.669221  0.332421  0.018683  1
  Ba  Ba7  1  0.332421  0.669221  0.518683  1
  Sr  Sr8  1  0.999905  0.999930  0.524476  1
  Sr  Sr9  1  0.999930  0.999905  0.024476  1
  Sr  Sr10  1  0.519864  0.041152  0.662987  1
  Sr  Sr11  1  0.041152  0.519864  0.162987  1
  Pr  Pr12  1  0.521200  0.479061  0.661934  1
  Pr  Pr13  1  0.957174  0.479006  0.664479  1
  Pr  Pr14  1  0.479061  0.521200  0.161934  1
  Pr  Pr15  1  0.479006  0.957174  0.164479  1
  Al  Al16  1  0.819810  0.176913  0.836758  1
  Al  Al17  1  0.820774  0.645468  0.834146  1
  Al  Al18  1  0.358010  0.179413  0.839965  1
  Al  Al19  1  0.176913  0.819810  0.336758  1
  Al  Al20  1  0.179413  0.358010  0.339965  1
  Al  Al21  1  0.645468  0.820774  0.334146  1
  Ga  Ga22  1  0.663552  0.329481  0.474697  1
  Ga  Ga23  1  0.329481  0.663552  0.974697  1
  O  O24  1  0.069888  0.679590  0.478884  1
  O  O25  1  0.326433  0.395060  0.466852  1
  O  O26  1  0.606105  0.928201  0.458286  1
  O  O27  1  0.072431  0.392154  0.479058  1
  O  O28  1  0.322036  0.930363  0.460580  1
  O  O29  1  0.606049  0.673690  0.464867  1
  O  O30  1  0.930363  0.322036  0.960580  1
  O  O31  1  0.673690  0.606049  0.964867  1
  O  O32  1  0.392154  0.072431  0.979058  1
  O  O33  1  0.928201  0.606105  0.958286  1
  O  O34  1  0.679590  0.069888  0.978884  1
  O  O35  1  0.395060  0.326433  0.966852  1
  O  O36  1  0.581125  0.417181  0.337121  1
  O  O37  1  0.582672  0.167824  0.329241  1
  O  O38  1  0.831371  0.416250  0.345448  1
  O  O39  1  0.417181  0.581125  0.837121  1
  O  O40  1  0.416250  0.831371  0.845448  1
  O  O41  1  0.167824  0.582672  0.829241  1
  O  O42  1  0.092217  0.899901  0.246657  1
  O  O43  1  0.097387  0.193513  0.251110  1
  O  O44  1  0.811682  0.902032  0.252061  1
  O  O45  1  0.899901  0.092217  0.746657  1
  O  O46  1  0.902032  0.811682  0.752061  1
  O  O47  1  0.193513  0.097387  0.751110  1
  O  O48  1  0.755082  0.248575  0.665572  1
  O  O49  1  0.752613  0.512607  0.660343  1
  O  O50  1  0.492334  0.251166  0.664367  1
  O  O51  1  0.248575  0.755082  0.165572  1
  O  O52  1  0.251166  0.492334  0.164367  1
  O  O53  1  0.512607  0.752613  0.160343  1
