# generated using pymatgen
data_Yb4AlAg4Ge3
_symmetry_space_group_name_H-M   'P 1'
_cell_length_a   5.76200873
_cell_length_b   5.76200722
_cell_length_c   10.55752600
_cell_angle_alpha   83.62973512
_cell_angle_beta   83.62973679
_cell_angle_gamma   46.95533888
_symmetry_Int_Tables_number   1
_chemical_formula_structural   Yb4AlAg4Ge3
_chemical_formula_sum   'Yb4 Al1 Ag4 Ge3'
_cell_volume   254.28479306
_cell_formula_units_Z   1
loop_
 _symmetry_equiv_pos_site_id
 _symmetry_equiv_pos_as_xyz
  1  'x, y, z'
loop_
 _atom_site_type_symbol
 _atom_site_label
 _atom_site_symmetry_multiplicity
 _atom_site_fract_x
 _atom_site_fract_y
 _atom_site_fract_z
 _atom_site_occupancy
  Yb  Yb0  1  0.680540  0.680540  0.677789  1
  Yb  Yb1  1  0.184114  0.184114  0.187238  1
  Yb  Yb2  1  0.400700  0.400700  0.898822  1
  Yb  Yb3  1  0.898984  0.898984  0.398164  1
  Al  Al4  1  0.677422  0.677422  0.986572  1
  Ag  Ag5  1  0.385401  0.385401  0.607236  1
  Ag  Ag6  1  0.887920  0.887920  0.104849  1
  Ag  Ag7  1  0.111288  0.111288  0.886715  1
  Ag  Ag8  1  0.607024  0.607024  0.388708  1
  Ge  Ge9  1  0.176568  0.176568  0.486936  1
  Ge  Ge10  1  0.984480  0.984480  0.677575  1
  Ge  Ge11  1  0.486758  0.486758  0.180596  1
