# generated using pymatgen
data_Lu2GaCoRu
_symmetry_space_group_name_H-M   'P 1'
_cell_length_a   4.02331376
_cell_length_b   5.36660753
_cell_length_c   5.36660687
_cell_angle_alpha   62.27568684
_cell_angle_beta   67.98514647
_cell_angle_gamma   67.98514616
_symmetry_Int_Tables_number   1
_chemical_formula_structural   Lu2GaCoRu
_chemical_formula_sum   'Lu2 Ga1 Co1 Ru1'
_cell_volume   92.21127973
_cell_formula_units_Z   1
loop_
 _symmetry_equiv_pos_site_id
 _symmetry_equiv_pos_as_xyz
  1  'x, y, z'
loop_
 _atom_site_type_symbol
 _atom_site_label
 _atom_site_symmetry_multiplicity
 _atom_site_fract_x
 _atom_site_fract_y
 _atom_site_fract_z
 _atom_site_occupancy
  Lu  Lu0  1  0.207241  0.286432  0.299084  1
  Lu  Lu1  1  0.792759  0.700916  0.713568  1
  Ga  Ga2  1  0.000000  0.990421  0.009579  1
  Co  Co3  1  0.500000  0.730512  0.269488  1
  Ru  Ru4  1  0.500000  0.291718  0.708282  1
