# generated using pymatgen
data_La5ThU4O20
_symmetry_space_group_name_H-M   'P 1'
_cell_length_a   6.85129834
_cell_length_b   7.78595669
_cell_length_c   8.73298227
_cell_angle_alpha   101.71683265
_cell_angle_beta   97.54912016
_cell_angle_gamma   107.03587072
_symmetry_Int_Tables_number   1
_chemical_formula_structural   La5ThU4O20
_chemical_formula_sum   'La5 Th1 U4 O20'
_cell_volume   426.96925247
_cell_formula_units_Z   1
loop_
 _symmetry_equiv_pos_site_id
 _symmetry_equiv_pos_as_xyz
  1  'x, y, z'
loop_
 _atom_site_type_symbol
 _atom_site_label
 _atom_site_symmetry_multiplicity
 _atom_site_fract_x
 _atom_site_fract_y
 _atom_site_fract_z
 _atom_site_occupancy
  La  La0  1  0.606033  0.700333  0.701743  1
  La  La1  1  0.393967  0.299667  0.298257  1
  La  La2  1  0.200142  0.897179  0.898490  1
  La  La3  1  0.000000  0.500000  0.500000  1
  La  La4  1  0.799858  0.102821  0.101510  1
  Th  Th5  1  0.000000  0.000000  0.500000  1
  U  U6  1  0.399732  0.800964  0.299941  1
  U  U7  1  0.201318  0.403444  0.903459  1
  U  U8  1  0.798682  0.596556  0.096541  1
  U  U9  1  0.600268  0.199036  0.700059  1
  O  O10  1  0.442131  0.535428  0.134412  1
  O  O11  1  0.557703  0.996885  0.836273  1
  O  O12  1  0.269709  0.150685  0.743457  1
  O  O13  1  0.360115  0.600426  0.435963  1
  O  O14  1  0.056908  0.733965  0.329275  1
  O  O15  1  0.442297  0.003115  0.163727  1
  O  O16  1  0.150737  0.192979  0.030292  1
  O  O17  1  0.557869  0.464572  0.865588  1
  O  O18  1  0.852893  0.342657  0.946451  1
  O  O19  1  0.253478  0.601127  0.764588  1
  O  O20  1  0.954355  0.779010  0.647739  1
  O  O21  1  0.353487  0.058289  0.456817  1
  O  O22  1  0.646513  0.941711  0.543183  1
  O  O23  1  0.045645  0.220990  0.352261  1
  O  O24  1  0.746522  0.398873  0.235412  1
  O  O25  1  0.147107  0.657343  0.053549  1
  O  O26  1  0.849263  0.807021  0.969708  1
  O  O27  1  0.943092  0.266035  0.670725  1
  O  O28  1  0.639885  0.399574  0.564037  1
  O  O29  1  0.730291  0.849315  0.256543  1
