# generated using pymatgen
data_Cs3InPbBr6
_symmetry_space_group_name_H-M   'P 1'
_cell_length_a   9.88009580
_cell_length_b   9.88009573
_cell_length_c   9.88009615
_cell_angle_alpha   91.81489753
_cell_angle_beta   91.81489683
_cell_angle_gamma   91.81489950
_symmetry_Int_Tables_number   1
_chemical_formula_structural   Cs3InPbBr6
_chemical_formula_sum   'Cs6 In2 Pb2 Br12'
_cell_volume   962.97550579
_cell_formula_units_Z   2
loop_
 _symmetry_equiv_pos_site_id
 _symmetry_equiv_pos_as_xyz
  1  'x, y, z'
loop_
 _atom_site_type_symbol
 _atom_site_label
 _atom_site_symmetry_multiplicity
 _atom_site_fract_x
 _atom_site_fract_y
 _atom_site_fract_z
 _atom_site_occupancy
  Cs  Cs0  1  0.250000  0.625376  0.874624  1
  Cs  Cs1  1  0.874624  0.250000  0.625376  1
  Cs  Cs2  1  0.625376  0.874624  0.250000  1
  Cs  Cs3  1  0.750000  0.374624  0.125376  1
  Cs  Cs4  1  0.125376  0.750000  0.374624  1
  Cs  Cs5  1  0.374624  0.125376  0.750000  1
  In  In6  1  0.250000  0.250000  0.250000  1
  In  In7  1  0.750000  0.750000  0.750000  1
  Pb  Pb8  1  0.000000  0.000000  0.000000  1
  Pb  Pb9  1  0.500000  0.500000  0.500000  1
  Br  Br10  1  0.548971  0.205026  0.418500  1
  Br  Br11  1  0.418500  0.548971  0.205026  1
  Br  Br12  1  0.205026  0.418500  0.548971  1
  Br  Br13  1  0.951029  0.081500  0.294974  1
  Br  Br14  1  0.294974  0.951029  0.081500  1
  Br  Br15  1  0.081500  0.294974  0.951029  1
  Br  Br16  1  0.451029  0.794974  0.581500  1
  Br  Br17  1  0.581500  0.451029  0.794974  1
  Br  Br18  1  0.794974  0.581500  0.451029  1
  Br  Br19  1  0.048971  0.918500  0.705026  1
  Br  Br20  1  0.918500  0.705026  0.048971  1
  Br  Br21  1  0.705026  0.048971  0.918500  1
