# generated using pymatgen
data_TbHo5Al24(Ir3Ru)2
_symmetry_space_group_name_H-M   'P 1'
_cell_length_a   8.81977000
_cell_length_b   8.81245530
_cell_length_c   9.47836000
_cell_angle_alpha   90.00000000
_cell_angle_beta   90.00000000
_cell_angle_gamma   120.02745382
_symmetry_Int_Tables_number   1
_chemical_formula_structural   TbHo5Al24(Ir3Ru)2
_chemical_formula_sum   'Tb1 Ho5 Al24 Ir6 Ru2'
_cell_volume   637.81952172
_cell_formula_units_Z   1
loop_
 _symmetry_equiv_pos_site_id
 _symmetry_equiv_pos_as_xyz
  1  'x, y, z'
loop_
 _atom_site_type_symbol
 _atom_site_label
 _atom_site_symmetry_multiplicity
 _atom_site_fract_x
 _atom_site_fract_y
 _atom_site_fract_z
 _atom_site_occupancy
  Tb  Tb0  1  0.192163  0.384327  0.750000  1
  Ho  Ho1  1  0.384904  0.192526  0.250000  1
  Ho  Ho2  1  0.807623  0.192526  0.250000  1
  Ho  Ho3  1  0.807514  0.615027  0.250000  1
  Ho  Ho4  1  0.615075  0.807570  0.750000  1
  Ho  Ho5  1  0.192494  0.807570  0.750000  1
  Al  Al6  1  0.437867  0.875732  0.250000  1
  Al  Al7  1  0.124324  0.562080  0.250000  1
  Al  Al8  1  0.437758  0.562080  0.250000  1
  Al  Al9  1  0.562090  0.124181  0.750000  1
  Al  Al10  1  0.875441  0.438002  0.750000  1
  Al  Al11  1  0.562560  0.438002  0.750000  1
  Al  Al12  1  0.163033  0.836959  0.423841  1
  Al  Al13  1  0.163088  0.326178  0.423649  1
  Al  Al14  1  0.673925  0.836959  0.423841  1
  Al  Al15  1  0.836782  0.162905  0.576040  1
  Al  Al16  1  0.836917  0.673832  0.576105  1
  Al  Al17  1  0.326124  0.162905  0.576040  1
  Al  Al18  1  0.836782  0.162905  0.923960  1
  Al  Al19  1  0.836917  0.673832  0.923895  1
  Al  Al20  1  0.326124  0.162905  0.923960  1
  Al  Al21  1  0.163033  0.836959  0.076159  1
  Al  Al22  1  0.163088  0.326178  0.076351  1
  Al  Al23  1  0.673925  0.836959  0.076159  1
  Al  Al24  1  0.333416  0.666833  0.529472  1
  Al  Al25  1  0.666754  0.333506  0.470720  1
  Al  Al26  1  0.666754  0.333506  0.029280  1
  Al  Al27  1  0.333416  0.666833  0.970528  1
  Al  Al28  1  0.999986  0.999971  0.250000  1
  Al  Al29  1  0.999841  0.999681  0.750000  1
  Ir  Ir30  1  0.500151  0.000302  0.499869  1
  Ir  Ir31  1  0.999664  0.500015  0.499728  1
  Ir  Ir32  1  0.500351  0.500015  0.499728  1
  Ir  Ir33  1  0.500151  0.000302  0.000131  1
  Ir  Ir34  1  0.999664  0.500015  0.000272  1
  Ir  Ir35  1  0.500351  0.500015  0.000272  1
  Ru  Ru36  1  0.999977  0.999953  0.499714  1
  Ru  Ru37  1  0.999977  0.999953  0.000286  1
