# generated using pymatgen
data_ZnGaIO6
_symmetry_space_group_name_H-M   'P 1'
_cell_length_a   5.08457100
_cell_length_b   5.08457155
_cell_length_c   4.60559400
_cell_angle_alpha   90.00000000
_cell_angle_beta   90.00000000
_cell_angle_gamma   120.00000293
_symmetry_Int_Tables_number   1
_chemical_formula_structural   ZnGaIO6
_chemical_formula_sum   'Zn1 Ga1 I1 O6'
_cell_volume   103.11573667
_cell_formula_units_Z   1
loop_
 _symmetry_equiv_pos_site_id
 _symmetry_equiv_pos_as_xyz
  1  'x, y, z'
loop_
 _atom_site_type_symbol
 _atom_site_label
 _atom_site_symmetry_multiplicity
 _atom_site_fract_x
 _atom_site_fract_y
 _atom_site_fract_z
 _atom_site_occupancy
  Zn  Zn0  1  0.000000  0.000000  0.000000  1
  Ga  Ga1  1  0.666667  0.333333  0.500000  1
  I  I2  1  0.333333  0.666667  0.500000  1
  O  O3  1  0.637044  0.987527  0.731638  1
  O  O4  1  0.350483  0.362956  0.731638  1
  O  O5  1  0.012473  0.649517  0.731638  1
  O  O6  1  0.350483  0.987527  0.268362  1
  O  O7  1  0.637044  0.649517  0.268362  1
  O  O8  1  0.012473  0.362956  0.268362  1
