# generated using pymatgen
data_Cs3Rb3Ti2(VBr9)2
_symmetry_space_group_name_H-M   'P 1'
_cell_length_a   7.79221800
_cell_length_b   7.79221859
_cell_length_c   19.27295400
_cell_angle_alpha   90.00000000
_cell_angle_beta   90.00000000
_cell_angle_gamma   119.99998900
_symmetry_Int_Tables_number   1
_chemical_formula_structural   Cs3Rb3Ti2(VBr9)2
_chemical_formula_sum   'Cs3 Rb3 Ti2 V2 Br18'
_cell_volume   1013.44733717
_cell_formula_units_Z   1
loop_
 _symmetry_equiv_pos_site_id
 _symmetry_equiv_pos_as_xyz
  1  'x, y, z'
loop_
 _atom_site_type_symbol
 _atom_site_label
 _atom_site_symmetry_multiplicity
 _atom_site_fract_x
 _atom_site_fract_y
 _atom_site_fract_z
 _atom_site_occupancy
  Cs  Cs0  1  0.666667  0.333333  0.572193  1
  Cs  Cs1  1  0.333333  0.666667  0.063218  1
  Cs  Cs2  1  0.333333  0.666667  0.427991  1
  Rb  Rb3  1  0.666667  0.333333  0.940874  1
  Rb  Rb4  1  0.000000  0.000000  0.236091  1
  Rb  Rb5  1  0.000000  0.000000  0.763724  1
  Ti  Ti6  1  0.333333  0.666667  0.663958  1
  Ti  Ti7  1  0.666667  0.333333  0.336184  1
  V  V8  1  0.333333  0.666667  0.832376  1
  V  V9  1  0.666667  0.333333  0.167494  1
  Br  Br10  1  0.823592  0.647184  0.407186  1
  Br  Br11  1  0.176333  0.823667  0.592799  1
  Br  Br12  1  0.647334  0.823667  0.592799  1
  Br  Br13  1  0.823592  0.176408  0.407186  1
  Br  Br14  1  0.352816  0.176408  0.407186  1
  Br  Br15  1  0.176312  0.352624  0.902929  1
  Br  Br16  1  0.025569  0.512784  0.747122  1
  Br  Br17  1  0.647376  0.823688  0.902929  1
  Br  Br18  1  0.822761  0.645522  0.095891  1
  Br  Br19  1  0.176333  0.352666  0.592799  1
  Br  Br20  1  0.487216  0.974431  0.747122  1
  Br  Br21  1  0.512995  0.487005  0.252705  1
  Br  Br22  1  0.487216  0.512784  0.747122  1
  Br  Br23  1  0.176312  0.823688  0.902929  1
  Br  Br24  1  0.354478  0.177239  0.095891  1
  Br  Br25  1  0.974010  0.487005  0.252705  1
  Br  Br26  1  0.512995  0.025990  0.252705  1
  Br  Br27  1  0.822761  0.177239  0.095891  1
