# generated using pymatgen
data_TbZr2WF15
_symmetry_space_group_name_H-M   'P 1'
_cell_length_a   8.22169637
_cell_length_b   8.22169605
_cell_length_c   8.20466300
_cell_angle_alpha   79.80691011
_cell_angle_beta   79.80691051
_cell_angle_gamma   100.12316790
_symmetry_Int_Tables_number   1
_chemical_formula_structural   TbZr2WF15
_chemical_formula_sum   'Tb2 Zr4 W2 F30'
_cell_volume   524.81670217
_cell_formula_units_Z   2
loop_
 _symmetry_equiv_pos_site_id
 _symmetry_equiv_pos_as_xyz
  1  'x, y, z'
loop_
 _atom_site_type_symbol
 _atom_site_label
 _atom_site_symmetry_multiplicity
 _atom_site_fract_x
 _atom_site_fract_y
 _atom_site_fract_z
 _atom_site_occupancy
  Tb  Tb0  1  0.176636  0.823364  0.250000  1
  Tb  Tb1  1  0.823364  0.176636  0.750000  1
  Zr  Zr2  1  0.746908  0.677063  0.675102  1
  Zr  Zr3  1  0.322937  0.253092  0.824898  1
  Zr  Zr4  1  0.253092  0.322937  0.324898  1
  Zr  Zr5  1  0.677063  0.746908  0.175102  1
  W  W6  1  0.750548  0.249452  0.250000  1
  W  W7  1  0.249452  0.750548  0.750000  1
  F  F8  1  0.317078  0.349268  0.054051  1
  F  F9  1  0.933975  0.812615  0.152591  1
  F  F10  1  0.840511  0.459870  0.683360  1
  F  F11  1  0.459870  0.840511  0.183360  1
  F  F12  1  0.812615  0.933975  0.652591  1
  F  F13  1  0.349268  0.317078  0.554050  1
  F  F14  1  0.682922  0.650732  0.945949  1
  F  F15  1  0.066025  0.187385  0.847409  1
  F  F16  1  0.159489  0.540130  0.316640  1
  F  F17  1  0.540130  0.159489  0.816640  1
  F  F18  1  0.187385  0.066025  0.347409  1
  F  F19  1  0.650732  0.682922  0.445949  1
  F  F20  1  0.777886  0.283490  0.998651  1
  F  F21  1  0.005725  0.278235  0.215630  1
  F  F22  1  0.782580  0.505632  0.221613  1
  F  F23  1  0.505632  0.782580  0.721613  1
  F  F24  1  0.278235  0.005725  0.715630  1
  F  F25  1  0.283490  0.777886  0.498651  1
  F  F26  1  0.222114  0.716510  0.001349  1
  F  F27  1  0.994275  0.721765  0.784370  1
  F  F28  1  0.217420  0.494368  0.778387  1
  F  F29  1  0.494368  0.217420  0.278387  1
  F  F30  1  0.721765  0.994275  0.284370  1
  F  F31  1  0.716510  0.222114  0.501349  1
  F  F32  1  0.470412  0.529588  0.250000  1
  F  F33  1  0.746585  0.954534  0.973798  1
  F  F34  1  0.045466  0.253415  0.526202  1
  F  F35  1  0.253415  0.045466  0.026202  1
  F  F36  1  0.954534  0.746585  0.473798  1
  F  F37  1  0.529588  0.470412  0.750000  1
