# generated using pymatgen
data_Er2Be2SiIr5
_symmetry_space_group_name_H-M   'P 1'
_cell_length_a   9.61452400
_cell_length_b   9.61452400
_cell_length_c   3.14058100
_cell_angle_alpha   90.00000000
_cell_angle_beta   90.00000000
_cell_angle_gamma   90.00000000
_symmetry_Int_Tables_number   1
_chemical_formula_structural   Er2Be2SiIr5
_chemical_formula_sum   'Er4 Be4 Si2 Ir10'
_cell_volume   290.31239238
_cell_formula_units_Z   2
loop_
 _symmetry_equiv_pos_site_id
 _symmetry_equiv_pos_as_xyz
  1  'x, y, z'
loop_
 _atom_site_type_symbol
 _atom_site_label
 _atom_site_symmetry_multiplicity
 _atom_site_fract_x
 _atom_site_fract_y
 _atom_site_fract_z
 _atom_site_occupancy
  Er  Er0  1  0.675951  0.824049  0.000000  1
  Er  Er1  1  0.824049  0.324049  0.000000  1
  Er  Er2  1  0.175951  0.675951  0.000000  1
  Er  Er3  1  0.324049  0.175951  0.000000  1
  Be  Be4  1  0.376441  0.876441  0.000000  1
  Be  Be5  1  0.123559  0.376441  0.000000  1
  Be  Be6  1  0.876441  0.623559  0.000000  1
  Be  Be7  1  0.623559  0.123559  0.000000  1
  Si  Si8  1  0.500000  0.500000  0.000000  1
  Si  Si9  1  0.000000  0.000000  0.000000  1
  Ir  Ir10  1  0.500000  0.000000  0.500000  1
  Ir  Ir11  1  0.564821  0.293281  0.500000  1
  Ir  Ir12  1  0.706719  0.564821  0.500000  1
  Ir  Ir13  1  0.293281  0.435179  0.500000  1
  Ir  Ir14  1  0.206719  0.935179  0.500000  1
  Ir  Ir15  1  0.000000  0.500000  0.500000  1
  Ir  Ir16  1  0.064821  0.206719  0.500000  1
  Ir  Ir17  1  0.793281  0.064821  0.500000  1
  Ir  Ir18  1  0.935179  0.793281  0.500000  1
  Ir  Ir19  1  0.435179  0.706719  0.500000  1
