# generated using pymatgen
data_CdGaAsO5
_symmetry_space_group_name_H-M   'P 1'
_cell_length_a   11.25116700
_cell_length_b   5.84785762
_cell_length_c   7.78477443
_cell_angle_alpha   82.89872993
_cell_angle_beta   90.00000000
_cell_angle_gamma   90.00000000
_symmetry_Int_Tables_number   1
_chemical_formula_structural   CdGaAsO5
_chemical_formula_sum   'Cd4 Ga4 As4 O20'
_cell_volume   508.27197474
_cell_formula_units_Z   4
loop_
 _symmetry_equiv_pos_site_id
 _symmetry_equiv_pos_as_xyz
  1  'x, y, z'
loop_
 _atom_site_type_symbol
 _atom_site_label
 _atom_site_symmetry_multiplicity
 _atom_site_fract_x
 _atom_site_fract_y
 _atom_site_fract_z
 _atom_site_occupancy
  Cd  Cd0  1  0.647008  0.606379  0.475608  1
  Cd  Cd1  1  0.852992  0.106379  0.475608  1
  Cd  Cd2  1  0.352992  0.393621  0.524392  1
  Cd  Cd3  1  0.147008  0.893621  0.524392  1
  Ga  Ga4  1  0.323976  0.936044  0.865132  1
  Ga  Ga5  1  0.676024  0.063956  0.134868  1
  Ga  Ga6  1  0.176024  0.436044  0.865132  1
  Ga  Ga7  1  0.823976  0.563956  0.134868  1
  As  As8  1  0.403947  0.925417  0.267520  1
  As  As9  1  0.903947  0.574583  0.732480  1
  As  As10  1  0.096053  0.425417  0.267520  1
  As  As11  1  0.596053  0.074583  0.732480  1
  O  O12  1  0.808788  0.625410  0.896327  1
  O  O13  1  0.539932  0.332624  0.635931  1
  O  O14  1  0.765488  0.281416  0.232286  1
  O  O15  1  0.516677  0.111097  0.193430  1
  O  O16  1  0.265488  0.218584  0.767714  1
  O  O17  1  0.177343  0.552916  0.416476  1
  O  O18  1  0.460068  0.667376  0.364069  1
  O  O19  1  0.039932  0.167376  0.364069  1
  O  O20  1  0.822657  0.447084  0.583524  1
  O  O21  1  0.483323  0.888903  0.806570  1
  O  O22  1  0.691212  0.125410  0.896327  1
  O  O23  1  0.191212  0.374590  0.103673  1
  O  O24  1  0.322657  0.052916  0.416476  1
  O  O25  1  0.983323  0.611097  0.193430  1
  O  O26  1  0.308788  0.874590  0.103673  1
  O  O27  1  0.677343  0.947084  0.583524  1
  O  O28  1  0.234512  0.718584  0.767714  1
  O  O29  1  0.734512  0.781416  0.232286  1
  O  O30  1  0.960068  0.832624  0.635931  1
  O  O31  1  0.016677  0.388903  0.806570  1
