# generated using pymatgen
data_Ho7LuMg2(SiB4)4
_symmetry_space_group_name_H-M   'P 1'
_cell_length_a   7.14217600
_cell_length_b   7.14217600
_cell_length_c   7.78165800
_cell_angle_alpha   90.00000000
_cell_angle_beta   90.00000000
_cell_angle_gamma   89.99586056
_symmetry_Int_Tables_number   1
_chemical_formula_structural   Ho7LuMg2(SiB4)4
_chemical_formula_sum   'Ho7 Lu1 Mg2 Si4 B16'
_cell_volume   396.94765014
_cell_formula_units_Z   1
loop_
 _symmetry_equiv_pos_site_id
 _symmetry_equiv_pos_as_xyz
  1  'x, y, z'
loop_
 _atom_site_type_symbol
 _atom_site_label
 _atom_site_symmetry_multiplicity
 _atom_site_fract_x
 _atom_site_fract_y
 _atom_site_fract_z
 _atom_site_occupancy
  Ho  Ho0  1  0.317707  0.817707  0.767288  1
  Ho  Ho1  1  0.317760  0.817760  0.232764  1
  Ho  Ho2  1  0.817501  0.682413  0.232679  1
  Ho  Ho3  1  0.817500  0.682371  0.767160  1
  Ho  Ho4  1  0.682476  0.182476  0.767518  1
  Ho  Ho5  1  0.182371  0.317500  0.767160  1
  Ho  Ho6  1  0.182413  0.317501  0.232679  1
  Lu  Lu7  1  0.682227  0.182227  0.229901  1
  Mg  Mg8  1  0.999102  0.000482  0.499318  1
  Mg  Mg9  1  0.500482  0.499102  0.499318  1
  Si  Si10  1  0.114878  0.614878  0.499800  1
  Si  Si11  1  0.883746  0.383746  0.498639  1
  Si  Si12  1  0.385765  0.115929  0.498993  1
  Si  Si13  1  0.615929  0.885765  0.498993  1
  B  B14  1  0.173711  0.039714  0.000439  1
  B  B15  1  0.825810  0.961032  0.000614  1
  B  B16  1  0.960027  0.174135  0.000419  1
  B  B17  1  0.326353  0.539303  0.000362  1
  B  B18  1  0.039303  0.826353  0.000362  1
  B  B19  1  0.674135  0.460027  0.000419  1
  B  B20  1  0.539714  0.673711  0.000439  1
  B  B21  1  0.461032  0.325810  0.000614  1
  B  B22  1  0.088955  0.588955  0.000288  1
  B  B23  1  0.911014  0.411014  0.000190  1
  B  B24  1  0.411359  0.088987  0.000882  1
  B  B25  1  0.588987  0.911359  0.000882  1
  B  B26  1  0.999095  0.000517  0.164852  1
  B  B27  1  0.999950  0.000181  0.836087  1
  B  B28  1  0.500181  0.499950  0.836087  1
  B  B29  1  0.500517  0.499095  0.164852  1
