# generated using pymatgen
data_Dy5Ti2Co12P12Ru5
_symmetry_space_group_name_H-M   'P 1'
_cell_length_a   12.28062503
_cell_length_b   12.28558965
_cell_length_c   3.73579700
_cell_angle_alpha   90.00000000
_cell_angle_beta   90.00000000
_cell_angle_gamma   119.80566391
_symmetry_Int_Tables_number   1
_chemical_formula_structural   Dy5Ti2Co12P12Ru5
_chemical_formula_sum   'Dy5 Ti2 Co12 P12 Ru5'
_cell_volume   489.07730678
_cell_formula_units_Z   1
loop_
 _symmetry_equiv_pos_site_id
 _symmetry_equiv_pos_as_xyz
  1  'x, y, z'
loop_
 _atom_site_type_symbol
 _atom_site_label
 _atom_site_symmetry_multiplicity
 _atom_site_fract_x
 _atom_site_fract_y
 _atom_site_fract_z
 _atom_site_occupancy
  Dy  Dy0  1  0.666244  0.333951  0.000000  1
  Dy  Dy1  1  0.335834  0.667166  0.000000  1
  Dy  Dy2  1  0.182814  0.181264  0.500000  1
  Dy  Dy3  1  0.816863  0.998246  0.500000  1
  Dy  Dy4  1  0.999163  0.816489  0.500000  1
  Ti  Ti5  1  0.559655  0.563059  0.000000  1
  Ti  Ti6  1  0.439257  0.999122  0.000000  1
  Co  Co7  1  0.830716  0.198712  0.000000  1
  Co  Co8  1  0.800133  0.628621  0.000000  1
  Co  Co9  1  0.370270  0.171604  0.000000  1
  Co  Co10  1  0.199564  0.825565  0.000000  1
  Co  Co11  1  0.625593  0.804179  0.000000  1
  Co  Co12  1  0.176405  0.373657  0.000000  1
  Co  Co13  1  0.518119  0.871212  0.500000  1
  Co  Co14  1  0.352471  0.485289  0.500000  1
  Co  Co15  1  0.717757  0.720814  0.500000  1
  Co  Co16  1  0.279847  0.997714  0.500000  1
  Co  Co17  1  0.003605  0.282619  0.500000  1
  Co  Co18  1  0.000171  0.000807  0.000000  1
  P  P19  1  0.355597  0.362079  0.000000  1
  P  P20  1  0.639906  0.996859  0.000000  1
  P  P21  1  0.000581  0.636611  0.000000  1
  P  P22  1  0.839619  0.314092  0.500000  1
  P  P23  1  0.683554  0.522699  0.500000  1
  P  P24  1  0.475904  0.163152  0.500000  1
  P  P25  1  0.317419  0.836053  0.500000  1
  P  P26  1  0.521208  0.689745  0.500000  1
  P  P27  1  0.166514  0.476331  0.500000  1
  P  P28  1  0.819674  0.820280  0.000000  1
  P  P29  1  0.179171  0.998013  0.000000  1
  P  P30  1  0.001898  0.180383  0.000000  1
  Ru  Ru31  1  0.001200  0.443524  0.000000  1
  Ru  Ru32  1  0.648081  0.123433  0.500000  1
  Ru  Ru33  1  0.872330  0.517782  0.500000  1
  Ru  Ru34  1  0.473712  0.354810  0.500000  1
  Ru  Ru35  1  0.129152  0.644065  0.500000  1
