# generated using pymatgen
data_DyU7(B6W)4
_symmetry_space_group_name_H-M   'P 1'
_cell_length_a   3.68512800
_cell_length_b   9.29257914
_cell_length_c   11.38557817
_cell_angle_alpha   89.98008059
_cell_angle_beta   90.00000000
_cell_angle_gamma   90.00000000
_symmetry_Int_Tables_number   1
_chemical_formula_structural   DyU7(B6W)4
_chemical_formula_sum   'Dy1 U7 B24 W4'
_cell_volume   389.89162725
_cell_formula_units_Z   1
loop_
 _symmetry_equiv_pos_site_id
 _symmetry_equiv_pos_as_xyz
  1  'x, y, z'
loop_
 _atom_site_type_symbol
 _atom_site_label
 _atom_site_symmetry_multiplicity
 _atom_site_fract_x
 _atom_site_fract_y
 _atom_site_fract_z
 _atom_site_occupancy
  Dy  Dy0  1  0.000000  0.335089  0.407977  1
  U  U1  1  0.000000  0.664540  0.592024  1
  U  U2  1  0.000000  0.834264  0.092594  1
  U  U3  1  0.000000  0.165284  0.907484  1
  U  U4  1  0.000000  0.956713  0.394710  1
  U  U5  1  0.000000  0.044497  0.604720  1
  U  U6  1  0.000000  0.456134  0.105075  1
  U  U7  1  0.000000  0.543805  0.895026  1
  B  B8  1  0.500000  0.552768  0.433630  1
  B  B9  1  0.500000  0.451371  0.568979  1
  B  B10  1  0.500000  0.049521  0.066378  1
  B  B11  1  0.500000  0.950036  0.933001  1
  B  B12  1  0.500000  0.743358  0.424840  1
  B  B13  1  0.500000  0.255433  0.576824  1
  B  B14  1  0.500000  0.243846  0.075621  1
  B  B15  1  0.500000  0.756365  0.924282  1
  B  B16  1  0.500000  0.803868  0.272830  1
  B  B17  1  0.500000  0.196250  0.727667  1
  B  B18  1  0.500000  0.302873  0.225087  1
  B  B19  1  0.500000  0.696226  0.772462  1
  B  B20  1  0.500000  0.644358  0.187463  1
  B  B21  1  0.500000  0.355301  0.812950  1
  B  B22  1  0.500000  0.142855  0.311813  1
  B  B23  1  0.500000  0.855337  0.687390  1
  B  B24  1  0.500000  0.985622  0.218157  1
  B  B25  1  0.500000  0.014341  0.781403  1
  B  B26  1  0.500000  0.487510  0.280070  1
  B  B27  1  0.500000  0.515220  0.718360  1
  B  B28  1  0.500000  0.642330  0.039389  1
  B  B29  1  0.500000  0.358135  0.960781  1
  B  B30  1  0.500000  0.137719  0.461598  1
  B  B31  1  0.500000  0.857662  0.539760  1
  W  W32  1  0.000000  0.648354  0.319205  1
  W  W33  1  0.000000  0.355119  0.682767  1
  W  W34  1  0.000000  0.142926  0.177259  1
  W  W35  1  0.000000  0.854969  0.820423  1
