# generated using pymatgen
data_Yb12Si8PdPt7
_symmetry_space_group_name_H-M   'P 1'
_cell_length_a   5.62722374
_cell_length_b   8.00377290
_cell_length_c   13.13570791
_cell_angle_alpha   89.94387711
_cell_angle_beta   89.87191424
_cell_angle_gamma   90.07845386
_symmetry_Int_Tables_number   1
_chemical_formula_structural   Yb12Si8PdPt7
_chemical_formula_sum   'Yb12 Si8 Pd1 Pt7'
_cell_volume   591.61710431
_cell_formula_units_Z   1
loop_
 _symmetry_equiv_pos_site_id
 _symmetry_equiv_pos_as_xyz
  1  'x, y, z'
loop_
 _atom_site_type_symbol
 _atom_site_label
 _atom_site_symmetry_multiplicity
 _atom_site_fract_x
 _atom_site_fract_y
 _atom_site_fract_z
 _atom_site_occupancy
  Yb  Yb0  1  0.645752  0.245064  0.250518  1
  Yb  Yb1  1  0.355077  0.755152  0.749728  1
  Yb  Yb2  1  0.356592  0.745361  0.250466  1
  Yb  Yb3  1  0.643410  0.254898  0.749914  1
  Yb  Yb4  1  0.138681  0.387664  0.102649  1
  Yb  Yb5  1  0.860077  0.610305  0.897370  1
  Yb  Yb6  1  0.861906  0.610939  0.602444  1
  Yb  Yb7  1  0.862456  0.889124  0.397538  1
  Yb  Yb8  1  0.138832  0.389627  0.397356  1
  Yb  Yb9  1  0.138089  0.111357  0.602742  1
  Yb  Yb10  1  0.137176  0.110675  0.897389  1
  Yb  Yb11  1  0.861848  0.890577  0.102776  1
  Si  Si12  1  0.157682  0.096855  0.250496  1
  Si  Si13  1  0.843809  0.902742  0.749829  1
  Si  Si14  1  0.846251  0.597754  0.250426  1
  Si  Si15  1  0.155428  0.403667  0.750614  1
  Si  Si16  1  0.610618  0.248047  0.998147  1
  Si  Si17  1  0.386440  0.751246  0.998332  1
  Si  Si18  1  0.390892  0.750217  0.500246  1
  Si  Si19  1  0.609103  0.249855  0.500224  1
  Pd  Pd20  1  0.630520  0.529067  0.090532  1
  Pt  Pt21  1  0.369451  0.028705  0.091467  1
  Pt  Pt22  1  0.630158  0.970681  0.908094  1
  Pt  Pt23  1  0.631821  0.971193  0.591369  1
  Pt  Pt24  1  0.632402  0.528820  0.409211  1
  Pt  Pt25  1  0.369106  0.029021  0.409028  1
  Pt  Pt26  1  0.368108  0.470453  0.591424  1
  Pt  Pt27  1  0.368316  0.470930  0.909673  1
