# generated using pymatgen
data_Gd4Dy2CoI10
_symmetry_space_group_name_H-M   'P 1'
_cell_length_a   7.71510117
_cell_length_b   9.73016196
_cell_length_c   9.69997500
_cell_angle_alpha   107.07424962
_cell_angle_beta   104.60586627
_cell_angle_gamma   96.89258483
_symmetry_Int_Tables_number   1
_chemical_formula_structural   Gd4Dy2CoI10
_chemical_formula_sum   'Gd4 Dy2 Co1 I10'
_cell_volume   658.59317246
_cell_formula_units_Z   1
loop_
 _symmetry_equiv_pos_site_id
 _symmetry_equiv_pos_as_xyz
  1  'x, y, z'
loop_
 _atom_site_type_symbol
 _atom_site_label
 _atom_site_symmetry_multiplicity
 _atom_site_fract_x
 _atom_site_fract_y
 _atom_site_fract_z
 _atom_site_occupancy
  Gd  Gd0  1  0.031673  0.919411  0.729417  1
  Gd  Gd1  1  0.968327  0.080589  0.270583  1
  Gd  Gd2  1  0.116793  0.760721  0.043805  1
  Gd  Gd3  1  0.883207  0.239279  0.956195  1
  Dy  Dy4  1  0.657014  0.836407  0.877863  1
  Dy  Dy5  1  0.342986  0.163593  0.122137  1
  Co  Co6  1  0.000000  0.000000  0.000000  1
  I  I7  1  0.646934  0.728133  0.551147  1
  I  I8  1  0.353066  0.271867  0.448853  1
  I  I9  1  0.226854  0.654081  0.744747  1
  I  I10  1  0.773146  0.345919  0.255253  1
  I  I11  1  0.452053  0.091092  0.814931  1
  I  I12  1  0.547947  0.908908  0.185069  1
  I  I13  1  0.260729  0.461074  0.088111  1
  I  I14  1  0.739271  0.538926  0.911889  1
  I  I15  1  0.086713  0.819168  0.372788  1
  I  I16  1  0.913287  0.180832  0.627212  1
