# generated using pymatgen
data_KZnFe(Sb6Os)2
_symmetry_space_group_name_H-M   'P 1'
_cell_length_a   8.16298111
_cell_length_b   8.18552517
_cell_length_c   8.22970646
_cell_angle_alpha   109.71667407
_cell_angle_beta   109.40079339
_cell_angle_gamma   109.40930752
_symmetry_Int_Tables_number   1
_chemical_formula_structural   KZnFe(Sb6Os)2
_chemical_formula_sum   'K1 Zn1 Fe1 Sb12 Os2'
_cell_volume   422.71419689
_cell_formula_units_Z   1
loop_
 _symmetry_equiv_pos_site_id
 _symmetry_equiv_pos_as_xyz
  1  'x, y, z'
loop_
 _atom_site_type_symbol
 _atom_site_label
 _atom_site_symmetry_multiplicity
 _atom_site_fract_x
 _atom_site_fract_y
 _atom_site_fract_z
 _atom_site_occupancy
  K  K0  1  0.000000  0.000000  0.000000  1
  Zn  Zn1  1  0.500000  0.000000  0.000000  1
  Fe  Fe2  1  0.000000  0.000000  0.500000  1
  Sb  Sb3  1  0.844648  0.670372  0.505241  1
  Sb  Sb4  1  0.155352  0.329628  0.494759  1
  Sb  Sb5  1  0.143683  0.641165  0.803079  1
  Sb  Sb6  1  0.856317  0.358835  0.196921  1
  Sb  Sb7  1  0.660920  0.503911  0.842943  1
  Sb  Sb8  1  0.339080  0.496089  0.157057  1
  Sb  Sb9  1  0.671121  0.809739  0.173004  1
  Sb  Sb10  1  0.328879  0.190261  0.826996  1
  Sb  Sb11  1  0.496932  0.839025  0.641360  1
  Sb  Sb12  1  0.503068  0.160975  0.358640  1
  Sb  Sb13  1  0.173953  0.845096  0.340796  1
  Sb  Sb14  1  0.826047  0.154904  0.659204  1
  Os  Os15  1  0.500000  0.500000  0.500000  1
  Os  Os16  1  0.000000  0.500000  0.000000  1
