# generated using pymatgen
data_DyHo(Co5P3)2
_symmetry_space_group_name_H-M   'P 1'
_cell_length_a   3.64694500
_cell_length_b   10.27427000
_cell_length_c   11.72680500
_cell_angle_alpha   90.00000000
_cell_angle_beta   90.00000000
_cell_angle_gamma   90.00000000
_symmetry_Int_Tables_number   1
_chemical_formula_structural   DyHo(Co5P3)2
_chemical_formula_sum   'Dy2 Ho2 Co20 P12'
_cell_volume   439.39983722
_cell_formula_units_Z   2
loop_
 _symmetry_equiv_pos_site_id
 _symmetry_equiv_pos_as_xyz
  1  'x, y, z'
loop_
 _atom_site_type_symbol
 _atom_site_label
 _atom_site_symmetry_multiplicity
 _atom_site_fract_x
 _atom_site_fract_y
 _atom_site_fract_z
 _atom_site_occupancy
  Dy  Dy0  1  0.250000  0.583275  0.702811  1
  Dy  Dy1  1  0.250000  0.916725  0.202811  1
  Ho  Ho2  1  0.750000  0.417271  0.297499  1
  Ho  Ho3  1  0.750000  0.082729  0.797499  1
  Co  Co4  1  0.250000  0.715935  0.990879  1
  Co  Co5  1  0.250000  0.784065  0.490879  1
  Co  Co6  1  0.750000  0.283000  0.008267  1
  Co  Co7  1  0.750000  0.217000  0.508267  1
  Co  Co8  1  0.250000  0.407087  0.487955  1
  Co  Co9  1  0.250000  0.092913  0.987955  1
  Co  Co10  1  0.750000  0.593420  0.511916  1
  Co  Co11  1  0.750000  0.906580  0.011916  1
  Co  Co12  1  0.250000  0.221236  0.176693  1
  Co  Co13  1  0.250000  0.278764  0.676693  1
  Co  Co14  1  0.750000  0.778882  0.823358  1
  Co  Co15  1  0.750000  0.721118  0.323358  1
  Co  Co16  1  0.250000  0.883169  0.698574  1
  Co  Co17  1  0.250000  0.616831  0.198574  1
  Co  Co18  1  0.750000  0.117580  0.301427  1
  Co  Co19  1  0.750000  0.382420  0.801427  1
  Co  Co20  1  0.250000  0.467245  0.931878  1
  Co  Co21  1  0.250000  0.032755  0.431878  1
  Co  Co22  1  0.750000  0.531487  0.068462  1
  Co  Co23  1  0.750000  0.968513  0.568462  1
  P  P24  1  0.250000  0.418130  0.112298  1
  P  P25  1  0.250000  0.081870  0.612298  1
  P  P26  1  0.750000  0.581382  0.888193  1
  P  P27  1  0.750000  0.918618  0.388193  1
  P  P28  1  0.250000  0.270125  0.870227  1
  P  P29  1  0.250000  0.229875  0.370227  1
  P  P30  1  0.750000  0.728793  0.129491  1
  P  P31  1  0.750000  0.771207  0.629491  1
  P  P32  1  0.250000  0.601779  0.391313  1
  P  P33  1  0.250000  0.898221  0.891313  1
  P  P34  1  0.750000  0.398324  0.608760  1
  P  P35  1  0.750000  0.101676  0.108760  1
