# generated using pymatgen
data_Zr4Co17(NiP4)3
_symmetry_space_group_name_H-M   'P 1'
_cell_length_a   3.60538500
_cell_length_b   10.10627398
_cell_length_c   11.68055445
_cell_angle_alpha   89.91197331
_cell_angle_beta   90.00000000
_cell_angle_gamma   90.00000000
_symmetry_Int_Tables_number   1
_chemical_formula_structural   Zr4Co17(NiP4)3
_chemical_formula_sum   'Zr4 Co17 Ni3 P12'
_cell_volume   425.60396075
_cell_formula_units_Z   1
loop_
 _symmetry_equiv_pos_site_id
 _symmetry_equiv_pos_as_xyz
  1  'x, y, z'
loop_
 _atom_site_type_symbol
 _atom_site_label
 _atom_site_symmetry_multiplicity
 _atom_site_fract_x
 _atom_site_fract_y
 _atom_site_fract_z
 _atom_site_occupancy
  Zr  Zr0  1  0.250000  0.579840  0.702836  1
  Zr  Zr1  1  0.250000  0.921253  0.202742  1
  Zr  Zr2  1  0.750000  0.421788  0.298982  1
  Zr  Zr3  1  0.750000  0.079472  0.796750  1
  Co  Co4  1  0.750000  0.218339  0.505716  1
  Co  Co5  1  0.250000  0.409031  0.486006  1
  Co  Co6  1  0.250000  0.090796  0.984367  1
  Co  Co7  1  0.750000  0.590042  0.515676  1
  Co  Co8  1  0.750000  0.909577  0.016317  1
  Co  Co9  1  0.250000  0.224836  0.179932  1
  Co  Co10  1  0.250000  0.276053  0.676345  1
  Co  Co11  1  0.750000  0.775510  0.821749  1
  Co  Co12  1  0.750000  0.723678  0.321164  1
  Co  Co13  1  0.250000  0.881843  0.701005  1
  Co  Co14  1  0.250000  0.618709  0.200282  1
  Co  Co15  1  0.750000  0.117958  0.299956  1
  Co  Co16  1  0.750000  0.380173  0.798699  1
  Co  Co17  1  0.250000  0.465197  0.931064  1
  Co  Co18  1  0.250000  0.033757  0.430344  1
  Co  Co19  1  0.750000  0.533858  0.068539  1
  Co  Co20  1  0.750000  0.966161  0.568319  1
  Ni  Ni21  1  0.250000  0.715553  0.992119  1
  Ni  Ni22  1  0.250000  0.783040  0.493090  1
  Ni  Ni23  1  0.750000  0.284056  0.007644  1
  P  P24  1  0.250000  0.421323  0.115663  1
  P  P25  1  0.250000  0.079054  0.613940  1
  P  P26  1  0.750000  0.578012  0.884283  1
  P  P27  1  0.750000  0.920171  0.384887  1
  P  P28  1  0.250000  0.265173  0.866963  1
  P  P29  1  0.250000  0.234407  0.369638  1
  P  P30  1  0.750000  0.734223  0.132363  1
  P  P31  1  0.750000  0.765846  0.632362  1
  P  P32  1  0.250000  0.601697  0.389788  1
  P  P33  1  0.250000  0.899030  0.890162  1
  P  P34  1  0.750000  0.398829  0.610021  1
  P  P35  1  0.750000  0.101717  0.110286  1
