# generated using pymatgen
data_Tm4Lu8GaCo4Ru
_symmetry_space_group_name_H-M   'P 1'
_cell_length_a   8.07648744
_cell_length_b   8.07051035
_cell_length_c   8.07386316
_cell_angle_alpha   111.07629861
_cell_angle_beta   110.98767977
_cell_angle_gamma   106.40254033
_symmetry_Int_Tables_number   1
_chemical_formula_structural   Tm4Lu8GaCo4Ru
_chemical_formula_sum   'Tm4 Lu8 Ga1 Co4 Ru1'
_cell_volume   404.20240467
_cell_formula_units_Z   1
loop_
 _symmetry_equiv_pos_site_id
 _symmetry_equiv_pos_as_xyz
  1  'x, y, z'
loop_
 _atom_site_type_symbol
 _atom_site_label
 _atom_site_symmetry_multiplicity
 _atom_site_fract_x
 _atom_site_fract_y
 _atom_site_fract_z
 _atom_site_occupancy
  Tm  Tm0  1  0.315597  0.512905  0.196083  1
  Tm  Tm1  1  0.816178  0.221375  0.038072  1
  Tm  Tm2  1  0.817620  0.778859  0.595772  1
  Tm  Tm3  1  0.419650  0.727480  0.692838  1
  Lu  Lu4  1  0.578405  0.271368  0.306696  1
  Lu  Lu5  1  0.183401  0.221103  0.405578  1
  Lu  Lu6  1  0.183285  0.778503  0.961675  1
  Lu  Lu7  1  0.684116  0.487526  0.804293  1
  Lu  Lu8  1  0.684297  0.880113  0.196393  1
  Lu  Lu9  1  0.965045  0.272580  0.691997  1
  Lu  Lu10  1  0.034441  0.728912  0.306405  1
  Lu  Lu11  1  0.315888  0.120858  0.804053  1
  Ga  Ga12  1  0.500192  0.001017  0.500200  1
  Co  Co13  1  0.888584  0.886266  0.002686  1
  Co  Co14  1  0.372138  0.499709  0.871641  1
  Co  Co15  1  0.628194  0.500255  0.127313  1
  Co  Co16  1  0.114782  0.113029  0.001375  1
  Ru  Ru17  1  0.998186  0.498144  0.496929  1
