# generated using pymatgen
data_Li2NpS3
_symmetry_space_group_name_H-M   'P 1'
_cell_length_a   6.67701583
_cell_length_b   6.67701682
_cell_length_c   6.49020359
_cell_angle_alpha   80.09156761
_cell_angle_beta   80.09156719
_cell_angle_gamma   119.93194655
_symmetry_Int_Tables_number   1
_chemical_formula_structural   Li2NpS3
_chemical_formula_sum   'Li4 Np2 S6'
_cell_volume   235.47108520
_cell_formula_units_Z   2
loop_
 _symmetry_equiv_pos_site_id
 _symmetry_equiv_pos_as_xyz
  1  'x, y, z'
loop_
 _atom_site_type_symbol
 _atom_site_label
 _atom_site_symmetry_multiplicity
 _atom_site_fract_x
 _atom_site_fract_y
 _atom_site_fract_z
 _atom_site_occupancy
  Li  Li0  1  0.000000  0.000000  0.000000  1
  Li  Li1  1  0.500000  0.500000  0.500000  1
  Li  Li2  1  0.834845  0.165155  0.500000  1
  Li  Li3  1  0.165155  0.834845  0.500000  1
  Np  Np4  1  0.666711  0.333289  0.000000  1
  Np  Np5  1  0.333289  0.666711  0.000000  1
  S  S6  1  0.258374  0.258374  0.250288  1
  S  S7  1  0.423218  0.082367  0.753056  1
  S  S8  1  0.082367  0.423218  0.753056  1
  S  S9  1  0.741626  0.741626  0.749712  1
  S  S10  1  0.576782  0.917633  0.246944  1
  S  S11  1  0.917633  0.576782  0.246944  1
