# generated using pymatgen
data_TbCe3(Nb3Si4)2
_symmetry_space_group_name_H-M   'P 1'
_cell_length_a   7.10330011
_cell_length_b   7.10686617
_cell_length_c   13.19861000
_cell_angle_alpha   90.00000000
_cell_angle_beta   90.00000000
_cell_angle_gamma   89.83892225
_symmetry_Int_Tables_number   1
_chemical_formula_structural   TbCe3(Nb3Si4)2
_chemical_formula_sum   'Tb2 Ce6 Nb12 Si16'
_cell_volume   666.29227921
_cell_formula_units_Z   2
loop_
 _symmetry_equiv_pos_site_id
 _symmetry_equiv_pos_as_xyz
  1  'x, y, z'
loop_
 _atom_site_type_symbol
 _atom_site_label
 _atom_site_symmetry_multiplicity
 _atom_site_fract_x
 _atom_site_fract_y
 _atom_site_fract_z
 _atom_site_occupancy
  Tb  Tb0  1  0.999981  0.338272  0.216886  1
  Tb  Tb1  1  0.000019  0.661728  0.716886  1
  Ce  Ce2  1  0.164888  0.494363  0.467101  1
  Ce  Ce3  1  0.505286  0.834772  0.032648  1
  Ce  Ce4  1  0.835112  0.505637  0.967101  1
  Ce  Ce5  1  0.494714  0.165228  0.532648  1
  Ce  Ce6  1  0.338112  0.998729  0.783239  1
  Ce  Ce7  1  0.661888  0.001271  0.283239  1
  Nb  Nb8  1  0.169852  0.169678  0.999011  1
  Nb  Nb9  1  0.830148  0.830322  0.499011  1
  Nb  Nb10  1  0.331838  0.669656  0.250431  1
  Nb  Nb11  1  0.668162  0.330344  0.750431  1
  Nb  Nb12  1  0.155920  0.992297  0.375041  1
  Nb  Nb13  1  0.844080  0.007703  0.875041  1
  Nb  Nb14  1  0.506895  0.656398  0.624478  1
  Nb  Nb15  1  0.344575  0.494405  0.876105  1
  Nb  Nb16  1  0.493105  0.343602  0.124478  1
  Nb  Nb17  1  0.655425  0.505595  0.376105  1
  Nb  Nb18  1  0.995146  0.156767  0.625476  1
  Nb  Nb19  1  0.004854  0.843233  0.125476  1
  Si  Si20  1  0.290914  0.041892  0.185396  1
  Si  Si21  1  0.709086  0.958108  0.685396  1
  Si  Si22  1  0.457272  0.792643  0.436545  1
  Si  Si23  1  0.206257  0.541879  0.064259  1
  Si  Si24  1  0.542728  0.207357  0.936545  1
  Si  Si25  1  0.793743  0.458121  0.564259  1
  Si  Si26  1  0.041554  0.295122  0.813419  1
  Si  Si27  1  0.958446  0.704878  0.313419  1
  Si  Si28  1  0.370284  0.294562  0.313743  1
  Si  Si29  1  0.629716  0.705438  0.813743  1
  Si  Si30  1  0.202822  0.869561  0.565875  1
  Si  Si31  1  0.128764  0.796013  0.934611  1
  Si  Si32  1  0.797178  0.130439  0.065875  1
  Si  Si33  1  0.871236  0.203987  0.434611  1
  Si  Si34  1  0.294643  0.373404  0.685735  1
  Si  Si35  1  0.705357  0.626596  0.185735  1
