# generated using pymatgen
data_Y4InB4Pt15
_symmetry_space_group_name_H-M   'P 1'
_cell_length_a   3.99735800
_cell_length_b   3.99735800
_cell_length_c   24.35051000
_cell_angle_alpha   90.00000000
_cell_angle_beta   90.00000000
_cell_angle_gamma   90.00000000
_symmetry_Int_Tables_number   1
_chemical_formula_structural   Y4InB4Pt15
_chemical_formula_sum   'Y4 In1 B4 Pt15'
_cell_volume   389.09365759
_cell_formula_units_Z   1
loop_
 _symmetry_equiv_pos_site_id
 _symmetry_equiv_pos_as_xyz
  1  'x, y, z'
loop_
 _atom_site_type_symbol
 _atom_site_label
 _atom_site_symmetry_multiplicity
 _atom_site_fract_x
 _atom_site_fract_y
 _atom_site_fract_z
 _atom_site_occupancy
  Y  Y0  1  0.000000  0.000000  0.898771  1
  Y  Y1  1  0.000000  0.000000  0.101229  1
  Y  Y2  1  0.000000  0.000000  0.310774  1
  Y  Y3  1  0.000000  0.000000  0.689226  1
  In  In4  1  0.000000  0.000000  0.500000  1
  B  B5  1  0.500000  0.500000  0.163079  1
  B  B6  1  0.500000  0.500000  0.370748  1
  B  B7  1  0.500000  0.500000  0.629252  1
  B  B8  1  0.500000  0.500000  0.836921  1
  Pt  Pt9  1  0.500000  0.500000  0.920822  1
  Pt  Pt10  1  0.500000  0.500000  0.079178  1
  Pt  Pt11  1  0.500000  0.500000  0.285740  1
  Pt  Pt12  1  0.500000  0.500000  0.500000  1
  Pt  Pt13  1  0.500000  0.500000  0.714260  1
  Pt  Pt14  1  0.500000  0.000000  0.000000  1
  Pt  Pt15  1  0.500000  0.000000  0.202976  1
  Pt  Pt16  1  0.500000  0.000000  0.410476  1
  Pt  Pt17  1  0.500000  0.000000  0.589524  1
  Pt  Pt18  1  0.500000  0.000000  0.797024  1
  Pt  Pt19  1  0.000000  0.500000  0.000000  1
  Pt  Pt20  1  0.000000  0.500000  0.202976  1
  Pt  Pt21  1  0.000000  0.500000  0.410476  1
  Pt  Pt22  1  0.000000  0.500000  0.589524  1
  Pt  Pt23  1  0.000000  0.500000  0.797024  1
