# generated using pymatgen
data_Nd12ZnCo4Hg
_symmetry_space_group_name_H-M   'P 1'
_cell_length_a   8.59579312
_cell_length_b   8.59579488
_cell_length_c   8.59579346
_cell_angle_alpha   112.36793387
_cell_angle_beta   108.96946459
_cell_angle_gamma   107.12053940
_symmetry_Int_Tables_number   1
_chemical_formula_structural   Nd12ZnCo4Hg
_chemical_formula_sum   'Nd12 Zn1 Co4 Hg1'
_cell_volume   487.85510437
_cell_formula_units_Z   1
loop_
 _symmetry_equiv_pos_site_id
 _symmetry_equiv_pos_as_xyz
  1  'x, y, z'
loop_
 _atom_site_type_symbol
 _atom_site_label
 _atom_site_symmetry_multiplicity
 _atom_site_fract_x
 _atom_site_fract_y
 _atom_site_fract_z
 _atom_site_occupancy
  Nd  Nd0  1  0.429593  0.232878  0.196714  1
  Nd  Nd1  1  0.570407  0.767122  0.803286  1
  Nd  Nd2  1  0.036162  0.232878  0.803286  1
  Nd  Nd3  1  0.963838  0.767122  0.196714  1
  Nd  Nd4  1  0.178338  0.282846  0.461183  1
  Nd  Nd5  1  0.821662  0.717154  0.538817  1
  Nd  Nd6  1  0.178338  0.717154  0.895493  1
  Nd  Nd7  1  0.821662  0.282846  0.104507  1
  Nd  Nd8  1  0.325349  0.639523  0.314174  1
  Nd  Nd9  1  0.674651  0.360477  0.685826  1
  Nd  Nd10  1  0.325349  0.011174  0.685826  1
  Nd  Nd11  1  0.674651  0.988826  0.314174  1
  Zn  Zn12  1  0.000000  0.000000  0.000000  1
  Co  Co13  1  0.335033  0.000000  0.335033  1
  Co  Co14  1  0.664967  0.000000  0.664967  1
  Co  Co15  1  0.112265  0.612265  0.500000  1
  Co  Co16  1  0.887735  0.387735  0.500000  1
  Hg  Hg17  1  0.500000  0.500000  0.000000  1
