# generated using pymatgen
data_LiHo3Tm13Cd(InCo2)2
_symmetry_space_group_name_H-M   'P 1'
_cell_length_a   9.39390147
_cell_length_b   9.38957162
_cell_length_c   9.37990500
_cell_angle_alpha   59.97489741
_cell_angle_beta   60.00494911
_cell_angle_gamma   60.01176459
_symmetry_Int_Tables_number   1
_chemical_formula_structural   LiHo3Tm13Cd(InCo2)2
_chemical_formula_sum   'Li1 Ho3 Tm13 Cd1 In2 Co4'
_cell_volume   584.98884475
_cell_formula_units_Z   1
loop_
 _symmetry_equiv_pos_site_id
 _symmetry_equiv_pos_as_xyz
  1  'x, y, z'
loop_
 _atom_site_type_symbol
 _atom_site_label
 _atom_site_symmetry_multiplicity
 _atom_site_fract_x
 _atom_site_fract_y
 _atom_site_fract_z
 _atom_site_occupancy
  Li  Li0  1  0.571680  0.571692  0.284816  1
  Ho  Ho1  1  0.560994  0.560187  0.940320  1
  Ho  Ho2  1  0.186598  0.813323  0.187189  1
  Ho  Ho3  1  0.962950  0.345108  0.347101  1
  Tm  Tm4  1  0.935573  0.938634  0.562931  1
  Tm  Tm5  1  0.814253  0.184864  0.186228  1
  Tm  Tm6  1  0.937410  0.563099  0.561951  1
  Tm  Tm7  1  0.939034  0.561204  0.939356  1
  Tm  Tm8  1  0.812814  0.813682  0.186732  1
  Tm  Tm9  1  0.343931  0.343755  0.348081  1
  Tm  Tm10  1  0.560233  0.940973  0.940040  1
  Tm  Tm11  1  0.562710  0.939072  0.562245  1
  Tm  Tm12  1  0.189717  0.810655  0.808808  1
  Tm  Tm13  1  0.189379  0.189656  0.809577  1
  Tm  Tm14  1  0.347410  0.348569  0.955970  1
  Tm  Tm15  1  0.344830  0.962895  0.348283  1
  Tm  Tm16  1  0.811938  0.188475  0.810338  1
  Cd  Cd17  1  0.582988  0.256890  0.576507  1
  In  In18  1  0.255941  0.582272  0.578151  1
  In  In19  1  0.583386  0.582904  0.577353  1
  Co  Co20  1  0.577672  0.142090  0.137080  1
  Co  Co21  1  0.143899  0.141829  0.136600  1
  Co  Co22  1  0.143010  0.577661  0.137088  1
  Co  Co23  1  0.141654  0.140512  0.577264  1
