# generated using pymatgen
data_Tb8InNiHg2
_symmetry_space_group_name_H-M   'P 1'
_cell_length_a   10.35727219
_cell_length_b   10.35727204
_cell_length_c   7.03351168
_cell_angle_alpha   90.04414768
_cell_angle_beta   89.95585269
_cell_angle_gamma   120.05959292
_symmetry_Int_Tables_number   1
_chemical_formula_structural   Tb8InNiHg2
_chemical_formula_sum   'Tb16 In2 Ni2 Hg4'
_cell_volume   653.02880695
_cell_formula_units_Z   2
loop_
 _symmetry_equiv_pos_site_id
 _symmetry_equiv_pos_as_xyz
  1  'x, y, z'
loop_
 _atom_site_type_symbol
 _atom_site_label
 _atom_site_symmetry_multiplicity
 _atom_site_fract_x
 _atom_site_fract_y
 _atom_site_fract_z
 _atom_site_occupancy
  Tb  Tb0  1  0.465698  0.534302  0.481528  1
  Tb  Tb1  1  0.070129  0.537718  0.476833  1
  Tb  Tb2  1  0.462282  0.929871  0.476833  1
  Tb  Tb3  1  0.533995  0.466005  0.980715  1
  Tb  Tb4  1  0.926038  0.459078  0.981049  1
  Tb  Tb5  1  0.540922  0.073962  0.981049  1
  Tb  Tb6  1  0.828628  0.171372  0.285529  1
  Tb  Tb7  1  0.344618  0.173298  0.269673  1
  Tb  Tb8  1  0.826702  0.655382  0.269673  1
  Tb  Tb9  1  0.177491  0.822509  0.788060  1
  Tb  Tb10  1  0.650673  0.830441  0.782740  1
  Tb  Tb11  1  0.169559  0.349327  0.782740  1
  Tb  Tb12  1  0.334413  0.665587  0.097912  1
  Tb  Tb13  1  0.668439  0.331561  0.592686  1
  Tb  Tb14  1  0.002205  0.997795  0.498053  1
  Tb  Tb15  1  0.000187  0.999813  0.994750  1
  In  In16  1  0.327393  0.163984  0.732559  1
  In  In17  1  0.836016  0.672607  0.732559  1
  Ni  Ni18  1  0.334093  0.665907  0.712467  1
  Ni  Ni19  1  0.666529  0.333471  0.211731  1
  Hg  Hg20  1  0.165394  0.834606  0.229288  1
  Hg  Hg21  1  0.668275  0.833997  0.229263  1
  Hg  Hg22  1  0.166003  0.331725  0.229263  1
  Hg  Hg23  1  0.834316  0.165684  0.727595  1
