# generated using pymatgen
data_CaY3Er2(Si3Ru)8
_symmetry_space_group_name_H-M   'P 1'
_cell_length_a   10.12702256
_cell_length_b   10.12702229
_cell_length_c   8.13587218
_cell_angle_alpha   89.91210881
_cell_angle_beta   90.08789564
_cell_angle_gamma   132.62960288
_symmetry_Int_Tables_number   1
_chemical_formula_structural   CaY3Er2(Si3Ru)8
_chemical_formula_sum   'Ca1 Y3 Er2 Si24 Ru8'
_cell_volume   613.89728068
_cell_formula_units_Z   1
loop_
 _symmetry_equiv_pos_site_id
 _symmetry_equiv_pos_as_xyz
  1  'x, y, z'
loop_
 _atom_site_type_symbol
 _atom_site_label
 _atom_site_symmetry_multiplicity
 _atom_site_fract_x
 _atom_site_fract_y
 _atom_site_fract_z
 _atom_site_occupancy
  Ca  Ca0  1  0.498146  0.998146  0.250000  1
  Y  Y1  1  0.001374  0.501374  0.750000  1
  Y  Y2  1  0.502739  0.002739  0.750000  1
  Y  Y3  1  0.997278  0.497278  0.250000  1
  Er  Er4  1  0.499811  0.499704  0.499536  1
  Er  Er5  1  0.999704  0.999811  0.000464  1
  Si  Si6  1  0.388306  0.155277  0.002550  1
  Si  Si7  1  0.655277  0.888306  0.497450  1
  Si  Si8  1  0.111870  0.344625  0.505177  1
  Si  Si9  1  0.844625  0.611870  0.994823  1
  Si  Si10  1  0.612116  0.845557  0.993503  1
  Si  Si11  1  0.345557  0.112116  0.506497  1
  Si  Si12  1  0.887958  0.655648  0.494868  1
  Si  Si13  1  0.155648  0.387958  0.005132  1
  Si  Si14  1  0.613962  0.379979  0.228248  1
  Si  Si15  1  0.879979  0.113962  0.271752  1
  Si  Si16  1  0.888457  0.121635  0.727855  1
  Si  Si17  1  0.621635  0.388457  0.772145  1
  Si  Si18  1  0.388507  0.621532  0.771515  1
  Si  Si19  1  0.121532  0.888507  0.728485  1
  Si  Si20  1  0.704854  0.294144  0.000890  1
  Si  Si21  1  0.794144  0.204854  0.499110  1
  Si  Si22  1  0.295368  0.705811  0.000064  1
  Si  Si23  1  0.205811  0.795368  0.499936  1
  Si  Si24  1  0.166238  0.167408  0.333014  1
  Si  Si25  1  0.667408  0.666238  0.166986  1
  Si  Si26  1  0.332870  0.331610  0.833133  1
  Si  Si27  1  0.831610  0.832870  0.666867  1
  Si  Si28  1  0.376423  0.610101  0.228421  1
  Si  Si29  1  0.110101  0.876423  0.271579  1
  Ru  Ru30  1  0.626096  0.626624  0.873057  1
  Ru  Ru31  1  0.126624  0.126096  0.626943  1
  Ru  Ru32  1  0.873075  0.873345  0.372738  1
  Ru  Ru33  1  0.373345  0.373075  0.127262  1
  Ru  Ru34  1  0.329717  0.668335  0.500858  1
  Ru  Ru35  1  0.168335  0.829717  0.999142  1
  Ru  Ru36  1  0.670729  0.332774  0.501697  1
  Ru  Ru37  1  0.832774  0.170729  0.998303  1
