# generated using pymatgen
data_Er4Si4Ir2OsRu
_symmetry_space_group_name_H-M   'P 1'
_cell_length_a   4.25800800
_cell_length_b   6.86839684
_cell_length_c   7.29206300
_cell_angle_alpha   90.06269475
_cell_angle_beta   90.00000000
_cell_angle_gamma   90.00000000
_symmetry_Int_Tables_number   1
_chemical_formula_structural   Er4Si4Ir2OsRu
_chemical_formula_sum   'Er4 Si4 Ir2 Os1 Ru1'
_cell_volume   213.26127699
_cell_formula_units_Z   1
loop_
 _symmetry_equiv_pos_site_id
 _symmetry_equiv_pos_as_xyz
  1  'x, y, z'
loop_
 _atom_site_type_symbol
 _atom_site_label
 _atom_site_symmetry_multiplicity
 _atom_site_fract_x
 _atom_site_fract_y
 _atom_site_fract_z
 _atom_site_occupancy
  Er  Er0  1  0.750000  0.497073  0.813104  1
  Er  Er1  1  0.250000  0.004288  0.315076  1
  Er  Er2  1  0.750000  0.996499  0.685810  1
  Er  Er3  1  0.250000  0.504990  0.186411  1
  Si  Si4  1  0.250000  0.699135  0.614450  1
  Si  Si5  1  0.250000  0.198288  0.887740  1
  Si  Si6  1  0.750000  0.299551  0.392580  1
  Si  Si7  1  0.750000  0.798841  0.106004  1
  Ir  Ir8  1  0.750000  0.657891  0.434727  1
  Ir  Ir9  1  0.750000  0.157560  0.065760  1
  Os  Os10  1  0.250000  0.841824  0.935615  1
  Ru  Ru11  1  0.250000  0.344060  0.562724  1
