# generated using pymatgen
data_LaThRe6(Si2Tc)2
_symmetry_space_group_name_H-M   'P 1'
_cell_length_a   4.18725100
_cell_length_b   7.29638506
_cell_length_c   15.68002411
_cell_angle_alpha   89.98568397
_cell_angle_beta   90.00000000
_cell_angle_gamma   90.00000000
_symmetry_Int_Tables_number   1
_chemical_formula_structural   LaThRe6(Si2Tc)2
_chemical_formula_sum   'La2 Th2 Re12 Si8 Tc4'
_cell_volume   479.05287748
_cell_formula_units_Z   2
loop_
 _symmetry_equiv_pos_site_id
 _symmetry_equiv_pos_as_xyz
  1  'x, y, z'
loop_
 _atom_site_type_symbol
 _atom_site_label
 _atom_site_symmetry_multiplicity
 _atom_site_fract_x
 _atom_site_fract_y
 _atom_site_fract_z
 _atom_site_occupancy
  La  La0  1  0.000000  0.584477  0.117502  1
  La  La1  1  0.000000  0.415523  0.882498  1
  Th  Th2  1  0.500000  0.085528  0.382396  1
  Th  Th3  1  0.500000  0.914472  0.617604  1
  Re  Re4  1  0.000000  0.739883  0.321035  1
  Re  Re5  1  0.000000  0.260117  0.678965  1
  Re  Re6  1  0.500000  0.234349  0.181764  1
  Re  Re7  1  0.500000  0.765651  0.818236  1
  Re  Re8  1  0.000000  0.434261  0.419944  1
  Re  Re9  1  0.000000  0.565739  0.580056  1
  Re  Re10  1  0.500000  0.939049  0.080523  1
  Re  Re11  1  0.500000  0.060951  0.919477  1
  Re  Re12  1  0.000000  0.002592  0.207505  1
  Re  Re13  1  0.000000  0.997408  0.792495  1
  Re  Re14  1  0.500000  0.498646  0.295533  1
  Re  Re15  1  0.500000  0.501354  0.704467  1
  Si  Si16  1  0.000000  0.826062  0.474754  1
  Si  Si17  1  0.000000  0.173938  0.525246  1
  Si  Si18  1  0.500000  0.322388  0.026340  1
  Si  Si19  1  0.500000  0.677612  0.973660  1
  Si  Si20  1  0.000000  0.305676  0.274633  1
  Si  Si21  1  0.000000  0.694324  0.725367  1
  Si  Si22  1  0.500000  0.800342  0.226320  1
  Si  Si23  1  0.500000  0.199658  0.773680  1
  Tc  Tc24  1  0.000000  0.136700  0.052521  1
  Tc  Tc25  1  0.000000  0.863300  0.947479  1
  Tc  Tc26  1  0.500000  0.644817  0.450094  1
  Tc  Tc27  1  0.500000  0.355183  0.549906  1
