# generated using pymatgen
data_YHoGa9Co2Pd
_symmetry_space_group_name_H-M   'P 1'
_cell_length_a   7.47351000
_cell_length_b   7.47417299
_cell_length_c   9.42557100
_cell_angle_alpha   90.00000000
_cell_angle_beta   90.00000000
_cell_angle_gamma   119.53867523
_symmetry_Int_Tables_number   1
_chemical_formula_structural   YHoGa9Co2Pd
_chemical_formula_sum   'Y2 Ho2 Ga18 Co4 Pd2'
_cell_volume   458.06406399
_cell_formula_units_Z   2
loop_
 _symmetry_equiv_pos_site_id
 _symmetry_equiv_pos_as_xyz
  1  'x, y, z'
loop_
 _atom_site_type_symbol
 _atom_site_label
 _atom_site_symmetry_multiplicity
 _atom_site_fract_x
 _atom_site_fract_y
 _atom_site_fract_z
 _atom_site_occupancy
  Y  Y0  1  0.996749  0.677244  0.750000  1
  Y  Y1  1  0.003251  0.322756  0.250000  1
  Ho  Ho2  1  0.677124  0.996783  0.750000  1
  Ho  Ho3  1  0.322876  0.003217  0.250000  1
  Ga  Ga4  1  0.001099  0.654747  0.075289  1
  Ga  Ga5  1  0.654185  0.000844  0.424913  1
  Ga  Ga6  1  0.001099  0.654747  0.424711  1
  Ga  Ga7  1  0.998901  0.345253  0.924711  1
  Ga  Ga8  1  0.654185  0.000844  0.075087  1
  Ga  Ga9  1  0.345815  0.999156  0.924913  1
  Ga  Ga10  1  0.656636  0.656870  0.563192  1
  Ga  Ga11  1  0.343364  0.343130  0.063192  1
  Ga  Ga12  1  0.656636  0.656870  0.936808  1
  Ga  Ga13  1  0.343364  0.343130  0.436808  1
  Ga  Ga14  1  0.141988  0.142180  0.750000  1
  Ga  Ga15  1  0.858012  0.857820  0.250000  1
  Ga  Ga16  1  0.665216  0.442780  0.250000  1
  Ga  Ga17  1  0.334784  0.557220  0.750000  1
  Ga  Ga18  1  0.443034  0.665726  0.250000  1
  Ga  Ga19  1  0.556966  0.334274  0.750000  1
  Ga  Ga20  1  0.345815  0.999156  0.575087  1
  Ga  Ga21  1  0.998901  0.345253  0.575289  1
  Co  Co22  1  0.670668  0.329170  0.999994  1
  Co  Co23  1  0.329332  0.670830  0.499994  1
  Co  Co24  1  0.329332  0.670830  0.000006  1
  Co  Co25  1  0.670668  0.329170  0.500006  1
  Pd  Pd26  1  0.000000  0.000000  0.000000  1
  Pd  Pd27  1  0.000000  0.000000  0.500000  1
