# generated using pymatgen
data_Tm2Lu6Sc11Si16W
_symmetry_space_group_name_H-M   'P 1'
_cell_length_a   7.00891172
_cell_length_b   7.25894151
_cell_length_c   13.77907391
_cell_angle_alpha   90.18597779
_cell_angle_beta   89.56631506
_cell_angle_gamma   89.65505892
_symmetry_Int_Tables_number   1
_chemical_formula_structural   Tm2Lu6Sc11Si16W
_chemical_formula_sum   'Tm2 Lu6 Sc11 Si16 W1'
_cell_volume   701.00521998
_cell_formula_units_Z   1
loop_
 _symmetry_equiv_pos_site_id
 _symmetry_equiv_pos_as_xyz
  1  'x, y, z'
loop_
 _atom_site_type_symbol
 _atom_site_label
 _atom_site_symmetry_multiplicity
 _atom_site_fract_x
 _atom_site_fract_y
 _atom_site_fract_z
 _atom_site_occupancy
  Tm  Tm0  1  0.507043  0.322557  0.410338  1
  Tm  Tm1  1  0.487916  0.676339  0.595505  1
  Lu  Lu2  1  0.011855  0.175528  0.096567  1
  Lu  Lu3  1  0.989229  0.825011  0.899107  1
  Lu  Lu4  1  0.487195  0.679419  0.899696  1
  Lu  Lu5  1  0.993438  0.829104  0.595610  1
  Lu  Lu6  1  0.513211  0.322379  0.096247  1
  Lu  Lu7  1  0.009354  0.175467  0.404165  1
  Sc  Sc8  1  0.162386  0.497545  0.745656  1
  Sc  Sc9  1  0.838562  0.496792  0.251633  1
  Sc  Sc10  1  0.337429  0.003869  0.252410  1
  Sc  Sc11  1  0.658956  0.000877  0.747318  1
  Sc  Sc12  1  0.666250  0.825695  0.379123  1
  Sc  Sc13  1  0.167851  0.678911  0.378463  1
  Sc  Sc14  1  0.669372  0.824139  0.124485  1
  Sc  Sc15  1  0.832333  0.322685  0.623521  1
  Sc  Sc16  1  0.332824  0.176335  0.875024  1
  Sc  Sc17  1  0.829732  0.322933  0.872272  1
  Sc  Sc18  1  0.170305  0.676967  0.125612  1
  Si  Si19  1  0.041359  0.118382  0.745125  1
  Si  Si20  1  0.964269  0.888500  0.251192  1
  Si  Si21  1  0.467414  0.614081  0.250762  1
  Si  Si22  1  0.530628  0.377598  0.746121  1
  Si  Si23  1  0.286641  0.876339  0.745803  1
  Si  Si24  1  0.712143  0.129642  0.250670  1
  Si  Si25  1  0.215930  0.370496  0.250391  1
  Si  Si26  1  0.784372  0.627503  0.746842  1
  Si  Si27  1  0.176356  0.451442  0.540170  1
  Si  Si28  1  0.841303  0.531450  0.460983  1
  Si  Si29  1  0.330260  0.970155  0.471236  1
  Si  Si30  1  0.843785  0.533992  0.038995  1
  Si  Si31  1  0.648949  0.034173  0.544793  1
  Si  Si32  1  0.156539  0.467442  0.958897  1
  Si  Si33  1  0.662833  0.034655  0.958919  1
  Si  Si34  1  0.339403  0.964159  0.038346  1
  W  W35  1  0.332576  0.177440  0.628005  1
