# generated using pymatgen
data_Nb12Al9Ni(PtC2)2
_symmetry_space_group_name_H-M   'P 1'
_cell_length_a   8.35705163
_cell_length_b   8.35815524
_cell_length_c   8.35815267
_cell_angle_alpha   59.93181873
_cell_angle_beta   59.99591326
_cell_angle_gamma   59.99591926
_symmetry_Int_Tables_number   1
_chemical_formula_structural   Nb12Al9Ni(PtC2)2
_chemical_formula_sum   'Nb12 Al9 Ni1 Pt2 C4'
_cell_volume   412.57960447
_cell_formula_units_Z   1
loop_
 _symmetry_equiv_pos_site_id
 _symmetry_equiv_pos_as_xyz
  1  'x, y, z'
loop_
 _atom_site_type_symbol
 _atom_site_label
 _atom_site_symmetry_multiplicity
 _atom_site_fract_x
 _atom_site_fract_y
 _atom_site_fract_z
 _atom_site_occupancy
  Nb  Nb0  1  0.681922  0.316070  0.681930  1
  Nb  Nb1  1  0.932922  0.568736  0.568736  1
  Nb  Nb2  1  0.552976  0.940791  0.940791  1
  Nb  Nb3  1  0.939163  0.554505  0.938686  1
  Nb  Nb4  1  0.568078  0.568070  0.933930  1
  Nb  Nb5  1  0.939163  0.938686  0.554505  1
  Nb  Nb6  1  0.681922  0.681930  0.316070  1
  Nb  Nb7  1  0.317078  0.681264  0.681264  1
  Nb  Nb8  1  0.697024  0.309209  0.309209  1
  Nb  Nb9  1  0.310837  0.311314  0.695495  1
  Nb  Nb10  1  0.568078  0.933930  0.568070  1
  Nb  Nb11  1  0.310837  0.695495  0.311314  1
  Al  Al12  1  0.125000  0.125000  0.125000  1
  Al  Al13  1  0.343972  0.332604  0.332604  1
  Al  Al14  1  0.254015  0.911407  0.911407  1
  Al  Al15  1  0.903554  0.251968  0.916391  1
  Al  Al16  1  0.903554  0.916391  0.251968  1
  Al  Al17  1  0.346446  0.998032  0.333609  1
  Al  Al18  1  0.346446  0.333609  0.998032  1
  Al  Al19  1  0.995985  0.338593  0.338593  1
  Al  Al20  1  0.906028  0.917396  0.917396  1
  Ni  Ni21  1  0.625000  0.125000  0.125000  1
  Pt  Pt22  1  0.125000  0.625000  0.125000  1
  Pt  Pt23  1  0.125000  0.125000  0.625000  1
  C  C24  1  0.625000  0.625000  0.625000  1
  C  C25  1  0.125000  0.625000  0.625000  1
  C  C26  1  0.625000  0.125000  0.625000  1
  C  C27  1  0.625000  0.625000  0.125000  1
