# generated using pymatgen
data_Li6ZrTa5Rh12
_symmetry_space_group_name_H-M   'P 1'
_cell_length_a   4.39624500
_cell_length_b   6.11584100
_cell_length_c   13.09491500
_cell_angle_alpha   89.99992315
_cell_angle_beta   90.00042311
_cell_angle_gamma   90.00007657
_symmetry_Int_Tables_number   1
_chemical_formula_structural   Li6ZrTa5Rh12
_chemical_formula_sum   'Li6 Zr1 Ta5 Rh12'
_cell_volume   352.07951491
_cell_formula_units_Z   1
loop_
 _symmetry_equiv_pos_site_id
 _symmetry_equiv_pos_as_xyz
  1  'x, y, z'
loop_
 _atom_site_type_symbol
 _atom_site_label
 _atom_site_symmetry_multiplicity
 _atom_site_fract_x
 _atom_site_fract_y
 _atom_site_fract_z
 _atom_site_occupancy
  Li  Li0  1  0.000000  0.999998  0.000831  1
  Li  Li1  1  0.499865  0.500004  0.167854  1
  Li  Li2  1  0.999890  0.999996  0.333336  1
  Li  Li3  1  0.500004  0.499999  0.498792  1
  Li  Li4  1  0.000111  0.000003  0.665836  1
  Li  Li5  1  0.500106  0.499994  0.833360  1
  Zr  Zr6  1  0.500126  0.000000  0.833326  1
  Ta  Ta7  1  0.999996  0.499998  0.000636  1
  Ta  Ta8  1  0.499896  0.000002  0.167517  1
  Ta  Ta9  1  0.999902  0.499998  0.333342  1
  Ta  Ta10  1  0.500007  0.000000  0.499163  1
  Ta  Ta11  1  0.000133  0.500003  0.666005  1
  Rh  Rh12  1  0.499985  0.254281  0.004867  1
  Rh  Rh13  1  0.499984  0.745717  0.004867  1
  Rh  Rh14  1  0.999884  0.249106  0.167913  1
  Rh  Rh15  1  0.999883  0.750895  0.167913  1
  Rh  Rh16  1  0.499873  0.250876  0.333342  1
  Rh  Rh17  1  0.499877  0.749126  0.333342  1
  Rh  Rh18  1  0.000005  0.249117  0.498770  1
  Rh  Rh19  1  0.000006  0.750882  0.498770  1
  Rh  Rh20  1  0.500116  0.254312  0.661805  1
  Rh  Rh21  1  0.500120  0.745690  0.661803  1
  Rh  Rh22  1  0.000110  0.258536  0.833305  1
  Rh  Rh23  1  0.000122  0.741466  0.833302  1
