# generated using pymatgen
data_LaMnSbO6
_symmetry_space_group_name_H-M   'P 1'
_cell_length_a   5.19976281
_cell_length_b   5.19984633
_cell_length_c   5.23844266
_cell_angle_alpha   90.07885346
_cell_angle_beta   90.08163055
_cell_angle_gamma   119.94489215
_symmetry_Int_Tables_number   1
_chemical_formula_structural   LaMnSbO6
_chemical_formula_sum   'La1 Mn1 Sb1 O6'
_cell_volume   122.72868063
_cell_formula_units_Z   1
loop_
 _symmetry_equiv_pos_site_id
 _symmetry_equiv_pos_as_xyz
  1  'x, y, z'
loop_
 _atom_site_type_symbol
 _atom_site_label
 _atom_site_symmetry_multiplicity
 _atom_site_fract_x
 _atom_site_fract_y
 _atom_site_fract_z
 _atom_site_occupancy
  La  La0  1  0.482567  0.517458  0.500006  1
  Mn  Mn1  1  0.815612  0.184400  0.999996  1
  Sb  Sb2  1  0.149442  0.850561  0.000001  1
  O  O3  1  0.106596  0.151553  0.209338  1
  O  O4  1  0.493197  0.895987  0.210498  1
  O  O5  1  0.851155  0.508883  0.210453  1
  O  O6  1  0.491129  0.148844  0.789537  1
  O  O7  1  0.104012  0.506782  0.789487  1
  O  O8  1  0.848446  0.893392  0.790652  1
