# generated using pymatgen
data_Pr2Nd2Al18(PtRh)3
_symmetry_space_group_name_H-M   'P 1'
_cell_length_a   7.67141677
_cell_length_b   7.67444015
_cell_length_c   9.59454721
_cell_angle_alpha   89.98634897
_cell_angle_beta   89.98186180
_cell_angle_gamma   119.59877243
_symmetry_Int_Tables_number   1
_chemical_formula_structural   Pr2Nd2Al18(PtRh)3
_chemical_formula_sum   'Pr2 Nd2 Al18 Pt3 Rh3'
_cell_volume   491.15552983
_cell_formula_units_Z   1
loop_
 _symmetry_equiv_pos_site_id
 _symmetry_equiv_pos_as_xyz
  1  'x, y, z'
loop_
 _atom_site_type_symbol
 _atom_site_label
 _atom_site_symmetry_multiplicity
 _atom_site_fract_x
 _atom_site_fract_y
 _atom_site_fract_z
 _atom_site_occupancy
  Pr  Pr0  1  0.995602  0.668528  0.750225  1
  Pr  Pr1  1  0.005890  0.332684  0.249971  1
  Nd  Nd2  1  0.667335  0.994280  0.750074  1
  Nd  Nd3  1  0.331161  0.003909  0.249746  1
  Al  Al4  1  0.126780  0.127817  0.750511  1
  Al  Al5  1  0.872556  0.872962  0.249486  1
  Al  Al6  1  0.001502  0.329989  0.574282  1
  Al  Al7  1  0.997524  0.670169  0.425473  1
  Al  Al8  1  0.994884  0.666145  0.072996  1
  Al  Al9  1  0.334783  0.005550  0.927451  1
  Al  Al10  1  0.997638  0.329787  0.927064  1
  Al  Al11  1  0.669273  0.001925  0.072476  1
  Al  Al12  1  0.669143  0.998080  0.426149  1
  Al  Al13  1  0.330709  0.002907  0.574115  1
  Al  Al14  1  0.334051  0.330331  0.048965  1
  Al  Al15  1  0.669275  0.666250  0.951036  1
  Al  Al16  1  0.668573  0.668902  0.551522  1
  Al  Al17  1  0.331441  0.331043  0.448479  1
  Al  Al18  1  0.340164  0.542479  0.750406  1
  Al  Al19  1  0.659111  0.454045  0.246311  1
  Al  Al20  1  0.545451  0.339993  0.753690  1
  Al  Al21  1  0.457980  0.660609  0.249590  1
  Pt  Pt22  1  0.671028  0.328901  0.499965  1
  Pt  Pt23  1  0.328654  0.671703  0.500006  1
  Pt  Pt24  1  0.328711  0.671656  0.999992  1
  Rh  Rh25  1  0.670784  0.329095  0.000034  1
  Rh  Rh26  1  0.999836  0.000306  0.500009  1
  Rh  Rh27  1  0.000160  0.999953  0.999974  1
