# generated using pymatgen
data_Zr10BeGa2Bi5
_symmetry_space_group_name_H-M   'P 1'
_cell_length_a   8.75852404
_cell_length_b   8.73519398
_cell_length_c   5.91020392
_cell_angle_alpha   90.09254297
_cell_angle_beta   89.95385480
_cell_angle_gamma   119.91191176
_symmetry_Int_Tables_number   1
_chemical_formula_structural   Zr10BeGa2Bi5
_chemical_formula_sum   'Zr10 Be1 Ga2 Bi5'
_cell_volume   391.94111372
_cell_formula_units_Z   1
loop_
 _symmetry_equiv_pos_site_id
 _symmetry_equiv_pos_as_xyz
  1  'x, y, z'
loop_
 _atom_site_type_symbol
 _atom_site_label
 _atom_site_symmetry_multiplicity
 _atom_site_fract_x
 _atom_site_fract_y
 _atom_site_fract_z
 _atom_site_occupancy
  Zr  Zr0  1  0.673915  0.334775  0.004351  1
  Zr  Zr1  1  0.326085  0.660861  0.004351  1
  Zr  Zr2  1  0.326193  0.661032  0.495490  1
  Zr  Zr3  1  0.673807  0.334838  0.495490  1
  Zr  Zr4  1  0.746982  0.745289  0.762170  1
  Zr  Zr5  1  0.253018  0.998307  0.762170  1
  Zr  Zr6  1  0.000000  0.253237  0.766887  1
  Zr  Zr7  1  0.249308  0.266168  0.236854  1
  Zr  Zr8  1  0.750692  0.016860  0.236854  1
  Zr  Zr9  1  0.000000  0.731063  0.239063  1
  Be  Be10  1  0.000000  0.997418  0.011944  1
  Ga  Ga11  1  0.000000  0.998490  0.490299  1
  Ga  Ga12  1  0.000000  0.390933  0.249843  1
  Bi  Bi13  1  0.392416  0.390295  0.745835  1
  Bi  Bi14  1  0.607584  0.997878  0.745835  1
  Bi  Bi15  1  0.000000  0.603458  0.745310  1
  Bi  Bi16  1  0.613983  0.616539  0.253627  1
  Bi  Bi17  1  0.386017  0.002556  0.253627  1
