# generated using pymatgen
data_LaHo3(TmBi)6
_symmetry_space_group_name_H-M   'P 1'
_cell_length_a   8.25992400
_cell_length_b   9.45357600
_cell_length_c   12.10251900
_cell_angle_alpha   90.00000000
_cell_angle_beta   90.00000000
_cell_angle_gamma   90.00000000
_symmetry_Int_Tables_number   1
_chemical_formula_structural   LaHo3(TmBi)6
_chemical_formula_sum   'La2 Ho6 Tm12 Bi12'
_cell_volume   945.03511157
_cell_formula_units_Z   2
loop_
 _symmetry_equiv_pos_site_id
 _symmetry_equiv_pos_as_xyz
  1  'x, y, z'
loop_
 _atom_site_type_symbol
 _atom_site_label
 _atom_site_symmetry_multiplicity
 _atom_site_fract_x
 _atom_site_fract_y
 _atom_site_fract_z
 _atom_site_occupancy
  La  La0  1  0.182317  0.750000  0.720706  1
  La  La1  1  0.682317  0.750000  0.779294  1
  Ho  Ho2  1  0.814285  0.250000  0.282482  1
  Ho  Ho3  1  0.314285  0.250000  0.217518  1
  Ho  Ho4  1  0.353564  0.750000  0.218919  1
  Ho  Ho5  1  0.853564  0.750000  0.281081  1
  Ho  Ho6  1  0.647917  0.250000  0.784215  1
  Ho  Ho7  1  0.147917  0.250000  0.715785  1
  Tm  Tm8  1  0.022889  0.750000  0.990554  1
  Tm  Tm9  1  0.522889  0.750000  0.509446  1
  Tm  Tm10  1  0.976901  0.250000  0.013784  1
  Tm  Tm11  1  0.476901  0.250000  0.486216  1
  Tm  Tm12  1  0.308823  0.433479  0.940723  1
  Tm  Tm13  1  0.808823  0.066521  0.559277  1
  Tm  Tm14  1  0.691935  0.934416  0.061545  1
  Tm  Tm15  1  0.191935  0.565584  0.438455  1
  Tm  Tm16  1  0.691935  0.565584  0.061545  1
  Tm  Tm17  1  0.191935  0.934416  0.438455  1
  Tm  Tm18  1  0.308823  0.066521  0.940723  1
  Tm  Tm19  1  0.808823  0.433479  0.559277  1
  Bi  Bi20  1  0.434849  0.010961  0.669242  1
  Bi  Bi21  1  0.934849  0.489039  0.830758  1
  Bi  Bi22  1  0.566755  0.503810  0.326720  1
  Bi  Bi23  1  0.066755  0.996190  0.173280  1
  Bi  Bi24  1  0.566755  0.996190  0.326720  1
  Bi  Bi25  1  0.066755  0.503810  0.173280  1
  Bi  Bi26  1  0.434849  0.489039  0.669242  1
  Bi  Bi27  1  0.934849  0.010961  0.830758  1
  Bi  Bi28  1  0.402353  0.750000  0.964902  1
  Bi  Bi29  1  0.902353  0.750000  0.535098  1
  Bi  Bi30  1  0.595050  0.250000  0.042813  1
  Bi  Bi31  1  0.095050  0.250000  0.457187  1
