# generated using pymatgen
data_Lu4Ge2B4IrRu9
_symmetry_space_group_name_H-M   'P 1'
_cell_length_a   9.50866670
_cell_length_b   9.50866670
_cell_length_c   3.07106600
_cell_angle_alpha   90.00000000
_cell_angle_beta   90.00000000
_cell_angle_gamma   90.27153959
_symmetry_Int_Tables_number   1
_chemical_formula_structural   Lu4Ge2B4IrRu9
_chemical_formula_sum   'Lu4 Ge2 B4 Ir1 Ru9'
_cell_volume   277.66652280
_cell_formula_units_Z   1
loop_
 _symmetry_equiv_pos_site_id
 _symmetry_equiv_pos_as_xyz
  1  'x, y, z'
loop_
 _atom_site_type_symbol
 _atom_site_label
 _atom_site_symmetry_multiplicity
 _atom_site_fract_x
 _atom_site_fract_y
 _atom_site_fract_z
 _atom_site_occupancy
  Lu  Lu0  1  0.674739  0.174739  0.000000  1
  Lu  Lu1  1  0.325261  0.825261  0.000000  1
  Lu  Lu2  1  0.178329  0.321671  0.000000  1
  Lu  Lu3  1  0.821671  0.678329  0.000000  1
  Ge  Ge4  1  0.000000  0.000000  0.000000  1
  Ge  Ge5  1  0.500000  0.500000  0.000000  1
  B  B6  1  0.125287  0.625287  0.000000  1
  B  B7  1  0.874713  0.374713  0.000000  1
  B  B8  1  0.622414  0.877586  0.000000  1
  B  B9  1  0.377586  0.122414  0.000000  1
  Ir  Ir10  1  0.000000  0.500000  0.500000  1
  Ru  Ru11  1  0.214357  0.068421  0.500000  1
  Ru  Ru12  1  0.785643  0.931579  0.500000  1
  Ru  Ru13  1  0.069277  0.784567  0.500000  1
  Ru  Ru14  1  0.715433  0.430723  0.500000  1
  Ru  Ru15  1  0.930723  0.215433  0.500000  1
  Ru  Ru16  1  0.284567  0.569277  0.500000  1
  Ru  Ru17  1  0.568421  0.714357  0.500000  1
  Ru  Ru18  1  0.431579  0.285643  0.500000  1
  Ru  Ru19  1  0.500000  0.000000  0.500000  1
