# generated using pymatgen
data_SrLa(Cu2Pt3)2
_symmetry_space_group_name_H-M   'P 1'
_cell_length_a   4.15624000
_cell_length_b   5.42595100
_cell_length_c   9.45386500
_cell_angle_alpha   90.00000000
_cell_angle_beta   90.00000000
_cell_angle_gamma   90.00000000
_symmetry_Int_Tables_number   1
_chemical_formula_structural   SrLa(Cu2Pt3)2
_chemical_formula_sum   'Sr1 La1 Cu4 Pt6'
_cell_volume   213.19935258
_cell_formula_units_Z   1
loop_
 _symmetry_equiv_pos_site_id
 _symmetry_equiv_pos_as_xyz
  1  'x, y, z'
loop_
 _atom_site_type_symbol
 _atom_site_label
 _atom_site_symmetry_multiplicity
 _atom_site_fract_x
 _atom_site_fract_y
 _atom_site_fract_z
 _atom_site_occupancy
  Sr  Sr0  1  0.000000  0.500000  0.500000  1
  La  La1  1  0.000000  0.000000  0.000000  1
  Cu  Cu2  1  0.000000  0.000000  0.333592  1
  Cu  Cu3  1  0.000000  0.500000  0.832912  1
  Cu  Cu4  1  0.000000  0.500000  0.167088  1
  Cu  Cu5  1  0.000000  0.000000  0.666408  1
  Pt  Pt6  1  0.500000  0.500000  0.000000  1
  Pt  Pt7  1  0.500000  0.000000  0.500000  1
  Pt  Pt8  1  0.500000  0.247501  0.247047  1
  Pt  Pt9  1  0.500000  0.752499  0.752953  1
  Pt  Pt10  1  0.500000  0.752499  0.247047  1
  Pt  Pt11  1  0.500000  0.247501  0.752953  1
