# generated using pymatgen
data_Ca4As7Rh8
_symmetry_space_group_name_H-M   'P 1'
_cell_length_a   4.13468200
_cell_length_b   13.08042675
_cell_length_c   13.52364166
_cell_angle_alpha   81.70615267
_cell_angle_beta   90.00000000
_cell_angle_gamma   90.00000000
_symmetry_Int_Tables_number   1
_chemical_formula_structural   Ca4As7Rh8
_chemical_formula_sum   'Ca8 As14 Rh16'
_cell_volume   723.75503744
_cell_formula_units_Z   2
loop_
 _symmetry_equiv_pos_site_id
 _symmetry_equiv_pos_as_xyz
  1  'x, y, z'
loop_
 _atom_site_type_symbol
 _atom_site_label
 _atom_site_symmetry_multiplicity
 _atom_site_fract_x
 _atom_site_fract_y
 _atom_site_fract_z
 _atom_site_occupancy
  Ca  Ca0  1  0.250000  0.100123  0.798066  1
  Ca  Ca1  1  0.750000  0.899877  0.201934  1
  Ca  Ca2  1  0.250000  0.287683  0.104475  1
  Ca  Ca3  1  0.750000  0.712317  0.895525  1
  Ca  Ca4  1  0.250000  0.515386  0.291014  1
  Ca  Ca5  1  0.750000  0.484614  0.708986  1
  Ca  Ca6  1  0.250000  0.213187  0.433363  1
  Ca  Ca7  1  0.750000  0.786813  0.566637  1
  As  As8  1  0.250000  0.058191  0.099811  1
  As  As9  1  0.750000  0.941809  0.900189  1
  As  As10  1  0.250000  0.308186  0.688126  1
  As  As11  1  0.750000  0.691814  0.311874  1
  As  As12  1  0.250000  0.608531  0.565064  1
  As  As13  1  0.750000  0.391469  0.434936  1
  As  As14  1  0.250000  0.849520  0.719475  1
  As  As15  1  0.750000  0.150480  0.280525  1
  As  As16  1  0.750000  0.257179  0.920006  1
  As  As17  1  0.250000  0.742821  0.079994  1
  As  As18  1  0.750000  0.094895  0.584133  1
  As  As19  1  0.250000  0.905105  0.415867  1
  As  As20  1  0.750000  0.471619  0.129001  1
  As  As21  1  0.250000  0.528381  0.870999  1
  Rh  Rh22  1  0.250000  0.985771  0.573210  1
  Rh  Rh23  1  0.750000  0.014229  0.426790  1
  Rh  Rh24  1  0.250000  0.666264  0.728816  1
  Rh  Rh25  1  0.750000  0.333736  0.271184  1
  Rh  Rh26  1  0.250000  0.555241  0.046960  1
  Rh  Rh27  1  0.750000  0.444759  0.953040  1
  Rh  Rh28  1  0.250000  0.053599  0.280473  1
  Rh  Rh29  1  0.750000  0.946401  0.719527  1
  Rh  Rh30  1  0.250000  0.425261  0.527268  1
  Rh  Rh31  1  0.750000  0.574739  0.472732  1
  Rh  Rh32  1  0.250000  0.919577  0.998999  1
  Rh  Rh33  1  0.750000  0.080423  0.001001  1
  Rh  Rh34  1  0.250000  0.720722  0.400465  1
  Rh  Rh35  1  0.750000  0.279278  0.599535  1
  Rh  Rh36  1  0.250000  0.342336  0.859895  1
  Rh  Rh37  1  0.750000  0.657664  0.140105  1
