# generated using pymatgen
data_Dy4Ga18NiIr5
_symmetry_space_group_name_H-M   'P 1'
_cell_length_a   7.58168584
_cell_length_b   7.58168511
_cell_length_c   9.46999262
_cell_angle_alpha   90.13044180
_cell_angle_beta   90.13043934
_cell_angle_gamma   120.02285505
_symmetry_Int_Tables_number   1
_chemical_formula_structural   Dy4Ga18NiIr5
_chemical_formula_sum   'Dy4 Ga18 Ni1 Ir5'
_cell_volume   471.31062441
_cell_formula_units_Z   1
loop_
 _symmetry_equiv_pos_site_id
 _symmetry_equiv_pos_as_xyz
  1  'x, y, z'
loop_
 _atom_site_type_symbol
 _atom_site_label
 _atom_site_symmetry_multiplicity
 _atom_site_fract_x
 _atom_site_fract_y
 _atom_site_fract_z
 _atom_site_occupancy
  Dy  Dy0  1  0.996793  0.666688  0.250052  1
  Dy  Dy1  1  0.003207  0.333312  0.749948  1
  Dy  Dy2  1  0.666688  0.996793  0.250052  1
  Dy  Dy3  1  0.333312  0.003207  0.749948  1
  Ga  Ga4  1  0.121491  0.121491  0.245507  1
  Ga  Ga5  1  0.878509  0.878509  0.754493  1
  Ga  Ga6  1  0.999272  0.330256  0.079705  1
  Ga  Ga7  1  0.000728  0.669744  0.920295  1
  Ga  Ga8  1  0.000450  0.666438  0.580289  1
  Ga  Ga9  1  0.333562  0.999550  0.419711  1
  Ga  Ga10  1  0.999550  0.333562  0.419711  1
  Ga  Ga11  1  0.666438  0.000450  0.580289  1
  Ga  Ga12  1  0.669744  0.000728  0.920295  1
  Ga  Ga13  1  0.330256  0.999272  0.079705  1
  Ga  Ga14  1  0.332550  0.332550  0.564192  1
  Ga  Ga15  1  0.667450  0.667450  0.435808  1
  Ga  Ga16  1  0.672148  0.672148  0.064155  1
  Ga  Ga17  1  0.327852  0.327852  0.935845  1
  Ga  Ga18  1  0.338731  0.545580  0.249260  1
  Ga  Ga19  1  0.661269  0.454420  0.750740  1
  Ga  Ga20  1  0.545580  0.338731  0.249260  1
  Ga  Ga21  1  0.454420  0.661269  0.750740  1
  Ni  Ni22  1  0.000000  0.000000  0.000000  1
  Ir  Ir23  1  0.671798  0.328202  0.000000  1
  Ir  Ir24  1  0.328202  0.671798  0.000000  1
  Ir  Ir25  1  0.328330  0.671670  0.500000  1
  Ir  Ir26  1  0.671670  0.328330  0.500000  1
  Ir  Ir27  1  0.000000  0.000000  0.500000  1
