# generated using pymatgen
data_Ho4Mg3AlRh4
_symmetry_space_group_name_H-M   'P 1'
_cell_length_a   4.11703500
_cell_length_b   7.03364636
_cell_length_c   8.39821591
_cell_angle_alpha   90.61142929
_cell_angle_beta   90.00000000
_cell_angle_gamma   90.00000000
_symmetry_Int_Tables_number   1
_chemical_formula_structural   Ho4Mg3AlRh4
_chemical_formula_sum   'Ho4 Mg3 Al1 Rh4'
_cell_volume   243.17974259
_cell_formula_units_Z   1
loop_
 _symmetry_equiv_pos_site_id
 _symmetry_equiv_pos_as_xyz
  1  'x, y, z'
loop_
 _atom_site_type_symbol
 _atom_site_label
 _atom_site_symmetry_multiplicity
 _atom_site_fract_x
 _atom_site_fract_y
 _atom_site_fract_z
 _atom_site_occupancy
  Ho  Ho0  1  0.250000  0.533797  0.174344  1
  Ho  Ho1  1  0.750000  0.456998  0.824353  1
  Ho  Ho2  1  0.750000  0.968404  0.683086  1
  Ho  Ho3  1  0.250000  0.033744  0.320665  1
  Mg  Mg4  1  0.250000  0.637604  0.561947  1
  Mg  Mg5  1  0.750000  0.360204  0.438091  1
  Mg  Mg6  1  0.750000  0.862501  0.059783  1
  Al  Al7  1  0.250000  0.137457  0.941188  1
  Rh  Rh8  1  0.250000  0.763879  0.877163  1
  Rh  Rh9  1  0.750000  0.242699  0.109054  1
  Rh  Rh10  1  0.750000  0.751366  0.373712  1
  Rh  Rh11  1  0.250000  0.251346  0.636614  1
