# generated using pymatgen
data_Rb3Li3(TaSe4)2
_symmetry_space_group_name_H-M   'P 1'
_cell_length_a   13.43394539
_cell_length_b   13.43394450
_cell_length_c   15.01476731
_cell_angle_alpha   61.82062170
_cell_angle_beta   61.82062371
_cell_angle_gamma   27.01999871
_symmetry_Int_Tables_number   1
_chemical_formula_structural   Rb3Li3(TaSe4)2
_chemical_formula_sum   'Rb6 Li6 Ta4 Se16'
_cell_volume   1076.09669415
_cell_formula_units_Z   2
loop_
 _symmetry_equiv_pos_site_id
 _symmetry_equiv_pos_as_xyz
  1  'x, y, z'
loop_
 _atom_site_type_symbol
 _atom_site_label
 _atom_site_symmetry_multiplicity
 _atom_site_fract_x
 _atom_site_fract_y
 _atom_site_fract_z
 _atom_site_occupancy
  Rb  Rb0  1  0.227809  0.382811  0.604479  1
  Rb  Rb1  1  0.772191  0.617189  0.395521  1
  Rb  Rb2  1  0.382811  0.227809  0.104479  1
  Rb  Rb3  1  0.000000  0.000000  0.500000  1
  Rb  Rb4  1  0.617189  0.772191  0.895521  1
  Rb  Rb5  1  0.000000  0.000000  0.000000  1
  Li  Li6  1  0.317519  0.682481  0.250000  1
  Li  Li7  1  0.069726  0.678728  0.790377  1
  Li  Li8  1  0.682481  0.317519  0.750000  1
  Li  Li9  1  0.678728  0.069726  0.290377  1
  Li  Li10  1  0.321272  0.930274  0.709623  1
  Li  Li11  1  0.930274  0.321272  0.209623  1
  Ta  Ta12  1  0.177268  0.566737  0.279936  1
  Ta  Ta13  1  0.566737  0.177268  0.779936  1
  Ta  Ta14  1  0.433263  0.822732  0.220064  1
  Ta  Ta15  1  0.822732  0.433263  0.720064  1
  Se  Se16  1  0.739688  0.679053  0.114167  1
  Se  Se17  1  0.578328  0.518782  0.337971  1
  Se  Se18  1  0.194069  0.992622  0.122956  1
  Se  Se19  1  0.421672  0.481218  0.662029  1
  Se  Se20  1  0.992622  0.194069  0.622956  1
  Se  Se21  1  0.094930  0.217273  0.812847  1
  Se  Se22  1  0.679053  0.739688  0.614167  1
  Se  Se23  1  0.481218  0.421672  0.162029  1
  Se  Se24  1  0.518782  0.578328  0.837971  1
  Se  Se25  1  0.320947  0.260312  0.385833  1
  Se  Se26  1  0.782727  0.905070  0.687153  1
  Se  Se27  1  0.805931  0.007378  0.877044  1
  Se  Se28  1  0.260312  0.320947  0.885833  1
  Se  Se29  1  0.007378  0.805931  0.377044  1
  Se  Se30  1  0.905070  0.782727  0.187153  1
  Se  Se31  1  0.217273  0.094930  0.312847  1
