# generated using pymatgen
data_Ti4Nb2Ga2P
_symmetry_space_group_name_H-M   'P 1'
_cell_length_a   6.93283547
_cell_length_b   6.93725060
_cell_length_c   3.50598800
_cell_angle_alpha   90.00000000
_cell_angle_beta   90.00000000
_cell_angle_gamma   120.02105359
_symmetry_Int_Tables_number   1
_chemical_formula_structural   Ti4Nb2Ga2P
_chemical_formula_sum   'Ti4 Nb2 Ga2 P1'
_cell_volume   145.99808486
_cell_formula_units_Z   1
loop_
 _symmetry_equiv_pos_site_id
 _symmetry_equiv_pos_as_xyz
  1  'x, y, z'
loop_
 _atom_site_type_symbol
 _atom_site_label
 _atom_site_symmetry_multiplicity
 _atom_site_fract_x
 _atom_site_fract_y
 _atom_site_fract_z
 _atom_site_occupancy
  Ti  Ti0  1  0.000000  0.251749  0.500000  1
  Ti  Ti1  1  0.249671  0.999330  0.500000  1
  Ti  Ti2  1  0.750329  0.749660  0.500000  1
  Ti  Ti3  1  0.000000  0.609185  0.000000  1
  Nb  Nb4  1  0.608366  0.999043  0.000000  1
  Nb  Nb5  1  0.391634  0.390677  0.000000  1
  Ga  Ga6  1  0.668979  0.334341  0.500000  1
  Ga  Ga7  1  0.331021  0.665363  0.500000  1
  P  P8  1  0.000000  0.000651  0.000000  1
