# generated using pymatgen
data_HoLu2Al3Cu2Si
_symmetry_space_group_name_H-M   'P 1'
_cell_length_a   6.81494967
_cell_length_b   6.83772991
_cell_length_c   4.14944700
_cell_angle_alpha   90.00000000
_cell_angle_beta   90.00000000
_cell_angle_gamma   120.30298993
_symmetry_Int_Tables_number   1
_chemical_formula_structural   HoLu2Al3Cu2Si
_chemical_formula_sum   'Ho1 Lu2 Al3 Cu2 Si1'
_cell_volume   166.94037272
_cell_formula_units_Z   1
loop_
 _symmetry_equiv_pos_site_id
 _symmetry_equiv_pos_as_xyz
  1  'x, y, z'
loop_
 _atom_site_type_symbol
 _atom_site_label
 _atom_site_symmetry_multiplicity
 _atom_site_fract_x
 _atom_site_fract_y
 _atom_site_fract_z
 _atom_site_occupancy
  Ho  Ho0  1  0.418557  0.420676  0.500000  1
  Lu  Lu1  1  0.580156  0.997658  0.500000  1
  Lu  Lu2  1  0.005013  0.584144  0.500000  1
  Al  Al3  1  0.754859  0.765336  0.000000  1
  Al  Al4  1  0.235507  0.989859  0.000000  1
  Al  Al5  1  0.008924  0.245352  0.000000  1
  Cu  Cu6  1  0.334294  0.669643  0.000000  1
  Cu  Cu7  1  0.994216  0.995120  0.500000  1
  Si  Si8  1  0.668474  0.332213  0.000000  1
