# generated using pymatgen
data_HoTm2Zn3Si2Hg
_symmetry_space_group_name_H-M   'P 1'
_cell_length_a   6.85039342
_cell_length_b   6.85039257
_cell_length_c   4.32763500
_cell_angle_alpha   90.00000000
_cell_angle_beta   90.00000000
_cell_angle_gamma   120.12811605
_symmetry_Int_Tables_number   1
_chemical_formula_structural   HoTm2Zn3Si2Hg
_chemical_formula_sum   'Ho1 Tm2 Zn3 Si2 Hg1'
_cell_volume   175.65079285
_cell_formula_units_Z   1
loop_
 _symmetry_equiv_pos_site_id
 _symmetry_equiv_pos_as_xyz
  1  'x, y, z'
loop_
 _atom_site_type_symbol
 _atom_site_label
 _atom_site_symmetry_multiplicity
 _atom_site_fract_x
 _atom_site_fract_y
 _atom_site_fract_z
 _atom_site_occupancy
  Ho  Ho0  1  0.434154  0.434154  0.500000  1
  Tm  Tm1  1  0.566292  0.000652  0.500000  1
  Tm  Tm2  1  0.000652  0.566292  0.500000  1
  Zn  Zn3  1  0.744867  0.744867  0.000000  1
  Zn  Zn4  1  0.255061  0.000496  0.000000  1
  Zn  Zn5  1  0.000496  0.255061  0.000000  1
  Si  Si6  1  0.668141  0.332912  0.000000  1
  Si  Si7  1  0.332912  0.668141  0.000000  1
  Hg  Hg8  1  0.997425  0.997425  0.500000  1
