# generated using pymatgen
data_MgMnZn(MoO4)3
_symmetry_space_group_name_H-M   'P 1'
_cell_length_a   7.11490571
_cell_length_b   8.56990714
_cell_length_c   9.95411462
_cell_angle_alpha   96.43367002
_cell_angle_beta   106.71212633
_cell_angle_gamma   101.80077421
_symmetry_Int_Tables_number   1
_chemical_formula_structural   MgMnZn(MoO4)3
_chemical_formula_sum   'Mg2 Mn2 Zn2 Mo6 O24'
_cell_volume   559.49082772
_cell_formula_units_Z   2
loop_
 _symmetry_equiv_pos_site_id
 _symmetry_equiv_pos_as_xyz
  1  'x, y, z'
loop_
 _atom_site_type_symbol
 _atom_site_label
 _atom_site_symmetry_multiplicity
 _atom_site_fract_x
 _atom_site_fract_y
 _atom_site_fract_z
 _atom_site_occupancy
  Mg  Mg0  1  0.534551  0.694832  0.489481  1
  Mg  Mg1  1  0.465449  0.305168  0.510519  1
  Mn  Mn2  1  0.251829  0.693719  0.910192  1
  Mn  Mn3  1  0.748171  0.306281  0.089808  1
  Zn  Zn4  1  0.965826  0.886336  0.708652  1
  Zn  Zn5  1  0.034174  0.113664  0.291348  1
  Mo  Mo6  1  0.504360  0.990473  0.752492  1
  Mo  Mo7  1  0.495640  0.009527  0.247508  1
  Mo  Mo8  1  0.697818  0.604844  0.832987  1
  Mo  Mo9  1  0.302182  0.395156  0.167013  1
  Mo  Mo10  1  0.981217  0.709301  0.377476  1
  Mo  Mo11  1  0.018783  0.290699  0.622524  1
  O  O12  1  0.264177  0.871909  0.761266  1
  O  O13  1  0.735823  0.128091  0.238734  1
  O  O14  1  0.558054  0.708911  0.917537  1
  O  O15  1  0.441946  0.291089  0.082463  1
  O  O16  1  0.554871  0.524402  0.645255  1
  O  O17  1  0.445129  0.475598  0.354745  1
  O  O18  1  0.547584  0.864200  0.356337  1
  O  O19  1  0.452416  0.135800  0.643663  1
  O  O20  1  0.658521  0.095193  0.923705  1
  O  O21  1  0.341479  0.904807  0.076295  1
  O  O22  1  0.644678  0.862980  0.678659  1
  O  O23  1  0.355322  0.137020  0.321341  1
  O  O24  1  0.019146  0.120222  0.712599  1
  O  O25  1  0.980854  0.879778  0.287401  1
  O  O26  1  0.052363  0.265117  0.148614  1
  O  O27  1  0.947637  0.734883  0.851386  1
  O  O28  1  0.145735  0.472267  0.749161  1
  O  O29  1  0.854265  0.527733  0.250839  1
  O  O30  1  0.144125  0.267727  0.485069  1
  O  O31  1  0.855875  0.732273  0.514931  1
  O  O32  1  0.255602  0.557210  0.078548  1
  O  O33  1  0.744398  0.442790  0.921452  1
  O  O34  1  0.236608  0.706010  0.461476  1
  O  O35  1  0.763392  0.293990  0.538524  1
