# generated using pymatgen
data_Ba8Ta6ZnO24
_symmetry_space_group_name_H-M   'P 1'
_cell_length_a   5.85614200
_cell_length_b   5.85614359
_cell_length_c   19.17144500
_cell_angle_alpha   90.00000000
_cell_angle_beta   90.00000000
_cell_angle_gamma   120.00000231
_symmetry_Int_Tables_number   1
_chemical_formula_structural   Ba8Ta6ZnO24
_chemical_formula_sum   'Ba8 Ta6 Zn1 O24'
_cell_volume   569.38862336
_cell_formula_units_Z   1
loop_
 _symmetry_equiv_pos_site_id
 _symmetry_equiv_pos_as_xyz
  1  'x, y, z'
loop_
 _atom_site_type_symbol
 _atom_site_label
 _atom_site_symmetry_multiplicity
 _atom_site_fract_x
 _atom_site_fract_y
 _atom_site_fract_z
 _atom_site_occupancy
  Ba  Ba0  1  0.666667  0.333333  0.319592  1
  Ba  Ba1  1  0.666667  0.333333  0.939481  1
  Ba  Ba2  1  0.333333  0.666667  0.060519  1
  Ba  Ba3  1  0.333333  0.666667  0.680408  1
  Ba  Ba4  1  0.333333  0.666667  0.457290  1
  Ba  Ba5  1  0.666667  0.333333  0.542710  1
  Ba  Ba6  1  0.000000  0.000000  0.814632  1
  Ba  Ba7  1  0.000000  0.000000  0.185368  1
  Ta  Ta8  1  0.000000  0.000000  0.383200  1
  Ta  Ta9  1  0.666667  0.333333  0.747261  1
  Ta  Ta10  1  0.000000  0.000000  0.616800  1
  Ta  Ta11  1  0.333333  0.666667  0.877500  1
  Ta  Ta12  1  0.333333  0.666667  0.252739  1
  Ta  Ta13  1  0.666667  0.333333  0.122500  1
  Zn  Zn14  1  0.000000  0.000000  0.000000  1
  O  O15  1  0.168747  0.831253  0.306602  1
  O  O16  1  0.337492  0.168747  0.693398  1
  O  O17  1  0.163108  0.836892  0.571427  1
  O  O18  1  0.836892  0.163108  0.428573  1
  O  O19  1  0.498665  0.501335  0.187192  1
  O  O20  1  0.501335  0.498665  0.812808  1
  O  O21  1  0.501335  0.002671  0.812808  1
  O  O22  1  0.997329  0.498665  0.812808  1
  O  O23  1  0.002671  0.501335  0.187192  1
  O  O24  1  0.498665  0.997329  0.187192  1
  O  O25  1  0.173056  0.826944  0.933516  1
  O  O26  1  0.326215  0.163108  0.428573  1
  O  O27  1  0.673785  0.836892  0.571427  1
  O  O28  1  0.168747  0.337492  0.306602  1
  O  O29  1  0.836892  0.673785  0.428573  1
  O  O30  1  0.826944  0.653887  0.066484  1
  O  O31  1  0.831253  0.662508  0.693398  1
  O  O32  1  0.662508  0.831253  0.306602  1
  O  O33  1  0.346113  0.173056  0.066484  1
  O  O34  1  0.826944  0.173056  0.066484  1
  O  O35  1  0.163108  0.326215  0.571427  1
  O  O36  1  0.173056  0.346113  0.933516  1
  O  O37  1  0.653887  0.826944  0.933516  1
  O  O38  1  0.831253  0.168747  0.693398  1
