# generated using pymatgen
data_Rb2Tm4Cu4S9
_symmetry_space_group_name_H-M   'P 1'
_cell_length_a   3.93893201
_cell_length_b   7.18517334
_cell_length_c   15.16168315
_cell_angle_alpha   93.99514130
_cell_angle_beta   97.46367600
_cell_angle_gamma   105.90847051
_symmetry_Int_Tables_number   1
_chemical_formula_structural   Rb2Tm4Cu4S9
_chemical_formula_sum   'Rb2 Tm4 Cu4 S9'
_cell_volume   406.67242188
_cell_formula_units_Z   1
loop_
 _symmetry_equiv_pos_site_id
 _symmetry_equiv_pos_as_xyz
  1  'x, y, z'
loop_
 _atom_site_type_symbol
 _atom_site_label
 _atom_site_symmetry_multiplicity
 _atom_site_fract_x
 _atom_site_fract_y
 _atom_site_fract_z
 _atom_site_occupancy
  Rb  Rb0  1  0.257664  0.286308  0.229019  1
  Rb  Rb1  1  0.742336  0.713692  0.770981  1
  Tm  Tm2  1  0.400687  0.746619  0.054754  1
  Tm  Tm3  1  0.628458  0.860660  0.396255  1
  Tm  Tm4  1  0.371543  0.139341  0.603745  1
  Tm  Tm5  1  0.599313  0.253380  0.945246  1
  Cu  Cu6  1  0.980913  0.732219  0.229610  1
  Cu  Cu7  1  0.890849  0.321796  0.459904  1
  Cu  Cu8  1  0.109151  0.678204  0.540096  1
  Cu  Cu9  1  0.019088  0.267782  0.770390  1
  S  S10  1  0.000000  0.000000  0.000000  1
  S  S11  1  0.804965  0.511271  0.098660  1
  S  S12  1  0.566714  0.910549  0.222879  1
  S  S13  1  0.985346  0.594861  0.375834  1
  S  S14  1  0.283656  0.141692  0.425620  1
  S  S15  1  0.716344  0.858307  0.574380  1
  S  S16  1  0.014655  0.405140  0.624166  1
  S  S17  1  0.433286  0.089451  0.777121  1
  S  S18  1  0.195035  0.488728  0.901340  1
