# generated using pymatgen
data_Ac(CoP)2
_symmetry_space_group_name_H-M   'P 1'
_cell_length_a   6.41192129
_cell_length_b   6.41192113
_cell_length_c   6.41192103
_cell_angle_alpha   145.18064251
_cell_angle_beta   145.18064452
_cell_angle_gamma   50.06540809
_symmetry_Int_Tables_number   1
_chemical_formula_structural   Ac(CoP)2
_chemical_formula_sum   'Ac1 Co2 P2'
_cell_volume   85.52901191
_cell_formula_units_Z   1
loop_
 _symmetry_equiv_pos_site_id
 _symmetry_equiv_pos_as_xyz
  1  'x, y, z'
loop_
 _atom_site_type_symbol
 _atom_site_label
 _atom_site_symmetry_multiplicity
 _atom_site_fract_x
 _atom_site_fract_y
 _atom_site_fract_z
 _atom_site_occupancy
  Ac  Ac0  1  0.000000  0.000000  0.000000  1
  Co  Co1  1  0.750000  0.250000  0.500000  1
  Co  Co2  1  0.250000  0.750000  0.500000  1
  P  P3  1  0.652323  0.652323  0.000000  1
  P  P4  1  0.347677  0.347677  0.000000  1
