# generated using pymatgen
data_Tb5Lu5Pb6
_symmetry_space_group_name_H-M   'P 1'
_cell_length_a   6.55225600
_cell_length_b   8.99786067
_cell_length_c   9.01581861
_cell_angle_alpha   119.99758963
_cell_angle_beta   90.00097841
_cell_angle_gamma   89.99810207
_symmetry_Int_Tables_number   1
_chemical_formula_structural   Tb5Lu5Pb6
_chemical_formula_sum   'Tb5 Lu5 Pb6'
_cell_volume   460.33761761
_cell_formula_units_Z   1
loop_
 _symmetry_equiv_pos_site_id
 _symmetry_equiv_pos_as_xyz
  1  'x, y, z'
loop_
 _atom_site_type_symbol
 _atom_site_label
 _atom_site_symmetry_multiplicity
 _atom_site_fract_x
 _atom_site_fract_y
 _atom_site_fract_z
 _atom_site_occupancy
  Tb  Tb0  1  0.749999  0.236815  0.999853  1
  Tb  Tb1  1  0.750005  0.763272  0.762657  1
  Tb  Tb2  1  0.750011  0.000315  0.237908  1
  Tb  Tb3  1  0.250007  0.762974  0.999425  1
  Tb  Tb4  1  0.250012  0.237072  0.236741  1
  Lu  Lu5  1  0.249993  0.999738  0.763075  1
  Lu  Lu6  1  0.499855  0.333153  0.666863  1
  Lu  Lu7  1  0.499855  0.666725  0.333299  1
  Lu  Lu8  1  0.000115  0.666783  0.333315  1
  Lu  Lu9  1  0.000151  0.333195  0.666859  1
  Pb  Pb10  1  0.749990  0.603419  0.999993  1
  Pb  Pb11  1  0.750006  0.396350  0.396311  1
  Pb  Pb12  1  0.750009  0.999907  0.603106  1
  Pb  Pb13  1  0.249982  0.394656  0.998729  1
  Pb  Pb14  1  0.250010  0.605629  0.604236  1
  Pb  Pb15  1  0.250000  0.999997  0.397629  1
