# generated using pymatgen
data_Tm8Nb9Ge16Mo3
_symmetry_space_group_name_H-M   'P 1'
_cell_length_a   6.90468017
_cell_length_b   7.12540930
_cell_length_c   13.45300700
_cell_angle_alpha   90.00000000
_cell_angle_beta   90.00000000
_cell_angle_gamma   89.97800341
_symmetry_Int_Tables_number   1
_chemical_formula_structural   Tm8Nb9Ge16Mo3
_chemical_formula_sum   'Tm8 Nb9 Ge16 Mo3'
_cell_volume   661.87003345
_cell_formula_units_Z   1
loop_
 _symmetry_equiv_pos_site_id
 _symmetry_equiv_pos_as_xyz
  1  'x, y, z'
loop_
 _atom_site_type_symbol
 _atom_site_label
 _atom_site_symmetry_multiplicity
 _atom_site_fract_x
 _atom_site_fract_y
 _atom_site_fract_z
 _atom_site_occupancy
  Tm  Tm0  1  0.496576  0.325205  0.093597  1
  Tm  Tm1  1  0.996362  0.175058  0.406383  1
  Tm  Tm2  1  0.502994  0.674937  0.593880  1
  Tm  Tm3  1  0.002698  0.824907  0.906354  1
  Tm  Tm4  1  0.502994  0.674937  0.906120  1
  Tm  Tm5  1  0.002698  0.824907  0.593646  1
  Tm  Tm6  1  0.496576  0.325205  0.406403  1
  Tm  Tm7  1  0.996362  0.175058  0.093617  1
  Nb  Nb8  1  0.835894  0.333880  0.626501  1
  Nb  Nb9  1  0.335178  0.166469  0.873836  1
  Nb  Nb10  1  0.164626  0.665547  0.127230  1
  Nb  Nb11  1  0.665165  0.834587  0.372102  1
  Nb  Nb12  1  0.164626  0.665547  0.372770  1
  Nb  Nb13  1  0.665165  0.834587  0.127898  1
  Nb  Nb14  1  0.835894  0.333880  0.873499  1
  Nb  Nb15  1  0.335178  0.166469  0.626164  1
  Nb  Nb16  1  0.661159  0.010876  0.750000  1
  Ge  Ge17  1  0.674975  0.038831  0.542446  1
  Ge  Ge18  1  0.174869  0.460514  0.956448  1
  Ge  Ge19  1  0.325604  0.960305  0.044134  1
  Ge  Ge20  1  0.825327  0.539965  0.456058  1
  Ge  Ge21  1  0.325604  0.960305  0.455866  1
  Ge  Ge22  1  0.825327  0.539965  0.043942  1
  Ge  Ge23  1  0.674975  0.038831  0.957554  1
  Ge  Ge24  1  0.174869  0.460514  0.543552  1
  Ge  Ge25  1  0.530193  0.381520  0.750000  1
  Ge  Ge26  1  0.035280  0.120959  0.750000  1
  Ge  Ge27  1  0.468282  0.620017  0.250000  1
  Ge  Ge28  1  0.969311  0.880426  0.250000  1
  Ge  Ge29  1  0.804115  0.641920  0.750000  1
  Ge  Ge30  1  0.300843  0.853835  0.750000  1
  Ge  Ge31  1  0.195690  0.355141  0.250000  1
  Ge  Ge32  1  0.695729  0.145334  0.250000  1
  Mo  Mo33  1  0.160828  0.489285  0.750000  1
  Mo  Mo34  1  0.339349  0.989641  0.250000  1
  Mo  Mo35  1  0.838686  0.510636  0.250000  1
