# generated using pymatgen
data_ErTm2(InAu)3
_symmetry_space_group_name_H-M   'P 1'
_cell_length_a   7.73679903
_cell_length_b   7.73679848
_cell_length_c   3.94303600
_cell_angle_alpha   90.00000000
_cell_angle_beta   90.00000000
_cell_angle_gamma   120.00986430
_symmetry_Int_Tables_number   1
_chemical_formula_structural   ErTm2(InAu)3
_chemical_formula_sum   'Er1 Tm2 In3 Au3'
_cell_volume   204.38113066
_cell_formula_units_Z   1
loop_
 _symmetry_equiv_pos_site_id
 _symmetry_equiv_pos_as_xyz
  1  'x, y, z'
loop_
 _atom_site_type_symbol
 _atom_site_label
 _atom_site_symmetry_multiplicity
 _atom_site_fract_x
 _atom_site_fract_y
 _atom_site_fract_z
 _atom_site_occupancy
  Er  Er0  1  0.404158  0.404158  0.500000  1
  Tm  Tm1  1  0.595741  0.000159  0.500000  1
  Tm  Tm2  1  0.000159  0.595741  0.500000  1
  In  In3  1  0.738676  0.738676  0.000000  1
  In  In4  1  0.261503  0.999910  0.000000  1
  In  In5  1  0.999910  0.261503  0.000000  1
  Au  Au6  1  0.666986  0.333144  0.000000  1
  Au  Au7  1  0.333144  0.666986  0.000000  1
  Au  Au8  1  0.999723  0.999723  0.500000  1
