# generated using pymatgen
data_Sm2Er3Zr3(Co4As3)4
_symmetry_space_group_name_H-M   'P 1'
_cell_length_a   12.77022000
_cell_length_b   12.77022106
_cell_length_c   3.84803700
_cell_angle_alpha   90.00000000
_cell_angle_beta   90.00000000
_cell_angle_gamma   120.00000762
_symmetry_Int_Tables_number   1
_chemical_formula_structural   Sm2Er3Zr3(Co4As3)4
_chemical_formula_sum   'Sm2 Er3 Zr3 Co16 As12'
_cell_volume   543.45880810
_cell_formula_units_Z   1
loop_
 _symmetry_equiv_pos_site_id
 _symmetry_equiv_pos_as_xyz
  1  'x, y, z'
loop_
 _atom_site_type_symbol
 _atom_site_label
 _atom_site_symmetry_multiplicity
 _atom_site_fract_x
 _atom_site_fract_y
 _atom_site_fract_z
 _atom_site_occupancy
  Sm  Sm0  1  0.333333  0.666667  0.000000  1
  Sm  Sm1  1  0.666667  0.333333  0.000000  1
  Er  Er2  1  0.182524  0.182524  0.500000  1
  Er  Er3  1  0.817476  0.000000  0.500000  1
  Er  Er4  1  0.000000  0.817476  0.500000  1
  Zr  Zr5  1  0.560838  0.560838  0.000000  1
  Zr  Zr6  1  0.439162  0.000000  0.000000  1
  Zr  Zr7  1  0.000000  0.439162  0.000000  1
  Co  Co8  1  0.721053  0.721053  0.500000  1
  Co  Co9  1  0.278947  0.000000  0.500000  1
  Co  Co10  1  0.000000  0.278947  0.500000  1
  Co  Co11  1  0.177237  0.372337  0.000000  1
  Co  Co12  1  0.627663  0.804900  0.000000  1
  Co  Co13  1  0.195100  0.822763  0.000000  1
  Co  Co14  1  0.804900  0.627663  0.000000  1
  Co  Co15  1  0.822763  0.195100  0.000000  1
  Co  Co16  1  0.372337  0.177237  0.000000  1
  Co  Co17  1  0.357049  0.478592  0.500000  1
  Co  Co18  1  0.521408  0.878458  0.500000  1
  Co  Co19  1  0.121542  0.642951  0.500000  1
  Co  Co20  1  0.878458  0.521408  0.500000  1
  Co  Co21  1  0.642951  0.121542  0.500000  1
  Co  Co22  1  0.478592  0.357049  0.500000  1
  Co  Co23  1  0.000000  0.000000  0.000000  1
  As  As24  1  0.823486  0.823486  0.000000  1
  As  As25  1  0.176514  0.000000  0.000000  1
  As  As26  1  0.000000  0.176514  0.000000  1
  As  As27  1  0.172056  0.479498  0.500000  1
  As  As28  1  0.520502  0.692558  0.500000  1
  As  As29  1  0.307442  0.827944  0.500000  1
  As  As30  1  0.692558  0.520502  0.500000  1
  As  As31  1  0.827944  0.307442  0.500000  1
  As  As32  1  0.479498  0.172056  0.500000  1
  As  As33  1  0.351368  0.351368  0.000000  1
  As  As34  1  0.648632  0.000000  0.000000  1
  As  As35  1  0.000000  0.648632  0.000000  1
