# generated using pymatgen
data_TmScMn3Si7Pt9
_symmetry_space_group_name_H-M   'P 1'
_cell_length_a   9.91639100
_cell_length_b   9.91639107
_cell_length_c   3.86319200
_cell_angle_alpha   90.00000000
_cell_angle_beta   90.00000000
_cell_angle_gamma   119.99999513
_symmetry_Int_Tables_number   1
_chemical_formula_structural   TmScMn3Si7Pt9
_chemical_formula_sum   'Tm1 Sc1 Mn3 Si7 Pt9'
_cell_volume   328.99116414
_cell_formula_units_Z   1
loop_
 _symmetry_equiv_pos_site_id
 _symmetry_equiv_pos_as_xyz
  1  'x, y, z'
loop_
 _atom_site_type_symbol
 _atom_site_label
 _atom_site_symmetry_multiplicity
 _atom_site_fract_x
 _atom_site_fract_y
 _atom_site_fract_z
 _atom_site_occupancy
  Tm  Tm0  1  0.333333  0.666667  0.500000  1
  Sc  Sc1  1  0.000000  0.000000  0.000000  1
  Mn  Mn2  1  0.882973  0.455374  0.500000  1
  Mn  Mn3  1  0.572401  0.117027  0.500000  1
  Mn  Mn4  1  0.544626  0.427599  0.500000  1
  Si  Si5  1  0.251973  0.208452  0.500000  1
  Si  Si6  1  0.791548  0.043523  0.500000  1
  Si  Si7  1  0.956477  0.748027  0.500000  1
  Si  Si8  1  0.553316  0.634385  0.000000  1
  Si  Si9  1  0.365615  0.918928  0.000000  1
  Si  Si10  1  0.081072  0.446684  0.000000  1
  Si  Si11  1  0.666667  0.333333  0.000000  1
  Pt  Pt12  1  0.221658  0.947077  0.500000  1
  Pt  Pt13  1  0.052923  0.274581  0.500000  1
  Pt  Pt14  1  0.725419  0.778342  0.500000  1
  Pt  Pt15  1  0.305991  0.410982  0.000000  1
  Pt  Pt16  1  0.589018  0.895009  0.000000  1
  Pt  Pt17  1  0.104991  0.694009  0.000000  1
  Pt  Pt18  1  0.393814  0.178985  0.000000  1
  Pt  Pt19  1  0.821015  0.214829  0.000000  1
  Pt  Pt20  1  0.785171  0.606186  0.000000  1
