# generated using pymatgen
data_Sm5Zr3(P3Pd4)4
_symmetry_space_group_name_H-M   'P 1'
_cell_length_a   13.19630100
_cell_length_b   13.19629910
_cell_length_c   4.03741000
_cell_angle_alpha   90.00000000
_cell_angle_beta   90.00000000
_cell_angle_gamma   120.00000225
_symmetry_Int_Tables_number   1
_chemical_formula_structural   Sm5Zr3(P3Pd4)4
_chemical_formula_sum   'Sm5 Zr3 P12 Pd16'
_cell_volume   608.88859548
_cell_formula_units_Z   1
loop_
 _symmetry_equiv_pos_site_id
 _symmetry_equiv_pos_as_xyz
  1  'x, y, z'
loop_
 _atom_site_type_symbol
 _atom_site_label
 _atom_site_symmetry_multiplicity
 _atom_site_fract_x
 _atom_site_fract_y
 _atom_site_fract_z
 _atom_site_occupancy
  Sm  Sm0  1  0.188526  0.188526  0.500000  1
  Sm  Sm1  1  0.811474  0.000000  0.500000  1
  Sm  Sm2  1  0.000000  0.811474  0.500000  1
  Sm  Sm3  1  0.333333  0.666667  0.000000  1
  Sm  Sm4  1  0.666667  0.333333  0.000000  1
  Zr  Zr5  1  0.554513  0.554513  0.000000  1
  Zr  Zr6  1  0.445487  0.000000  0.000000  1
  Zr  Zr7  1  0.000000  0.445487  0.000000  1
  P  P8  1  0.825202  0.825202  0.000000  1
  P  P9  1  0.174798  0.000000  0.000000  1
  P  P10  1  0.000000  0.174798  0.000000  1
  P  P11  1  0.164727  0.480016  0.500000  1
  P  P12  1  0.519984  0.684710  0.500000  1
  P  P13  1  0.315290  0.835273  0.500000  1
  P  P14  1  0.684710  0.519984  0.500000  1
  P  P15  1  0.835273  0.315290  0.500000  1
  P  P16  1  0.480016  0.164727  0.500000  1
  P  P17  1  0.358555  0.358555  0.000000  1
  P  P18  1  0.641445  0.000000  0.000000  1
  P  P19  1  0.000000  0.641445  0.000000  1
  Pd  Pd20  1  0.725864  0.725864  0.500000  1
  Pd  Pd21  1  0.274136  0.000000  0.500000  1
  Pd  Pd22  1  0.000000  0.274136  0.500000  1
  Pd  Pd23  1  0.183216  0.375400  0.000000  1
  Pd  Pd24  1  0.624600  0.807815  0.000000  1
  Pd  Pd25  1  0.192185  0.816784  0.000000  1
  Pd  Pd26  1  0.807815  0.624600  0.000000  1
  Pd  Pd27  1  0.816784  0.192185  0.000000  1
  Pd  Pd28  1  0.375400  0.183216  0.000000  1
  Pd  Pd29  1  0.358449  0.488119  0.500000  1
  Pd  Pd30  1  0.511881  0.870330  0.500000  1
  Pd  Pd31  1  0.129670  0.641551  0.500000  1
  Pd  Pd32  1  0.870330  0.511881  0.500000  1
  Pd  Pd33  1  0.641551  0.129670  0.500000  1
  Pd  Pd34  1  0.488119  0.358449  0.500000  1
  Pd  Pd35  1  0.000000  0.000000  0.000000  1
