# generated using pymatgen
data_Tb2Nd3SmNiBr10
_symmetry_space_group_name_H-M   'P 1'
_cell_length_a   7.47245097
_cell_length_b   9.44808241
_cell_length_c   9.52065997
_cell_angle_alpha   108.03379137
_cell_angle_beta   95.40054503
_cell_angle_gamma   105.60729417
_symmetry_Int_Tables_number   1
_chemical_formula_structural   Tb2Nd3SmNiBr10
_chemical_formula_sum   'Tb2 Nd3 Sm1 Ni1 Br10'
_cell_volume   603.91462070
_cell_formula_units_Z   1
loop_
 _symmetry_equiv_pos_site_id
 _symmetry_equiv_pos_as_xyz
  1  'x, y, z'
loop_
 _atom_site_type_symbol
 _atom_site_label
 _atom_site_symmetry_multiplicity
 _atom_site_fract_x
 _atom_site_fract_y
 _atom_site_fract_z
 _atom_site_occupancy
  Tb  Tb0  1  0.348411  0.126226  0.169442  1
  Tb  Tb1  1  0.651600  0.871615  0.829990  1
  Nd  Nd2  1  0.131691  0.050342  0.756504  1
  Nd  Nd3  1  0.866733  0.951415  0.243430  1
  Nd  Nd4  1  0.969371  0.297840  0.095490  1
  Sm  Sm5  1  0.032492  0.707507  0.907057  1
  Ni  Ni6  1  0.999878  0.000594  0.999995  1
  Br  Br7  1  0.550233  0.172865  0.918361  1
  Br  Br8  1  0.447703  0.823474  0.079749  1
  Br  Br9  1  0.356959  0.441678  0.266203  1
  Br  Br10  1  0.652540  0.557683  0.735170  1
  Br  Br11  1  0.247260  0.076522  0.441900  1
  Br  Br12  1  0.750393  0.920250  0.557309  1
  Br  Br13  1  0.760841  0.247628  0.339105  1
  Br  Br14  1  0.234947  0.750370  0.663113  1
  Br  Br15  1  0.086896  0.372126  0.828026  1
  Br  Br16  1  0.912049  0.631866  0.169154  1
