# generated using pymatgen
data_Pr3GaPt3Au2
_symmetry_space_group_name_H-M   'P 1'
_cell_length_a   7.71157773
_cell_length_b   7.51151957
_cell_length_c   3.95950900
_cell_angle_alpha   90.00000000
_cell_angle_beta   90.00000000
_cell_angle_gamma   119.14547777
_symmetry_Int_Tables_number   1
_chemical_formula_structural   Pr3GaPt3Au2
_chemical_formula_sum   'Pr3 Ga1 Pt3 Au2'
_cell_volume   200.31735019
_cell_formula_units_Z   1
loop_
 _symmetry_equiv_pos_site_id
 _symmetry_equiv_pos_as_xyz
  1  'x, y, z'
loop_
 _atom_site_type_symbol
 _atom_site_label
 _atom_site_symmetry_multiplicity
 _atom_site_fract_x
 _atom_site_fract_y
 _atom_site_fract_z
 _atom_site_occupancy
  Pr  Pr0  1  0.404161  0.393609  0.500000  1
  Pr  Pr1  1  0.595839  0.989448  0.500000  1
  Pr  Pr2  1  0.000000  0.616704  0.500000  1
  Ga  Ga3  1  0.000000  0.257379  0.000000  1
  Pt  Pt4  1  0.688637  0.327542  0.000000  1
  Pt  Pt5  1  0.311363  0.638907  0.000000  1
  Pt  Pt6  1  0.000000  0.039723  0.500000  1
  Au  Au7  1  0.735706  0.736198  0.000000  1
  Au  Au8  1  0.264294  0.000491  0.000000  1
