# generated using pymatgen
data_Tb7HoSi12IrPd3
_symmetry_space_group_name_H-M   'P 1'
_cell_length_a   8.21479300
_cell_length_b   8.21174641
_cell_length_c   7.96208402
_cell_angle_alpha   90.00684679
_cell_angle_beta   90.00000000
_cell_angle_gamma   120.01227751
_symmetry_Int_Tables_number   1
_chemical_formula_structural   Tb7HoSi12IrPd3
_chemical_formula_sum   'Tb7 Ho1 Si12 Ir1 Pd3'
_cell_volume   465.08870727
_cell_formula_units_Z   1
loop_
 _symmetry_equiv_pos_site_id
 _symmetry_equiv_pos_as_xyz
  1  'x, y, z'
loop_
 _atom_site_type_symbol
 _atom_site_label
 _atom_site_symmetry_multiplicity
 _atom_site_fract_x
 _atom_site_fract_y
 _atom_site_fract_z
 _atom_site_occupancy
  Tb  Tb0  1  0.488171  0.976343  0.751492  1
  Tb  Tb1  1  0.982588  0.491238  0.247751  1
  Tb  Tb2  1  0.023477  0.511804  0.751443  1
  Tb  Tb3  1  0.508649  0.491238  0.247751  1
  Tb  Tb4  1  0.488326  0.511804  0.751443  1
  Tb  Tb5  1  0.999991  0.999983  0.251641  1
  Tb  Tb6  1  0.000019  0.000038  0.750216  1
  Ho  Ho7  1  0.507995  0.015990  0.247426  1
  Si  Si8  1  0.167235  0.334469  0.003770  1
  Si  Si9  1  0.835203  0.670405  0.997678  1
  Si  Si10  1  0.666032  0.833099  0.003845  1
  Si  Si11  1  0.834623  0.669247  0.500854  1
  Si  Si12  1  0.329623  0.164720  0.998374  1
  Si  Si13  1  0.165296  0.330592  0.500734  1
  Si  Si14  1  0.167068  0.833099  0.003845  1
  Si  Si15  1  0.330783  0.165258  0.500108  1
  Si  Si16  1  0.835098  0.164720  0.998374  1
  Si  Si17  1  0.669712  0.834909  0.500625  1
  Si  Si18  1  0.834475  0.165258  0.500108  1
  Si  Si19  1  0.165198  0.834909  0.500625  1
  Ir  Ir20  1  0.333800  0.667601  0.033987  1
  Pd  Pd21  1  0.666400  0.332798  0.967041  1
  Pd  Pd22  1  0.666407  0.332813  0.536391  1
  Pd  Pd23  1  0.333831  0.667663  0.454486  1
