# generated using pymatgen
data_Dy2Cu2AsP3
_symmetry_space_group_name_H-M   'P 1'
_cell_length_a   3.76385300
_cell_length_b   3.76385300
_cell_length_c   9.75370800
_cell_angle_alpha   90.00000000
_cell_angle_beta   90.00000000
_cell_angle_gamma   90.00000000
_symmetry_Int_Tables_number   1
_chemical_formula_structural   Dy2Cu2AsP3
_chemical_formula_sum   'Dy2 Cu2 As1 P3'
_cell_volume   138.17677642
_cell_formula_units_Z   1
loop_
 _symmetry_equiv_pos_site_id
 _symmetry_equiv_pos_as_xyz
  1  'x, y, z'
loop_
 _atom_site_type_symbol
 _atom_site_label
 _atom_site_symmetry_multiplicity
 _atom_site_fract_x
 _atom_site_fract_y
 _atom_site_fract_z
 _atom_site_occupancy
  Dy  Dy0  1  0.000000  0.500000  0.762362  1
  Dy  Dy1  1  0.500000  0.000000  0.237638  1
  Cu  Cu2  1  0.500000  0.500000  0.500000  1
  Cu  Cu3  1  0.000000  0.000000  0.500000  1
  As  As4  1  0.500000  0.500000  0.000000  1
  P  P5  1  0.000000  0.000000  0.000000  1
  P  P6  1  0.000000  0.500000  0.345705  1
  P  P7  1  0.500000  0.000000  0.654295  1
