# generated using pymatgen
data_Al2Ga3CuRh6
_symmetry_space_group_name_H-M   'P 1'
_cell_length_a   4.25416839
_cell_length_b   6.02896500
_cell_length_c   12.83937216
_cell_angle_alpha   90.00000000
_cell_angle_beta   89.95110451
_cell_angle_gamma   90.00000000
_symmetry_Int_Tables_number   1
_chemical_formula_structural   Al2Ga3CuRh6
_chemical_formula_sum   'Al4 Ga6 Cu2 Rh12'
_cell_volume   329.30708020
_cell_formula_units_Z   2
loop_
 _symmetry_equiv_pos_site_id
 _symmetry_equiv_pos_as_xyz
  1  'x, y, z'
loop_
 _atom_site_type_symbol
 _atom_site_label
 _atom_site_symmetry_multiplicity
 _atom_site_fract_x
 _atom_site_fract_y
 _atom_site_fract_z
 _atom_site_occupancy
  Al  Al0  1  0.000088  0.000000  0.999317  1
  Al  Al1  1  0.500206  0.500000  0.165942  1
  Al  Al2  1  0.000084  0.000000  0.334069  1
  Al  Al3  1  0.499990  0.500000  0.500721  1
  Ga  Ga4  1  0.000281  0.500000  0.994964  1
  Ga  Ga5  1  0.500408  0.000000  0.165911  1
  Ga  Ga6  1  0.000113  0.500000  0.334109  1
  Ga  Ga7  1  0.500146  0.000000  0.505002  1
  Ga  Ga8  1  0.999937  0.500000  0.672892  1
  Ga  Ga9  1  0.500023  0.000000  0.827319  1
  Cu  Cu10  1  0.999718  0.000000  0.667622  1
  Cu  Cu11  1  0.499260  0.500000  0.832305  1
  Rh  Rh12  1  0.500097  0.248557  0.003829  1
  Rh  Rh13  1  0.500097  0.751444  0.003829  1
  Rh  Rh14  1  0.000142  0.251252  0.167667  1
  Rh  Rh15  1  0.000142  0.748747  0.167667  1
  Rh  Rh16  1  0.500019  0.248746  0.332312  1
  Rh  Rh17  1  0.500019  0.751253  0.332312  1
  Rh  Rh18  1  0.000009  0.251540  0.496151  1
  Rh  Rh19  1  0.000009  0.748459  0.496151  1
  Rh  Rh20  1  0.499774  0.254583  0.662538  1
  Rh  Rh21  1  0.499774  0.745416  0.662538  1
  Rh  Rh22  1  0.999834  0.245141  0.837416  1
  Rh  Rh23  1  0.999834  0.754858  0.837416  1
