# generated using pymatgen
data_Dy2Er3Tm11(InIr)4
_symmetry_space_group_name_H-M   'P 1'
_cell_length_a   9.57152396
_cell_length_b   9.56360975
_cell_length_c   9.56197610
_cell_angle_alpha   59.98036273
_cell_angle_beta   59.97825386
_cell_angle_gamma   59.96133634
_symmetry_Int_Tables_number   1
_chemical_formula_structural   Dy2Er3Tm11(InIr)4
_chemical_formula_sum   'Dy2 Er3 Tm11 In4 Ir4'
_cell_volume   618.54700957
_cell_formula_units_Z   1
loop_
 _symmetry_equiv_pos_site_id
 _symmetry_equiv_pos_as_xyz
  1  'x, y, z'
loop_
 _atom_site_type_symbol
 _atom_site_label
 _atom_site_symmetry_multiplicity
 _atom_site_fract_x
 _atom_site_fract_y
 _atom_site_fract_z
 _atom_site_occupancy
  Dy  Dy0  1  0.810430  0.810872  0.189297  1
  Dy  Dy1  1  0.189401  0.189297  0.810872  1
  Er  Er2  1  0.808677  0.191323  0.191323  1
  Er  Er3  1  0.809794  0.189869  0.810332  1
  Er  Er4  1  0.190005  0.810332  0.189869  1
  Tm  Tm5  1  0.597748  0.598631  0.598643  1
  Tm  Tm6  1  0.598092  0.600229  0.203486  1
  Tm  Tm7  1  0.598193  0.203486  0.600229  1
  Tm  Tm8  1  0.204978  0.598643  0.598631  1
  Tm  Tm9  1  0.060054  0.439946  0.439946  1
  Tm  Tm10  1  0.440078  0.059922  0.059922  1
  Tm  Tm11  1  0.440494  0.059126  0.439993  1
  Tm  Tm12  1  0.060387  0.439993  0.059126  1
  Tm  Tm13  1  0.440600  0.440110  0.059069  1
  Tm  Tm14  1  0.060221  0.059069  0.440110  1
  Tm  Tm15  1  0.190652  0.809348  0.809348  1
  In  In16  1  0.834068  0.832895  0.832403  1
  In  In17  1  0.832907  0.832856  0.501762  1
  In  In18  1  0.832475  0.501762  0.832856  1
  In  In19  1  0.500633  0.832403  0.832895  1
  Ir  Ir20  1  0.391720  0.391014  0.390457  1
  Ir  Ir21  1  0.391048  0.391715  0.826700  1
  Ir  Ir22  1  0.390538  0.826700  0.391715  1
  Ir  Ir23  1  0.826809  0.390457  0.391014  1
