# generated using pymatgen
data_Sc4CuNi3Sn2
_symmetry_space_group_name_H-M   'P 1'
_cell_length_a   7.18404218
_cell_length_b   7.18404218
_cell_length_c   3.37325100
_cell_angle_alpha   90.00000000
_cell_angle_beta   90.00000000
_cell_angle_gamma   89.19745847
_symmetry_Int_Tables_number   1
_chemical_formula_structural   Sc4CuNi3Sn2
_chemical_formula_sum   'Sc4 Cu1 Ni3 Sn2'
_cell_volume   174.07796482
_cell_formula_units_Z   1
loop_
 _symmetry_equiv_pos_site_id
 _symmetry_equiv_pos_as_xyz
  1  'x, y, z'
loop_
 _atom_site_type_symbol
 _atom_site_label
 _atom_site_symmetry_multiplicity
 _atom_site_fract_x
 _atom_site_fract_y
 _atom_site_fract_z
 _atom_site_occupancy
  Sc  Sc0  1  0.658806  0.158806  0.500000  1
  Sc  Sc1  1  0.180745  0.333522  0.500000  1
  Sc  Sc2  1  0.833522  0.680745  0.500000  1
  Sc  Sc3  1  0.329981  0.829981  0.500000  1
  Cu  Cu4  1  0.877989  0.377989  0.000000  1
  Ni  Ni5  1  0.374126  0.121009  0.000000  1
  Ni  Ni6  1  0.621009  0.874126  0.000000  1
  Ni  Ni7  1  0.120497  0.620497  0.000000  1
  Sn  Sn8  1  0.001743  0.001583  0.000000  1
  Sn  Sn9  1  0.501583  0.501743  0.000000  1
