# generated using pymatgen
data_Tb2Dy17MgIr12
_symmetry_space_group_name_H-M   'P 1'
_cell_length_a   10.87714307
_cell_length_b   10.87599001
_cell_length_c   6.32124204
_cell_angle_alpha   89.99791472
_cell_angle_beta   90.01259417
_cell_angle_gamma   89.99705014
_symmetry_Int_Tables_number   1
_chemical_formula_structural   Tb2Dy17MgIr12
_chemical_formula_sum   'Tb2 Dy17 Mg1 Ir12'
_cell_volume   747.80101295
_cell_formula_units_Z   1
loop_
 _symmetry_equiv_pos_site_id
 _symmetry_equiv_pos_as_xyz
  1  'x, y, z'
loop_
 _atom_site_type_symbol
 _atom_site_label
 _atom_site_symmetry_multiplicity
 _atom_site_fract_x
 _atom_site_fract_y
 _atom_site_fract_z
 _atom_site_occupancy
  Tb  Tb0  1  0.283891  0.084878  0.379859  1
  Tb  Tb1  1  0.290369  0.911678  0.879947  1
  Dy  Dy2  1  0.709419  0.088220  0.880183  1
  Dy  Dy3  1  0.715914  0.915274  0.380085  1
  Dy  Dy4  1  0.589219  0.792113  0.880829  1
  Dy  Dy5  1  0.587930  0.207813  0.378804  1
  Dy  Dy6  1  0.412284  0.792091  0.378796  1
  Dy  Dy7  1  0.410976  0.207973  0.880828  1
  Dy  Dy8  1  0.207769  0.412202  0.621232  1
  Dy  Dy9  1  0.207832  0.589077  0.119191  1
  Dy  Dy10  1  0.792163  0.410891  0.119173  1
  Dy  Dy11  1  0.792231  0.587818  0.621206  1
  Dy  Dy12  1  0.911786  0.709403  0.119812  1
  Dy  Dy13  1  0.915257  0.284104  0.619916  1
  Dy  Dy14  1  0.084660  0.715841  0.619876  1
  Dy  Dy15  1  0.088135  0.290673  0.119760  1
  Dy  Dy16  1  0.999883  0.000039  0.000042  1
  Dy  Dy17  1  0.500003  0.499994  0.000016  1
  Dy  Dy18  1  0.500010  0.500003  0.500029  1
  Mg  Mg19  1  0.999910  0.999978  0.500027  1
  Ir  Ir20  1  0.846700  0.153990  0.247843  1
  Ir  Ir21  1  0.846011  0.846653  0.752145  1
  Ir  Ir22  1  0.153818  0.153529  0.752444  1
  Ir  Ir23  1  0.153130  0.845764  0.248103  1
  Ir  Ir24  1  0.654557  0.345989  0.748098  1
  Ir  Ir25  1  0.654013  0.654559  0.251889  1
  Ir  Ir26  1  0.346038  0.345615  0.251802  1
  Ir  Ir27  1  0.345491  0.653835  0.748029  1
  Ir  Ir28  1  0.500317  0.999997  0.125182  1
  Ir  Ir29  1  0.500310  0.000002  0.621247  1
  Ir  Ir30  1  0.999988  0.499989  0.874843  1
  Ir  Ir31  1  0.999989  0.500013  0.378765  1
