# generated using pymatgen
data_Zr(MoBr6)2
_symmetry_space_group_name_H-M   'P 1'
_cell_length_a   9.58227115
_cell_length_b   9.58227116
_cell_length_c   7.36633900
_cell_angle_alpha   69.49017588
_cell_angle_beta   69.49016948
_cell_angle_gamma   84.46366024
_symmetry_Int_Tables_number   1
_chemical_formula_structural   Zr(MoBr6)2
_chemical_formula_sum   'Zr1 Mo2 Br12'
_cell_volume   593.07985450
_cell_formula_units_Z   1
loop_
 _symmetry_equiv_pos_site_id
 _symmetry_equiv_pos_as_xyz
  1  'x, y, z'
loop_
 _atom_site_type_symbol
 _atom_site_label
 _atom_site_symmetry_multiplicity
 _atom_site_fract_x
 _atom_site_fract_y
 _atom_site_fract_z
 _atom_site_occupancy
  Zr  Zr0  1  0.734423  0.734423  0.264192  1
  Mo  Mo1  1  0.238547  0.238547  0.763682  1
  Mo  Mo2  1  0.024443  0.024443  0.974892  1
  Br  Br3  1  0.967512  0.266007  0.729789  1
  Br  Br4  1  0.266007  0.967512  0.729789  1
  Br  Br5  1  0.034935  0.761797  0.237663  1
  Br  Br6  1  0.761797  0.034935  0.237663  1
  Br  Br7  1  0.204777  0.484175  0.799037  1
  Br  Br8  1  0.484175  0.204777  0.799037  1
  Br  Br9  1  0.790701  0.488214  0.207325  1
  Br  Br10  1  0.488214  0.790701  0.207325  1
  Br  Br11  1  0.128973  0.128973  0.174333  1
  Br  Br12  1  0.885814  0.885814  0.837831  1
  Br  Br13  1  0.653842  0.653842  0.650487  1
  Br  Br14  1  0.335844  0.335844  0.386955  1
