# generated using pymatgen
data_CaGe2(PO4)2
_symmetry_space_group_name_H-M   'P 1'
_cell_length_a   6.80258392
_cell_length_b   6.80279362
_cell_length_c   9.72346800
_cell_angle_alpha   66.70347018
_cell_angle_beta   113.29117389
_cell_angle_gamma   108.58533107
_symmetry_Int_Tables_number   1
_chemical_formula_structural   CaGe2(PO4)2
_chemical_formula_sum   'Ca2 Ge4 P4 O16'
_cell_volume   372.50889853
_cell_formula_units_Z   2
loop_
 _symmetry_equiv_pos_site_id
 _symmetry_equiv_pos_as_xyz
  1  'x, y, z'
loop_
 _atom_site_type_symbol
 _atom_site_label
 _atom_site_symmetry_multiplicity
 _atom_site_fract_x
 _atom_site_fract_y
 _atom_site_fract_z
 _atom_site_occupancy
  Ca  Ca0  1  0.897674  0.897642  0.750013  1
  Ca  Ca1  1  0.102346  0.102354  0.250000  1
  Ge  Ge2  1  0.267305  0.620296  0.485133  1
  Ge  Ge3  1  0.620305  0.267335  0.014880  1
  Ge  Ge4  1  0.379707  0.732658  0.985115  1
  Ge  Ge5  1  0.732699  0.379699  0.514875  1
  P  P6  1  0.972001  0.388433  0.841083  1
  P  P7  1  0.611579  0.028003  0.341093  1
  P  P8  1  0.388421  0.971997  0.658905  1
  P  P9  1  0.027991  0.611572  0.158914  1
  O  O10  1  0.260684  0.952557  0.768442  1
  O  O11  1  0.225825  0.890094  0.516361  1
  O  O12  1  0.047453  0.739322  0.268447  1
  O  O13  1  0.558340  0.828731  0.759454  1
  O  O14  1  0.109889  0.774155  0.016356  1
  O  O15  1  0.217458  0.484305  0.908922  1
  O  O16  1  0.171247  0.441643  0.259470  1
  O  O17  1  0.515701  0.782540  0.408945  1
  O  O18  1  0.484303  0.217451  0.591048  1
  O  O19  1  0.828752  0.558365  0.740531  1
  O  O20  1  0.782544  0.515700  0.091077  1
  O  O21  1  0.890093  0.225845  0.983644  1
  O  O22  1  0.441654  0.171265  0.240553  1
  O  O23  1  0.952541  0.260675  0.731550  1
  O  O24  1  0.774176  0.109903  0.483642  1
  O  O25  1  0.739312  0.047457  0.231544  1
