# generated using pymatgen
data_Pr5FeTcO12
_symmetry_space_group_name_H-M   'P 1'
_cell_length_a   7.08981291
_cell_length_b   7.08981319
_cell_length_c   7.69025428
_cell_angle_alpha   74.34331340
_cell_angle_beta   74.34331418
_cell_angle_gamma   51.05190643
_symmetry_Int_Tables_number   1
_chemical_formula_structural   Pr5FeTcO12
_chemical_formula_sum   'Pr5 Fe1 Tc1 O12'
_cell_volume   286.87030714
_cell_formula_units_Z   1
loop_
 _symmetry_equiv_pos_site_id
 _symmetry_equiv_pos_as_xyz
  1  'x, y, z'
loop_
 _atom_site_type_symbol
 _atom_site_label
 _atom_site_symmetry_multiplicity
 _atom_site_fract_x
 _atom_site_fract_y
 _atom_site_fract_z
 _atom_site_occupancy
  Pr  Pr0  1  0.317552  0.297110  0.357253  1
  Pr  Pr1  1  0.702890  0.682448  0.642747  1
  Pr  Pr2  1  0.691275  0.691529  0.167532  1
  Pr  Pr3  1  0.308471  0.308725  0.832468  1
  Pr  Pr4  1  0.007358  0.992642  0.500000  1
  Fe  Fe5  1  0.749330  0.250670  0.000000  1
  Tc  Tc6  1  0.232391  0.767609  0.000000  1
  O  O7  1  0.099501  0.594254  0.575112  1
  O  O8  1  0.008097  0.989990  0.175818  1
  O  O9  1  0.405746  0.900499  0.424888  1
  O  O10  1  0.484571  0.517352  0.175500  1
  O  O11  1  0.105094  0.587356  0.077689  1
  O  O12  1  0.910075  0.402195  0.419201  1
  O  O13  1  0.010010  0.991903  0.824182  1
  O  O14  1  0.597805  0.089924  0.580799  1
  O  O15  1  0.482648  0.515429  0.824500  1
  O  O16  1  0.575592  0.101048  0.078262  1
  O  O17  1  0.412644  0.894906  0.922311  1
  O  O18  1  0.898952  0.424408  0.921738  1
