# generated using pymatgen
data_La10TcIrI15
_symmetry_space_group_name_H-M   'P 1'
_cell_length_a   10.16516101
_cell_length_b   11.20104755
_cell_length_c   11.99757581
_cell_angle_alpha   91.89179690
_cell_angle_beta   114.00698680
_cell_angle_gamma   110.39833896
_symmetry_Int_Tables_number   1
_chemical_formula_structural   La10TcIrI15
_chemical_formula_sum   'La10 Tc1 Ir1 I15'
_cell_volume   1144.98965493
_cell_formula_units_Z   1
loop_
 _symmetry_equiv_pos_site_id
 _symmetry_equiv_pos_as_xyz
  1  'x, y, z'
loop_
 _atom_site_type_symbol
 _atom_site_label
 _atom_site_symmetry_multiplicity
 _atom_site_fract_x
 _atom_site_fract_y
 _atom_site_fract_z
 _atom_site_occupancy
  La  La0  1  0.225334  0.581611  0.052912  1
  La  La1  1  0.773519  0.421112  0.949083  1
  La  La2  1  0.300937  0.904881  0.274424  1
  La  La3  1  0.701591  0.095037  0.726241  1
  La  La4  1  0.089598  0.544757  0.332916  1
  La  La5  1  0.910769  0.451421  0.671052  1
  La  La6  1  0.832946  0.749683  0.176632  1
  La  La7  1  0.162442  0.251256  0.824704  1
  La  La8  1  0.973545  0.794450  0.900239  1
  La  La9  1  0.024281  0.206776  0.093554  1
  Tc  Tc10  1  0.971443  0.322272  0.878091  1
  Ir  Ir11  1  0.032994  0.674336  0.119807  1
  I  I12  1  0.339130  0.443061  0.300917  1
  I  I13  1  0.660282  0.556135  0.699051  1
  I  I14  1  0.211252  0.736769  0.815625  1
  I  I15  1  0.789049  0.263658  0.183800  1
  I  I16  1  0.142588  0.386605  0.583081  1
  I  I17  1  0.855799  0.612971  0.416705  1
  I  I18  1  0.388471  0.801047  0.531434  1
  I  I19  1  0.610496  0.197647  0.467991  1
  I  I20  1  0.263318  0.087735  0.054623  1
  I  I21  1  0.736144  0.913026  0.945703  1
  I  I22  1  0.566878  0.844358  0.227172  1
  I  I23  1  0.437600  0.158443  0.774778  1
  I  I24  1  0.091638  0.038036  0.335291  1
  I  I25  1  0.907984  0.960908  0.663193  1
  I  I26  1  0.499975  0.502011  0.000980  1
