# generated using pymatgen
data_Sr6HoTm(CoO6)2
_symmetry_space_group_name_H-M   'P 1'
_cell_length_a   6.75984397
_cell_length_b   6.75806824
_cell_length_c   6.75842370
_cell_angle_alpha   92.70343431
_cell_angle_beta   92.70619453
_cell_angle_gamma   92.70368814
_symmetry_Int_Tables_number   1
_chemical_formula_structural   Sr6HoTm(CoO6)2
_chemical_formula_sum   'Sr6 Ho1 Tm1 Co2 O12'
_cell_volume   307.68303298
_cell_formula_units_Z   1
loop_
 _symmetry_equiv_pos_site_id
 _symmetry_equiv_pos_as_xyz
  1  'x, y, z'
loop_
 _atom_site_type_symbol
 _atom_site_label
 _atom_site_symmetry_multiplicity
 _atom_site_fract_x
 _atom_site_fract_y
 _atom_site_fract_z
 _atom_site_occupancy
  Sr  Sr0  1  0.881651  0.249804  0.618439  1
  Sr  Sr1  1  0.249921  0.618581  0.881485  1
  Sr  Sr2  1  0.618377  0.881539  0.250097  1
  Sr  Sr3  1  0.749927  0.381085  0.118932  1
  Sr  Sr4  1  0.381229  0.118824  0.749868  1
  Sr  Sr5  1  0.118799  0.750072  0.381194  1
  Ho  Ho6  1  0.749968  0.749798  0.750202  1
  Tm  Tm7  1  0.250015  0.250183  0.249787  1
  Co  Co8  1  0.000560  0.000591  0.000566  1
  Co  Co9  1  0.499455  0.499428  0.499443  1
  O  O10  1  0.218605  0.411722  0.542089  1
  O  O11  1  0.411792  0.542376  0.218460  1
  O  O12  1  0.542102  0.218462  0.411473  1
  O  O13  1  0.913381  0.718736  0.044730  1
  O  O14  1  0.718842  0.044450  0.913358  1
  O  O15  1  0.044400  0.913105  0.718741  1
  O  O16  1  0.781157  0.586726  0.455561  1
  O  O17  1  0.586664  0.455237  0.781262  1
  O  O18  1  0.455549  0.781242  0.586952  1
  O  O19  1  0.088189  0.281616  0.957674  1
  O  O20  1  0.281440  0.957953  0.088170  1
  O  O21  1  0.957975  0.088470  0.281516  1
