# generated using pymatgen
data_VS2BrO8
_symmetry_space_group_name_H-M   'P 1'
_cell_length_a   5.01383690
_cell_length_b   5.18207256
_cell_length_c   9.16556664
_cell_angle_alpha   101.12744641
_cell_angle_beta   105.83461221
_cell_angle_gamma   60.81055600
_symmetry_Int_Tables_number   1
_chemical_formula_structural   VS2BrO8
_chemical_formula_sum   'V1 S2 Br1 O8'
_cell_volume   199.50067010
_cell_formula_units_Z   1
loop_
 _symmetry_equiv_pos_site_id
 _symmetry_equiv_pos_as_xyz
  1  'x, y, z'
loop_
 _atom_site_type_symbol
 _atom_site_label
 _atom_site_symmetry_multiplicity
 _atom_site_fract_x
 _atom_site_fract_y
 _atom_site_fract_z
 _atom_site_occupancy
  V  V0  1  0.000000  0.000000  0.000000  1
  S  S1  1  0.268681  0.313686  0.812343  1
  S  S2  1  0.731319  0.686314  0.187657  1
  Br  Br3  1  0.000000  0.000000  0.500000  1
  O  O4  1  0.112461  0.320705  0.647135  1
  O  O5  1  0.887539  0.679295  0.352865  1
  O  O6  1  0.609724  0.103566  0.830451  1
  O  O7  1  0.390276  0.896434  0.169549  1
  O  O8  1  0.773152  0.383292  0.135998  1
  O  O9  1  0.226848  0.616708  0.864002  1
  O  O10  1  0.127409  0.222465  0.901998  1
  O  O11  1  0.872591  0.777535  0.098002  1
