# generated using pymatgen
data_CsVPS5
_symmetry_space_group_name_H-M   'P 1'
_cell_length_a   10.11884414
_cell_length_b   10.11884411
_cell_length_c   16.83474986
_cell_angle_alpha   59.93113018
_cell_angle_beta   59.93113096
_cell_angle_gamma   40.57012757
_symmetry_Int_Tables_number   1
_chemical_formula_structural   CsVPS5
_chemical_formula_sum   'Cs4 V4 P4 S20'
_cell_volume   947.73061304
_cell_formula_units_Z   4
loop_
 _symmetry_equiv_pos_site_id
 _symmetry_equiv_pos_as_xyz
  1  'x, y, z'
loop_
 _atom_site_type_symbol
 _atom_site_label
 _atom_site_symmetry_multiplicity
 _atom_site_fract_x
 _atom_site_fract_y
 _atom_site_fract_z
 _atom_site_occupancy
  Cs  Cs0  1  0.665477  0.665477  0.141186  1
  Cs  Cs1  1  0.694926  0.694926  0.647508  1
  Cs  Cs2  1  0.305074  0.305074  0.352492  1
  Cs  Cs3  1  0.334523  0.334523  0.858814  1
  V  V4  1  0.712845  0.287155  0.000000  1
  V  V5  1  0.287155  0.712845  0.000000  1
  V  V6  1  0.789272  0.210728  0.500000  1
  V  V7  1  0.210728  0.789272  0.500000  1
  P  P8  1  0.340292  0.340292  0.589009  1
  P  P9  1  0.071774  0.071774  0.093454  1
  P  P10  1  0.928226  0.928226  0.906546  1
  P  P11  1  0.659708  0.659708  0.410991  1
  S  S12  1  0.165810  0.165810  0.112841  1
  S  S13  1  0.603231  0.129620  0.642469  1
  S  S14  1  0.129620  0.603231  0.642469  1
  S  S15  1  0.974986  0.974986  0.418349  1
  S  S16  1  0.443740  0.443740  0.451451  1
  S  S17  1  0.101478  0.101478  0.954689  1
  S  S18  1  0.758021  0.232709  0.143838  1
  S  S19  1  0.232709  0.758021  0.143838  1
  S  S20  1  0.602478  0.602478  0.917988  1
  S  S21  1  0.228655  0.228655  0.606450  1
  S  S22  1  0.771345  0.771345  0.393550  1
  S  S23  1  0.397522  0.397522  0.082012  1
  S  S24  1  0.241979  0.767291  0.856162  1
  S  S25  1  0.767291  0.241979  0.856162  1
  S  S26  1  0.898522  0.898522  0.045311  1
  S  S27  1  0.556260  0.556260  0.548549  1
  S  S28  1  0.025014  0.025014  0.581651  1
  S  S29  1  0.870380  0.396769  0.357531  1
  S  S30  1  0.396769  0.870380  0.357531  1
  S  S31  1  0.834190  0.834190  0.887159  1
