# generated using pymatgen
data_Tm4InRu
_symmetry_space_group_name_H-M   'P 1'
_cell_length_a   9.54073013
_cell_length_b   9.54068435
_cell_length_c   9.54052286
_cell_angle_alpha   59.49564121
_cell_angle_beta   59.49535145
_cell_angle_gamma   59.49707178
_symmetry_Int_Tables_number   1
_chemical_formula_structural   Tm4InRu
_chemical_formula_sum   'Tm16 In4 Ru4'
_cell_volume   607.03207959
_cell_formula_units_Z   4
loop_
 _symmetry_equiv_pos_site_id
 _symmetry_equiv_pos_as_xyz
  1  'x, y, z'
loop_
 _atom_site_type_symbol
 _atom_site_label
 _atom_site_symmetry_multiplicity
 _atom_site_fract_x
 _atom_site_fract_y
 _atom_site_fract_z
 _atom_site_occupancy
  Tm  Tm0  1  0.058462  0.058466  0.441933  1
  Tm  Tm1  1  0.442329  0.059464  0.442301  1
  Tm  Tm2  1  0.058473  0.441941  0.058467  1
  Tm  Tm3  1  0.042629  0.651861  0.651839  1
  Tm  Tm4  1  0.442311  0.442311  0.059476  1
  Tm  Tm5  1  0.651863  0.042637  0.651834  1
  Tm  Tm6  1  0.191706  0.811650  0.191738  1
  Tm  Tm7  1  0.191718  0.191715  0.811657  1
  Tm  Tm8  1  0.808781  0.808783  0.191334  1
  Tm  Tm9  1  0.441936  0.058476  0.058465  1
  Tm  Tm10  1  0.811653  0.191704  0.191736  1
  Tm  Tm11  1  0.059458  0.442330  0.442308  1
  Tm  Tm12  1  0.808779  0.191324  0.808768  1
  Tm  Tm13  1  0.191327  0.808781  0.808770  1
  Tm  Tm14  1  0.651866  0.651854  0.042609  1
  Tm  Tm15  1  0.650698  0.650697  0.650667  1
  In  In16  1  0.416968  0.416971  0.417083  1
  In  In17  1  0.748751  0.417707  0.417648  1
  In  In18  1  0.417707  0.748744  0.417648  1
  In  In19  1  0.417655  0.417658  0.748805  1
  Ru  Ru20  1  0.857643  0.857646  0.418905  1
  Ru  Ru21  1  0.860739  0.860740  0.860723  1
  Ru  Ru22  1  0.418920  0.857627  0.857646  1
  Ru  Ru23  1  0.857629  0.418913  0.857638  1
