# generated using pymatgen
data_Tb4NbMoRu6
_symmetry_space_group_name_H-M   'P 1'
_cell_length_a   5.19773624
_cell_length_b   5.19773643
_cell_length_c   9.18024700
_cell_angle_alpha   90.00000000
_cell_angle_beta   90.00000000
_cell_angle_gamma   114.21192213
_symmetry_Int_Tables_number   1
_chemical_formula_structural   Tb4NbMoRu6
_chemical_formula_sum   'Tb4 Nb1 Mo1 Ru6'
_cell_volume   226.20086730
_cell_formula_units_Z   1
loop_
 _symmetry_equiv_pos_site_id
 _symmetry_equiv_pos_as_xyz
  1  'x, y, z'
loop_
 _atom_site_type_symbol
 _atom_site_label
 _atom_site_symmetry_multiplicity
 _atom_site_fract_x
 _atom_site_fract_y
 _atom_site_fract_z
 _atom_site_occupancy
  Tb  Tb0  1  0.328054  0.671946  0.430190  1
  Tb  Tb1  1  0.669319  0.330681  0.562536  1
  Tb  Tb2  1  0.669319  0.330681  0.937464  1
  Tb  Tb3  1  0.328054  0.671946  0.069810  1
  Nb  Nb4  1  0.164690  0.835310  0.750000  1
  Mo  Mo5  1  0.845605  0.154395  0.250000  1
  Ru  Ru6  1  0.994312  0.005688  0.497434  1
  Ru  Ru7  1  0.994312  0.005688  0.002566  1
  Ru  Ru8  1  0.827459  0.646389  0.250000  1
  Ru  Ru9  1  0.353611  0.172541  0.250000  1
  Ru  Ru10  1  0.169024  0.343757  0.750000  1
  Ru  Ru11  1  0.656243  0.830976  0.750000  1
