# generated using pymatgen
data_Cs2Yb2(SiO3)3
_symmetry_space_group_name_H-M   'P 1'
_cell_length_a   7.55437700
_cell_length_b   6.66971470
_cell_length_c   12.32943779
_cell_angle_alpha   60.57939802
_cell_angle_beta   90.00000000
_cell_angle_gamma   90.00000000
_symmetry_Int_Tables_number   1
_chemical_formula_structural   Cs2Yb2(SiO3)3
_chemical_formula_sum   'Cs4 Yb4 Si6 O18'
_cell_volume   541.11043336
_cell_formula_units_Z   2
loop_
 _symmetry_equiv_pos_site_id
 _symmetry_equiv_pos_as_xyz
  1  'x, y, z'
loop_
 _atom_site_type_symbol
 _atom_site_label
 _atom_site_symmetry_multiplicity
 _atom_site_fract_x
 _atom_site_fract_y
 _atom_site_fract_z
 _atom_site_occupancy
  Cs  Cs0  1  0.396443  0.434584  0.773044  1
  Cs  Cs1  1  0.603557  0.434584  0.273044  1
  Cs  Cs2  1  0.660407  0.819066  0.900409  1
  Cs  Cs3  1  0.339593  0.819066  0.400409  1
  Yb  Yb4  1  0.837054  0.873053  0.582246  1
  Yb  Yb5  1  0.162946  0.873053  0.082246  1
  Yb  Yb6  1  0.936270  0.347457  0.857527  1
  Yb  Yb7  1  0.063730  0.347457  0.357527  1
  Si  Si8  1  0.578068  0.114542  0.088822  1
  Si  Si9  1  0.421932  0.114542  0.588822  1
  Si  Si10  1  0.243462  0.420829  0.055846  1
  Si  Si11  1  0.756538  0.420829  0.555846  1
  Si  Si12  1  0.139258  0.876831  0.815129  1
  Si  Si13  1  0.860742  0.876831  0.315129  1
  O  O14  1  0.826952  0.473143  0.663452  1
  O  O15  1  0.173048  0.473143  0.163452  1
  O  O16  1  0.452137  0.322944  0.089204  1
  O  O17  1  0.547863  0.322944  0.589204  1
  O  O18  1  0.451600  0.899643  0.114207  1
  O  O19  1  0.548400  0.899643  0.614207  1
  O  O20  1  0.048235  0.013046  0.880180  1
  O  O21  1  0.951765  0.013046  0.380180  1
  O  O22  1  0.871336  0.258509  0.519359  1
  O  O23  1  0.128664  0.258509  0.019359  1
  O  O24  1  0.688396  0.224161  0.960039  1
  O  O25  1  0.311604  0.224161  0.460039  1
  O  O26  1  0.005215  0.748878  0.764606  1
  O  O27  1  0.994785  0.748878  0.264606  1
  O  O28  1  0.269833  0.680340  0.928121  1
  O  O29  1  0.730167  0.680340  0.428121  1
  O  O30  1  0.714143  0.046872  0.209248  1
  O  O31  1  0.285857  0.046872  0.709248  1
