# generated using pymatgen
data_Tm3Cd3In2Ir
_symmetry_space_group_name_H-M   'P 1'
_cell_length_a   3.63469000
_cell_length_b   8.19243353
_cell_length_c   8.19243300
_cell_angle_alpha   120.00000081
_cell_angle_beta   90.00000000
_cell_angle_gamma   90.00000000
_symmetry_Int_Tables_number   1
_chemical_formula_structural   Tm3Cd3In2Ir
_chemical_formula_sum   'Tm3 Cd3 In2 Ir1'
_cell_volume   211.26318799
_cell_formula_units_Z   1
loop_
 _symmetry_equiv_pos_site_id
 _symmetry_equiv_pos_as_xyz
  1  'x, y, z'
loop_
 _atom_site_type_symbol
 _atom_site_label
 _atom_site_symmetry_multiplicity
 _atom_site_fract_x
 _atom_site_fract_y
 _atom_site_fract_z
 _atom_site_occupancy
  Tm  Tm0  1  0.000000  0.422992  0.377690  1
  Tm  Tm1  1  0.000000  0.954697  0.577008  1
  Tm  Tm2  1  0.000000  0.622310  0.045303  1
  Cd  Cd3  1  0.500000  0.714253  0.717741  1
  Cd  Cd4  1  0.500000  0.003488  0.285747  1
  Cd  Cd5  1  0.500000  0.282259  0.996512  1
  In  In6  1  0.500000  0.333333  0.666667  1
  In  In7  1  0.000000  0.000000  0.000000  1
  Ir  Ir8  1  0.500000  0.666667  0.333333  1
