# generated using pymatgen
data_Nd3Sc2AgPt3
_symmetry_space_group_name_H-M   'P 1'
_cell_length_a   7.34290291
_cell_length_b   7.34290268
_cell_length_c   4.41050600
_cell_angle_alpha   90.00000000
_cell_angle_beta   90.00000000
_cell_angle_gamma   118.62044132
_symmetry_Int_Tables_number   1
_chemical_formula_structural   Nd3Sc2AgPt3
_chemical_formula_sum   'Nd3 Sc2 Ag1 Pt3'
_cell_volume   208.74955444
_cell_formula_units_Z   1
loop_
 _symmetry_equiv_pos_site_id
 _symmetry_equiv_pos_as_xyz
  1  'x, y, z'
loop_
 _atom_site_type_symbol
 _atom_site_label
 _atom_site_symmetry_multiplicity
 _atom_site_fract_x
 _atom_site_fract_y
 _atom_site_fract_z
 _atom_site_occupancy
  Nd  Nd0  1  0.987121  0.592572  0.500000  1
  Nd  Nd1  1  0.592572  0.987121  0.500000  1
  Nd  Nd2  1  0.432268  0.432268  0.500000  1
  Sc  Sc3  1  0.990414  0.239641  0.000000  1
  Sc  Sc4  1  0.239641  0.990414  0.000000  1
  Ag  Ag5  1  0.759305  0.759305  0.000000  1
  Pt  Pt6  1  0.041038  0.041038  0.500000  1
  Pt  Pt7  1  0.651196  0.306446  0.000000  1
  Pt  Pt8  1  0.306446  0.651196  0.000000  1
