# generated using pymatgen
data_Lu20IrRh11
_symmetry_space_group_name_H-M   'P 1'
_cell_length_a   10.65727117
_cell_length_b   10.65727153
_cell_length_c   6.27642211
_cell_angle_alpha   90.01062305
_cell_angle_beta   90.01062798
_cell_angle_gamma   90.05643936
_symmetry_Int_Tables_number   1
_chemical_formula_structural   Lu20IrRh11
_chemical_formula_sum   'Lu20 Ir1 Rh11'
_cell_volume   712.85953945
_cell_formula_units_Z   1
loop_
 _symmetry_equiv_pos_site_id
 _symmetry_equiv_pos_as_xyz
  1  'x, y, z'
loop_
 _atom_site_type_symbol
 _atom_site_label
 _atom_site_symmetry_multiplicity
 _atom_site_fract_x
 _atom_site_fract_y
 _atom_site_fract_z
 _atom_site_occupancy
  Lu  Lu0  1  0.291223  0.087984  0.377803  1
  Lu  Lu1  1  0.291559  0.910548  0.877740  1
  Lu  Lu2  1  0.708689  0.087848  0.877557  1
  Lu  Lu3  1  0.708502  0.911852  0.377504  1
  Lu  Lu4  1  0.586453  0.790718  0.877220  1
  Lu  Lu5  1  0.588117  0.208704  0.378062  1
  Lu  Lu6  1  0.411561  0.790922  0.378381  1
  Lu  Lu7  1  0.411754  0.208400  0.877390  1
  Lu  Lu8  1  0.209282  0.413547  0.622780  1
  Lu  Lu9  1  0.209078  0.588439  0.121619  1
  Lu  Lu10  1  0.791296  0.411883  0.121938  1
  Lu  Lu11  1  0.791600  0.588246  0.622610  1
  Lu  Lu12  1  0.912016  0.708777  0.122197  1
  Lu  Lu13  1  0.912152  0.291311  0.622443  1
  Lu  Lu14  1  0.089452  0.708441  0.622260  1
  Lu  Lu15  1  0.088148  0.291498  0.122496  1
  Lu  Lu16  1  0.999787  0.999931  0.500168  1
  Lu  Lu17  1  0.000069  0.000213  0.999832  1
  Lu  Lu18  1  0.499932  0.499899  0.000130  1
  Lu  Lu19  1  0.500101  0.500068  0.499870  1
  Ir  Ir20  1  0.346393  0.653607  0.750000  1
  Rh  Rh21  1  0.846118  0.153882  0.250000  1
  Rh  Rh22  1  0.845835  0.846279  0.750181  1
  Rh  Rh23  1  0.153721  0.154165  0.749819  1
  Rh  Rh24  1  0.153134  0.846866  0.250000  1
  Rh  Rh25  1  0.653839  0.346161  0.750000  1
  Rh  Rh26  1  0.654726  0.653867  0.250080  1
  Rh  Rh27  1  0.346133  0.345274  0.249920  1
  Rh  Rh28  1  0.500219  0.000558  0.125893  1
  Rh  Rh29  1  0.500298  0.000625  0.625260  1
  Rh  Rh30  1  0.999375  0.499702  0.874740  1
  Rh  Rh31  1  0.999442  0.499781  0.374107  1
