# generated using pymatgen
data_LaAg4Hg
_symmetry_space_group_name_H-M   'P 1'
_cell_length_a   5.68804211
_cell_length_b   5.68804204
_cell_length_c   5.68804300
_cell_angle_alpha   60.00000025
_cell_angle_beta   60.00000066
_cell_angle_gamma   60.00000339
_symmetry_Int_Tables_number   1
_chemical_formula_structural   LaAg4Hg
_chemical_formula_sum   'La1 Ag4 Hg1'
_cell_volume   130.12881892
_cell_formula_units_Z   1
loop_
 _symmetry_equiv_pos_site_id
 _symmetry_equiv_pos_as_xyz
  1  'x, y, z'
loop_
 _atom_site_type_symbol
 _atom_site_label
 _atom_site_symmetry_multiplicity
 _atom_site_fract_x
 _atom_site_fract_y
 _atom_site_fract_z
 _atom_site_occupancy
  La  La0  1  0.250000  0.250000  0.250000  1
  Ag  Ag1  1  0.625640  0.625640  0.123080  1
  Ag  Ag2  1  0.625640  0.123080  0.625640  1
  Ag  Ag3  1  0.625640  0.625640  0.625640  1
  Ag  Ag4  1  0.123080  0.625640  0.625640  1
  Hg  Hg5  1  0.000000  0.000000  0.000000  1
