# generated using pymatgen
data_Tm15Lu5Pt11Rh
_symmetry_space_group_name_H-M   'P 1'
_cell_length_a   10.84976820
_cell_length_b   10.85039516
_cell_length_c   6.36648000
_cell_angle_alpha   90.00510099
_cell_angle_beta   89.98908981
_cell_angle_gamma   89.99176863
_symmetry_Int_Tables_number   1
_chemical_formula_structural   Tm15Lu5Pt11Rh
_chemical_formula_sum   'Tm15 Lu5 Pt11 Rh1'
_cell_volume   749.48920065
_cell_formula_units_Z   1
loop_
 _symmetry_equiv_pos_site_id
 _symmetry_equiv_pos_as_xyz
  1  'x, y, z'
loop_
 _atom_site_type_symbol
 _atom_site_label
 _atom_site_symmetry_multiplicity
 _atom_site_fract_x
 _atom_site_fract_y
 _atom_site_fract_z
 _atom_site_occupancy
  Tm  Tm0  1  0.291732  0.912195  0.876756  1
  Tm  Tm1  1  0.708104  0.088242  0.876576  1
  Tm  Tm2  1  0.708139  0.912498  0.377436  1
  Tm  Tm3  1  0.588317  0.791577  0.876984  1
  Tm  Tm4  1  0.587160  0.208532  0.377369  1
  Tm  Tm5  1  0.412045  0.792174  0.377319  1
  Tm  Tm6  1  0.411502  0.208481  0.876536  1
  Tm  Tm7  1  0.207506  0.412259  0.620972  1
  Tm  Tm8  1  0.208117  0.587346  0.125400  1
  Tm  Tm9  1  0.792001  0.412492  0.124975  1
  Tm  Tm10  1  0.792595  0.587402  0.621100  1
  Tm  Tm11  1  0.912610  0.708395  0.125069  1
  Tm  Tm12  1  0.912450  0.292084  0.621277  1
  Tm  Tm13  1  0.087693  0.707566  0.620457  1
  Tm  Tm14  1  0.087931  0.291136  0.125186  1
  Lu  Lu15  1  0.292538  0.087564  0.377912  1
  Lu  Lu16  1  0.000454  0.000093  0.499717  1
  Lu  Lu17  1  0.999908  0.000142  0.999596  1
  Lu  Lu18  1  0.499835  0.500021  0.000399  1
  Lu  Lu19  1  0.499560  0.500311  0.500535  1
  Pt  Pt20  1  0.847381  0.152929  0.249973  1
  Pt  Pt21  1  0.847608  0.847061  0.750506  1
  Pt  Pt22  1  0.153204  0.152635  0.749107  1
  Pt  Pt23  1  0.152911  0.847582  0.250080  1
  Pt  Pt24  1  0.652809  0.347618  0.750736  1
  Pt  Pt25  1  0.652953  0.652637  0.250442  1
  Pt  Pt26  1  0.346864  0.346601  0.250713  1
  Pt  Pt27  1  0.346676  0.652432  0.750761  1
  Pt  Pt28  1  0.499578  0.000239  0.116524  1
  Pt  Pt29  1  0.499397  0.000293  0.617097  1
  Pt  Pt30  1  0.000186  0.499871  0.880858  1
  Rh  Rh31  1  0.000242  0.499594  0.381632  1
