# generated using pymatgen
data_Dy3Zr7Sn6
_symmetry_space_group_name_H-M   'P 1'
_cell_length_a   8.62375015
_cell_length_b   8.75717152
_cell_length_c   5.96371900
_cell_angle_alpha   90.00000000
_cell_angle_beta   90.00000000
_cell_angle_gamma   119.96937520
_symmetry_Int_Tables_number   1
_chemical_formula_structural   Dy3Zr7Sn6
_chemical_formula_sum   'Dy3 Zr7 Sn6'
_cell_volume   390.15912060
_cell_formula_units_Z   1
loop_
 _symmetry_equiv_pos_site_id
 _symmetry_equiv_pos_as_xyz
  1  'x, y, z'
loop_
 _atom_site_type_symbol
 _atom_site_label
 _atom_site_symmetry_multiplicity
 _atom_site_fract_x
 _atom_site_fract_y
 _atom_site_fract_z
 _atom_site_occupancy
  Dy  Dy0  1  0.764097  0.998837  0.750000  1
  Dy  Dy1  1  0.241964  0.241639  0.750000  1
  Dy  Dy2  1  0.232945  0.999166  0.250000  1
  Zr  Zr3  1  0.998558  0.746491  0.750000  1
  Zr  Zr4  1  0.998497  0.255037  0.250000  1
  Zr  Zr5  1  0.752521  0.752013  0.250000  1
  Zr  Zr6  1  0.335197  0.667994  0.499171  1
  Zr  Zr7  1  0.667825  0.333677  0.000869  1
  Zr  Zr8  1  0.667825  0.333677  0.499131  1
  Zr  Zr9  1  0.335197  0.667994  0.000829  1
  Sn  Sn10  1  0.393329  0.995052  0.750000  1
  Sn  Sn11  1  0.394903  0.398924  0.250000  1
  Sn  Sn12  1  0.997593  0.604694  0.250000  1
  Sn  Sn13  1  0.001035  0.401062  0.750000  1
  Sn  Sn14  1  0.608362  0.603804  0.750000  1
  Sn  Sn15  1  0.610154  0.999939  0.250000  1
