# generated using pymatgen
data_HoTm2Th(Ga3Ir)6
_symmetry_space_group_name_H-M   'P 1'
_cell_length_a   7.61608727
_cell_length_b   7.61584941
_cell_length_c   9.47545500
_cell_angle_alpha   90.00000000
_cell_angle_beta   90.00000000
_cell_angle_gamma   119.87698526
_symmetry_Int_Tables_number   1
_chemical_formula_structural   HoTm2Th(Ga3Ir)6
_chemical_formula_sum   'Ho1 Tm2 Th1 Ga18 Ir6'
_cell_volume   476.56042355
_cell_formula_units_Z   1
loop_
 _symmetry_equiv_pos_site_id
 _symmetry_equiv_pos_as_xyz
  1  'x, y, z'
loop_
 _atom_site_type_symbol
 _atom_site_label
 _atom_site_symmetry_multiplicity
 _atom_site_fract_x
 _atom_site_fract_y
 _atom_site_fract_z
 _atom_site_occupancy
  Ho  Ho0  1  0.669254  0.997117  0.750000  1
  Tm  Tm1  1  0.002734  0.331668  0.250000  1
  Tm  Tm2  1  0.331156  0.002331  0.250000  1
  Th  Th3  1  0.996734  0.668542  0.750000  1
  Ga  Ga4  1  0.128882  0.131392  0.750000  1
  Ga  Ga5  1  0.874343  0.875326  0.250000  1
  Ga  Ga6  1  0.998373  0.328567  0.578133  1
  Ga  Ga7  1  0.001843  0.665711  0.413714  1
  Ga  Ga8  1  0.001843  0.665711  0.086286  1
  Ga  Ga9  1  0.339983  0.003928  0.921855  1
  Ga  Ga10  1  0.998373  0.328567  0.921867  1
  Ga  Ga11  1  0.665925  0.002114  0.082073  1
  Ga  Ga12  1  0.665925  0.002114  0.417927  1
  Ga  Ga13  1  0.339983  0.003928  0.578145  1
  Ga  Ga14  1  0.331138  0.331045  0.067597  1
  Ga  Ga15  1  0.663138  0.668561  0.937064  1
  Ga  Ga16  1  0.663138  0.668561  0.562936  1
  Ga  Ga17  1  0.331138  0.331045  0.432403  1
  Ga  Ga18  1  0.341931  0.545843  0.750000  1
  Ga  Ga19  1  0.659913  0.451682  0.250000  1
  Ga  Ga20  1  0.541582  0.336076  0.750000  1
  Ga  Ga21  1  0.452268  0.660900  0.250000  1
  Ir  Ir22  1  0.673151  0.330397  0.500374  1
  Ir  Ir23  1  0.326407  0.670877  0.500534  1
  Ir  Ir24  1  0.326407  0.670877  0.999466  1
  Ir  Ir25  1  0.673151  0.330397  0.999626  1
  Ir  Ir26  1  0.000646  0.998362  0.500476  1
  Ir  Ir27  1  0.000646  0.998362  0.999524  1
