# generated using pymatgen
data_La10Zn(SnRu2)3
_symmetry_space_group_name_H-M   'P 1'
_cell_length_a   8.74865648
_cell_length_b   8.74865663
_cell_length_c   8.80079700
_cell_angle_alpha   109.59199438
_cell_angle_beta   109.59199473
_cell_angle_gamma   109.35017513
_symmetry_Int_Tables_number   1
_chemical_formula_structural   La10Zn(SnRu2)3
_chemical_formula_sum   'La10 Zn1 Sn3 Ru6'
_cell_volume   517.76580707
_cell_formula_units_Z   1
loop_
 _symmetry_equiv_pos_site_id
 _symmetry_equiv_pos_as_xyz
  1  'x, y, z'
loop_
 _atom_site_type_symbol
 _atom_site_label
 _atom_site_symmetry_multiplicity
 _atom_site_fract_x
 _atom_site_fract_y
 _atom_site_fract_z
 _atom_site_occupancy
  La  La0  1  0.251240  0.690248  0.443733  1
  La  La1  1  0.742899  0.814151  0.055473  1
  La  La2  1  0.439008  0.248760  0.692492  1
  La  La3  1  0.685849  0.428749  0.241321  1
  La  La4  1  0.071252  0.757101  0.812573  1
  La  La5  1  0.809752  0.060993  0.753485  1
  La  La6  1  0.205482  0.205228  0.210643  1
  La  La7  1  0.500001  0.000000  0.288183  1
  La  La8  1  0.294772  0.500255  0.005415  1
  La  La9  1  0.999746  0.294518  0.505162  1
  Zn  Zn10  1  0.500001  0.000000  0.914525  1
  Sn  Sn11  1  0.595698  0.592172  0.591871  1
  Sn  Sn12  1  0.907828  0.503527  0.999698  1
  Sn  Sn13  1  0.996474  0.904302  0.496174  1
  Ru  Ru14  1  0.251923  0.130139  0.878048  1
  Ru  Ru15  1  0.751112  0.368204  0.618829  1
  Ru  Ru16  1  0.878218  0.248079  0.126126  1
  Ru  Ru17  1  0.131795  0.882907  0.250626  1
  Ru  Ru18  1  0.617092  0.748888  0.367717  1
  Ru  Ru19  1  0.369860  0.621781  0.747909  1
