# generated using pymatgen
data_TiZn5B5Ir11
_symmetry_space_group_name_H-M   'P 1'
_cell_length_a   2.89354200
_cell_length_b   8.48074643
_cell_length_c   11.48881061
_cell_angle_alpha   89.73815769
_cell_angle_beta   90.00000000
_cell_angle_gamma   90.00000000
_symmetry_Int_Tables_number   1
_chemical_formula_structural   TiZn5B5Ir11
_chemical_formula_sum   'Ti1 Zn5 B5 Ir11'
_cell_volume   281.92552876
_cell_formula_units_Z   1
loop_
 _symmetry_equiv_pos_site_id
 _symmetry_equiv_pos_as_xyz
  1  'x, y, z'
loop_
 _atom_site_type_symbol
 _atom_site_label
 _atom_site_symmetry_multiplicity
 _atom_site_fract_x
 _atom_site_fract_y
 _atom_site_fract_z
 _atom_site_occupancy
  Ti  Ti0  1  0.500000  0.995551  0.194324  1
  Zn  Zn1  1  0.500000  0.348617  0.502084  1
  Zn  Zn2  1  0.500000  0.645358  0.499922  1
  Zn  Zn3  1  0.500000  0.998953  0.501551  1
  Zn  Zn4  1  0.500000  0.513015  0.000094  1
  Zn  Zn5  1  0.500000  0.989444  0.796095  1
  B  B6  1  0.500000  0.317597  0.268414  1
  B  B7  1  0.500000  0.686966  0.255550  1
  B  B8  1  0.500000  0.683735  0.745138  1
  B  B9  1  0.500000  0.316452  0.735293  1
  B  B10  1  0.500000  0.178035  0.996559  1
  Ir  Ir11  1  0.000000  0.500815  0.317266  1
  Ir  Ir12  1  0.000000  0.500011  0.684131  1
  Ir  Ir13  1  0.000000  0.167113  0.353580  1
  Ir  Ir14  1  0.000000  0.829366  0.354102  1
  Ir  Ir15  1  0.000000  0.822808  0.642887  1
  Ir  Ir16  1  0.000000  0.169201  0.649220  1
  Ir  Ir17  1  0.000000  0.280511  0.124880  1
  Ir  Ir18  1  0.000000  0.728637  0.121569  1
  Ir  Ir19  1  0.000000  0.725090  0.880907  1
  Ir  Ir20  1  0.000000  0.297230  0.880889  1
  Ir  Ir21  1  0.000000  0.997495  0.995544  1
