# generated using pymatgen
data_Sm8Ti(Pd3Pt)6
_symmetry_space_group_name_H-M   'P 1'
_cell_length_a   8.46289000
_cell_length_b   8.46289000
_cell_length_c   8.46289000
_cell_angle_alpha   90.00000000
_cell_angle_beta   90.00000000
_cell_angle_gamma   90.00000000
_symmetry_Int_Tables_number   1
_chemical_formula_structural   Sm8Ti(Pd3Pt)6
_chemical_formula_sum   'Sm8 Ti1 Pd18 Pt6'
_cell_volume   606.11647377
_cell_formula_units_Z   1
loop_
 _symmetry_equiv_pos_site_id
 _symmetry_equiv_pos_as_xyz
  1  'x, y, z'
loop_
 _atom_site_type_symbol
 _atom_site_label
 _atom_site_symmetry_multiplicity
 _atom_site_fract_x
 _atom_site_fract_y
 _atom_site_fract_z
 _atom_site_occupancy
  Sm  Sm0  1  0.250373  0.250373  0.250373  1
  Sm  Sm1  1  0.749627  0.749627  0.749627  1
  Sm  Sm2  1  0.749627  0.749627  0.250373  1
  Sm  Sm3  1  0.749627  0.250373  0.749627  1
  Sm  Sm4  1  0.250373  0.250373  0.749627  1
  Sm  Sm5  1  0.250373  0.749627  0.250373  1
  Sm  Sm6  1  0.250373  0.749627  0.749627  1
  Sm  Sm7  1  0.749627  0.250373  0.250373  1
  Ti  Ti8  1  0.000000  0.000000  0.000000  1
  Pd  Pd9  1  0.264870  0.500000  0.000000  1
  Pd  Pd10  1  0.735130  0.500000  0.000000  1
  Pd  Pd11  1  0.000000  0.264870  0.500000  1
  Pd  Pd12  1  0.500000  0.264870  0.000000  1
  Pd  Pd13  1  0.000000  0.735130  0.500000  1
  Pd  Pd14  1  0.500000  0.735130  0.000000  1
  Pd  Pd15  1  0.500000  0.000000  0.264870  1
  Pd  Pd16  1  0.264870  0.000000  0.500000  1
  Pd  Pd17  1  0.500000  0.000000  0.735130  1
  Pd  Pd18  1  0.735130  0.000000  0.500000  1
  Pd  Pd19  1  0.000000  0.500000  0.264870  1
  Pd  Pd20  1  0.000000  0.500000  0.735130  1
  Pd  Pd21  1  0.254906  0.500000  0.500000  1
  Pd  Pd22  1  0.745094  0.500000  0.500000  1
  Pd  Pd23  1  0.500000  0.254906  0.500000  1
  Pd  Pd24  1  0.500000  0.745094  0.500000  1
  Pd  Pd25  1  0.500000  0.500000  0.254906  1
  Pd  Pd26  1  0.500000  0.500000  0.745094  1
  Pt  Pt27  1  0.300502  0.000000  0.000000  1
  Pt  Pt28  1  0.699498  0.000000  0.000000  1
  Pt  Pt29  1  0.000000  0.300502  0.000000  1
  Pt  Pt30  1  0.000000  0.699498  0.000000  1
  Pt  Pt31  1  0.000000  0.000000  0.300502  1
  Pt  Pt32  1  0.000000  0.000000  0.699498  1
