# generated using pymatgen
data_CS27
_symmetry_space_group_name_H-M   'P 1'
_cell_length_a   14.86447274
_cell_length_b   14.86446751
_cell_length_c   14.86447940
_cell_angle_alpha   118.67329336
_cell_angle_beta   118.67335884
_cell_angle_gamma   118.67328198
_symmetry_Int_Tables_number   1
_chemical_formula_structural   CS27
_chemical_formula_sum   'C1 S27'
_cell_volume   976.53262805
_cell_formula_units_Z   1
loop_
 _symmetry_equiv_pos_site_id
 _symmetry_equiv_pos_as_xyz
  1  'x, y, z'
loop_
 _atom_site_type_symbol
 _atom_site_label
 _atom_site_symmetry_multiplicity
 _atom_site_fract_x
 _atom_site_fract_y
 _atom_site_fract_z
 _atom_site_occupancy
  C  C0  1  0.940356  0.940355  0.940355  1
  S  S1  1  0.801049  0.521154  0.521154  1
  S  S2  1  0.521151  0.521151  0.801047  1
  S  S3  1  0.521152  0.801047  0.521152  1
  S  S4  1  0.245473  0.376918  0.634051  1
  S  S5  1  0.349504  0.951996  0.349503  1
  S  S6  1  0.349504  0.349503  0.951997  1
  S  S7  1  0.951996  0.349503  0.349503  1
  S  S8  1  0.124752  0.740148  0.256011  1
  S  S9  1  0.256012  0.124752  0.740148  1
  S  S10  1  0.740147  0.256011  0.124751  1
  S  S11  1  0.740147  0.124751  0.256011  1
  S  S12  1  0.256012  0.740148  0.124752  1
  S  S13  1  0.124753  0.256013  0.740149  1
  S  S14  1  0.345675  0.879556  0.531133  1
  S  S15  1  0.531134  0.345675  0.879556  1
  S  S16  1  0.879555  0.531133  0.345675  1
  S  S17  1  0.879554  0.345674  0.531132  1
  S  S18  1  0.531134  0.879556  0.345675  1
  S  S19  1  0.345676  0.531133  0.879557  1
  S  S20  1  0.245472  0.634051  0.376918  1
  S  S21  1  0.376918  0.245473  0.634051  1
  S  S22  1  0.634052  0.376919  0.245474  1
  S  S23  1  0.634051  0.245473  0.376918  1
  S  S24  1  0.376919  0.634051  0.245473  1
  S  S25  1  0.865942  0.978606  0.978606  1
  S  S26  1  0.978606  0.978606  0.865942  1
  S  S27  1  0.978606  0.865943  0.978606  1
