# generated using pymatgen
data_Zn(S8Cl)3
_symmetry_space_group_name_H-M   'P 1'
_cell_length_a   14.93862177
_cell_length_b   14.93862256
_cell_length_c   14.93862198
_cell_angle_alpha   118.80606943
_cell_angle_beta   118.80606812
_cell_angle_gamma   118.80606887
_symmetry_Int_Tables_number   1
_chemical_formula_structural   Zn(S8Cl)3
_chemical_formula_sum   'Zn1 S24 Cl3'
_cell_volume   941.30450572
_cell_formula_units_Z   1
loop_
 _symmetry_equiv_pos_site_id
 _symmetry_equiv_pos_as_xyz
  1  'x, y, z'
loop_
 _atom_site_type_symbol
 _atom_site_label
 _atom_site_symmetry_multiplicity
 _atom_site_fract_x
 _atom_site_fract_y
 _atom_site_fract_z
 _atom_site_occupancy
  Zn  Zn0  1  0.933560  0.933560  0.933560  1
  S  S1  1  0.802357  0.525319  0.525319  1
  S  S2  1  0.525319  0.525319  0.802357  1
  S  S3  1  0.525319  0.802357  0.525319  1
  S  S4  1  0.244351  0.375006  0.631389  1
  S  S5  1  0.355781  0.957948  0.355781  1
  S  S6  1  0.355781  0.355781  0.957948  1
  S  S7  1  0.957948  0.355781  0.355781  1
  S  S8  1  0.124554  0.738712  0.254397  1
  S  S9  1  0.254397  0.124554  0.738712  1
  S  S10  1  0.738712  0.254397  0.124554  1
  S  S11  1  0.738712  0.124554  0.254397  1
  S  S12  1  0.254397  0.738712  0.124554  1
  S  S13  1  0.124554  0.254397  0.738712  1
  S  S14  1  0.350849  0.882248  0.534399  1
  S  S15  1  0.534399  0.350849  0.882248  1
  S  S16  1  0.882248  0.534399  0.350849  1
  S  S17  1  0.882248  0.350849  0.534399  1
  S  S18  1  0.534399  0.882248  0.350849  1
  S  S19  1  0.350849  0.534399  0.882248  1
  S  S20  1  0.244351  0.631389  0.375006  1
  S  S21  1  0.375006  0.244351  0.631389  1
  S  S22  1  0.631389  0.375006  0.244351  1
  S  S23  1  0.631389  0.244351  0.375006  1
  S  S24  1  0.375006  0.631389  0.244351  1
  Cl  Cl25  1  0.833956  0.981733  0.981733  1
  Cl  Cl26  1  0.981733  0.981733  0.833956  1
  Cl  Cl27  1  0.981733  0.833956  0.981733  1
