# generated using pymatgen
data_Na2Y3Cr3(Ni4As3)4
_symmetry_space_group_name_H-M   'P 1'
_cell_length_a   12.63558600
_cell_length_b   12.63558559
_cell_length_c   3.86164000
_cell_angle_alpha   90.00000000
_cell_angle_beta   90.00000000
_cell_angle_gamma   120.00000106
_symmetry_Int_Tables_number   1
_chemical_formula_structural   Na2Y3Cr3(Ni4As3)4
_chemical_formula_sum   'Na2 Y3 Cr3 Ni16 As12'
_cell_volume   533.94088068
_cell_formula_units_Z   1
loop_
 _symmetry_equiv_pos_site_id
 _symmetry_equiv_pos_as_xyz
  1  'x, y, z'
loop_
 _atom_site_type_symbol
 _atom_site_label
 _atom_site_symmetry_multiplicity
 _atom_site_fract_x
 _atom_site_fract_y
 _atom_site_fract_z
 _atom_site_occupancy
  Na  Na0  1  0.333333  0.666667  0.000000  1
  Na  Na1  1  0.666667  0.333333  0.000000  1
  Y  Y2  1  0.186339  0.186339  0.500000  1
  Y  Y3  1  0.813661  0.000000  0.500000  1
  Y  Y4  1  0.000000  0.813661  0.500000  1
  Cr  Cr5  1  0.561667  0.561667  0.000000  1
  Cr  Cr6  1  0.438333  0.000000  0.000000  1
  Cr  Cr7  1  0.000000  0.438333  0.000000  1
  Ni  Ni8  1  0.716906  0.716906  0.500000  1
  Ni  Ni9  1  0.283094  0.000000  0.500000  1
  Ni  Ni10  1  0.000000  0.283094  0.500000  1
  Ni  Ni11  1  0.182859  0.378105  0.000000  1
  Ni  Ni12  1  0.621895  0.804756  0.000000  1
  Ni  Ni13  1  0.195244  0.817141  0.000000  1
  Ni  Ni14  1  0.804756  0.621895  0.000000  1
  Ni  Ni15  1  0.817141  0.195244  0.000000  1
  Ni  Ni16  1  0.378105  0.182859  0.000000  1
  Ni  Ni17  1  0.358211  0.480075  0.500000  1
  Ni  Ni18  1  0.519925  0.878137  0.500000  1
  Ni  Ni19  1  0.121863  0.641789  0.500000  1
  Ni  Ni20  1  0.878137  0.519925  0.500000  1
  Ni  Ni21  1  0.641789  0.121863  0.500000  1
  Ni  Ni22  1  0.480075  0.358211  0.500000  1
  Ni  Ni23  1  0.000000  0.000000  0.000000  1
  As  As24  1  0.821110  0.821110  0.000000  1
  As  As25  1  0.178890  0.000000  0.000000  1
  As  As26  1  0.000000  0.178890  0.000000  1
  As  As27  1  0.167512  0.482669  0.500000  1
  As  As28  1  0.517331  0.684843  0.500000  1
  As  As29  1  0.315157  0.832488  0.500000  1
  As  As30  1  0.684843  0.517331  0.500000  1
  As  As31  1  0.832488  0.315157  0.500000  1
  As  As32  1  0.482669  0.167512  0.500000  1
  As  As33  1  0.364603  0.364603  0.000000  1
  As  As34  1  0.635397  0.000000  0.000000  1
  As  As35  1  0.000000  0.635397  0.000000  1
