# generated using pymatgen
data_Ho7(PSe3)2
_symmetry_space_group_name_H-M   'P 1'
_cell_length_a   8.02710426
_cell_length_b   6.95434281
_cell_length_c   8.04483000
_cell_angle_alpha   89.97499509
_cell_angle_beta   59.97772040
_cell_angle_gamma   73.05161159
_symmetry_Int_Tables_number   1
_chemical_formula_structural   Ho7(PSe3)2
_chemical_formula_sum   'Ho7 P2 Se6'
_cell_volume   366.16879627
_cell_formula_units_Z   1
loop_
 _symmetry_equiv_pos_site_id
 _symmetry_equiv_pos_as_xyz
  1  'x, y, z'
loop_
 _atom_site_type_symbol
 _atom_site_label
 _atom_site_symmetry_multiplicity
 _atom_site_fract_x
 _atom_site_fract_y
 _atom_site_fract_z
 _atom_site_occupancy
  Ho  Ho0  1  0.159925  0.687986  0.979817  1
  Ho  Ho1  1  0.661057  0.186789  0.743794  1
  Ho  Ho2  1  0.149475  0.178305  0.736236  1
  Ho  Ho3  1  0.659269  0.688949  0.980922  1
  Ho  Ho4  1  0.160821  0.687908  0.479851  1
  Ho  Ho5  1  0.659569  0.188782  0.215532  1
  Ho  Ho6  1  0.169160  0.199907  0.226187  1
  P  P7  1  0.409004  0.444543  0.104925  1
  P  P8  1  0.911440  0.931607  0.854423  1
  Se  Se9  1  0.413755  0.935240  0.358660  1
  Se  Se10  1  0.905435  0.442718  0.603407  1
  Se  Se11  1  0.904539  0.443009  0.113403  1
  Se  Se12  1  0.410413  0.430459  0.605105  1
  Se  Se13  1  0.910898  0.945583  0.354438  1
  Se  Se14  1  0.413174  0.935154  0.849720  1
