# generated using pymatgen
data_TbPr2Ho5S12
_symmetry_space_group_name_H-M   'P 1'
_cell_length_a   3.98479800
_cell_length_b   11.07977126
_cell_length_c   11.33529800
_cell_angle_alpha   71.33880975
_cell_angle_beta   90.00000000
_cell_angle_gamma   90.00000000
_symmetry_Int_Tables_number   1
_chemical_formula_structural   TbPr2Ho5S12
_chemical_formula_sum   'Tb1 Pr2 Ho5 S12'
_cell_volume   474.15016956
_cell_formula_units_Z   1
loop_
 _symmetry_equiv_pos_site_id
 _symmetry_equiv_pos_as_xyz
  1  'x, y, z'
loop_
 _atom_site_type_symbol
 _atom_site_label
 _atom_site_symmetry_multiplicity
 _atom_site_fract_x
 _atom_site_fract_y
 _atom_site_fract_z
 _atom_site_occupancy
  Tb  Tb0  1  0.750000  0.179960  0.997666  1
  Pr  Pr1  1  0.750000  0.548827  0.805350  1
  Pr  Pr2  1  0.250000  0.451936  0.194325  1
  Ho  Ho3  1  0.250000  0.819563  0.002166  1
  Ho  Ho4  1  0.750000  0.938688  0.667185  1
  Ho  Ho5  1  0.250000  0.061231  0.332878  1
  Ho  Ho6  1  0.750000  0.661275  0.413694  1
  Ho  Ho7  1  0.250000  0.339055  0.585628  1
  S  S8  1  0.750000  0.976612  0.888166  1
  S  S9  1  0.250000  0.020656  0.113416  1
  S  S10  1  0.750000  0.304903  0.747224  1
  S  S11  1  0.250000  0.695775  0.251547  1
  S  S12  1  0.750000  0.896281  0.439256  1
  S  S13  1  0.250000  0.103564  0.561058  1
  S  S14  1  0.750000  0.418319  0.405871  1
  S  S15  1  0.250000  0.582028  0.593783  1
  S  S16  1  0.750000  0.236471  0.228318  1
  S  S17  1  0.250000  0.763533  0.772729  1
  S  S18  1  0.750000  0.618881  0.036436  1
  S  S19  1  0.250000  0.382442  0.963305  1
