# generated using pymatgen
data_Lu9Mg(Ni2Ag)2
_symmetry_space_group_name_H-M   'P 1'
_cell_length_a   8.28601024
_cell_length_b   8.28601005
_cell_length_c   8.28601089
_cell_angle_alpha   126.90508349
_cell_angle_beta   126.90508651
_cell_angle_gamma   78.40558173
_symmetry_Int_Tables_number   1
_chemical_formula_structural   Lu9Mg(Ni2Ag)2
_chemical_formula_sum   'Lu9 Mg1 Ni4 Ag2'
_cell_volume   352.24603441
_cell_formula_units_Z   1
loop_
 _symmetry_equiv_pos_site_id
 _symmetry_equiv_pos_as_xyz
  1  'x, y, z'
loop_
 _atom_site_type_symbol
 _atom_site_label
 _atom_site_symmetry_multiplicity
 _atom_site_fract_x
 _atom_site_fract_y
 _atom_site_fract_z
 _atom_site_occupancy
  Lu  Lu0  1  0.500000  0.500000  0.000000  1
  Lu  Lu1  1  0.808008  0.283968  0.823569  1
  Lu  Lu2  1  0.191992  0.716032  0.176431  1
  Lu  Lu3  1  0.460399  0.984439  0.176431  1
  Lu  Lu4  1  0.283968  0.460399  0.475961  1
  Lu  Lu5  1  0.015561  0.191992  0.475961  1
  Lu  Lu6  1  0.539601  0.015561  0.823569  1
  Lu  Lu7  1  0.716032  0.539601  0.524039  1
  Lu  Lu8  1  0.984439  0.808008  0.524039  1
  Mg  Mg9  1  0.000000  0.000000  0.000000  1
  Ni  Ni10  1  0.137097  0.624993  0.762091  1
  Ni  Ni11  1  0.862903  0.375007  0.237909  1
  Ni  Ni12  1  0.624993  0.862903  0.487895  1
  Ni  Ni13  1  0.375007  0.137097  0.512105  1
  Ag  Ag14  1  0.254630  0.254630  0.000000  1
  Ag  Ag15  1  0.745370  0.745370  0.000000  1
