# generated using pymatgen
data_Tb2Dy3Bi3Cl
_symmetry_space_group_name_H-M   'P 1'
_cell_length_a   9.27978504
_cell_length_b   9.27978516
_cell_length_c   6.49568400
_cell_angle_alpha   90.00000000
_cell_angle_beta   90.00000000
_cell_angle_gamma   119.98891910
_symmetry_Int_Tables_number   1
_chemical_formula_structural   Tb2Dy3Bi3Cl
_chemical_formula_sum   'Tb4 Dy6 Bi6 Cl2'
_cell_volume   484.48444838
_cell_formula_units_Z   2
loop_
 _symmetry_equiv_pos_site_id
 _symmetry_equiv_pos_as_xyz
  1  'x, y, z'
loop_
 _atom_site_type_symbol
 _atom_site_label
 _atom_site_symmetry_multiplicity
 _atom_site_fract_x
 _atom_site_fract_y
 _atom_site_fract_z
 _atom_site_occupancy
  Tb  Tb0  1  0.269302  0.000129  0.750000  1
  Tb  Tb1  1  0.730698  0.999871  0.250000  1
  Tb  Tb2  1  0.000129  0.269302  0.750000  1
  Tb  Tb3  1  0.999871  0.730698  0.250000  1
  Dy  Dy4  1  0.730649  0.730649  0.750000  1
  Dy  Dy5  1  0.269351  0.269351  0.250000  1
  Dy  Dy6  1  0.333358  0.666642  0.500000  1
  Dy  Dy7  1  0.666642  0.333358  0.500000  1
  Dy  Dy8  1  0.666642  0.333358  0.000000  1
  Dy  Dy9  1  0.333358  0.666642  0.000000  1
  Bi  Bi10  1  0.614834  0.999628  0.750000  1
  Bi  Bi11  1  0.385166  0.000372  0.250000  1
  Bi  Bi12  1  0.999628  0.614834  0.750000  1
  Bi  Bi13  1  0.000372  0.385166  0.250000  1
  Bi  Bi14  1  0.385633  0.385633  0.750000  1
  Bi  Bi15  1  0.614367  0.614367  0.250000  1
  Cl  Cl16  1  0.000000  0.000000  0.500000  1
  Cl  Cl17  1  0.000000  0.000000  0.000000  1
