# generated using pymatgen
data_Li4Sm4Si3GePb2
_symmetry_space_group_name_H-M   'P 1'
_cell_length_a   9.80406173
_cell_length_b   9.80406217
_cell_length_c   6.89689134
_cell_angle_alpha   89.96444669
_cell_angle_beta   90.03555296
_cell_angle_gamma   153.48422995
_symmetry_Int_Tables_number   1
_chemical_formula_structural   Li4Sm4Si3GePb2
_chemical_formula_sum   'Li4 Sm4 Si3 Ge1 Pb2'
_cell_volume   295.95964242
_cell_formula_units_Z   1
loop_
 _symmetry_equiv_pos_site_id
 _symmetry_equiv_pos_as_xyz
  1  'x, y, z'
loop_
 _atom_site_type_symbol
 _atom_site_label
 _atom_site_symmetry_multiplicity
 _atom_site_fract_x
 _atom_site_fract_y
 _atom_site_fract_z
 _atom_site_occupancy
  Li  Li0  1  0.816756  0.183244  0.553681  1
  Li  Li1  1  0.183087  0.816913  0.446546  1
  Li  Li2  1  0.183382  0.816618  0.053572  1
  Li  Li3  1  0.816097  0.183903  0.946140  1
  Sm  Sm4  1  0.548051  0.451949  0.250785  1
  Sm  Sm5  1  0.452915  0.547085  0.747572  1
  Sm  Sm6  1  0.352295  0.647705  0.252356  1
  Sm  Sm7  1  0.647299  0.352701  0.750047  1
  Si  Si8  1  0.058736  0.941264  0.923660  1
  Si  Si9  1  0.056879  0.943121  0.573536  1
  Si  Si10  1  0.943021  0.056979  0.431044  1
  Ge  Ge11  1  0.941349  0.058651  0.071048  1
  Pb  Pb12  1  0.719162  0.280838  0.250463  1
  Pb  Pb13  1  0.280971  0.719029  0.749549  1
