# generated using pymatgen
data_Nd5MnCrO12
_symmetry_space_group_name_H-M   'P 1'
_cell_length_a   6.98806041
_cell_length_b   6.98805987
_cell_length_c   7.57599088
_cell_angle_alpha   74.45295707
_cell_angle_beta   74.45295718
_cell_angle_gamma   50.67620258
_symmetry_Int_Tables_number   1
_chemical_formula_structural   Nd5MnCrO12
_chemical_formula_sum   'Nd5 Mn1 Cr1 O12'
_cell_volume   273.31677097
_cell_formula_units_Z   1
loop_
 _symmetry_equiv_pos_site_id
 _symmetry_equiv_pos_as_xyz
  1  'x, y, z'
loop_
 _atom_site_type_symbol
 _atom_site_label
 _atom_site_symmetry_multiplicity
 _atom_site_fract_x
 _atom_site_fract_y
 _atom_site_fract_z
 _atom_site_occupancy
  Nd  Nd0  1  0.300766  0.315895  0.356323  1
  Nd  Nd1  1  0.684105  0.699234  0.643677  1
  Nd  Nd2  1  0.690208  0.694923  0.164991  1
  Nd  Nd3  1  0.305077  0.309792  0.835009  1
  Nd  Nd4  1  0.998070  0.001930  0.500000  1
  Mn  Mn5  1  0.256426  0.743574  0.000000  1
  Cr  Cr6  1  0.775783  0.224217  0.000000  1
  O  O7  1  0.090354  0.596822  0.581361  1
  O  O8  1  0.000638  0.997621  0.168421  1
  O  O9  1  0.403178  0.909646  0.418639  1
  O  O10  1  0.498778  0.502800  0.171832  1
  O  O11  1  0.100347  0.580317  0.077128  1
  O  O12  1  0.899764  0.404199  0.423432  1
  O  O13  1  0.002379  0.999362  0.831579  1
  O  O14  1  0.595801  0.100235  0.576568  1
  O  O15  1  0.497200  0.501222  0.828168  1
  O  O16  1  0.591163  0.109719  0.074319  1
  O  O17  1  0.419683  0.899653  0.922872  1
  O  O18  1  0.890281  0.408837  0.925681  1
