# generated using pymatgen
data_Nd2Tm2LuPb4
_symmetry_space_group_name_H-M   'P 1'
_cell_length_a   8.21361300
_cell_length_b   8.31837300
_cell_length_c   15.66103500
_cell_angle_alpha   90.00000000
_cell_angle_beta   90.00000000
_cell_angle_gamma   90.00000000
_symmetry_Int_Tables_number   1
_chemical_formula_structural   Nd2Tm2LuPb4
_chemical_formula_sum   'Nd8 Tm8 Lu4 Pb16'
_cell_volume   1070.02293617
_cell_formula_units_Z   4
loop_
 _symmetry_equiv_pos_site_id
 _symmetry_equiv_pos_as_xyz
  1  'x, y, z'
loop_
 _atom_site_type_symbol
 _atom_site_label
 _atom_site_symmetry_multiplicity
 _atom_site_fract_x
 _atom_site_fract_y
 _atom_site_fract_z
 _atom_site_occupancy
  Nd  Nd0  1  0.472734  0.677470  0.597571  1
  Nd  Nd1  1  0.972734  0.822530  0.902429  1
  Nd  Nd2  1  0.527266  0.322530  0.097571  1
  Nd  Nd3  1  0.027266  0.177470  0.402429  1
  Nd  Nd4  1  0.527266  0.322530  0.402429  1
  Nd  Nd5  1  0.027266  0.177470  0.097571  1
  Nd  Nd6  1  0.472734  0.677470  0.902429  1
  Nd  Nd7  1  0.972734  0.822530  0.597571  1
  Tm  Tm8  1  0.632616  0.157980  0.622695  1
  Tm  Tm9  1  0.132616  0.342020  0.877305  1
  Tm  Tm10  1  0.367384  0.842020  0.122695  1
  Tm  Tm11  1  0.867384  0.657980  0.377305  1
  Tm  Tm12  1  0.367384  0.842020  0.377305  1
  Tm  Tm13  1  0.867384  0.657980  0.122695  1
  Tm  Tm14  1  0.632616  0.157980  0.877305  1
  Tm  Tm15  1  0.132616  0.342020  0.622695  1
  Lu  Lu16  1  0.799180  0.493708  0.750000  1
  Lu  Lu17  1  0.299180  0.006292  0.750000  1
  Lu  Lu18  1  0.200820  0.506292  0.250000  1
  Lu  Lu19  1  0.700820  0.993708  0.250000  1
  Pb  Pb20  1  0.706218  0.959303  0.456301  1
  Pb  Pb21  1  0.206218  0.540697  0.043699  1
  Pb  Pb22  1  0.293782  0.040697  0.956301  1
  Pb  Pb23  1  0.793782  0.459303  0.543699  1
  Pb  Pb24  1  0.293782  0.040697  0.543699  1
  Pb  Pb25  1  0.793782  0.459303  0.956301  1
  Pb  Pb26  1  0.706218  0.959303  0.043699  1
  Pb  Pb27  1  0.206218  0.540697  0.456301  1
  Pb  Pb28  1  0.437400  0.370842  0.750000  1
  Pb  Pb29  1  0.937400  0.129158  0.750000  1
  Pb  Pb30  1  0.562600  0.629158  0.250000  1
  Pb  Pb31  1  0.062600  0.870842  0.250000  1
  Pb  Pb32  1  0.661931  0.848549  0.750000  1
  Pb  Pb33  1  0.161931  0.651451  0.750000  1
  Pb  Pb34  1  0.338069  0.151451  0.250000  1
  Pb  Pb35  1  0.838069  0.348549  0.250000  1
