# generated using pymatgen
data_Tb4Y6Si5Bi
_symmetry_space_group_name_H-M   'P 1'
_cell_length_a   8.55729300
_cell_length_b   8.61208913
_cell_length_c   6.40591400
_cell_angle_alpha   90.00000000
_cell_angle_beta   90.00000000
_cell_angle_gamma   119.78974972
_symmetry_Int_Tables_number   1
_chemical_formula_structural   Tb4Y6Si5Bi
_chemical_formula_sum   'Tb4 Y6 Si5 Bi1'
_cell_volume   409.70651125
_cell_formula_units_Z   1
loop_
 _symmetry_equiv_pos_site_id
 _symmetry_equiv_pos_as_xyz
  1  'x, y, z'
loop_
 _atom_site_type_symbol
 _atom_site_label
 _atom_site_symmetry_multiplicity
 _atom_site_fract_x
 _atom_site_fract_y
 _atom_site_fract_z
 _atom_site_occupancy
  Tb  Tb0  1  0.330620  0.653801  0.494840  1
  Tb  Tb1  1  0.676819  0.346199  0.005160  1
  Tb  Tb2  1  0.676819  0.346199  0.494840  1
  Tb  Tb3  1  0.330620  0.653801  0.005160  1
  Y  Y4  1  0.985196  0.744574  0.750000  1
  Y  Y5  1  0.997958  0.243489  0.250000  1
  Y  Y6  1  0.754469  0.756511  0.250000  1
  Y  Y7  1  0.767225  0.000000  0.750000  1
  Y  Y8  1  0.240622  0.255426  0.750000  1
  Y  Y9  1  0.240957  0.000000  0.250000  1
  Si  Si10  1  0.392380  0.389816  0.250000  1
  Si  Si11  1  0.002566  0.610184  0.250000  1
  Si  Si12  1  0.998636  0.393753  0.750000  1
  Si  Si13  1  0.604882  0.606247  0.750000  1
  Si  Si14  1  0.607525  0.000000  0.250000  1
  Bi  Bi15  1  0.392703  0.000000  0.750000  1
