# generated using pymatgen
data_Dy5Er5(In3Cl)2
_symmetry_space_group_name_H-M   'P 1'
_cell_length_a   9.08338900
_cell_length_b   9.07984986
_cell_length_c   6.65448100
_cell_angle_alpha   90.00000000
_cell_angle_beta   90.00000000
_cell_angle_gamma   120.01289101
_symmetry_Int_Tables_number   1
_chemical_formula_structural   Dy5Er5(In3Cl)2
_chemical_formula_sum   'Dy5 Er5 In6 Cl2'
_cell_volume   475.24217292
_cell_formula_units_Z   1
loop_
 _symmetry_equiv_pos_site_id
 _symmetry_equiv_pos_as_xyz
  1  'x, y, z'
loop_
 _atom_site_type_symbol
 _atom_site_label
 _atom_site_symmetry_multiplicity
 _atom_site_fract_x
 _atom_site_fract_y
 _atom_site_fract_z
 _atom_site_occupancy
  Dy  Dy0  1  0.741114  0.741056  0.250000  1
  Dy  Dy1  1  0.000023  0.741151  0.750000  1
  Dy  Dy2  1  0.741262  0.000000  0.750000  1
  Dy  Dy3  1  0.258872  0.258849  0.750000  1
  Dy  Dy4  1  0.000058  0.258944  0.250000  1
  Er  Er5  1  0.333187  0.666794  0.499909  1
  Er  Er6  1  0.666394  0.333206  0.499909  1
  Er  Er7  1  0.259074  0.000000  0.250000  1
  Er  Er8  1  0.333187  0.666794  0.000091  1
  Er  Er9  1  0.666394  0.333206  0.000091  1
  In  In10  1  0.395057  0.000000  0.750000  1
  In  In11  1  0.000773  0.605983  0.250000  1
  In  In12  1  0.604331  0.000000  0.250000  1
  In  In13  1  0.999976  0.395088  0.750000  1
  In  In14  1  0.394790  0.394017  0.250000  1
  In  In15  1  0.604888  0.604912  0.750000  1
  Cl  Cl16  1  0.000310  0.000000  0.499516  1
  Cl  Cl17  1  0.000310  0.000000  0.000484  1
