# generated using pymatgen
data_Tb8TiNb11Si16
_symmetry_space_group_name_H-M   'P 1'
_cell_length_a   7.08834456
_cell_length_b   7.08834456
_cell_length_c   13.07981115
_cell_angle_alpha   89.93528041
_cell_angle_beta   90.06471959
_cell_angle_gamma   90.03967403
_symmetry_Int_Tables_number   1
_chemical_formula_structural   Tb8TiNb11Si16
_chemical_formula_sum   'Tb8 Ti1 Nb11 Si16'
_cell_volume   657.18925795
_cell_formula_units_Z   1
loop_
 _symmetry_equiv_pos_site_id
 _symmetry_equiv_pos_as_xyz
  1  'x, y, z'
loop_
 _atom_site_type_symbol
 _atom_site_label
 _atom_site_symmetry_multiplicity
 _atom_site_fract_x
 _atom_site_fract_y
 _atom_site_fract_z
 _atom_site_occupancy
  Tb  Tb0  1  0.341595  0.003067  0.466884  1
  Tb  Tb1  1  0.496910  0.841494  0.717330  1
  Tb  Tb2  1  0.502513  0.158390  0.217410  1
  Tb  Tb3  1  0.841494  0.496910  0.282670  1
  Tb  Tb4  1  0.158390  0.502513  0.782590  1
  Tb  Tb5  1  0.658542  0.997387  0.967190  1
  Tb  Tb6  1  0.003067  0.341595  0.533116  1
  Tb  Tb7  1  0.997387  0.658542  0.032810  1
  Ti  Ti8  1  0.672056  0.672056  0.500000  1
  Nb  Nb9  1  0.328232  0.328232  0.000000  1
  Nb  Nb10  1  0.172114  0.827903  0.250155  1
  Nb  Nb11  1  0.827903  0.172114  0.749845  1
  Nb  Nb12  1  0.153579  0.007431  0.874204  1
  Nb  Nb13  1  0.492605  0.653425  0.124482  1
  Nb  Nb14  1  0.507370  0.345970  0.624681  1
  Nb  Nb15  1  0.653425  0.492605  0.875518  1
  Nb  Nb16  1  0.345970  0.507370  0.375319  1
  Nb  Nb17  1  0.846166  0.992492  0.374290  1
  Nb  Nb18  1  0.007431  0.153579  0.125796  1
  Nb  Nb19  1  0.992492  0.846166  0.625710  1
  Si  Si20  1  0.203651  0.132376  0.683042  1
  Si  Si21  1  0.367299  0.703203  0.933362  1
  Si  Si22  1  0.633084  0.297791  0.434012  1
  Si  Si23  1  0.703203  0.367299  0.066638  1
  Si  Si24  1  0.297791  0.633084  0.565988  1
  Si  Si25  1  0.796271  0.867001  0.183509  1
  Si  Si26  1  0.132376  0.203651  0.316958  1
  Si  Si27  1  0.867001  0.796271  0.816491  1
  Si  Si28  1  0.292970  0.953491  0.063806  1
  Si  Si29  1  0.547542  0.792211  0.315046  1
  Si  Si30  1  0.453735  0.207230  0.813369  1
  Si  Si31  1  0.792211  0.547542  0.684954  1
  Si  Si32  1  0.207230  0.453735  0.186631  1
  Si  Si33  1  0.707145  0.045762  0.563075  1
  Si  Si34  1  0.953491  0.292970  0.936194  1
  Si  Si35  1  0.045762  0.707145  0.436925  1
