# generated using pymatgen
data_Rb2Li2H6Ru
_symmetry_space_group_name_H-M   'P 1'
_cell_length_a   6.98259446
_cell_length_b   7.55317585
_cell_length_c   7.55317556
_cell_angle_alpha   78.49203739
_cell_angle_beta   115.38250333
_cell_angle_gamma   115.38251856
_symmetry_Int_Tables_number   1
_chemical_formula_structural   Rb2Li2H6Ru
_chemical_formula_sum   'Rb4 Li4 H12 Ru2'
_cell_volume   325.10142852
_cell_formula_units_Z   2
loop_
 _symmetry_equiv_pos_site_id
 _symmetry_equiv_pos_as_xyz
  1  'x, y, z'
loop_
 _atom_site_type_symbol
 _atom_site_label
 _atom_site_symmetry_multiplicity
 _atom_site_fract_x
 _atom_site_fract_y
 _atom_site_fract_z
 _atom_site_occupancy
  Rb  Rb0  1  0.690610  0.625059  0.172529  1
  Rb  Rb1  1  0.250000  0.821236  0.678764  1
  Rb  Rb2  1  0.809390  0.327471  0.874941  1
  Rb  Rb3  1  0.750000  0.123503  0.376497  1
  Li  Li4  1  0.250000  0.234513  0.265487  1
  Li  Li5  1  0.750000  0.764833  0.735167  1
  Li  Li6  1  0.240921  0.739129  0.228753  1
  Li  Li7  1  0.259079  0.271247  0.760871  1
  H  H8  1  0.118770  0.492859  0.457740  1
  H  H9  1  0.318998  0.259780  0.532465  1
  H  H10  1  0.303835  0.504600  0.251087  1
  H  H11  1  0.017334  0.013935  0.735479  1
  H  H12  1  0.823678  0.952758  0.943861  1
  H  H13  1  0.017269  0.746138  0.968086  1
  H  H14  1  0.676322  0.556139  0.547242  1
  H  H15  1  0.482666  0.764521  0.486065  1
  H  H16  1  0.482731  0.531914  0.753862  1
  H  H17  1  0.181002  0.967535  0.240220  1
  H  H18  1  0.381230  0.042260  0.007141  1
  H  H19  1  0.196165  0.248913  0.995400  1
  Ru  Ru20  1  0.393744  0.513080  0.501422  1
  Ru  Ru21  1  0.106256  0.998578  0.986920  1
