# generated using pymatgen
data_Er2Mn2Fe6Ni4P7
_symmetry_space_group_name_H-M   'P 1'
_cell_length_a   9.07814136
_cell_length_b   9.04825408
_cell_length_c   3.61558700
_cell_angle_alpha   90.00000000
_cell_angle_beta   90.00000000
_cell_angle_gamma   119.72815001
_symmetry_Int_Tables_number   1
_chemical_formula_structural   Er2Mn2Fe6Ni4P7
_chemical_formula_sum   'Er2 Mn2 Fe6 Ni4 P7'
_cell_volume   257.90178650
_cell_formula_units_Z   1
loop_
 _symmetry_equiv_pos_site_id
 _symmetry_equiv_pos_as_xyz
  1  'x, y, z'
loop_
 _atom_site_type_symbol
 _atom_site_label
 _atom_site_symmetry_multiplicity
 _atom_site_fract_x
 _atom_site_fract_y
 _atom_site_fract_z
 _atom_site_occupancy
  Er  Er0  1  0.328910  0.662781  0.000000  1
  Er  Er1  1  0.002475  0.002904  0.500000  1
  Mn  Mn2  1  0.769085  0.550577  0.500000  1
  Mn  Mn3  1  0.449130  0.214694  0.500000  1
  Fe  Fe4  1  0.546155  0.052127  0.000000  1
  Fe  Fe5  1  0.939001  0.489707  0.000000  1
  Fe  Fe6  1  0.512483  0.451957  0.000000  1
  Fe  Fe7  1  0.102571  0.722286  0.500000  1
  Fe  Fe8  1  0.278397  0.382729  0.500000  1
  Fe  Fe9  1  0.791857  0.236412  0.500000  1
  Ni  Ni10  1  0.035100  0.273169  0.000000  1
  Ni  Ni11  1  0.731378  0.768304  0.000000  1
  Ni  Ni12  1  0.235162  0.968722  0.000000  1
  Ni  Ni13  1  0.617641  0.893518  0.500000  1
  P  P14  1  0.779814  0.040495  0.000000  1
  P  P15  1  0.970066  0.744821  0.000000  1
  P  P16  1  0.257288  0.228506  0.000000  1
  P  P17  1  0.377105  0.924258  0.500000  1
  P  P18  1  0.068119  0.453288  0.500000  1
  P  P19  1  0.541098  0.611026  0.500000  1
  P  P20  1  0.667160  0.327723  0.000000  1
