# generated using pymatgen
data_Nd2LuTh(AsPt)4
_symmetry_space_group_name_H-M   'P 1'
_cell_length_a   4.31521700
_cell_length_b   4.31521764
_cell_length_c   15.91401600
_cell_angle_alpha   90.00000000
_cell_angle_beta   90.00000000
_cell_angle_gamma   120.00000273
_symmetry_Int_Tables_number   1
_chemical_formula_structural   Nd2LuTh(AsPt)4
_chemical_formula_sum   'Nd2 Lu1 Th1 As4 Pt4'
_cell_volume   256.63492298
_cell_formula_units_Z   1
loop_
 _symmetry_equiv_pos_site_id
 _symmetry_equiv_pos_as_xyz
  1  'x, y, z'
loop_
 _atom_site_type_symbol
 _atom_site_label
 _atom_site_symmetry_multiplicity
 _atom_site_fract_x
 _atom_site_fract_y
 _atom_site_fract_z
 _atom_site_occupancy
  Nd  Nd0  1  0.000000  0.000000  0.509290  1
  Nd  Nd1  1  0.000000  0.000000  0.990710  1
  Lu  Lu2  1  0.000000  0.000000  0.750000  1
  Th  Th3  1  0.000000  0.000000  0.250000  1
  As  As4  1  0.333333  0.666667  0.878497  1
  As  As5  1  0.666667  0.333333  0.112000  1
  As  As6  1  0.666667  0.333333  0.388000  1
  As  As7  1  0.333333  0.666667  0.621503  1
  Pt  Pt8  1  0.333333  0.666667  0.363770  1
  Pt  Pt9  1  0.666667  0.333333  0.649782  1
  Pt  Pt10  1  0.666667  0.333333  0.850218  1
  Pt  Pt11  1  0.333333  0.666667  0.136230  1
