# generated using pymatgen
data_Nd2(CO3)3
_symmetry_space_group_name_H-M   'P 1'
_cell_length_a   8.64858268
_cell_length_b   8.48760058
_cell_length_c   8.51623912
_cell_angle_alpha   119.89405141
_cell_angle_beta   90.05343186
_cell_angle_gamma   90.01423204
_symmetry_Int_Tables_number   1
_chemical_formula_structural   Nd2(CO3)3
_chemical_formula_sum   'Nd4 C6 O18'
_cell_volume   541.96430706
_cell_formula_units_Z   2
loop_
 _symmetry_equiv_pos_site_id
 _symmetry_equiv_pos_as_xyz
  1  'x, y, z'
loop_
 _atom_site_type_symbol
 _atom_site_label
 _atom_site_symmetry_multiplicity
 _atom_site_fract_x
 _atom_site_fract_y
 _atom_site_fract_z
 _atom_site_occupancy
  Nd  Nd0  1  0.969667  0.665486  0.332160  1
  Nd  Nd1  1  0.530319  0.667284  0.333308  1
  Nd  Nd2  1  0.469681  0.332716  0.666692  1
  Nd  Nd3  1  0.030333  0.334514  0.667840  1
  C  C4  1  0.249776  0.969067  0.372520  1
  C  C5  1  0.250322  0.403633  0.031478  1
  C  C6  1  0.750177  0.371754  0.403981  1
  C  C7  1  0.249823  0.628246  0.596019  1
  C  C8  1  0.749678  0.596367  0.968522  1
  C  C9  1  0.750224  0.030933  0.627480  1
  O  O10  1  0.119891  0.884202  0.321348  1
  O  O11  1  0.380499  0.886195  0.321910  1
  O  O12  1  0.749620  0.665258  0.144500  1
  O  O13  1  0.380525  0.437289  0.115518  1
  O  O14  1  0.119928  0.436412  0.114817  1
  O  O15  1  0.749516  0.478424  0.333915  1
  O  O16  1  0.750910  0.854540  0.519577  1
  O  O17  1  0.119153  0.678089  0.562482  1
  O  O18  1  0.379760  0.678959  0.561980  1
  O  O19  1  0.620240  0.321041  0.438020  1
  O  O20  1  0.880847  0.321911  0.437518  1
  O  O21  1  0.249090  0.145460  0.480423  1
  O  O22  1  0.250484  0.521576  0.666085  1
  O  O23  1  0.880072  0.563588  0.885183  1
  O  O24  1  0.619475  0.562711  0.884482  1
  O  O25  1  0.250380  0.334742  0.855500  1
  O  O26  1  0.619501  0.113805  0.678090  1
  O  O27  1  0.880109  0.115798  0.678652  1
