# generated using pymatgen
data_Ti8Al10Si5Os5Rh2
_symmetry_space_group_name_H-M   'P 1'
_cell_length_a   8.58117860
_cell_length_b   8.58117919
_cell_length_c   8.58117850
_cell_angle_alpha   120.22211284
_cell_angle_beta   119.67835322
_cell_angle_gamma   90.08686434
_symmetry_Int_Tables_number   1
_chemical_formula_structural   Ti8Al10Si5Os5Rh2
_chemical_formula_sum   'Ti8 Al10 Si5 Os5 Rh2'
_cell_volume   447.13603808
_cell_formula_units_Z   1
loop_
 _symmetry_equiv_pos_site_id
 _symmetry_equiv_pos_as_xyz
  1  'x, y, z'
loop_
 _atom_site_type_symbol
 _atom_site_label
 _atom_site_symmetry_multiplicity
 _atom_site_fract_x
 _atom_site_fract_y
 _atom_site_fract_z
 _atom_site_occupancy
  Ti  Ti0  1  0.799494  0.300844  0.092375  1
  Ti  Ti1  1  0.208469  0.300844  0.501350  1
  Ti  Ti2  1  0.201071  0.701071  0.500000  1
  Ti  Ti3  1  0.208469  0.707118  0.907625  1
  Ti  Ti4  1  0.799494  0.707118  0.498650  1
  Ti  Ti5  1  0.793827  0.293827  0.500000  1
  Ti  Ti6  1  0.374735  0.124242  0.749507  1
  Ti  Ti7  1  0.374735  0.625227  0.250493  1
  Al  Al8  1  0.841770  0.659347  0.817578  1
  Al  Al9  1  0.841770  0.024192  0.182422  1
  Al  Al10  1  0.839447  0.660321  0.179125  1
  Al  Al11  1  0.481196  0.660321  0.820875  1
  Al  Al12  1  0.378830  0.120518  0.258312  1
  Al  Al13  1  0.862207  0.120518  0.741688  1
  Al  Al14  1  0.620687  0.879090  0.258404  1
  Al  Al15  1  0.620687  0.362282  0.741596  1
  Al  Al16  1  0.616343  0.877481  0.738862  1
  Al  Al17  1  0.138617  0.877481  0.261138  1
  Si  Si18  1  0.998092  0.498092  0.500000  1
  Si  Si19  1  0.153070  0.346374  0.193302  1
  Si  Si20  1  0.153070  0.959768  0.806698  1
  Si  Si21  1  0.150865  0.348688  0.802178  1
  Si  Si22  1  0.546508  0.348688  0.197822  1
  Os  Os23  1  0.006264  0.006588  0.513406  1
  Os  Os24  1  0.493182  0.006588  0.000324  1
  Os  Os25  1  0.493711  0.493711  0.000000  1
  Os  Os26  1  0.493182  0.492858  0.486594  1
  Os  Os27  1  0.006264  0.492858  0.999676  1
  Rh  Rh28  1  0.006652  0.006652  0.000000  1
  Rh  Rh29  1  0.497290  0.997290  0.500000  1
