# generated using pymatgen
data_HoEr19(Bi3Sb)3
_symmetry_space_group_name_H-M   'P 1'
_cell_length_a   8.14142932
_cell_length_b   9.42923900
_cell_length_c   11.90772224
_cell_angle_alpha   90.00000000
_cell_angle_beta   90.02762354
_cell_angle_gamma   90.00000000
_symmetry_Int_Tables_number   1
_chemical_formula_structural   HoEr19(Bi3Sb)3
_chemical_formula_sum   'Ho1 Er19 Bi9 Sb3'
_cell_volume   914.12575682
_cell_formula_units_Z   1
loop_
 _symmetry_equiv_pos_site_id
 _symmetry_equiv_pos_as_xyz
  1  'x, y, z'
loop_
 _atom_site_type_symbol
 _atom_site_label
 _atom_site_symmetry_multiplicity
 _atom_site_fract_x
 _atom_site_fract_y
 _atom_site_fract_z
 _atom_site_occupancy
  Ho  Ho0  1  0.183837  0.750000  0.717443  1
  Er  Er1  1  0.354162  0.750000  0.214003  1
  Er  Er2  1  0.854035  0.750000  0.285893  1
  Er  Er3  1  0.646199  0.250000  0.786071  1
  Er  Er4  1  0.146809  0.250000  0.717112  1
  Er  Er5  1  0.688563  0.563445  0.058003  1
  Er  Er6  1  0.189539  0.933010  0.441792  1
  Er  Er7  1  0.311460  0.063245  0.942089  1
  Er  Er8  1  0.808989  0.438760  0.559090  1
  Er  Er9  1  0.311460  0.436755  0.942089  1
  Er  Er10  1  0.808989  0.061240  0.559090  1
  Er  Er11  1  0.688563  0.936555  0.058003  1
  Er  Er12  1  0.189539  0.566990  0.441792  1
  Er  Er13  1  0.476644  0.250000  0.488651  1
  Er  Er14  1  0.973020  0.250000  0.011446  1
  Er  Er15  1  0.527334  0.750000  0.511515  1
  Er  Er16  1  0.026951  0.750000  0.988599  1
  Er  Er17  1  0.317415  0.250000  0.215754  1
  Er  Er18  1  0.812322  0.250000  0.280464  1
  Er  Er19  1  0.683835  0.750000  0.782745  1
  Bi  Bi20  1  0.094657  0.250000  0.457085  1
  Bi  Bi21  1  0.566064  0.996029  0.325518  1
  Bi  Bi22  1  0.066271  0.503770  0.174431  1
  Bi  Bi23  1  0.433954  0.495834  0.674400  1
  Bi  Bi24  1  0.933473  0.003917  0.825728  1
  Bi  Bi25  1  0.433954  0.004166  0.674400  1
  Bi  Bi26  1  0.933473  0.496083  0.825728  1
  Bi  Bi27  1  0.566064  0.503971  0.325518  1
  Bi  Bi28  1  0.066271  0.996230  0.174431  1
  Sb  Sb29  1  0.406048  0.750000  0.958498  1
  Sb  Sb30  1  0.905752  0.750000  0.541233  1
  Sb  Sb31  1  0.594355  0.250000  0.041380  1
