# generated using pymatgen
data_Np(ZnGa)2
_symmetry_space_group_name_H-M   'P 1'
_cell_length_a   6.16871907
_cell_length_b   6.16871906
_cell_length_c   6.16871888
_cell_angle_alpha   140.73096424
_cell_angle_beta   140.73096474
_cell_angle_gamma   56.74510217
_symmetry_Int_Tables_number   1
_chemical_formula_structural   Np(ZnGa)2
_chemical_formula_sum   'Np1 Zn2 Ga2'
_cell_volume   93.28125689
_cell_formula_units_Z   1
loop_
 _symmetry_equiv_pos_site_id
 _symmetry_equiv_pos_as_xyz
  1  'x, y, z'
loop_
 _atom_site_type_symbol
 _atom_site_label
 _atom_site_symmetry_multiplicity
 _atom_site_fract_x
 _atom_site_fract_y
 _atom_site_fract_z
 _atom_site_occupancy
  Np  Np0  1  0.000000  0.000000  0.000000  1
  Zn  Zn1  1  0.749999  0.250000  0.500000  1
  Zn  Zn2  1  0.250000  0.749999  0.500000  1
  Ga  Ga3  1  0.386750  0.386750  0.000000  1
  Ga  Ga4  1  0.613250  0.613250  0.000000  1
