# generated using pymatgen
data_Dy2Y4Mn3(Co5P4)3
_symmetry_space_group_name_H-M   'P 1'
_cell_length_a   3.70382600
_cell_length_b   10.56944800
_cell_length_c   12.16641500
_cell_angle_alpha   90.00000000
_cell_angle_beta   90.00000000
_cell_angle_gamma   90.00000000
_symmetry_Int_Tables_number   1
_chemical_formula_structural   Dy2Y4Mn3(Co5P4)3
_chemical_formula_sum   'Dy2 Y4 Mn3 Co15 P12'
_cell_volume   476.28346965
_cell_formula_units_Z   1
loop_
 _symmetry_equiv_pos_site_id
 _symmetry_equiv_pos_as_xyz
  1  'x, y, z'
loop_
 _atom_site_type_symbol
 _atom_site_label
 _atom_site_symmetry_multiplicity
 _atom_site_fract_x
 _atom_site_fract_y
 _atom_site_fract_z
 _atom_site_occupancy
  Dy  Dy0  1  0.000000  0.680419  0.795800  1
  Dy  Dy1  1  0.000000  0.319581  0.795800  1
  Y  Y2  1  0.000000  0.500000  0.523208  1
  Y  Y3  1  0.500000  0.000000  0.477372  1
  Y  Y4  1  0.500000  0.818198  0.204774  1
  Y  Y5  1  0.500000  0.181802  0.204774  1
  Mn  Mn6  1  0.500000  0.500000  0.155148  1
  Mn  Mn7  1  0.000000  0.000000  0.841529  1
  Mn  Mn8  1  0.000000  0.500000  0.988564  1
  Co  Co9  1  0.500000  0.500000  0.699948  1
  Co  Co10  1  0.000000  0.000000  0.297765  1
  Co  Co11  1  0.500000  0.000000  0.012992  1
  Co  Co12  1  0.500000  0.330586  0.994227  1
  Co  Co13  1  0.500000  0.669414  0.994227  1
  Co  Co14  1  0.000000  0.165127  0.004894  1
  Co  Co15  1  0.000000  0.834873  0.004894  1
  Co  Co16  1  0.500000  0.295968  0.430653  1
  Co  Co17  1  0.500000  0.704032  0.430653  1
  Co  Co18  1  0.000000  0.203557  0.570164  1
  Co  Co19  1  0.000000  0.796443  0.570164  1
  Co  Co20  1  0.500000  0.879821  0.709695  1
  Co  Co21  1  0.500000  0.120179  0.709695  1
  Co  Co22  1  0.000000  0.620949  0.291459  1
  Co  Co23  1  0.000000  0.379051  0.291459  1
  P  P24  1  0.500000  0.500000  0.882685  1
  P  P25  1  0.000000  0.000000  0.117087  1
  P  P26  1  0.500000  0.500000  0.345418  1
  P  P27  1  0.000000  0.000000  0.655256  1
  P  P28  1  0.500000  0.310290  0.616635  1
  P  P29  1  0.500000  0.689710  0.616635  1
  P  P30  1  0.000000  0.189094  0.384277  1
  P  P31  1  0.000000  0.810906  0.384277  1
  P  P32  1  0.500000  0.847044  0.892908  1
  P  P33  1  0.500000  0.152956  0.892908  1
  P  P34  1  0.000000  0.654588  0.106028  1
  P  P35  1  0.000000  0.345412  0.106028  1
