# generated using pymatgen
data_ErPa2(GaNi4)3
_symmetry_space_group_name_H-M   'P 1'
_cell_length_a   8.42576500
_cell_length_b   8.42576565
_cell_length_c   4.08441400
_cell_angle_alpha   90.00000000
_cell_angle_beta   90.00000000
_cell_angle_gamma   120.00000137
_symmetry_Int_Tables_number   1
_chemical_formula_structural   ErPa2(GaNi4)3
_chemical_formula_sum   'Er1 Pa2 Ga3 Ni12'
_cell_volume   251.11872626
_cell_formula_units_Z   1
loop_
 _symmetry_equiv_pos_site_id
 _symmetry_equiv_pos_as_xyz
  1  'x, y, z'
loop_
 _atom_site_type_symbol
 _atom_site_label
 _atom_site_symmetry_multiplicity
 _atom_site_fract_x
 _atom_site_fract_y
 _atom_site_fract_z
 _atom_site_occupancy
  Er  Er0  1  0.333333  0.666667  0.000000  1
  Pa  Pa1  1  0.666667  0.333333  0.000000  1
  Pa  Pa2  1  0.000000  0.000000  0.000000  1
  Ga  Ga3  1  0.495990  0.991979  0.500000  1
  Ga  Ga4  1  0.008021  0.504010  0.500000  1
  Ga  Ga5  1  0.495990  0.504010  0.500000  1
  Ni  Ni6  1  0.331226  0.003915  0.000000  1
  Ni  Ni7  1  0.672688  0.003915  0.000000  1
  Ni  Ni8  1  0.996085  0.327312  0.000000  1
  Ni  Ni9  1  0.996085  0.668774  0.000000  1
  Ni  Ni10  1  0.672688  0.668774  0.000000  1
  Ni  Ni11  1  0.331226  0.327312  0.000000  1
  Ni  Ni12  1  0.163905  0.327812  0.500000  1
  Ni  Ni13  1  0.829718  0.659435  0.500000  1
  Ni  Ni14  1  0.672188  0.836095  0.500000  1
  Ni  Ni15  1  0.340565  0.170282  0.500000  1
  Ni  Ni16  1  0.163905  0.836095  0.500000  1
  Ni  Ni17  1  0.829718  0.170282  0.500000  1
