# generated using pymatgen
data_ZrTa2(Nb2Cl9)2
_symmetry_space_group_name_H-M   'P 1'
_cell_length_a   10.07909721
_cell_length_b   10.08761337
_cell_length_c   10.07417970
_cell_angle_alpha   56.13295713
_cell_angle_beta   56.24541465
_cell_angle_gamma   56.14395883
_symmetry_Int_Tables_number   1
_chemical_formula_structural   ZrTa2(Nb2Cl9)2
_chemical_formula_sum   'Zr1 Ta2 Nb4 Cl18'
_cell_volume   660.13020316
_cell_formula_units_Z   1
loop_
 _symmetry_equiv_pos_site_id
 _symmetry_equiv_pos_as_xyz
  1  'x, y, z'
loop_
 _atom_site_type_symbol
 _atom_site_label
 _atom_site_symmetry_multiplicity
 _atom_site_fract_x
 _atom_site_fract_y
 _atom_site_fract_z
 _atom_site_occupancy
  Zr  Zr0  1  0.001039  0.999506  0.999479  1
  Ta  Ta1  1  0.648065  0.406167  0.306027  1
  Ta  Ta2  1  0.593440  0.694298  0.351914  1
  Nb  Nb3  1  0.405628  0.305062  0.649295  1
  Nb  Nb4  1  0.350938  0.593964  0.695309  1
  Nb  Nb5  1  0.694463  0.351024  0.594713  1
  Nb  Nb6  1  0.304845  0.648766  0.406077  1
  Cl  Cl7  1  0.567642  0.159158  0.442032  1
  Cl  Cl8  1  0.217436  0.375407  0.911310  1
  Cl  Cl9  1  0.909313  0.218496  0.373445  1
  Cl  Cl10  1  0.377959  0.910653  0.217546  1
  Cl  Cl11  1  0.780389  0.624309  0.091330  1
  Cl  Cl12  1  0.088519  0.782673  0.624537  1
  Cl  Cl13  1  0.718653  0.958922  0.152269  1
  Cl  Cl14  1  0.960391  0.149776  0.719951  1
  Cl  Cl15  1  0.150679  0.719938  0.960054  1
  Cl  Cl16  1  0.280139  0.039991  0.849538  1
  Cl  Cl17  1  0.039570  0.849022  0.280073  1
  Cl  Cl18  1  0.848794  0.281461  0.040827  1
  Cl  Cl19  1  0.555164  0.433890  0.843716  1
  Cl  Cl20  1  0.156707  0.445079  0.565500  1
  Cl  Cl21  1  0.448075  0.563192  0.156785  1
  Cl  Cl22  1  0.436841  0.842736  0.551804  1
  Cl  Cl23  1  0.840814  0.557928  0.432912  1
  Cl  Cl24  1  0.624498  0.088579  0.783556  1
