# generated using pymatgen
data_Er2TmZnCd3Ga2
_symmetry_space_group_name_H-M   'P 1'
_cell_length_a   7.21003615
_cell_length_b   7.21003652
_cell_length_c   4.35639900
_cell_angle_alpha   90.00000000
_cell_angle_beta   90.00000000
_cell_angle_gamma   119.97667904
_symmetry_Int_Tables_number   1
_chemical_formula_structural   Er2TmZnCd3Ga2
_chemical_formula_sum   'Er2 Tm1 Zn1 Cd3 Ga2'
_cell_volume   196.17117715
_cell_formula_units_Z   1
loop_
 _symmetry_equiv_pos_site_id
 _symmetry_equiv_pos_as_xyz
  1  'x, y, z'
loop_
 _atom_site_type_symbol
 _atom_site_label
 _atom_site_symmetry_multiplicity
 _atom_site_fract_x
 _atom_site_fract_y
 _atom_site_fract_z
 _atom_site_occupancy
  Er  Er0  1  0.576874  0.999938  0.500000  1
  Er  Er1  1  0.999938  0.576874  0.500000  1
  Tm  Tm2  1  0.423019  0.423019  0.500000  1
  Zn  Zn3  1  0.000168  0.000168  0.500000  1
  Cd  Cd4  1  0.754057  0.754057  0.000000  1
  Cd  Cd5  1  0.245867  0.000118  0.000000  1
  Cd  Cd6  1  0.000118  0.245867  0.000000  1
  Ga  Ga7  1  0.666531  0.333428  0.000000  1
  Ga  Ga8  1  0.333428  0.666531  0.000000  1
