# generated using pymatgen
data_Sm2Dy4PtBr10
_symmetry_space_group_name_H-M   'P 1'
_cell_length_a   7.39079236
_cell_length_b   9.30800923
_cell_length_c   9.43979440
_cell_angle_alpha   107.51786810
_cell_angle_beta   96.42215064
_cell_angle_gamma   105.47721165
_symmetry_Int_Tables_number   1
_chemical_formula_structural   Sm2Dy4PtBr10
_chemical_formula_sum   'Sm2 Dy4 Pt1 Br10'
_cell_volume   583.62891738
_cell_formula_units_Z   1
loop_
 _symmetry_equiv_pos_site_id
 _symmetry_equiv_pos_as_xyz
  1  'x, y, z'
loop_
 _atom_site_type_symbol
 _atom_site_label
 _atom_site_symmetry_multiplicity
 _atom_site_fract_x
 _atom_site_fract_y
 _atom_site_fract_z
 _atom_site_occupancy
  Sm  Sm0  1  0.871870  0.952270  0.250410  1
  Sm  Sm1  1  0.128130  0.047730  0.749590  1
  Dy  Dy2  1  0.360734  0.134912  0.174456  1
  Dy  Dy3  1  0.639266  0.865088  0.825544  1
  Dy  Dy4  1  0.971037  0.298655  0.092574  1
  Dy  Dy5  1  0.028963  0.701345  0.907426  1
  Pt  Pt6  1  0.000000  0.000000  0.000000  1
  Br  Br7  1  0.348374  0.448710  0.268136  1
  Br  Br8  1  0.651626  0.551290  0.731864  1
  Br  Br9  1  0.918526  0.626732  0.169799  1
  Br  Br10  1  0.081474  0.373268  0.830201  1
  Br  Br11  1  0.450411  0.823812  0.083438  1
  Br  Br12  1  0.549589  0.176188  0.916562  1
  Br  Br13  1  0.259174  0.084959  0.450506  1
  Br  Br14  1  0.740826  0.915041  0.549494  1
  Br  Br15  1  0.781158  0.258946  0.339991  1
  Br  Br16  1  0.218842  0.741054  0.660009  1
