# generated using pymatgen
data_Zr6Ti2Nb2Ge6C
_symmetry_space_group_name_H-M   'P 1'
_cell_length_a   7.92121500
_cell_length_b   7.92121562
_cell_length_c   5.45951600
_cell_angle_alpha   90.00000000
_cell_angle_beta   90.00000000
_cell_angle_gamma   119.99998489
_symmetry_Int_Tables_number   1
_chemical_formula_structural   Zr6Ti2Nb2Ge6C
_chemical_formula_sum   'Zr6 Ti2 Nb2 Ge6 C1'
_cell_volume   296.66647907
_cell_formula_units_Z   1
loop_
 _symmetry_equiv_pos_site_id
 _symmetry_equiv_pos_as_xyz
  1  'x, y, z'
loop_
 _atom_site_type_symbol
 _atom_site_label
 _atom_site_symmetry_multiplicity
 _atom_site_fract_x
 _atom_site_fract_y
 _atom_site_fract_z
 _atom_site_occupancy
  Zr  Zr0  1  0.000000  0.756271  0.258863  1
  Zr  Zr1  1  0.243729  0.243729  0.258863  1
  Zr  Zr2  1  0.756271  0.000000  0.258863  1
  Zr  Zr3  1  0.000000  0.243729  0.741137  1
  Zr  Zr4  1  0.756271  0.756271  0.741137  1
  Zr  Zr5  1  0.243729  0.000000  0.741137  1
  Ti  Ti6  1  0.333333  0.666667  0.000000  1
  Ti  Ti7  1  0.666667  0.333333  0.000000  1
  Nb  Nb8  1  0.666667  0.333333  0.500000  1
  Nb  Nb9  1  0.333333  0.666667  0.500000  1
  Ge  Ge10  1  0.000000  0.400700  0.239721  1
  Ge  Ge11  1  0.599300  0.599300  0.239721  1
  Ge  Ge12  1  0.400700  0.000000  0.239721  1
  Ge  Ge13  1  0.000000  0.599300  0.760279  1
  Ge  Ge14  1  0.400700  0.400700  0.760279  1
  Ge  Ge15  1  0.599300  0.000000  0.760279  1
  C  C16  1  0.000000  0.000000  0.500000  1
