# generated using pymatgen
data_TbHo7(Si3Ir)4
_symmetry_space_group_name_H-M   'P 1'
_cell_length_a   8.16287400
_cell_length_b   8.16287428
_cell_length_c   7.89291400
_cell_angle_alpha   90.00000000
_cell_angle_beta   90.00000000
_cell_angle_gamma   120.00000696
_symmetry_Int_Tables_number   1
_chemical_formula_structural   TbHo7(Si3Ir)4
_chemical_formula_sum   'Tb1 Ho7 Si12 Ir4'
_cell_volume   455.46412262
_cell_formula_units_Z   1
loop_
 _symmetry_equiv_pos_site_id
 _symmetry_equiv_pos_as_xyz
  1  'x, y, z'
loop_
 _atom_site_type_symbol
 _atom_site_label
 _atom_site_symmetry_multiplicity
 _atom_site_fract_x
 _atom_site_fract_y
 _atom_site_fract_z
 _atom_site_occupancy
  Tb  Tb0  1  0.000000  0.000000  0.250000  1
  Ho  Ho1  1  0.000000  0.000000  0.750000  1
  Ho  Ho2  1  0.509482  0.490518  0.250000  1
  Ho  Ho3  1  0.509482  0.018965  0.250000  1
  Ho  Ho4  1  0.981035  0.490518  0.250000  1
  Ho  Ho5  1  0.490519  0.509481  0.750000  1
  Ho  Ho6  1  0.490519  0.981037  0.750000  1
  Ho  Ho7  1  0.018963  0.509481  0.750000  1
  Si  Si8  1  0.166772  0.833228  0.499397  1
  Si  Si9  1  0.166772  0.333544  0.499397  1
  Si  Si10  1  0.666456  0.833228  0.499397  1
  Si  Si11  1  0.833222  0.166778  0.500728  1
  Si  Si12  1  0.833222  0.666445  0.500728  1
  Si  Si13  1  0.333555  0.166778  0.500728  1
  Si  Si14  1  0.833222  0.166778  0.999272  1
  Si  Si15  1  0.833222  0.666445  0.999272  1
  Si  Si16  1  0.333555  0.166778  0.999272  1
  Si  Si17  1  0.166772  0.833228  0.000603  1
  Si  Si18  1  0.166772  0.333544  0.000603  1
  Si  Si19  1  0.666456  0.833228  0.000603  1
  Ir  Ir20  1  0.333333  0.666667  0.466309  1
  Ir  Ir21  1  0.666667  0.333333  0.533752  1
  Ir  Ir22  1  0.666667  0.333333  0.966248  1
  Ir  Ir23  1  0.333333  0.666667  0.033691  1
