# generated using pymatgen
data_Hf3Ga3CoNi2
_symmetry_space_group_name_H-M   'P 1'
_cell_length_a   6.90685700
_cell_length_b   6.90685671
_cell_length_c   3.34264200
_cell_angle_alpha   90.00000000
_cell_angle_beta   90.00000000
_cell_angle_gamma   120.00000617
_symmetry_Int_Tables_number   1
_chemical_formula_structural   Hf3Ga3CoNi2
_chemical_formula_sum   'Hf3 Ga3 Co1 Ni2'
_cell_volume   138.09608963
_cell_formula_units_Z   1
loop_
 _symmetry_equiv_pos_site_id
 _symmetry_equiv_pos_as_xyz
  1  'x, y, z'
loop_
 _atom_site_type_symbol
 _atom_site_label
 _atom_site_symmetry_multiplicity
 _atom_site_fract_x
 _atom_site_fract_y
 _atom_site_fract_z
 _atom_site_occupancy
  Hf  Hf0  1  0.408292  0.399335  0.500000  1
  Hf  Hf1  1  0.600665  0.008957  0.500000  1
  Hf  Hf2  1  0.991043  0.591708  0.500000  1
  Ga  Ga3  1  0.735999  0.739172  0.000000  1
  Ga  Ga4  1  0.260828  0.996827  0.000000  1
  Ga  Ga5  1  0.003173  0.264001  0.000000  1
  Co  Co6  1  0.666667  0.333333  0.000000  1
  Ni  Ni7  1  0.333333  0.666667  0.000000  1
  Ni  Ni8  1  0.000000  0.000000  0.500000  1
