# generated using pymatgen
data_NdBi3(RuO6)2
_symmetry_space_group_name_H-M   'P 1'
_cell_length_a   5.42033300
_cell_length_b   9.28904949
_cell_length_c   10.06531942
_cell_angle_alpha   90.37987097
_cell_angle_beta   90.00000000
_cell_angle_gamma   90.00000000
_symmetry_Int_Tables_number   1
_chemical_formula_structural   NdBi3(RuO6)2
_chemical_formula_sum   'Nd2 Bi6 Ru4 O24'
_cell_volume   506.77509236
_cell_formula_units_Z   2
loop_
 _symmetry_equiv_pos_site_id
 _symmetry_equiv_pos_as_xyz
  1  'x, y, z'
loop_
 _atom_site_type_symbol
 _atom_site_label
 _atom_site_symmetry_multiplicity
 _atom_site_fract_x
 _atom_site_fract_y
 _atom_site_fract_z
 _atom_site_occupancy
  Nd  Nd0  1  0.966841  0.718361  0.635505  1
  Nd  Nd1  1  0.466841  0.781639  0.364495  1
  Bi  Bi2  1  0.024302  0.100642  0.461789  1
  Bi  Bi3  1  0.524302  0.399358  0.538211  1
  Bi  Bi4  1  0.978884  0.603313  0.037397  1
  Bi  Bi5  1  0.478884  0.896687  0.962603  1
  Bi  Bi6  1  0.030769  0.214103  0.862022  1
  Bi  Bi7  1  0.530769  0.285897  0.137978  1
  Ru  Ru8  1  0.538721  0.003990  0.647018  1
  Ru  Ru9  1  0.038721  0.496010  0.352982  1
  Ru  Ru10  1  0.459203  0.500044  0.856058  1
  Ru  Ru11  1  0.959203  0.999956  0.143942  1
  O  O12  1  0.258698  0.416663  0.001544  1
  O  O13  1  0.758698  0.083337  0.998456  1
  O  O14  1  0.751742  0.917096  0.504227  1
  O  O15  1  0.251742  0.582904  0.495773  1
  O  O16  1  0.230857  0.113342  0.064634  1
  O  O17  1  0.730857  0.386658  0.935366  1
  O  O18  1  0.773468  0.612852  0.435985  1
  O  O19  1  0.273468  0.887148  0.564015  1
  O  O20  1  0.315668  0.360544  0.323574  1
  O  O21  1  0.815668  0.139456  0.676426  1
  O  O22  1  0.682583  0.867656  0.172132  1
  O  O23  1  0.182583  0.632344  0.827868  1
  O  O24  1  0.163204  0.950541  0.290742  1
  O  O25  1  0.663204  0.549459  0.709258  1
  O  O26  1  0.827008  0.452795  0.206716  1
  O  O27  1  0.327008  0.047205  0.793284  1
  O  O28  1  0.181947  0.636911  0.237594  1
  O  O29  1  0.681947  0.863089  0.762406  1
  O  O30  1  0.814530  0.140318  0.258691  1
  O  O31  1  0.314530  0.359682  0.741309  1
  O  O32  1  0.085357  0.845265  0.025977  1
  O  O33  1  0.585357  0.654735  0.974023  1
  O  O34  1  0.916221  0.345207  0.472383  1
  O  O35  1  0.416221  0.154793  0.527617  1
