# generated using pymatgen
data_Eu4P6N13
_symmetry_space_group_name_H-M   'P 1'
_cell_length_a   7.53308871
_cell_length_b   7.53308915
_cell_length_c   7.53309000
_cell_angle_alpha   109.47122293
_cell_angle_beta   109.47122409
_cell_angle_gamma   109.47122362
_symmetry_Int_Tables_number   1
_chemical_formula_structural   Eu4P6N13
_chemical_formula_sum   'Eu4 P6 N13'
_cell_volume   329.07690756
_cell_formula_units_Z   1
loop_
 _symmetry_equiv_pos_site_id
 _symmetry_equiv_pos_as_xyz
  1  'x, y, z'
loop_
 _atom_site_type_symbol
 _atom_site_label
 _atom_site_symmetry_multiplicity
 _atom_site_fract_x
 _atom_site_fract_y
 _atom_site_fract_z
 _atom_site_occupancy
  Eu  Eu0  1  0.684499  0.000000  0.000000  1
  Eu  Eu1  1  0.000000  0.000000  0.684499  1
  Eu  Eu2  1  0.000000  0.684499  0.000000  1
  Eu  Eu3  1  0.315501  0.315501  0.315501  1
  P  P4  1  0.250000  0.750000  0.500000  1
  P  P5  1  0.750000  0.250000  0.500000  1
  P  P6  1  0.750000  0.500000  0.250000  1
  P  P7  1  0.250000  0.500000  0.750000  1
  P  P8  1  0.500000  0.750000  0.250000  1
  P  P9  1  0.500000  0.250000  0.750000  1
  N  N10  1  0.000000  0.000000  0.000000  1
  N  N11  1  0.700437  0.297460  0.297460  1
  N  N12  1  0.297460  0.700437  0.297460  1
  N  N13  1  0.299563  0.597023  0.597023  1
  N  N14  1  0.597023  0.597023  0.299563  1
  N  N15  1  0.402977  0.702540  0.000000  1
  N  N16  1  0.000000  0.702540  0.402977  1
  N  N17  1  0.597023  0.299563  0.597023  1
  N  N18  1  0.702540  0.000000  0.402977  1
  N  N19  1  0.402977  0.000000  0.702540  1
  N  N20  1  0.702540  0.402977  0.000000  1
  N  N21  1  0.297460  0.297460  0.700437  1
  N  N22  1  0.000000  0.402977  0.702540  1
