# generated using pymatgen
data_TeOsSeCl4
_symmetry_space_group_name_H-M   'P 1'
_cell_length_a   10.67750566
_cell_length_b   10.92150405
_cell_length_c   10.39144263
_cell_angle_alpha   115.48497855
_cell_angle_beta   114.73886783
_cell_angle_gamma   96.37765470
_symmetry_Int_Tables_number   1
_chemical_formula_structural   TeOsSeCl4
_chemical_formula_sum   'Te4 Os4 Se4 Cl16'
_cell_volume   928.73673457
_cell_formula_units_Z   4
loop_
 _symmetry_equiv_pos_site_id
 _symmetry_equiv_pos_as_xyz
  1  'x, y, z'
loop_
 _atom_site_type_symbol
 _atom_site_label
 _atom_site_symmetry_multiplicity
 _atom_site_fract_x
 _atom_site_fract_y
 _atom_site_fract_z
 _atom_site_occupancy
  Te  Te0  1  0.333795  0.302572  0.409740  1
  Te  Te1  1  0.897490  0.914529  0.583690  1
  Te  Te2  1  0.087349  0.677950  0.975439  1
  Te  Te3  1  0.690477  0.105510  0.029012  1
  Os  Os4  1  0.540142  0.180882  0.393809  1
  Os  Os5  1  0.777751  0.114074  0.568986  1
  Os  Os6  1  0.879095  0.477619  0.666056  1
  Os  Os7  1  0.788848  0.210545  0.359628  1
  Se  Se8  1  0.712753  0.329442  0.694318  1
  Se  Se9  1  0.614997  0.980664  0.269944  1
  Se  Se10  1  0.994310  0.300017  0.640559  1
  Se  Se11  1  0.662964  0.384451  0.390520  1
  Cl  Cl12  1  0.392499  0.438298  0.692236  1
  Cl  Cl13  1  0.762735  0.701967  0.309516  1
  Cl  Cl14  1  0.304719  0.613384  0.053525  1
  Cl  Cl15  1  0.552245  0.242164  0.948686  1
  Cl  Cl16  1  0.359560  0.055800  0.419722  1
  Cl  Cl17  1  0.633980  0.952167  0.598781  1
  Cl  Cl18  1  0.068876  0.655004  0.683932  1
  Cl  Cl19  1  0.931013  0.351635  0.304635  1
  Cl  Cl20  1  0.331125  0.109953  0.120430  1
  Cl  Cl21  1  0.961569  0.185219  0.858091  1
  Cl  Cl22  1  0.813726  0.685923  0.793657  1
  Cl  Cl23  1  0.898075  0.035155  0.244082  1
  Cl  Cl24  1  0.384896  0.511506  0.391770  1
  Cl  Cl25  1  0.121722  0.979899  0.592780  1
  Cl  Cl26  1  0.017921  0.618826  0.139137  1
  Cl  Cl27  1  0.485369  0.884845  0.867319  1
