# generated using pymatgen
data_Yb6Be(Ga7Cu9)2
_symmetry_space_group_name_H-M   'P 1'
_cell_length_a   8.37153900
_cell_length_b   8.37153900
_cell_length_c   8.37153900
_cell_angle_alpha   90.00000000
_cell_angle_beta   90.00000000
_cell_angle_gamma   90.00000000
_symmetry_Int_Tables_number   1
_chemical_formula_structural   Yb6Be(Ga7Cu9)2
_chemical_formula_sum   'Yb6 Be1 Ga14 Cu18'
_cell_volume   586.69976518
_cell_formula_units_Z   1
loop_
 _symmetry_equiv_pos_site_id
 _symmetry_equiv_pos_as_xyz
  1  'x, y, z'
loop_
 _atom_site_type_symbol
 _atom_site_label
 _atom_site_symmetry_multiplicity
 _atom_site_fract_x
 _atom_site_fract_y
 _atom_site_fract_z
 _atom_site_occupancy
  Yb  Yb0  1  0.807578  0.000000  0.500000  1
  Yb  Yb1  1  0.000000  0.500000  0.807578  1
  Yb  Yb2  1  0.500000  0.807578  0.000000  1
  Yb  Yb3  1  0.000000  0.500000  0.192422  1
  Yb  Yb4  1  0.500000  0.192422  0.000000  1
  Yb  Yb5  1  0.192422  0.000000  0.500000  1
  Be  Be6  1  0.000000  0.000000  0.000000  1
  Ga  Ga7  1  0.282621  0.717379  0.282621  1
  Ga  Ga8  1  0.717379  0.282621  0.282621  1
  Ga  Ga9  1  0.282621  0.282621  0.717379  1
  Ga  Ga10  1  0.717379  0.717379  0.717379  1
  Ga  Ga11  1  0.717379  0.282621  0.717379  1
  Ga  Ga12  1  0.282621  0.717379  0.717379  1
  Ga  Ga13  1  0.717379  0.717379  0.282621  1
  Ga  Ga14  1  0.282621  0.282621  0.282621  1
  Ga  Ga15  1  0.673359  0.500000  0.000000  1
  Ga  Ga16  1  0.500000  0.000000  0.673359  1
  Ga  Ga17  1  0.000000  0.673359  0.500000  1
  Ga  Ga18  1  0.500000  0.000000  0.326641  1
  Ga  Ga19  1  0.000000  0.326641  0.500000  1
  Ga  Ga20  1  0.326641  0.500000  0.000000  1
  Cu  Cu21  1  0.000000  0.843906  0.249349  1
  Cu  Cu22  1  0.000000  0.156094  0.750651  1
  Cu  Cu23  1  0.000000  0.843906  0.750651  1
  Cu  Cu24  1  0.156094  0.750651  0.000000  1
  Cu  Cu25  1  0.750651  0.000000  0.843906  1
  Cu  Cu26  1  0.750651  0.000000  0.156094  1
  Cu  Cu27  1  0.843906  0.249349  0.000000  1
  Cu  Cu28  1  0.249349  0.000000  0.843906  1
  Cu  Cu29  1  0.843906  0.750651  0.000000  1
  Cu  Cu30  1  0.268938  0.500000  0.500000  1
  Cu  Cu31  1  0.500000  0.268938  0.500000  1
  Cu  Cu32  1  0.500000  0.500000  0.268938  1
  Cu  Cu33  1  0.500000  0.731062  0.500000  1
  Cu  Cu34  1  0.500000  0.500000  0.731062  1
  Cu  Cu35  1  0.731062  0.500000  0.500000  1
  Cu  Cu36  1  0.000000  0.156094  0.249349  1
  Cu  Cu37  1  0.249349  0.000000  0.156094  1
  Cu  Cu38  1  0.156094  0.249349  0.000000  1
