# generated using pymatgen
data_Mn3Zn2GaPt6
_symmetry_space_group_name_H-M   'P 1'
_cell_length_a   4.05178800
_cell_length_b   7.22412800
_cell_length_c   12.16022400
_cell_angle_alpha   90.00000000
_cell_angle_beta   89.99997173
_cell_angle_gamma   90.00000000
_symmetry_Int_Tables_number   1
_chemical_formula_structural   Mn3Zn2GaPt6
_chemical_formula_sum   'Mn6 Zn4 Ga2 Pt12'
_cell_volume   355.93747994
_cell_formula_units_Z   2
loop_
 _symmetry_equiv_pos_site_id
 _symmetry_equiv_pos_as_xyz
  1  'x, y, z'
loop_
 _atom_site_type_symbol
 _atom_site_label
 _atom_site_symmetry_multiplicity
 _atom_site_fract_x
 _atom_site_fract_y
 _atom_site_fract_z
 _atom_site_occupancy
  Mn  Mn0  1  0.999999  0.000000  0.002227  1
  Mn  Mn1  1  0.500016  0.499999  0.166663  1
  Mn  Mn2  1  0.000030  0.000000  0.333301  1
  Mn  Mn3  1  0.500002  0.499999  0.497763  1
  Mn  Mn4  1  0.999971  0.000000  0.664359  1
  Mn  Mn5  1  0.499982  0.499999  0.835657  1
  Zn  Zn6  1  0.999999  0.499999  0.000529  1
  Zn  Zn7  1  0.500023  0.000000  0.167385  1
  Zn  Zn8  1  0.000028  0.499999  0.332631  1
  Zn  Zn9  1  0.500000  0.000000  0.499467  1
  Ga  Ga10  1  0.999974  0.499999  0.666758  1
  Ga  Ga11  1  0.499970  0.000000  0.833273  1
  Pt  Pt12  1  0.499999  0.248177  0.999608  1
  Pt  Pt13  1  0.499999  0.751824  0.999608  1
  Pt  Pt14  1  0.000041  0.250276  0.166491  1
  Pt  Pt15  1  0.000041  0.749724  0.166491  1
  Pt  Pt16  1  0.500001  0.249758  0.333529  1
  Pt  Pt17  1  0.500001  0.750243  0.333529  1
  Pt  Pt18  1  0.000000  0.251854  0.500389  1
  Pt  Pt19  1  0.000000  0.748145  0.500389  1
  Pt  Pt20  1  0.500000  0.251580  0.666951  1
  Pt  Pt21  1  0.500000  0.748421  0.666951  1
  Pt  Pt22  1  0.999964  0.248428  0.833022  1
  Pt  Pt23  1  0.999964  0.751572  0.833022  1
