# generated using pymatgen
data_Nd3Cu(Ir2O7)2
_symmetry_space_group_name_H-M   'P 1'
_cell_length_a   7.18577275
_cell_length_b   7.42609967
_cell_length_c   7.42609900
_cell_angle_alpha   59.99999852
_cell_angle_beta   58.88734536
_cell_angle_gamma   58.88735210
_symmetry_Int_Tables_number   1
_chemical_formula_structural   Nd3Cu(Ir2O7)2
_chemical_formula_sum   'Nd3 Cu1 Ir4 O14'
_cell_volume   275.40234764
_cell_formula_units_Z   1
loop_
 _symmetry_equiv_pos_site_id
 _symmetry_equiv_pos_as_xyz
  1  'x, y, z'
loop_
 _atom_site_type_symbol
 _atom_site_label
 _atom_site_symmetry_multiplicity
 _atom_site_fract_x
 _atom_site_fract_y
 _atom_site_fract_z
 _atom_site_occupancy
  Nd  Nd0  1  0.125000  0.625000  0.125000  1
  Nd  Nd1  1  0.125000  0.125000  0.625000  1
  Nd  Nd2  1  0.125000  0.125000  0.125000  1
  Cu  Cu3  1  0.625000  0.125000  0.125000  1
  Ir  Ir4  1  0.125000  0.625000  0.625000  1
  Ir  Ir5  1  0.625000  0.125000  0.625000  1
  Ir  Ir6  1  0.625000  0.625000  0.125000  1
  Ir  Ir7  1  0.625000  0.625000  0.625000  1
  O  O8  1  0.698180  0.696509  0.302655  1
  O  O9  1  0.285744  0.291885  0.711185  1
  O  O10  1  0.698180  0.302655  0.696509  1
  O  O11  1  0.285744  0.711185  0.291885  1
  O  O12  1  0.285744  0.711185  0.711185  1
  O  O13  1  0.698180  0.302655  0.302655  1
  O  O14  1  0.551820  0.553491  0.947345  1
  O  O15  1  0.964256  0.958115  0.538815  1
  O  O16  1  0.551820  0.947345  0.553491  1
  O  O17  1  0.964256  0.538815  0.958115  1
  O  O18  1  0.964256  0.538815  0.538815  1
  O  O19  1  0.551820  0.947345  0.947345  1
  O  O20  1  0.291662  0.236113  0.236113  1
  O  O21  1  0.958338  0.013887  0.013887  1
