# generated using pymatgen
data_Nb6Al3Ga(NiN)2
_symmetry_space_group_name_H-M   'P 1'
_cell_length_a   8.21918677
_cell_length_b   8.21918556
_cell_length_c   8.22125800
_cell_angle_alpha   59.99166677
_cell_angle_beta   59.99167164
_cell_angle_gamma   60.01470826
_symmetry_Int_Tables_number   1
_chemical_formula_structural   Nb6Al3Ga(NiN)2
_chemical_formula_sum   'Nb12 Al6 Ga2 Ni4 N4'
_cell_volume   392.71225728
_cell_formula_units_Z   2
loop_
 _symmetry_equiv_pos_site_id
 _symmetry_equiv_pos_as_xyz
  1  'x, y, z'
loop_
 _atom_site_type_symbol
 _atom_site_label
 _atom_site_symmetry_multiplicity
 _atom_site_fract_x
 _atom_site_fract_y
 _atom_site_fract_z
 _atom_site_occupancy
  Nb  Nb0  1  0.812251  0.812251  0.187749  1
  Nb  Nb1  1  0.186851  0.186851  0.813149  1
  Nb  Nb2  1  0.812641  0.187758  0.812625  1
  Nb  Nb3  1  0.187758  0.812641  0.186977  1
  Nb  Nb4  1  0.187758  0.812641  0.812625  1
  Nb  Nb5  1  0.812641  0.187758  0.186977  1
  Nb  Nb6  1  0.437172  0.437172  0.062828  1
  Nb  Nb7  1  0.061588  0.061588  0.438412  1
  Nb  Nb8  1  0.437211  0.062676  0.437964  1
  Nb  Nb9  1  0.062676  0.437211  0.062148  1
  Nb  Nb10  1  0.062676  0.437211  0.437964  1
  Nb  Nb11  1  0.437211  0.062676  0.062148  1
  Al  Al12  1  0.748183  0.417504  0.417158  1
  Al  Al13  1  0.417504  0.748183  0.417158  1
  Al  Al14  1  0.417507  0.417507  0.747685  1
  Al  Al15  1  0.417507  0.417507  0.417304  1
  Al  Al16  1  0.502656  0.833051  0.832146  1
  Al  Al17  1  0.833051  0.502656  0.832146  1
  Ga  Ga18  1  0.833447  0.833447  0.499075  1
  Ga  Ga19  1  0.833447  0.833447  0.834029  1
  Ni  Ni20  1  0.128077  0.623153  0.624385  1
  Ni  Ni21  1  0.623153  0.128077  0.624385  1
  Ni  Ni22  1  0.623997  0.623997  0.125511  1
  Ni  Ni23  1  0.623997  0.623997  0.626494  1
  N  N24  1  0.624871  0.124469  0.125330  1
  N  N25  1  0.124469  0.624871  0.125330  1
  N  N26  1  0.124852  0.124852  0.624204  1
  N  N27  1  0.124852  0.124852  0.126093  1
