# generated using pymatgen
data_Ca2Nd8GaSi5
_symmetry_space_group_name_H-M   'P 1'
_cell_length_a   8.91867561
_cell_length_b   8.91867585
_cell_length_c   8.89830600
_cell_angle_alpha   128.05827928
_cell_angle_beta   128.05828250
_cell_angle_gamma   76.69647299
_symmetry_Int_Tables_number   1
_chemical_formula_structural   Ca2Nd8GaSi5
_chemical_formula_sum   'Ca2 Nd8 Ga1 Si5'
_cell_volume   425.79232089
_cell_formula_units_Z   1
loop_
 _symmetry_equiv_pos_site_id
 _symmetry_equiv_pos_as_xyz
  1  'x, y, z'
loop_
 _atom_site_type_symbol
 _atom_site_label
 _atom_site_symmetry_multiplicity
 _atom_site_fract_x
 _atom_site_fract_y
 _atom_site_fract_z
 _atom_site_occupancy
  Ca  Ca0  1  0.497502  0.499097  0.996598  1
  Ca  Ca1  1  0.000903  0.002498  0.003402  1
  Nd  Nd2  1  0.677296  0.174569  0.145024  1
  Nd  Nd3  1  0.527329  0.678886  0.500000  1
  Nd  Nd4  1  0.032272  0.529545  0.854976  1
  Nd  Nd5  1  0.821114  0.972671  0.500000  1
  Nd  Nd6  1  0.325431  0.822704  0.854976  1
  Nd  Nd7  1  0.177708  0.029956  0.500000  1
  Nd  Nd8  1  0.470044  0.322292  0.500000  1
  Nd  Nd9  1  0.970455  0.467728  0.145024  1
  Ga  Ga10  1  0.883627  0.616373  0.500000  1
  Si  Si11  1  0.612762  0.114170  0.726932  1
  Si  Si12  1  0.385830  0.887238  0.273068  1
  Si  Si13  1  0.116743  0.383257  0.500000  1
  Si  Si14  1  0.750491  0.749509  0.000000  1
  Si  Si15  1  0.250491  0.249509  0.000000  1
