# generated using pymatgen
data_Ho3Tm7Si5Te
_symmetry_space_group_name_H-M   'P 1'
_cell_length_a   8.43492100
_cell_length_b   8.44157760
_cell_length_c   6.29504200
_cell_angle_alpha   90.00000000
_cell_angle_beta   90.00000000
_cell_angle_gamma   120.27757385
_symmetry_Int_Tables_number   1
_chemical_formula_structural   Ho3Tm7Si5Te
_chemical_formula_sum   'Ho3 Tm7 Si5 Te1'
_cell_volume   387.09036604
_cell_formula_units_Z   1
loop_
 _symmetry_equiv_pos_site_id
 _symmetry_equiv_pos_as_xyz
  1  'x, y, z'
loop_
 _atom_site_type_symbol
 _atom_site_label
 _atom_site_symmetry_multiplicity
 _atom_site_fract_x
 _atom_site_fract_y
 _atom_site_fract_z
 _atom_site_occupancy
  Ho  Ho0  1  0.766184  0.765883  0.250000  1
  Ho  Ho1  1  0.241698  0.241661  0.750000  1
  Ho  Ho2  1  0.754642  0.999874  0.750000  1
  Tm  Tm3  1  0.675785  0.330749  0.503193  1
  Tm  Tm4  1  0.330431  0.675733  0.503155  1
  Tm  Tm5  1  0.330431  0.675733  0.996845  1
  Tm  Tm6  1  0.675785  0.330749  0.996807  1
  Tm  Tm7  1  0.240814  0.985615  0.250000  1
  Tm  Tm8  1  0.985756  0.241504  0.250000  1
  Tm  Tm9  1  0.999728  0.754177  0.750000  1
  Si  Si10  1  0.603545  0.999680  0.250000  1
  Si  Si11  1  0.999893  0.603461  0.250000  1
  Si  Si12  1  0.606701  0.605680  0.750000  1
  Si  Si13  1  0.393705  0.001979  0.750000  1
  Si  Si14  1  0.002892  0.395625  0.750000  1
  Te  Te15  1  0.392009  0.391900  0.250000  1
