# generated using pymatgen
data_Y3Er9Co4BiOs
_symmetry_space_group_name_H-M   'P 1'
_cell_length_a   8.27828652
_cell_length_b   8.27828621
_cell_length_c   8.26810678
_cell_angle_alpha   110.48103957
_cell_angle_beta   111.37993007
_cell_angle_gamma   106.64436532
_symmetry_Int_Tables_number   1
_chemical_formula_structural   Y3Er9Co4BiOs
_chemical_formula_sum   'Y3 Er9 Co4 Bi1 Os1'
_cell_volume   435.06215156
_cell_formula_units_Z   1
loop_
 _symmetry_equiv_pos_site_id
 _symmetry_equiv_pos_as_xyz
  1  'x, y, z'
loop_
 _atom_site_type_symbol
 _atom_site_label
 _atom_site_symmetry_multiplicity
 _atom_site_fract_x
 _atom_site_fract_y
 _atom_site_fract_z
 _atom_site_occupancy
  Y  Y0  1  0.281322  0.182834  0.464156  1
  Y  Y1  1  0.718138  0.817560  0.535698  1
  Y  Y2  1  0.281778  0.817636  0.099412  1
  Er  Er3  1  0.719564  0.180641  0.900205  1
  Er  Er4  1  0.622957  0.311812  0.309509  1
  Er  Er5  1  0.377522  0.688319  0.689661  1
  Er  Er6  1  0.001343  0.312137  0.689661  1
  Er  Er7  1  0.997696  0.686553  0.309509  1
  Er  Er8  1  0.213275  0.408946  0.194743  1
  Er  Er9  1  0.785317  0.588707  0.803880  1
  Er  Er10  1  0.215173  0.018564  0.803880  1
  Er  Er11  1  0.785797  0.981468  0.194743  1
  Co  Co12  1  0.999401  0.374570  0.373971  1
  Co  Co13  1  0.999578  0.624930  0.624508  1
  Co  Co14  1  0.389512  0.891248  0.503549  1
  Co  Co15  1  0.612300  0.114037  0.503549  1
  Bi  Bi16  1  0.499593  0.500547  0.000142  1
  Os  Os17  1  0.999732  0.999491  0.999223  1
