# generated using pymatgen
data_TbTh(Re2Si)4
_symmetry_space_group_name_H-M   'P 1'
_cell_length_a   4.15804900
_cell_length_b   7.27533628
_cell_length_c   15.58244902
_cell_angle_alpha   90.43543382
_cell_angle_beta   90.00000000
_cell_angle_gamma   90.00000000
_symmetry_Int_Tables_number   1
_chemical_formula_structural   TbTh(Re2Si)4
_chemical_formula_sum   'Tb2 Th2 Re16 Si8'
_cell_volume   471.37424306
_cell_formula_units_Z   2
loop_
 _symmetry_equiv_pos_site_id
 _symmetry_equiv_pos_as_xyz
  1  'x, y, z'
loop_
 _atom_site_type_symbol
 _atom_site_label
 _atom_site_symmetry_multiplicity
 _atom_site_fract_x
 _atom_site_fract_y
 _atom_site_fract_z
 _atom_site_occupancy
  Tb  Tb0  1  0.000000  0.584707  0.116910  1
  Tb  Tb1  1  0.000000  0.415293  0.883090  1
  Th  Th2  1  0.500000  0.084587  0.380113  1
  Th  Th3  1  0.500000  0.915413  0.619887  1
  Re  Re4  1  0.000000  0.142110  0.051347  1
  Re  Re5  1  0.000000  0.857890  0.948653  1
  Re  Re6  1  0.500000  0.641855  0.448883  1
  Re  Re7  1  0.500000  0.358145  0.551117  1
  Re  Re8  1  0.000000  0.737274  0.320226  1
  Re  Re9  1  0.000000  0.262726  0.679774  1
  Re  Re10  1  0.500000  0.238913  0.177088  1
  Re  Re11  1  0.500000  0.761087  0.822912  1
  Re  Re12  1  0.000000  0.428977  0.419019  1
  Re  Re13  1  0.000000  0.571023  0.580981  1
  Re  Re14  1  0.500000  0.932699  0.080641  1
  Re  Re15  1  0.500000  0.067301  0.919359  1
  Re  Re16  1  0.000000  0.993991  0.205055  1
  Re  Re17  1  0.000000  0.006009  0.794945  1
  Re  Re18  1  0.500000  0.497943  0.292838  1
  Re  Re19  1  0.500000  0.502057  0.707162  1
  Si  Si20  1  0.000000  0.829700  0.475043  1
  Si  Si21  1  0.000000  0.170300  0.524957  1
  Si  Si22  1  0.500000  0.334709  0.023403  1
  Si  Si23  1  0.500000  0.665291  0.976597  1
  Si  Si24  1  0.000000  0.303529  0.270161  1
  Si  Si25  1  0.000000  0.696471  0.729839  1
  Si  Si26  1  0.500000  0.794822  0.223254  1
  Si  Si27  1  0.500000  0.205178  0.776746  1
