# generated using pymatgen
data_Lu4NiMoRu6
_symmetry_space_group_name_H-M   'P 1'
_cell_length_a   5.39290800
_cell_length_b   5.10757218
_cell_length_c   8.92698700
_cell_angle_alpha   90.00000000
_cell_angle_beta   90.00000000
_cell_angle_gamma   120.28096424
_symmetry_Int_Tables_number   1
_chemical_formula_structural   Lu4NiMoRu6
_chemical_formula_sum   'Lu4 Ni1 Mo1 Ru6'
_cell_volume   212.34229973
_cell_formula_units_Z   1
loop_
 _symmetry_equiv_pos_site_id
 _symmetry_equiv_pos_as_xyz
  1  'x, y, z'
loop_
 _atom_site_type_symbol
 _atom_site_label
 _atom_site_symmetry_multiplicity
 _atom_site_fract_x
 _atom_site_fract_y
 _atom_site_fract_z
 _atom_site_occupancy
  Lu  Lu0  1  0.330060  0.667279  0.431174  1
  Lu  Lu1  1  0.673773  0.346026  0.561017  1
  Lu  Lu2  1  0.673773  0.346026  0.938983  1
  Lu  Lu3  1  0.330060  0.667279  0.068826  1
  Ni  Ni4  1  0.331569  0.163889  0.250000  1
  Mo  Mo5  1  0.159956  0.318432  0.750000  1
  Ru  Ru6  1  0.174377  0.819334  0.750000  1
  Ru  Ru7  1  0.828481  0.649634  0.250000  1
  Ru  Ru8  1  0.653378  0.825399  0.750000  1
  Ru  Ru9  1  0.005400  0.014687  0.003577  1
  Ru  Ru10  1  0.833772  0.167329  0.250000  1
  Ru  Ru11  1  0.005400  0.014687  0.496423  1
