# generated using pymatgen
data_Hf4Zr2Al5(SiNi8)2
_symmetry_space_group_name_H-M   'P 1'
_cell_length_a   8.17528328
_cell_length_b   8.17528314
_cell_length_c   8.19428500
_cell_angle_alpha   59.92307058
_cell_angle_beta   59.92307115
_cell_angle_gamma   60.13029324
_symmetry_Int_Tables_number   1
_chemical_formula_structural   Hf4Zr2Al5(SiNi8)2
_chemical_formula_sum   'Hf4 Zr2 Al5 Si2 Ni16'
_cell_volume   387.18678924
_cell_formula_units_Z   1
loop_
 _symmetry_equiv_pos_site_id
 _symmetry_equiv_pos_as_xyz
  1  'x, y, z'
loop_
 _atom_site_type_symbol
 _atom_site_label
 _atom_site_symmetry_multiplicity
 _atom_site_fract_x
 _atom_site_fract_y
 _atom_site_fract_z
 _atom_site_occupancy
  Hf  Hf0  1  0.795037  0.204963  0.794505  1
  Hf  Hf1  1  0.793067  0.793067  0.206426  1
  Hf  Hf2  1  0.204963  0.795037  0.794505  1
  Hf  Hf3  1  0.206933  0.206933  0.792561  1
  Zr  Zr4  1  0.795202  0.204798  0.204351  1
  Zr  Zr5  1  0.204798  0.795202  0.204351  1
  Al  Al6  1  0.000181  0.500304  0.999343  1
  Al  Al7  1  0.500000  0.500000  0.499807  1
  Al  Al8  1  0.499696  0.999819  0.499827  1
  Al  Al9  1  0.999819  0.499696  0.499827  1
  Al  Al10  1  0.500304  0.000181  0.999343  1
  Si  Si11  1  0.500000  0.500000  0.998805  1
  Si  Si12  1  0.000000  0.000000  0.499990  1
  Ni  Ni13  1  0.166645  0.166645  0.173722  1
  Ni  Ni14  1  0.619868  0.619868  0.139115  1
  Ni  Ni15  1  0.380132  0.380132  0.378854  1
  Ni  Ni16  1  0.173520  0.495068  0.165092  1
  Ni  Ni17  1  0.164911  0.164911  0.496911  1
  Ni  Ni18  1  0.139585  0.621768  0.620346  1
  Ni  Ni19  1  0.621768  0.139585  0.620346  1
  Ni  Ni20  1  0.835089  0.835089  0.826734  1
  Ni  Ni21  1  0.860415  0.378232  0.381702  1
  Ni  Ni22  1  0.381111  0.381111  0.860076  1
  Ni  Ni23  1  0.378232  0.860415  0.381702  1
  Ni  Ni24  1  0.504932  0.826480  0.833680  1
  Ni  Ni25  1  0.618889  0.618889  0.622296  1
  Ni  Ni26  1  0.833355  0.833355  0.507013  1
  Ni  Ni27  1  0.495068  0.173520  0.165092  1
  Ni  Ni28  1  0.826480  0.504932  0.833680  1
