# generated using pymatgen
data_Ce2Er3Mn2
_symmetry_space_group_name_H-M   'P 1'
_cell_length_a   6.23761275
_cell_length_b   6.73271651
_cell_length_c   8.60467100
_cell_angle_alpha   95.54001020
_cell_angle_beta   111.25104342
_cell_angle_gamma   89.99999363
_symmetry_Int_Tables_number   1
_chemical_formula_structural   Ce2Er3Mn2
_chemical_formula_sum   'Ce4 Er6 Mn4'
_cell_volume   334.97854415
_cell_formula_units_Z   2
loop_
 _symmetry_equiv_pos_site_id
 _symmetry_equiv_pos_as_xyz
  1  'x, y, z'
loop_
 _atom_site_type_symbol
 _atom_site_label
 _atom_site_symmetry_multiplicity
 _atom_site_fract_x
 _atom_site_fract_y
 _atom_site_fract_z
 _atom_site_occupancy
  Ce  Ce0  1  0.527326  0.109342  0.807795  1
  Ce  Ce1  1  0.472674  0.890658  0.192205  1
  Ce  Ce2  1  0.719530  0.390658  0.192205  1
  Ce  Ce3  1  0.280470  0.609342  0.807795  1
  Er  Er4  1  0.292281  0.311521  0.430186  1
  Er  Er5  1  0.707719  0.688479  0.569814  1
  Er  Er6  1  0.862096  0.188479  0.569814  1
  Er  Er7  1  0.137904  0.811521  0.430186  1
  Er  Er8  1  0.078286  0.250000  0.000000  1
  Er  Er9  1  0.921714  0.750000  0.000000  1
  Mn  Mn10  1  0.361485  0.603528  0.220558  1
  Mn  Mn11  1  0.638515  0.396472  0.779442  1
  Mn  Mn12  1  0.140928  0.896472  0.779442  1
  Mn  Mn13  1  0.859072  0.103528  0.220558  1
