# generated using pymatgen
data_Cs3RbHf6CBr18
_symmetry_space_group_name_H-M   'P 1'
_cell_length_a   10.72185784
_cell_length_b   11.01450627
_cell_length_c   11.12385610
_cell_angle_alpha   118.27661720
_cell_angle_beta   100.51601999
_cell_angle_gamma   104.20541085
_symmetry_Int_Tables_number   1
_chemical_formula_structural   Cs3RbHf6CBr18
_chemical_formula_sum   'Cs3 Rb1 Hf6 C1 Br18'
_cell_volume   1050.63046974
_cell_formula_units_Z   1
loop_
 _symmetry_equiv_pos_site_id
 _symmetry_equiv_pos_as_xyz
  1  'x, y, z'
loop_
 _atom_site_type_symbol
 _atom_site_label
 _atom_site_symmetry_multiplicity
 _atom_site_fract_x
 _atom_site_fract_y
 _atom_site_fract_z
 _atom_site_occupancy
  Cs  Cs0  1  0.192478  0.725798  0.562853  1
  Cs  Cs1  1  0.838665  0.963672  0.769674  1
  Cs  Cs2  1  0.160249  0.037259  0.230711  1
  Rb  Rb3  1  0.811984  0.274090  0.437751  1
  Hf  Hf4  1  0.358544  0.447720  0.787017  1
  Hf  Hf5  1  0.371056  0.614998  0.121221  1
  Hf  Hf6  1  0.636587  0.722610  0.043764  1
  Hf  Hf7  1  0.641395  0.551077  0.212673  1
  Hf  Hf8  1  0.364102  0.278414  0.957486  1
  Hf  Hf9  1  0.629640  0.385975  0.877886  1
  C  C10  1  0.500492  0.500188  0.999997  1
  Br  Br11  1  0.810860  0.428068  0.105297  1
  Br  Br12  1  0.515788  0.693494  0.388158  1
  Br  Br13  1  0.193382  0.002559  0.904134  1
  Br  Br14  1  0.189706  0.571485  0.893073  1
  Br  Br15  1  0.819836  0.818201  0.298988  1
  Br  Br16  1  0.504115  0.304081  0.198352  1
  Br  Br17  1  0.785713  0.246754  0.724229  1
  Br  Br18  1  0.180734  0.180716  0.702421  1
  Br  Br19  1  0.507858  0.889549  0.187745  1
  Br  Br20  1  0.806615  0.626865  0.911060  1
  Br  Br21  1  0.213213  0.754688  0.267830  1
  Br  Br22  1  0.175347  0.380515  0.522323  1
  Br  Br23  1  0.496100  0.695298  0.801203  1
  Br  Br24  1  0.805825  0.003066  0.103043  1
  Br  Br25  1  0.483873  0.306812  0.611457  1
  Br  Br26  1  0.194249  0.375862  0.090199  1
  Br  Br27  1  0.817857  0.608604  0.476147  1
  Br  Br28  1  0.493736  0.111579  0.813309  1
