# generated using pymatgen
data_Li4Ni9As4P3Rh
_symmetry_space_group_name_H-M   'P 1'
_cell_length_a   9.28264291
_cell_length_b   9.29503634
_cell_length_c   3.66262900
_cell_angle_alpha   90.00000000
_cell_angle_beta   90.00000000
_cell_angle_gamma   119.82654700
_symmetry_Int_Tables_number   1
_chemical_formula_structural   Li4Ni9As4P3Rh
_chemical_formula_sum   'Li4 Ni9 As4 P3 Rh1'
_cell_volume   274.15913345
_cell_formula_units_Z   1
loop_
 _symmetry_equiv_pos_site_id
 _symmetry_equiv_pos_as_xyz
  1  'x, y, z'
loop_
 _atom_site_type_symbol
 _atom_site_label
 _atom_site_symmetry_multiplicity
 _atom_site_fract_x
 _atom_site_fract_y
 _atom_site_fract_z
 _atom_site_occupancy
  Li  Li0  1  0.896272  0.125093  0.500000  1
  Li  Li1  1  0.227019  0.100234  0.500000  1
  Li  Li2  1  0.331008  0.662874  0.000000  1
  Li  Li3  1  0.659954  0.327263  0.500000  1
  Ni  Ni4  1  0.707024  0.876839  0.000000  1
  Ni  Ni5  1  0.164847  0.288743  0.000000  1
  Ni  Ni6  1  0.126878  0.832700  0.000000  1
  Ni  Ni7  1  0.622752  0.576090  0.000000  1
  Ni  Ni8  1  0.957674  0.381476  0.000000  1
  Ni  Ni9  1  0.421282  0.042260  0.000000  1
  Ni  Ni10  1  0.554491  0.939512  0.500000  1
  Ni  Ni11  1  0.387125  0.448576  0.500000  1
  Ni  Ni12  1  0.066592  0.616240  0.500000  1
  As  As13  1  0.996800  0.995732  0.000000  1
  As  As14  1  0.874324  0.577224  0.000000  1
  As  As15  1  0.701463  0.127309  0.000000  1
  As  As16  1  0.423442  0.298898  0.000000  1
  P  P17  1  0.586953  0.711961  0.500000  1
  P  P18  1  0.129041  0.417246  0.500000  1
  P  P19  1  0.290898  0.870593  0.500000  1
  Rh  Rh20  1  0.874162  0.783136  0.500000  1
