# generated using pymatgen
data_Tl2InAg(Pt2O7)2
_symmetry_space_group_name_H-M   'P 1'
_cell_length_a   7.21010229
_cell_length_b   7.19953350
_cell_length_c   7.19953389
_cell_angle_alpha   60.62793179
_cell_angle_beta   60.79921381
_cell_angle_gamma   60.79921634
_symmetry_Int_Tables_number   1
_chemical_formula_structural   Tl2InAg(Pt2O7)2
_chemical_formula_sum   'Tl2 In1 Ag1 Pt4 O14'
_cell_volume   268.68580984
_cell_formula_units_Z   1
loop_
 _symmetry_equiv_pos_site_id
 _symmetry_equiv_pos_as_xyz
  1  'x, y, z'
loop_
 _atom_site_type_symbol
 _atom_site_label
 _atom_site_symmetry_multiplicity
 _atom_site_fract_x
 _atom_site_fract_y
 _atom_site_fract_z
 _atom_site_occupancy
  Tl  Tl0  1  0.125000  0.625000  0.125000  1
  Tl  Tl1  1  0.125000  0.125000  0.625000  1
  In  In2  1  0.625000  0.125000  0.125000  1
  Ag  Ag3  1  0.125000  0.125000  0.125000  1
  Pt  Pt4  1  0.625000  0.625000  0.125000  1
  Pt  Pt5  1  0.625000  0.125000  0.625000  1
  Pt  Pt6  1  0.125000  0.625000  0.625000  1
  Pt  Pt7  1  0.625000  0.625000  0.625000  1
  O  O8  1  0.257791  0.236023  0.236023  1
  O  O9  1  0.695788  0.291832  0.291832  1
  O  O10  1  0.707830  0.287666  0.719625  1
  O  O11  1  0.293250  0.703584  0.291799  1
  O  O12  1  0.707830  0.719625  0.287666  1
  O  O13  1  0.293250  0.291799  0.703584  1
  O  O14  1  0.960336  0.537673  0.537673  1
  O  O15  1  0.289664  0.712327  0.712327  1
  O  O16  1  0.956750  0.958201  0.546416  1
  O  O17  1  0.542170  0.962334  0.530375  1
  O  O18  1  0.542170  0.530375  0.962334  1
  O  O19  1  0.956750  0.546416  0.958201  1
  O  O20  1  0.554212  0.958168  0.958168  1
  O  O21  1  0.992209  0.013977  0.013977  1
