# generated using pymatgen
data_Pr2ThAlIn2Pt3
_symmetry_space_group_name_H-M   'P 1'
_cell_length_a   7.61596800
_cell_length_b   7.73614047
_cell_length_c   4.05983600
_cell_angle_alpha   90.00000000
_cell_angle_beta   90.00000000
_cell_angle_gamma   119.48746778
_symmetry_Int_Tables_number   1
_chemical_formula_structural   Pr2ThAlIn2Pt3
_chemical_formula_sum   'Pr2 Th1 Al1 In2 Pt3'
_cell_volume   208.21329370
_cell_formula_units_Z   1
loop_
 _symmetry_equiv_pos_site_id
 _symmetry_equiv_pos_as_xyz
  1  'x, y, z'
loop_
 _atom_site_type_symbol
 _atom_site_label
 _atom_site_symmetry_multiplicity
 _atom_site_fract_x
 _atom_site_fract_y
 _atom_site_fract_z
 _atom_site_occupancy
  Pr  Pr0  1  0.004910  0.592709  0.000000  1
  Pr  Pr1  1  0.412201  0.407291  0.000000  1
  Th  Th2  1  0.579336  0.000000  0.000000  1
  Al  Al3  1  0.236950  0.000000  0.500000  1
  In  In4  1  0.005101  0.252428  0.500000  1
  In  In5  1  0.752672  0.747572  0.500000  1
  Pt  Pt6  1  0.342353  0.697274  0.500000  1
  Pt  Pt7  1  0.645081  0.302726  0.500000  1
  Pt  Pt8  1  0.021398  0.000000  0.000000  1
