# generated using pymatgen
data_Y5B4Pd7Rh8
_symmetry_space_group_name_H-M   'P 1'
_cell_length_a   4.21939400
_cell_length_b   4.21939400
_cell_length_c   20.95914700
_cell_angle_alpha   90.00000000
_cell_angle_beta   90.00000000
_cell_angle_gamma   90.00000000
_symmetry_Int_Tables_number   1
_chemical_formula_structural   Y5B4Pd7Rh8
_chemical_formula_sum   'Y5 B4 Pd7 Rh8'
_cell_volume   373.14168264
_cell_formula_units_Z   1
loop_
 _symmetry_equiv_pos_site_id
 _symmetry_equiv_pos_as_xyz
  1  'x, y, z'
loop_
 _atom_site_type_symbol
 _atom_site_label
 _atom_site_symmetry_multiplicity
 _atom_site_fract_x
 _atom_site_fract_y
 _atom_site_fract_z
 _atom_site_occupancy
  Y  Y0  1  0.000000  0.000000  0.900617  1
  Y  Y1  1  0.000000  0.000000  0.099383  1
  Y  Y2  1  0.000000  0.000000  0.298420  1
  Y  Y3  1  0.000000  0.000000  0.500000  1
  Y  Y4  1  0.000000  0.000000  0.701580  1
  B  B5  1  0.500000  0.500000  0.188457  1
  B  B6  1  0.500000  0.500000  0.396926  1
  B  B7  1  0.500000  0.500000  0.603074  1
  B  B8  1  0.500000  0.500000  0.811543  1
  Pd  Pd9  1  0.500000  0.500000  0.909970  1
  Pd  Pd10  1  0.500000  0.500000  0.090030  1
  Pd  Pd11  1  0.500000  0.500000  0.295772  1
  Pd  Pd12  1  0.500000  0.500000  0.500000  1
  Pd  Pd13  1  0.500000  0.500000  0.704228  1
  Pd  Pd14  1  0.500000  0.000000  0.000000  1
  Pd  Pd15  1  0.000000  0.500000  0.000000  1
  Rh  Rh16  1  0.500000  0.000000  0.199160  1
  Rh  Rh17  1  0.500000  0.000000  0.399536  1
  Rh  Rh18  1  0.500000  0.000000  0.600464  1
  Rh  Rh19  1  0.500000  0.000000  0.800840  1
  Rh  Rh20  1  0.000000  0.500000  0.199160  1
  Rh  Rh21  1  0.000000  0.500000  0.399536  1
  Rh  Rh22  1  0.000000  0.500000  0.600464  1
  Rh  Rh23  1  0.000000  0.500000  0.800840  1
