# generated using pymatgen
data_Sr8TaV3O16
_symmetry_space_group_name_H-M   'P 1'
_cell_length_a   5.56911312
_cell_length_b   8.93057076
_cell_length_c   8.93051230
_cell_angle_alpha   88.67356945
_cell_angle_beta   71.51120998
_cell_angle_gamma   108.48840574
_symmetry_Int_Tables_number   1
_chemical_formula_structural   Sr8TaV3O16
_chemical_formula_sum   'Sr8 Ta1 V3 O16'
_cell_volume   395.69928885
_cell_formula_units_Z   1
loop_
 _symmetry_equiv_pos_site_id
 _symmetry_equiv_pos_as_xyz
  1  'x, y, z'
loop_
 _atom_site_type_symbol
 _atom_site_label
 _atom_site_symmetry_multiplicity
 _atom_site_fract_x
 _atom_site_fract_y
 _atom_site_fract_z
 _atom_site_occupancy
  Sr  Sr0  1  0.261506  0.405838  0.889067  1
  Sr  Sr1  1  0.000264  0.644639  0.644449  1
  Sr  Sr2  1  0.738963  0.889315  0.405780  1
  Sr  Sr3  1  0.499975  0.147552  0.147650  1
  Sr  Sr4  1  0.000300  0.355581  0.355332  1
  Sr  Sr5  1  0.739001  0.594261  0.110653  1
  Sr  Sr6  1  0.499880  0.852260  0.852534  1
  Sr  Sr7  1  0.261528  0.110957  0.594130  1
  Ta  Ta8  1  0.999947  0.999963  0.000040  1
  V  V9  1  0.500102  0.500085  0.499908  1
  V  V10  1  0.242078  0.743766  0.256281  1
  V  V11  1  0.758113  0.256320  0.743634  1
  O  O12  1  0.257469  0.591740  0.089745  1
  O  O13  1  0.999463  0.840907  0.841882  1
  O  O14  1  0.742317  0.089850  0.591831  1
  O  O15  1  0.499840  0.338437  0.338340  1
  O  O16  1  0.999627  0.158311  0.158902  1
  O  O17  1  0.742225  0.408060  0.910214  1
  O  O18  1  0.499875  0.661667  0.661548  1
  O  O19  1  0.257380  0.910186  0.408381  1
  O  O20  1  0.872395  0.123874  0.876018  1
  O  O21  1  0.623660  0.375133  0.624869  1
  O  O22  1  0.376806  0.625092  0.374895  1
  O  O23  1  0.127498  0.876087  0.124030  1
  O  O24  1  0.379989  0.126502  0.873404  1
  O  O25  1  0.110164  0.369496  0.630525  1
  O  O26  1  0.890056  0.630552  0.369430  1
  O  O27  1  0.619576  0.873567  0.126526  1
