# generated using pymatgen
data_Hf2Be8ReIr
_symmetry_space_group_name_H-M   'P 1'
_cell_length_a   4.51951700
_cell_length_b   4.51951729
_cell_length_c   7.53319500
_cell_angle_alpha   90.00000000
_cell_angle_beta   90.00000000
_cell_angle_gamma   120.00001986
_symmetry_Int_Tables_number   1
_chemical_formula_structural   Hf2Be8ReIr
_chemical_formula_sum   'Hf2 Be8 Re1 Ir1'
_cell_volume   133.25816556
_cell_formula_units_Z   1
loop_
 _symmetry_equiv_pos_site_id
 _symmetry_equiv_pos_as_xyz
  1  'x, y, z'
loop_
 _atom_site_type_symbol
 _atom_site_label
 _atom_site_symmetry_multiplicity
 _atom_site_fract_x
 _atom_site_fract_y
 _atom_site_fract_z
 _atom_site_occupancy
  Hf  Hf0  1  0.333333  0.666667  0.062756  1
  Hf  Hf1  1  0.666667  0.333333  0.563825  1
  Be  Be2  1  0.000000  0.000000  0.995577  1
  Be  Be3  1  0.000000  0.000000  0.502674  1
  Be  Be4  1  0.833684  0.667367  0.256296  1
  Be  Be5  1  0.167776  0.832224  0.748469  1
  Be  Be6  1  0.664449  0.832224  0.748469  1
  Be  Be7  1  0.332633  0.166316  0.256296  1
  Be  Be8  1  0.833684  0.166316  0.256296  1
  Be  Be9  1  0.167776  0.335551  0.748469  1
  Re  Re10  1  0.333333  0.666667  0.431759  1
  Ir  Ir11  1  0.666667  0.333333  0.929111  1
