# generated using pymatgen
data_CeThNi4(GeP)2
_symmetry_space_group_name_H-M   'P 1'
_cell_length_a   4.01110000
_cell_length_b   4.01110000
_cell_length_c   9.71874400
_cell_angle_alpha   90.00000000
_cell_angle_beta   90.00000000
_cell_angle_gamma   90.00000000
_symmetry_Int_Tables_number   1
_chemical_formula_structural   CeThNi4(GeP)2
_chemical_formula_sum   'Ce1 Th1 Ni4 Ge2 P2'
_cell_volume   156.36412591
_cell_formula_units_Z   1
loop_
 _symmetry_equiv_pos_site_id
 _symmetry_equiv_pos_as_xyz
  1  'x, y, z'
loop_
 _atom_site_type_symbol
 _atom_site_label
 _atom_site_symmetry_multiplicity
 _atom_site_fract_x
 _atom_site_fract_y
 _atom_site_fract_z
 _atom_site_occupancy
  Ce  Ce0  1  0.000000  0.500000  0.761648  1
  Th  Th1  1  0.500000  0.000000  0.238674  1
  Ni  Ni2  1  0.000000  0.500000  0.356376  1
  Ni  Ni3  1  0.500000  0.000000  0.643099  1
  Ni  Ni4  1  0.500000  0.500000  0.999563  1
  Ni  Ni5  1  0.000000  0.000000  0.999563  1
  Ge  Ge6  1  0.000000  0.000000  0.502327  1
  Ge  Ge7  1  0.500000  0.500000  0.502327  1
  P  P8  1  0.500000  0.000000  0.873403  1
  P  P9  1  0.000000  0.500000  0.123019  1
