# generated using pymatgen
data_Er5CuRhO12
_symmetry_space_group_name_H-M   'P 1'
_cell_length_a   6.75598240
_cell_length_b   6.75598207
_cell_length_c   7.18618066
_cell_angle_alpha   74.41140575
_cell_angle_beta   74.41141163
_cell_angle_gamma   51.41920735
_symmetry_Int_Tables_number   1
_chemical_formula_structural   Er5CuRhO12
_chemical_formula_sum   'Er5 Cu1 Rh1 O12'
_cell_volume   244.73805008
_cell_formula_units_Z   1
loop_
 _symmetry_equiv_pos_site_id
 _symmetry_equiv_pos_as_xyz
  1  'x, y, z'
loop_
 _atom_site_type_symbol
 _atom_site_label
 _atom_site_symmetry_multiplicity
 _atom_site_fract_x
 _atom_site_fract_y
 _atom_site_fract_z
 _atom_site_occupancy
  Er  Er0  1  0.296143  0.309811  0.358767  1
  Er  Er1  1  0.690189  0.703857  0.641233  1
  Er  Er2  1  0.306123  0.311629  0.831391  1
  Er  Er3  1  0.688371  0.693877  0.168609  1
  Er  Er4  1  0.999205  0.000795  0.500000  1
  Cu  Cu5  1  0.253461  0.746539  0.000000  1
  Rh  Rh6  1  0.761585  0.238415  0.000000  1
  O  O7  1  0.902443  0.431506  0.917032  1
  O  O8  1  0.425444  0.900247  0.917626  1
  O  O9  1  0.099753  0.574556  0.082374  1
  O  O10  1  0.568494  0.097557  0.082968  1
  O  O11  1  0.094136  0.600087  0.574446  1
  O  O12  1  0.596137  0.099977  0.574993  1
  O  O13  1  0.900023  0.403863  0.425007  1
  O  O14  1  0.399913  0.905864  0.425554  1
  O  O15  1  0.003378  0.997890  0.816255  1
  O  O16  1  0.002110  0.996622  0.183745  1
  O  O17  1  0.507169  0.494078  0.810828  1
  O  O18  1  0.505922  0.492831  0.189172  1
