# generated using pymatgen
data_Hf3Ta2Al3N
_symmetry_space_group_name_H-M   'P 1'
_cell_length_a   7.96669600
_cell_length_b   7.96669726
_cell_length_c   5.48189300
_cell_angle_alpha   90.00000000
_cell_angle_beta   90.00000000
_cell_angle_gamma   120.00000306
_symmetry_Int_Tables_number   1
_chemical_formula_structural   Hf3Ta2Al3N
_chemical_formula_sum   'Hf6 Ta4 Al6 N2'
_cell_volume   301.31290464
_cell_formula_units_Z   2
loop_
 _symmetry_equiv_pos_site_id
 _symmetry_equiv_pos_as_xyz
  1  'x, y, z'
loop_
 _atom_site_type_symbol
 _atom_site_label
 _atom_site_symmetry_multiplicity
 _atom_site_fract_x
 _atom_site_fract_y
 _atom_site_fract_z
 _atom_site_occupancy
  Hf  Hf0  1  0.229157  0.000000  0.250000  1
  Hf  Hf1  1  0.000000  0.229157  0.250000  1
  Hf  Hf2  1  0.770843  0.770843  0.250000  1
  Hf  Hf3  1  0.770843  0.000000  0.750000  1
  Hf  Hf4  1  0.000000  0.770843  0.750000  1
  Hf  Hf5  1  0.229157  0.229157  0.750000  1
  Ta  Ta6  1  0.666667  0.333333  0.000000  1
  Ta  Ta7  1  0.333333  0.666667  0.000000  1
  Ta  Ta8  1  0.666667  0.333333  0.500000  1
  Ta  Ta9  1  0.333333  0.666667  0.500000  1
  Al  Al10  1  0.589756  0.000000  0.250000  1
  Al  Al11  1  0.000000  0.589756  0.250000  1
  Al  Al12  1  0.410244  0.410244  0.250000  1
  Al  Al13  1  0.410244  0.000000  0.750000  1
  Al  Al14  1  0.000000  0.410244  0.750000  1
  Al  Al15  1  0.589756  0.589756  0.750000  1
  N  N16  1  0.000000  0.000000  0.000000  1
  N  N17  1  0.000000  0.000000  0.500000  1
