# generated using pymatgen
data_PrNd4Sn3Br
_symmetry_space_group_name_H-M   'P 1'
_cell_length_a   9.54333100
_cell_length_b   9.54504076
_cell_length_c   6.83898800
_cell_angle_alpha   90.00000000
_cell_angle_beta   90.00000000
_cell_angle_gamma   119.99407821
_symmetry_Int_Tables_number   1
_chemical_formula_structural   PrNd4Sn3Br
_chemical_formula_sum   'Pr2 Nd8 Sn6 Br2'
_cell_volume   539.54312132
_cell_formula_units_Z   2
loop_
 _symmetry_equiv_pos_site_id
 _symmetry_equiv_pos_as_xyz
  1  'x, y, z'
loop_
 _atom_site_type_symbol
 _atom_site_label
 _atom_site_symmetry_multiplicity
 _atom_site_fract_x
 _atom_site_fract_y
 _atom_site_fract_z
 _atom_site_occupancy
  Pr  Pr0  1  0.267339  0.267387  0.750000  1
  Pr  Pr1  1  0.999952  0.732613  0.750000  1
  Nd  Nd2  1  0.732682  0.000000  0.750000  1
  Nd  Nd3  1  0.999995  0.267379  0.250000  1
  Nd  Nd4  1  0.333438  0.666757  0.499758  1
  Nd  Nd5  1  0.732616  0.732621  0.250000  1
  Nd  Nd6  1  0.666682  0.333243  0.499758  1
  Nd  Nd7  1  0.267503  0.000000  0.250000  1
  Nd  Nd8  1  0.333438  0.666757  0.000242  1
  Nd  Nd9  1  0.666682  0.333243  0.000242  1
  Sn  Sn10  1  0.613126  0.000000  0.250000  1
  Sn  Sn11  1  0.999715  0.386518  0.750000  1
  Sn  Sn12  1  0.387473  0.000000  0.750000  1
  Sn  Sn13  1  0.613197  0.613482  0.750000  1
  Sn  Sn14  1  0.999922  0.613064  0.250000  1
  Sn  Sn15  1  0.386858  0.386936  0.250000  1
  Br  Br16  1  0.999691  0.000000  0.000691  1
  Br  Br17  1  0.999691  0.000000  0.499309  1
