# generated using pymatgen
data_Ho2Tm2Al12Ga5SiIr6
_symmetry_space_group_name_H-M   'P 1'
_cell_length_a   7.53851400
_cell_length_b   7.53851414
_cell_length_c   9.38792200
_cell_angle_alpha   90.00000000
_cell_angle_beta   90.00000000
_cell_angle_gamma   119.67065571
_symmetry_Int_Tables_number   1
_chemical_formula_structural   Ho2Tm2Al12Ga5SiIr6
_chemical_formula_sum   'Ho2 Tm2 Al12 Ga5 Si1 Ir6'
_cell_volume   463.55721776
_cell_formula_units_Z   1
loop_
 _symmetry_equiv_pos_site_id
 _symmetry_equiv_pos_as_xyz
  1  'x, y, z'
loop_
 _atom_site_type_symbol
 _atom_site_label
 _atom_site_symmetry_multiplicity
 _atom_site_fract_x
 _atom_site_fract_y
 _atom_site_fract_z
 _atom_site_occupancy
  Ho  Ho0  1  0.002635  0.330766  0.750000  1
  Ho  Ho1  1  0.330766  0.002635  0.750000  1
  Tm  Tm2  1  0.995636  0.675158  0.250000  1
  Tm  Tm3  1  0.675158  0.995636  0.250000  1
  Al  Al4  1  0.000532  0.336896  0.078408  1
  Al  Al5  1  0.998307  0.666048  0.925886  1
  Al  Al6  1  0.998307  0.666048  0.574114  1
  Al  Al7  1  0.336896  0.000532  0.421592  1
  Al  Al8  1  0.000532  0.336896  0.421592  1
  Al  Al9  1  0.666048  0.998307  0.574114  1
  Al  Al10  1  0.666048  0.998307  0.925886  1
  Al  Al11  1  0.336896  0.000532  0.078408  1
  Al  Al12  1  0.331826  0.331826  0.556985  1
  Al  Al13  1  0.663501  0.663501  0.443569  1
  Al  Al14  1  0.663501  0.663501  0.056431  1
  Al  Al15  1  0.331826  0.331826  0.943015  1
  Ga  Ga16  1  0.876015  0.876015  0.750000  1
  Ga  Ga17  1  0.338411  0.550892  0.250000  1
  Ga  Ga18  1  0.661025  0.452534  0.750000  1
  Ga  Ga19  1  0.550892  0.338411  0.250000  1
  Ga  Ga20  1  0.452534  0.661025  0.750000  1
  Si  Si21  1  0.127581  0.127581  0.250000  1
  Ir  Ir22  1  0.670834  0.326383  0.000304  1
  Ir  Ir23  1  0.326383  0.670834  0.000304  1
  Ir  Ir24  1  0.326383  0.670834  0.499696  1
  Ir  Ir25  1  0.670834  0.326383  0.499696  1
  Ir  Ir26  1  0.000348  0.000348  0.010481  1
  Ir  Ir27  1  0.000348  0.000348  0.489519  1
