# generated using pymatgen
data_Ta12Al8Ru3RhC4
_symmetry_space_group_name_H-M   'P 1'
_cell_length_a   8.31464493
_cell_length_b   8.31464560
_cell_length_c   8.29615332
_cell_angle_alpha   59.92624896
_cell_angle_beta   59.92624423
_cell_angle_gamma   60.00000056
_symmetry_Int_Tables_number   1
_chemical_formula_structural   Ta12Al8Ru3RhC4
_chemical_formula_sum   'Ta12 Al8 Ru3 Rh1 C4'
_cell_volume   405.10180623
_cell_formula_units_Z   1
loop_
 _symmetry_equiv_pos_site_id
 _symmetry_equiv_pos_as_xyz
  1  'x, y, z'
loop_
 _atom_site_type_symbol
 _atom_site_label
 _atom_site_symmetry_multiplicity
 _atom_site_fract_x
 _atom_site_fract_y
 _atom_site_fract_z
 _atom_site_occupancy
  Ta  Ta0  1  0.564149  0.938670  0.558512  1
  Ta  Ta1  1  0.311330  0.685851  0.691488  1
  Ta  Ta2  1  0.689940  0.310235  0.309885  1
  Ta  Ta3  1  0.310235  0.689940  0.309885  1
  Ta  Ta4  1  0.689940  0.689940  0.309885  1
  Ta  Ta5  1  0.311330  0.311330  0.691488  1
  Ta  Ta6  1  0.560060  0.560060  0.940115  1
  Ta  Ta7  1  0.938670  0.564149  0.558512  1
  Ta  Ta8  1  0.560060  0.939765  0.940115  1
  Ta  Ta9  1  0.938670  0.938670  0.558512  1
  Ta  Ta10  1  0.685851  0.311330  0.691488  1
  Ta  Ta11  1  0.939765  0.560060  0.940115  1
  Al  Al12  1  0.916699  0.916699  0.916604  1
  Al  Al13  1  0.000001  0.333301  0.333396  1
  Al  Al14  1  0.333301  0.000001  0.333396  1
  Al  Al15  1  0.332777  0.332777  0.001669  1
  Al  Al16  1  0.916699  0.249999  0.916604  1
  Al  Al17  1  0.917223  0.917223  0.248331  1
  Al  Al18  1  0.249999  0.916699  0.916604  1
  Al  Al19  1  0.333301  0.333301  0.333396  1
  Ru  Ru20  1  0.125000  0.125000  0.125000  1
  Ru  Ru21  1  0.625000  0.125000  0.125000  1
  Ru  Ru22  1  0.125000  0.625000  0.125000  1
  Rh  Rh23  1  0.125000  0.125000  0.625000  1
  C  C24  1  0.625000  0.625000  0.625000  1
  C  C25  1  0.125000  0.625000  0.625000  1
  C  C26  1  0.625000  0.125000  0.625000  1
  C  C27  1  0.625000  0.625000  0.125000  1
