# generated using pymatgen
data_Dy9Er(Bi3C)2
_symmetry_space_group_name_H-M   'P 1'
_cell_length_a   9.14763200
_cell_length_b   9.14762968
_cell_length_c   6.48834800
_cell_angle_alpha   90.00000000
_cell_angle_beta   90.00000000
_cell_angle_gamma   119.86690534
_symmetry_Int_Tables_number   1
_chemical_formula_structural   Dy9Er(Bi3C)2
_chemical_formula_sum   'Dy9 Er1 Bi6 C2'
_cell_volume   470.82869110
_cell_formula_units_Z   1
loop_
 _symmetry_equiv_pos_site_id
 _symmetry_equiv_pos_as_xyz
  1  'x, y, z'
loop_
 _atom_site_type_symbol
 _atom_site_label
 _atom_site_symmetry_multiplicity
 _atom_site_fract_x
 _atom_site_fract_y
 _atom_site_fract_z
 _atom_site_occupancy
  Dy  Dy0  1  0.666305  0.333076  0.999714  1
  Dy  Dy1  1  0.333076  0.666305  0.999714  1
  Dy  Dy2  1  0.333076  0.666305  0.500286  1
  Dy  Dy3  1  0.666305  0.333076  0.500286  1
  Dy  Dy4  1  0.209098  0.000423  0.750000  1
  Dy  Dy5  1  0.000423  0.209098  0.750000  1
  Dy  Dy6  1  0.207174  0.207174  0.250000  1
  Dy  Dy7  1  0.791333  0.999522  0.250000  1
  Dy  Dy8  1  0.999522  0.791333  0.250000  1
  Er  Er9  1  0.797283  0.797283  0.750000  1
  Bi  Bi10  1  0.401431  0.401431  0.750000  1
  Bi  Bi11  1  0.598588  0.998843  0.750000  1
  Bi  Bi12  1  0.998843  0.598588  0.750000  1
  Bi  Bi13  1  0.598311  0.598311  0.250000  1
  Bi  Bi14  1  0.400919  0.000102  0.250000  1
  Bi  Bi15  1  0.000102  0.400919  0.250000  1
  C  C16  1  0.999106  0.999106  0.999244  1
  C  C17  1  0.999106  0.999106  0.500756  1
