# generated using pymatgen
data_Li8ZrNp7N16
_symmetry_space_group_name_H-M   'P 1'
_cell_length_a   21.80874079
_cell_length_b   4.31435943
_cell_length_c   4.31445402
_cell_angle_alpha   89.97800670
_cell_angle_beta   89.99208849
_cell_angle_gamma   90.00452135
_symmetry_Int_Tables_number   1
_chemical_formula_structural   Li8ZrNp7N16
_chemical_formula_sum   'Li8 Zr1 Np7 N16'
_cell_volume   405.95016502
_cell_formula_units_Z   1
loop_
 _symmetry_equiv_pos_site_id
 _symmetry_equiv_pos_as_xyz
  1  'x, y, z'
loop_
 _atom_site_type_symbol
 _atom_site_label
 _atom_site_symmetry_multiplicity
 _atom_site_fract_x
 _atom_site_fract_y
 _atom_site_fract_z
 _atom_site_occupancy
  Li  Li0  1  0.187218  0.999542  0.748720  1
  Li  Li1  1  0.812491  0.000872  0.251303  1
  Li  Li2  1  0.312365  0.999440  0.248763  1
  Li  Li3  1  0.693882  0.999940  0.751651  1
  Li  Li4  1  0.051261  0.499486  0.749461  1
  Li  Li5  1  0.930941  0.501094  0.249737  1
  Li  Li6  1  0.437954  0.499735  0.250104  1
  Li  Li7  1  0.573971  0.500241  0.750508  1
  Zr  Zr8  1  0.812498  0.500893  0.751224  1
  Np  Np9  1  0.439763  0.000322  0.750818  1
  Np  Np10  1  0.566633  0.000848  0.251159  1
  Np  Np11  1  0.058350  0.000675  0.250427  1
  Np  Np12  1  0.931890  0.001164  0.749789  1
  Np  Np13  1  0.312411  0.500079  0.749318  1
  Np  Np14  1  0.693179  0.500061  0.251684  1
  Np  Np15  1  0.185052  0.500187  0.249676  1
  N  N16  1  0.332655  0.998931  0.748779  1
  N  N17  1  0.675112  0.999832  0.251650  1
  N  N18  1  0.164519  0.998909  0.248655  1
  N  N19  1  0.834130  0.000942  0.751434  1
  N  N20  1  0.417918  0.498947  0.749542  1
  N  N21  1  0.590668  0.498980  0.250351  1
  N  N22  1  0.077598  0.499204  0.249080  1
  N  N23  1  0.917615  0.500934  0.749339  1
  N  N24  1  0.034343  0.999595  0.748424  1
  N  N25  1  0.949831  0.001113  0.249561  1
  N  N26  1  0.460598  0.999413  0.249608  1
  N  N27  1  0.547512  0.999603  0.750113  1
  N  N28  1  0.206978  0.499141  0.748069  1
  N  N29  1  0.791074  0.501188  0.251329  1
  N  N30  1  0.292217  0.499209  0.248246  1
  N  N31  1  0.707371  0.499483  0.751476  1
