# generated using pymatgen
data_YAg3(Ru2O7)2
_symmetry_space_group_name_H-M   'P 1'
_cell_length_a   7.26691799
_cell_length_b   7.26691803
_cell_length_c   7.26691796
_cell_angle_alpha   59.26398585
_cell_angle_beta   59.26398847
_cell_angle_gamma   59.26398733
_symmetry_Int_Tables_number   1
_chemical_formula_structural   YAg3(Ru2O7)2
_chemical_formula_sum   'Y1 Ag3 Ru4 O14'
_cell_volume   266.80510572
_cell_formula_units_Z   1
loop_
 _symmetry_equiv_pos_site_id
 _symmetry_equiv_pos_as_xyz
  1  'x, y, z'
loop_
 _atom_site_type_symbol
 _atom_site_label
 _atom_site_symmetry_multiplicity
 _atom_site_fract_x
 _atom_site_fract_y
 _atom_site_fract_z
 _atom_site_occupancy
  Y  Y0  1  0.500000  0.500000  0.500000  1
  Ag  Ag1  1  0.500000  0.000000  0.500000  1
  Ag  Ag2  1  0.000000  0.500000  0.500000  1
  Ag  Ag3  1  0.500000  0.500000  0.000000  1
  Ru  Ru4  1  0.000000  0.000000  0.000000  1
  Ru  Ru5  1  0.000000  0.500000  0.000000  1
  Ru  Ru6  1  0.500000  0.000000  0.000000  1
  Ru  Ru7  1  0.000000  0.000000  0.500000  1
  O  O8  1  0.628201  0.628201  0.628201  1
  O  O9  1  0.371799  0.371799  0.371799  1
  O  O10  1  0.933752  0.933752  0.317959  1
  O  O11  1  0.317959  0.933752  0.933752  1
  O  O12  1  0.933752  0.317959  0.933752  1
  O  O13  1  0.323980  0.323980  0.918849  1
  O  O14  1  0.918849  0.323980  0.323980  1
  O  O15  1  0.323980  0.918849  0.323980  1
  O  O16  1  0.066248  0.066248  0.682041  1
  O  O17  1  0.682041  0.066248  0.066248  1
  O  O18  1  0.066248  0.682041  0.066248  1
  O  O19  1  0.676020  0.676020  0.081151  1
  O  O20  1  0.081151  0.676020  0.676020  1
  O  O21  1  0.676020  0.081151  0.676020  1
