# generated using pymatgen
data_Dy8Th4Tc3Ru
_symmetry_space_group_name_H-M   'P 1'
_cell_length_a   6.39030131
_cell_length_b   7.29841886
_cell_length_c   9.56051600
_cell_angle_alpha   90.00000000
_cell_angle_beta   90.00000000
_cell_angle_gamma   89.93132940
_symmetry_Int_Tables_number   1
_chemical_formula_structural   Dy8Th4Tc3Ru
_chemical_formula_sum   'Dy8 Th4 Tc3 Ru1'
_cell_volume   445.89349975
_cell_formula_units_Z   1
loop_
 _symmetry_equiv_pos_site_id
 _symmetry_equiv_pos_as_xyz
  1  'x, y, z'
loop_
 _atom_site_type_symbol
 _atom_site_label
 _atom_site_symmetry_multiplicity
 _atom_site_fract_x
 _atom_site_fract_y
 _atom_site_fract_z
 _atom_site_occupancy
  Dy  Dy0  1  0.329548  0.674119  0.067973  1
  Dy  Dy1  1  0.167522  0.174791  0.433033  1
  Dy  Dy2  1  0.666654  0.326454  0.567072  1
  Dy  Dy3  1  0.833253  0.825161  0.933244  1
  Dy  Dy4  1  0.666654  0.326454  0.932928  1
  Dy  Dy5  1  0.833253  0.825161  0.566756  1
  Dy  Dy6  1  0.329548  0.674119  0.432027  1
  Dy  Dy7  1  0.167522  0.174791  0.066967  1
  Th  Th8  1  0.852473  0.549655  0.250000  1
  Th  Th9  1  0.642888  0.047333  0.250000  1
  Th  Th10  1  0.148179  0.450028  0.750000  1
  Th  Th11  1  0.352187  0.950660  0.750000  1
  Tc  Tc12  1  0.017905  0.871124  0.250000  1
  Tc  Tc13  1  0.483324  0.371429  0.250000  1
  Tc  Tc14  1  0.981326  0.129709  0.750000  1
  Ru  Ru15  1  0.527766  0.629014  0.750000  1
