# generated using pymatgen
data_Cs2CaSn11O24
_symmetry_space_group_name_H-M   'P 1'
_cell_length_a   7.82155053
_cell_length_b   7.89496058
_cell_length_c   9.64902800
_cell_angle_alpha   101.90097221
_cell_angle_beta   101.99703590
_cell_angle_gamma   87.57434722
_symmetry_Int_Tables_number   1
_chemical_formula_structural   Cs2CaSn11O24
_chemical_formula_sum   'Cs2 Ca1 Sn11 O24'
_cell_volume   570.29393368
_cell_formula_units_Z   1
loop_
 _symmetry_equiv_pos_site_id
 _symmetry_equiv_pos_as_xyz
  1  'x, y, z'
loop_
 _atom_site_type_symbol
 _atom_site_label
 _atom_site_symmetry_multiplicity
 _atom_site_fract_x
 _atom_site_fract_y
 _atom_site_fract_z
 _atom_site_occupancy
  Cs  Cs0  1  0.999927  0.000838  0.208536  1
  Cs  Cs1  1  0.008737  0.006963  0.796225  1
  Ca  Ca2  1  0.494522  0.191036  0.947834  1
  Sn  Sn3  1  0.485671  0.183401  0.612512  1
  Sn  Sn4  1  0.486130  0.181452  0.276911  1
  Sn  Sn5  1  0.180906  0.514316  0.114368  1
  Sn  Sn6  1  0.187364  0.516116  0.451038  1
  Sn  Sn7  1  0.181808  0.516571  0.783890  1
  Sn  Sn8  1  0.813073  0.484898  0.218137  1
  Sn  Sn9  1  0.813932  0.482835  0.548568  1
  Sn  Sn10  1  0.809236  0.493436  0.881436  1
  Sn  Sn11  1  0.513849  0.820701  0.722450  1
  Sn  Sn12  1  0.508836  0.817942  0.054252  1
  Sn  Sn13  1  0.519561  0.816542  0.389794  1
  O  O14  1  0.356214  0.040195  0.081237  1
  O  O15  1  0.367387  0.051516  0.402919  1
  O  O16  1  0.361305  0.041460  0.719053  1
  O  O17  1  0.290338  0.374837  0.277135  1
  O  O18  1  0.280248  0.386859  0.944132  1
  O  O19  1  0.296085  0.380306  0.612858  1
  O  O20  1  0.051139  0.635063  0.280774  1
  O  O21  1  0.052335  0.637043  0.614031  1
  O  O22  1  0.041092  0.645717  0.949359  1
  O  O23  1  0.619134  0.296421  0.485190  1
  O  O24  1  0.633892  0.300458  0.804752  1
  O  O25  1  0.636384  0.294136  0.174104  1
  O  O26  1  0.377438  0.701661  0.183433  1
  O  O27  1  0.383610  0.699492  0.511381  1
  O  O28  1  0.369496  0.707580  0.844731  1
  O  O29  1  0.942668  0.366427  0.050449  1
  O  O30  1  0.953220  0.367096  0.388089  1
  O  O31  1  0.948581  0.369493  0.718021  1
  O  O32  1  0.704573  0.626220  0.715592  1
  O  O33  1  0.694447  0.615796  0.055318  1
  O  O34  1  0.708711  0.624322  0.390283  1
  O  O35  1  0.645074  0.922983  0.930107  1
  O  O36  1  0.640741  0.941974  0.265401  1
  O  O37  1  0.642333  0.945890  0.595704  1
