# generated using pymatgen
data_Pr7Eu(TcC2)4
_symmetry_space_group_name_H-M   'P 1'
_cell_length_a   5.41726100
_cell_length_b   6.73279203
_cell_length_c   10.36414606
_cell_angle_alpha   89.98856503
_cell_angle_beta   90.00000000
_cell_angle_gamma   90.00000000
_symmetry_Int_Tables_number   1
_chemical_formula_structural   Pr7Eu(TcC2)4
_chemical_formula_sum   'Pr7 Eu1 Tc4 C8'
_cell_volume   378.01451473
_cell_formula_units_Z   1
loop_
 _symmetry_equiv_pos_site_id
 _symmetry_equiv_pos_as_xyz
  1  'x, y, z'
loop_
 _atom_site_type_symbol
 _atom_site_label
 _atom_site_symmetry_multiplicity
 _atom_site_fract_x
 _atom_site_fract_y
 _atom_site_fract_z
 _atom_site_occupancy
  Pr  Pr0  1  0.250000  0.971803  0.287401  1
  Pr  Pr1  1  0.750000  0.686754  0.449739  1
  Pr  Pr2  1  0.250000  0.809056  0.947866  1
  Pr  Pr3  1  0.750000  0.189296  0.050628  1
  Pr  Pr4  1  0.250000  0.311566  0.551640  1
  Pr  Pr5  1  0.250000  0.472275  0.214344  1
  Pr  Pr6  1  0.750000  0.027075  0.714652  1
  Eu  Eu7  1  0.750000  0.527919  0.782212  1
  Tc  Tc8  1  0.250000  0.271289  0.855868  1
  Tc  Tc9  1  0.250000  0.772139  0.643163  1
  Tc  Tc10  1  0.750000  0.228593  0.356054  1
  Tc  Tc11  1  0.750000  0.730156  0.145140  1
  C  C12  1  0.250000  0.689416  0.466760  1
  C  C13  1  0.250000  0.535406  0.756259  1
  C  C14  1  0.750000  0.465596  0.243405  1
  C  C15  1  0.750000  0.809741  0.969201  1
  C  C16  1  0.250000  0.035782  0.743114  1
  C  C17  1  0.250000  0.193719  0.032741  1
  C  C18  1  0.750000  0.307048  0.532298  1
  C  C19  1  0.750000  0.965369  0.257517  1
