# generated using pymatgen
data_NdTm(ZnGa)2
_symmetry_space_group_name_H-M   'P 1'
_cell_length_a   4.44605600
_cell_length_b   4.44605475
_cell_length_c   7.30541900
_cell_angle_alpha   90.00000000
_cell_angle_beta   90.00000000
_cell_angle_gamma   120.00000930
_symmetry_Int_Tables_number   1
_chemical_formula_structural   NdTm(ZnGa)2
_chemical_formula_sum   'Nd1 Tm1 Zn2 Ga2'
_cell_volume   125.06202481
_cell_formula_units_Z   1
loop_
 _symmetry_equiv_pos_site_id
 _symmetry_equiv_pos_as_xyz
  1  'x, y, z'
loop_
 _atom_site_type_symbol
 _atom_site_label
 _atom_site_symmetry_multiplicity
 _atom_site_fract_x
 _atom_site_fract_y
 _atom_site_fract_z
 _atom_site_occupancy
  Nd  Nd0  1  0.000000  0.000000  0.500000  1
  Tm  Tm1  1  0.000000  0.000000  0.000000  1
  Zn  Zn2  1  0.333333  0.666667  0.780879  1
  Zn  Zn3  1  0.666667  0.333333  0.219121  1
  Ga  Ga4  1  0.333333  0.666667  0.226932  1
  Ga  Ga5  1  0.666667  0.333333  0.773068  1
