# generated using pymatgen
data_Tb3ScMn7CoP6
_symmetry_space_group_name_H-M   'P 1'
_cell_length_a   3.72251800
_cell_length_b   10.92736000
_cell_length_c   12.85870000
_cell_angle_alpha   90.00000000
_cell_angle_beta   90.00000000
_cell_angle_gamma   90.00000000
_symmetry_Int_Tables_number   1
_chemical_formula_structural   Tb3ScMn7CoP6
_chemical_formula_sum   'Tb6 Sc2 Mn14 Co2 P12'
_cell_volume   523.05712412
_cell_formula_units_Z   2
loop_
 _symmetry_equiv_pos_site_id
 _symmetry_equiv_pos_as_xyz
  1  'x, y, z'
loop_
 _atom_site_type_symbol
 _atom_site_label
 _atom_site_symmetry_multiplicity
 _atom_site_fract_x
 _atom_site_fract_y
 _atom_site_fract_z
 _atom_site_occupancy
  Tb  Tb0  1  0.000000  0.500000  0.535311  1
  Tb  Tb1  1  0.500000  0.000000  0.464689  1
  Tb  Tb2  1  0.500000  0.826036  0.207503  1
  Tb  Tb3  1  0.500000  0.173964  0.207503  1
  Tb  Tb4  1  0.000000  0.673964  0.792497  1
  Tb  Tb5  1  0.000000  0.326036  0.792497  1
  Sc  Sc6  1  0.500000  0.500000  0.165924  1
  Sc  Sc7  1  0.000000  0.000000  0.834076  1
  Mn  Mn8  1  0.000000  0.500000  0.989937  1
  Mn  Mn9  1  0.500000  0.000000  0.010063  1
  Mn  Mn10  1  0.500000  0.332272  0.996581  1
  Mn  Mn11  1  0.500000  0.667728  0.996581  1
  Mn  Mn12  1  0.000000  0.167728  0.003419  1
  Mn  Mn13  1  0.000000  0.832272  0.003419  1
  Mn  Mn14  1  0.500000  0.294459  0.434765  1
  Mn  Mn15  1  0.500000  0.705541  0.434765  1
  Mn  Mn16  1  0.000000  0.205541  0.565235  1
  Mn  Mn17  1  0.000000  0.794459  0.565235  1
  Mn  Mn18  1  0.500000  0.880658  0.692210  1
  Mn  Mn19  1  0.500000  0.119342  0.692210  1
  Mn  Mn20  1  0.000000  0.619342  0.307790  1
  Mn  Mn21  1  0.000000  0.380658  0.307790  1
  Co  Co22  1  0.500000  0.500000  0.706586  1
  Co  Co23  1  0.000000  0.000000  0.293414  1
  P  P24  1  0.500000  0.500000  0.881373  1
  P  P25  1  0.000000  0.000000  0.118627  1
  P  P26  1  0.500000  0.500000  0.368608  1
  P  P27  1  0.000000  0.000000  0.631392  1
  P  P28  1  0.500000  0.318024  0.617020  1
  P  P29  1  0.500000  0.681976  0.617020  1
  P  P30  1  0.000000  0.181976  0.382980  1
  P  P31  1  0.000000  0.818024  0.382980  1
  P  P32  1  0.500000  0.838868  0.888719  1
  P  P33  1  0.500000  0.161132  0.888719  1
  P  P34  1  0.000000  0.661132  0.111281  1
  P  P35  1  0.000000  0.338868  0.111281  1
