# generated using pymatgen
data_Pr8AlCuPd23
_symmetry_space_group_name_H-M   'P 1'
_cell_length_a   8.57109400
_cell_length_b   8.53028200
_cell_length_c   8.48044600
_cell_angle_alpha   90.00000000
_cell_angle_beta   90.00000000
_cell_angle_gamma   90.00000000
_symmetry_Int_Tables_number   1
_chemical_formula_structural   Pr8AlCuPd23
_chemical_formula_sum   'Pr8 Al1 Cu1 Pd23'
_cell_volume   620.03804718
_cell_formula_units_Z   1
loop_
 _symmetry_equiv_pos_site_id
 _symmetry_equiv_pos_as_xyz
  1  'x, y, z'
loop_
 _atom_site_type_symbol
 _atom_site_label
 _atom_site_symmetry_multiplicity
 _atom_site_fract_x
 _atom_site_fract_y
 _atom_site_fract_z
 _atom_site_occupancy
  Pr  Pr0  1  0.255387  0.249551  0.748407  1
  Pr  Pr1  1  0.251002  0.747666  0.251977  1
  Pr  Pr2  1  0.748998  0.252334  0.251977  1
  Pr  Pr3  1  0.744613  0.750449  0.748407  1
  Pr  Pr4  1  0.748998  0.747666  0.251977  1
  Pr  Pr5  1  0.744613  0.249551  0.748407  1
  Pr  Pr6  1  0.255387  0.750449  0.748407  1
  Pr  Pr7  1  0.251002  0.252334  0.251977  1
  Al  Al8  1  0.000000  0.000000  0.001052  1
  Cu  Cu9  1  0.000000  0.500000  0.733435  1
  Pd  Pd10  1  0.500000  0.500000  0.746536  1
  Pd  Pd11  1  0.500000  0.254120  0.499155  1
  Pd  Pd12  1  0.250912  0.500000  0.503946  1
  Pd  Pd13  1  0.500000  0.500000  0.253770  1
  Pd  Pd14  1  0.500000  0.745880  0.499155  1
  Pd  Pd15  1  0.749088  0.500000  0.503946  1
  Pd  Pd16  1  0.000000  0.000000  0.708288  1
  Pd  Pd17  1  0.000000  0.296303  0.991147  1
  Pd  Pd18  1  0.290659  0.000000  0.001310  1
  Pd  Pd19  1  0.000000  0.000000  0.295219  1
  Pd  Pd20  1  0.000000  0.703697  0.991147  1
  Pd  Pd21  1  0.709341  0.000000  0.001310  1
  Pd  Pd22  1  0.500000  0.260325  0.001373  1
  Pd  Pd23  1  0.260694  0.000000  0.499728  1
  Pd  Pd24  1  0.000000  0.265039  0.505708  1
  Pd  Pd25  1  0.500000  0.000000  0.739906  1
  Pd  Pd26  1  0.261197  0.500000  0.997836  1
  Pd  Pd27  1  0.000000  0.500000  0.259015  1
  Pd  Pd28  1  0.500000  0.739675  0.001373  1
  Pd  Pd29  1  0.000000  0.734961  0.505708  1
  Pd  Pd30  1  0.500000  0.000000  0.260834  1
  Pd  Pd31  1  0.739306  0.000000  0.499728  1
  Pd  Pd32  1  0.738803  0.500000  0.997836  1
