# generated using pymatgen
data_Nd4Al18(CoNi)3
_symmetry_space_group_name_H-M   'P 1'
_cell_length_a   7.50535373
_cell_length_b   7.50535291
_cell_length_c   9.45844210
_cell_angle_alpha   90.00852131
_cell_angle_beta   90.00852249
_cell_angle_gamma   119.22768998
_symmetry_Int_Tables_number   1
_chemical_formula_structural   Nd4Al18(CoNi)3
_chemical_formula_sum   'Nd4 Al18 Co3 Ni3'
_cell_volume   464.96470118
_cell_formula_units_Z   1
loop_
 _symmetry_equiv_pos_site_id
 _symmetry_equiv_pos_as_xyz
  1  'x, y, z'
loop_
 _atom_site_type_symbol
 _atom_site_label
 _atom_site_symmetry_multiplicity
 _atom_site_fract_x
 _atom_site_fract_y
 _atom_site_fract_z
 _atom_site_occupancy
  Nd  Nd0  1  0.006298  0.329094  0.750170  1
  Nd  Nd1  1  0.329515  0.006759  0.749992  1
  Nd  Nd2  1  0.993241  0.670485  0.250008  1
  Nd  Nd3  1  0.670906  0.993702  0.249830  1
  Al  Al4  1  0.664871  0.998007  0.929991  1
  Al  Al5  1  0.000422  0.667763  0.571058  1
  Al  Al6  1  0.127593  0.127063  0.249678  1
  Al  Al7  1  0.666522  0.668998  0.040430  1
  Al  Al8  1  0.331418  0.331405  0.541868  1
  Al  Al9  1  0.331002  0.333478  0.959570  1
  Al  Al10  1  0.668595  0.668582  0.458132  1
  Al  Al11  1  0.331934  0.996524  0.069838  1
  Al  Al12  1  0.999672  0.331951  0.428681  1
  Al  Al13  1  0.340597  0.550749  0.247130  1
  Al  Al14  1  0.001993  0.335129  0.070009  1
  Al  Al15  1  0.549495  0.340295  0.249764  1
  Al  Al16  1  0.659705  0.450505  0.750236  1
  Al  Al17  1  0.872937  0.872407  0.750322  1
  Al  Al18  1  0.003476  0.668066  0.930162  1
  Al  Al19  1  0.668049  0.000328  0.571319  1
  Al  Al20  1  0.332237  0.999578  0.428942  1
  Al  Al21  1  0.449251  0.659403  0.752870  1
  Co  Co22  1  0.999793  0.000207  0.000000  1
  Co  Co23  1  0.000118  0.999882  0.500000  1
  Co  Co24  1  0.329737  0.670263  0.000000  1
  Ni  Ni25  1  0.670504  0.329496  0.500000  1
  Ni  Ni26  1  0.670432  0.329568  0.000000  1
  Ni  Ni27  1  0.329687  0.670313  0.500000  1
