# generated using pymatgen
data_YHo19Cd3Ag3Ru2
_symmetry_space_group_name_H-M   'P 1'
_cell_length_a   9.55124700
_cell_length_b   9.55092776
_cell_length_c   9.63046700
_cell_angle_alpha   90.00000000
_cell_angle_beta   90.00000000
_cell_angle_gamma   119.99889706
_symmetry_Int_Tables_number   1
_chemical_formula_structural   YHo19Cd3Ag3Ru2
_chemical_formula_sum   'Y1 Ho19 Cd3 Ag3 Ru2'
_cell_volume   760.83142521
_cell_formula_units_Z   1
loop_
 _symmetry_equiv_pos_site_id
 _symmetry_equiv_pos_as_xyz
  1  'x, y, z'
loop_
 _atom_site_type_symbol
 _atom_site_label
 _atom_site_symmetry_multiplicity
 _atom_site_fract_x
 _atom_site_fract_y
 _atom_site_fract_z
 _atom_site_occupancy
  Y  Y0  1  0.082457  0.541228  0.750000  1
  Ho  Ho1  1  0.999964  0.999982  0.477810  1
  Ho  Ho2  1  0.999964  0.999982  0.022190  1
  Ho  Ho3  1  0.210260  0.790031  0.441115  1
  Ho  Ho4  1  0.210260  0.420229  0.441115  1
  Ho  Ho5  1  0.579672  0.789836  0.441298  1
  Ho  Ho6  1  0.790718  0.208910  0.559140  1
  Ho  Ho7  1  0.790718  0.581807  0.559140  1
  Ho  Ho8  1  0.418166  0.209083  0.559228  1
  Ho  Ho9  1  0.790718  0.208910  0.940860  1
  Ho  Ho10  1  0.790718  0.581807  0.940860  1
  Ho  Ho11  1  0.418166  0.209083  0.940772  1
  Ho  Ho12  1  0.210260  0.790031  0.058885  1
  Ho  Ho13  1  0.210260  0.420229  0.058885  1
  Ho  Ho14  1  0.579672  0.789836  0.058702  1
  Ho  Ho15  1  0.540966  0.459049  0.250000  1
  Ho  Ho16  1  0.540966  0.081917  0.250000  1
  Ho  Ho17  1  0.918115  0.459057  0.250000  1
  Ho  Ho18  1  0.459097  0.541058  0.750000  1
  Ho  Ho19  1  0.459097  0.918038  0.750000  1
  Cd  Cd20  1  0.111359  0.888840  0.750000  1
  Cd  Cd21  1  0.111359  0.222518  0.750000  1
  Cd  Cd22  1  0.777286  0.888643  0.750000  1
  Ag  Ag23  1  0.876620  0.123336  0.250000  1
  Ag  Ag24  1  0.876620  0.753287  0.250000  1
  Ag  Ag25  1  0.246704  0.123353  0.250000  1
  Ru  Ru26  1  0.333337  0.666669  0.250000  1
  Ru  Ru27  1  0.666500  0.333249  0.750000  1
