# generated using pymatgen
data_Ba2Eu(BO2)6
_symmetry_space_group_name_H-M   'P 1'
_cell_length_a   7.60383015
_cell_length_b   7.60382993
_cell_length_c   7.60383188
_cell_angle_alpha   57.30458137
_cell_angle_beta   57.30457783
_cell_angle_gamma   57.30458664
_symmetry_Int_Tables_number   1
_chemical_formula_structural   Ba2Eu(BO2)6
_chemical_formula_sum   'Ba2 Eu1 B6 O12'
_cell_volume   291.58121807
_cell_formula_units_Z   1
loop_
 _symmetry_equiv_pos_site_id
 _symmetry_equiv_pos_as_xyz
  1  'x, y, z'
loop_
 _atom_site_type_symbol
 _atom_site_label
 _atom_site_symmetry_multiplicity
 _atom_site_fract_x
 _atom_site_fract_y
 _atom_site_fract_z
 _atom_site_occupancy
  Ba  Ba0  1  0.797094  0.797094  0.797094  1
  Ba  Ba1  1  0.202906  0.202906  0.202906  1
  Eu  Eu2  1  0.000000  0.000000  0.000000  1
  B  B3  1  0.366956  0.622371  0.753856  1
  B  B4  1  0.622371  0.753856  0.366956  1
  B  B5  1  0.753856  0.366956  0.622371  1
  B  B6  1  0.633044  0.377629  0.246144  1
  B  B7  1  0.377629  0.246144  0.633044  1
  B  B8  1  0.246144  0.633044  0.377629  1
  O  O9  1  0.165752  0.651921  0.912908  1
  O  O10  1  0.651921  0.912908  0.165752  1
  O  O11  1  0.912908  0.165752  0.651921  1
  O  O12  1  0.834248  0.348079  0.087092  1
  O  O13  1  0.348079  0.087092  0.834248  1
  O  O14  1  0.087092  0.834248  0.348079  1
  O  O15  1  0.542972  0.415206  0.790414  1
  O  O16  1  0.415206  0.790414  0.542972  1
  O  O17  1  0.790414  0.542972  0.415206  1
  O  O18  1  0.457028  0.584794  0.209586  1
  O  O19  1  0.584794  0.209586  0.457028  1
  O  O20  1  0.209586  0.457028  0.584794  1
