# generated using pymatgen
data_Ho8TiRe2Si16Mo9
_symmetry_space_group_name_H-M   'P 1'
_cell_length_a   6.87217627
_cell_length_b   6.87217712
_cell_length_c   12.73045323
_cell_angle_alpha   89.99651675
_cell_angle_beta   90.00348386
_cell_angle_gamma   90.52438306
_symmetry_Int_Tables_number   1
_chemical_formula_structural   Ho8TiRe2Si16Mo9
_chemical_formula_sum   'Ho8 Ti1 Re2 Si16 Mo9'
_cell_volume   601.19354574
_cell_formula_units_Z   1
loop_
 _symmetry_equiv_pos_site_id
 _symmetry_equiv_pos_as_xyz
  1  'x, y, z'
loop_
 _atom_site_type_symbol
 _atom_site_label
 _atom_site_symmetry_multiplicity
 _atom_site_fract_x
 _atom_site_fract_y
 _atom_site_fract_z
 _atom_site_occupancy
  Ho  Ho0  1  0.338234  0.001524  0.468856  1
  Ho  Ho1  1  0.499324  0.842275  0.719475  1
  Ho  Ho2  1  0.497815  0.159333  0.217987  1
  Ho  Ho3  1  0.842275  0.499324  0.280525  1
  Ho  Ho4  1  0.159333  0.497815  0.782013  1
  Ho  Ho5  1  0.660605  0.000490  0.968839  1
  Ho  Ho6  1  0.001524  0.338234  0.531144  1
  Ho  Ho7  1  0.000490  0.660605  0.031161  1
  Ti  Ti8  1  0.670748  0.670748  0.500000  1
  Re  Re9  1  0.168079  0.832687  0.248425  1
  Re  Re10  1  0.832687  0.168079  0.751575  1
  Si  Si11  1  0.194427  0.126077  0.685543  1
  Si  Si12  1  0.372918  0.699908  0.935676  1
  Si  Si13  1  0.630514  0.298142  0.435136  1
  Si  Si14  1  0.699908  0.372918  0.064324  1
  Si  Si15  1  0.298142  0.630514  0.564864  1
  Si  Si16  1  0.803352  0.873573  0.185653  1
  Si  Si17  1  0.126077  0.194427  0.314457  1
  Si  Si18  1  0.873573  0.803352  0.814347  1
  Si  Si19  1  0.285494  0.960851  0.065397  1
  Si  Si20  1  0.533146  0.786277  0.311575  1
  Si  Si21  1  0.464780  0.215681  0.813122  1
  Si  Si22  1  0.786277  0.533146  0.688425  1
  Si  Si23  1  0.215681  0.464780  0.186878  1
  Si  Si24  1  0.711023  0.043057  0.567869  1
  Si  Si25  1  0.960851  0.285494  0.934603  1
  Si  Si26  1  0.043057  0.711023  0.432131  1
  Mo  Mo27  1  0.330221  0.330221  0.000000  1
  Mo  Mo28  1  0.166342  0.995163  0.874891  1
  Mo  Mo29  1  0.504968  0.662453  0.123038  1
  Mo  Mo30  1  0.496209  0.343842  0.622541  1
  Mo  Mo31  1  0.662453  0.504968  0.876962  1
  Mo  Mo32  1  0.343842  0.496209  0.377459  1
  Mo  Mo33  1  0.832500  0.997970  0.377010  1
  Mo  Mo34  1  0.995163  0.166342  0.125109  1
  Mo  Mo35  1  0.997970  0.832500  0.622990  1
