# generated using pymatgen
data_Dy2VPtF14
_symmetry_space_group_name_H-M   'P 1'
_cell_length_a   5.52517300
_cell_length_b   8.85957344
_cell_length_c   11.90097205
_cell_angle_alpha   62.86276450
_cell_angle_beta   90.00000000
_cell_angle_gamma   90.00000000
_symmetry_Int_Tables_number   1
_chemical_formula_structural   Dy2VPtF14
_chemical_formula_sum   'Dy4 V2 Pt2 F28'
_cell_volume   518.43035258
_cell_formula_units_Z   2
loop_
 _symmetry_equiv_pos_site_id
 _symmetry_equiv_pos_as_xyz
  1  'x, y, z'
loop_
 _atom_site_type_symbol
 _atom_site_label
 _atom_site_symmetry_multiplicity
 _atom_site_fract_x
 _atom_site_fract_y
 _atom_site_fract_z
 _atom_site_occupancy
  Dy  Dy0  1  0.758852  0.812118  0.763583  1
  Dy  Dy1  1  0.258852  0.187882  0.736417  1
  Dy  Dy2  1  0.240218  0.190352  0.228849  1
  Dy  Dy3  1  0.740218  0.809648  0.271151  1
  V  V4  1  0.755879  0.274575  0.954745  1
  V  V5  1  0.255879  0.725425  0.545255  1
  Pt  Pt6  1  0.242362  0.729042  0.042629  1
  Pt  Pt7  1  0.742362  0.270958  0.457371  1
  F  F8  1  0.435372  0.700957  0.914572  1
  F  F9  1  0.935372  0.299043  0.585428  1
  F  F10  1  0.551409  0.290220  0.076690  1
  F  F11  1  0.051409  0.709780  0.423310  1
  F  F12  1  0.440182  0.280857  0.542275  1
  F  F13  1  0.940182  0.719143  0.957725  1
  F  F14  1  0.540606  0.720310  0.454927  1
  F  F15  1  0.040606  0.279690  0.045073  1
  F  F16  1  0.771632  0.508155  0.864719  1
  F  F17  1  0.271632  0.491845  0.635281  1
  F  F18  1  0.227757  0.480724  0.142224  1
  F  F19  1  0.727757  0.519276  0.357776  1
  F  F20  1  0.757487  0.043783  0.046207  1
  F  F21  1  0.257487  0.956217  0.453793  1
  F  F22  1  0.245679  0.977674  0.949893  1
  F  F23  1  0.745679  0.022326  0.550107  1
  F  F24  1  0.982924  0.726205  0.642081  1
  F  F25  1  0.482924  0.273795  0.857919  1
  F  F26  1  0.039236  0.268301  0.367012  1
  F  F27  1  0.539236  0.731699  0.132988  1
  F  F28  1  0.053292  0.750545  0.175038  1
  F  F29  1  0.553292  0.249455  0.324962  1
  F  F30  1  0.957587  0.256796  0.830476  1
  F  F31  1  0.457587  0.743204  0.669524  1
  F  F32  1  0.417467  0.970779  0.230505  1
  F  F33  1  0.917467  0.029221  0.269495  1
  F  F34  1  0.582059  0.028807  0.766824  1
  F  F35  1  0.082059  0.971193  0.733176  1
