# generated using pymatgen
data_LaTmTcB6
_symmetry_space_group_name_H-M   'P 1'
_cell_length_a   3.76024700
_cell_length_b   9.23218100
_cell_length_c   11.74170300
_cell_angle_alpha   90.00000000
_cell_angle_beta   90.00000000
_cell_angle_gamma   90.00000000
_symmetry_Int_Tables_number   1
_chemical_formula_structural   LaTmTcB6
_chemical_formula_sum   'La4 Tm4 Tc4 B24'
_cell_volume   407.61651799
_cell_formula_units_Z   4
loop_
 _symmetry_equiv_pos_site_id
 _symmetry_equiv_pos_as_xyz
  1  'x, y, z'
loop_
 _atom_site_type_symbol
 _atom_site_label
 _atom_site_symmetry_multiplicity
 _atom_site_fract_x
 _atom_site_fract_y
 _atom_site_fract_z
 _atom_site_occupancy
  La  La0  1  0.000000  0.322692  0.415158  1
  La  La1  1  0.000000  0.677308  0.584842  1
  La  La2  1  0.000000  0.822692  0.084842  1
  La  La3  1  0.000000  0.177308  0.915158  1
  Tm  Tm4  1  0.000000  0.942143  0.366907  1
  Tm  Tm5  1  0.000000  0.057857  0.633093  1
  Tm  Tm6  1  0.000000  0.442143  0.133093  1
  Tm  Tm7  1  0.000000  0.557857  0.866907  1
  Tc  Tc8  1  0.000000  0.640591  0.317725  1
  Tc  Tc9  1  0.000000  0.359409  0.682275  1
  Tc  Tc10  1  0.000000  0.140591  0.182275  1
  Tc  Tc11  1  0.000000  0.859409  0.817725  1
  B  B12  1  0.500000  0.556956  0.428489  1
  B  B13  1  0.500000  0.443044  0.571511  1
  B  B14  1  0.500000  0.056956  0.071511  1
  B  B15  1  0.500000  0.943044  0.928489  1
  B  B16  1  0.500000  0.750950  0.413940  1
  B  B17  1  0.500000  0.249050  0.586060  1
  B  B18  1  0.500000  0.250950  0.086060  1
  B  B19  1  0.500000  0.749050  0.913940  1
  B  B20  1  0.500000  0.791368  0.265498  1
  B  B21  1  0.500000  0.208632  0.734502  1
  B  B22  1  0.500000  0.291368  0.234502  1
  B  B23  1  0.500000  0.708632  0.765498  1
  B  B24  1  0.500000  0.628707  0.186519  1
  B  B25  1  0.500000  0.371293  0.813481  1
  B  B26  1  0.500000  0.128707  0.313481  1
  B  B27  1  0.500000  0.871293  0.686519  1
  B  B28  1  0.500000  0.985021  0.213426  1
  B  B29  1  0.500000  0.014979  0.786574  1
  B  B30  1  0.500000  0.485021  0.286574  1
  B  B31  1  0.500000  0.514979  0.713426  1
  B  B32  1  0.500000  0.592923  0.025267  1
  B  B33  1  0.500000  0.407077  0.974733  1
  B  B34  1  0.500000  0.092923  0.474733  1
  B  B35  1  0.500000  0.907077  0.525267  1
