# generated using pymatgen
data_Dy8Y12Cd3Hg3Ru2
_symmetry_space_group_name_H-M   'P 1'
_cell_length_a   9.62748700
_cell_length_b   9.62748698
_cell_length_c   9.81485500
_cell_angle_alpha   90.00000000
_cell_angle_beta   90.00000000
_cell_angle_gamma   120.00000352
_symmetry_Int_Tables_number   1
_chemical_formula_structural   Dy8Y12Cd3Hg3Ru2
_chemical_formula_sum   'Dy8 Y12 Cd3 Hg3 Ru2'
_cell_volume   787.84427749
_cell_formula_units_Z   1
loop_
 _symmetry_equiv_pos_site_id
 _symmetry_equiv_pos_as_xyz
  1  'x, y, z'
loop_
 _atom_site_type_symbol
 _atom_site_label
 _atom_site_symmetry_multiplicity
 _atom_site_fract_x
 _atom_site_fract_y
 _atom_site_fract_z
 _atom_site_occupancy
  Dy  Dy0  1  0.000000  0.000000  0.490805  1
  Dy  Dy1  1  0.000000  0.000000  0.009252  1
  Dy  Dy2  1  0.209574  0.790426  0.439154  1
  Dy  Dy3  1  0.209574  0.419149  0.439154  1
  Dy  Dy4  1  0.580851  0.790426  0.439154  1
  Dy  Dy5  1  0.790192  0.209808  0.560095  1
  Dy  Dy6  1  0.790192  0.580383  0.560095  1
  Dy  Dy7  1  0.419617  0.209808  0.560095  1
  Y  Y8  1  0.790614  0.209386  0.940192  1
  Y  Y9  1  0.790614  0.581228  0.940192  1
  Y  Y10  1  0.418772  0.209386  0.940192  1
  Y  Y11  1  0.209169  0.790831  0.060525  1
  Y  Y12  1  0.209169  0.418338  0.060525  1
  Y  Y13  1  0.581662  0.790831  0.060525  1
  Y  Y14  1  0.541237  0.458763  0.250557  1
  Y  Y15  1  0.541237  0.082475  0.250557  1
  Y  Y16  1  0.917525  0.458763  0.250557  1
  Y  Y17  1  0.458769  0.541231  0.749374  1
  Y  Y18  1  0.458769  0.917537  0.749374  1
  Y  Y19  1  0.082463  0.541231  0.749374  1
  Cd  Cd20  1  0.113009  0.886991  0.750177  1
  Cd  Cd21  1  0.113009  0.226018  0.750177  1
  Cd  Cd22  1  0.773982  0.886991  0.750177  1
  Hg  Hg23  1  0.879950  0.120050  0.249889  1
  Hg  Hg24  1  0.879950  0.759901  0.249889  1
  Hg  Hg25  1  0.240099  0.120050  0.249889  1
  Ru  Ru26  1  0.333333  0.666667  0.252532  1
  Ru  Ru27  1  0.666667  0.333333  0.747518  1
