# generated using pymatgen
data_NdTh(Be11Cu2)2
_symmetry_space_group_name_H-M   'P 1'
_cell_length_a   7.44478866
_cell_length_b   7.42821759
_cell_length_c   7.38977411
_cell_angle_alpha   60.31905592
_cell_angle_beta   60.09623328
_cell_angle_gamma   59.58507324
_symmetry_Int_Tables_number   1
_chemical_formula_structural   NdTh(Be11Cu2)2
_chemical_formula_sum   'Nd1 Th1 Be22 Cu4'
_cell_volume   288.94619247
_cell_formula_units_Z   1
loop_
 _symmetry_equiv_pos_site_id
 _symmetry_equiv_pos_as_xyz
  1  'x, y, z'
loop_
 _atom_site_type_symbol
 _atom_site_label
 _atom_site_symmetry_multiplicity
 _atom_site_fract_x
 _atom_site_fract_y
 _atom_site_fract_z
 _atom_site_occupancy
  Nd  Nd0  1  0.250001  0.250002  0.249998  1
  Th  Th1  1  0.750000  0.749998  0.749999  1
  Be  Be2  1  0.432810  0.791872  0.568009  1
  Be  Be3  1  0.559845  0.440072  0.797124  1
  Be  Be4  1  0.791876  0.432812  0.207308  1
  Be  Be5  1  0.797127  0.202964  0.559846  1
  Be  Be6  1  0.207299  0.568011  0.791873  1
  Be  Be7  1  0.440067  0.559852  0.202957  1
  Be  Be8  1  0.568008  0.207304  0.432820  1
  Be  Be9  1  0.202944  0.797123  0.440077  1
  Be  Be10  1  0.939231  0.715112  0.059774  1
  Be  Be11  1  0.715113  0.939226  0.285891  1
  Be  Be12  1  0.059768  0.285889  0.939224  1
  Be  Be13  1  0.285896  0.059765  0.715117  1
  Be  Be14  1  0.721406  0.067310  0.931599  1
  Be  Be15  1  0.064423  0.933752  0.716576  1
  Be  Be16  1  0.067300  0.721415  0.279693  1
  Be  Be17  1  0.285254  0.716582  0.933750  1
  Be  Be18  1  0.931604  0.279684  0.721403  1
  Be  Be19  1  0.933749  0.064427  0.285252  1
  Be  Be20  1  0.279687  0.931596  0.067307  1
  Be  Be21  1  0.716571  0.285252  0.064425  1
  Be  Be22  1  0.500002  0.500001  0.500000  1
  Be  Be23  1  0.000001  0.000002  0.000000  1
  Cu  Cu24  1  0.801857  0.557713  0.442754  1
  Cu  Cu25  1  0.557710  0.801845  0.197666  1
  Cu  Cu26  1  0.197674  0.442751  0.557711  1
  Cu  Cu27  1  0.442780  0.197666  0.801848  1
