# generated using pymatgen
data_Lu6TcNiHg
_symmetry_space_group_name_H-M   'P 1'
_cell_length_a   8.24125284
_cell_length_b   8.24125358
_cell_length_c   8.24125286
_cell_angle_alpha   113.84922248
_cell_angle_beta   111.17921402
_cell_angle_gamma   103.55521993
_symmetry_Int_Tables_number   1
_chemical_formula_structural   Lu6TcNiHg
_chemical_formula_sum   'Lu12 Tc2 Ni2 Hg2'
_cell_volume   427.22460026
_cell_formula_units_Z   2
loop_
 _symmetry_equiv_pos_site_id
 _symmetry_equiv_pos_as_xyz
  1  'x, y, z'
loop_
 _atom_site_type_symbol
 _atom_site_label
 _atom_site_symmetry_multiplicity
 _atom_site_fract_x
 _atom_site_fract_y
 _atom_site_fract_z
 _atom_site_occupancy
  Lu  Lu0  1  0.665898  0.849745  0.183847  1
  Lu  Lu1  1  0.334102  0.517950  0.183847  1
  Lu  Lu2  1  0.816575  0.785895  0.602470  1
  Lu  Lu3  1  0.183425  0.785895  0.969320  1
  Lu  Lu4  1  0.816575  0.214105  0.030680  1
  Lu  Lu5  1  0.183425  0.214105  0.397530  1
  Lu  Lu6  1  0.665898  0.482050  0.816153  1
  Lu  Lu7  1  0.334102  0.150255  0.816153  1
  Lu  Lu8  1  0.558848  0.256236  0.302611  1
  Lu  Lu9  1  0.441152  0.743764  0.697389  1
  Lu  Lu10  1  0.046375  0.743764  0.302611  1
  Lu  Lu11  1  0.953625  0.256236  0.697389  1
  Tc  Tc12  1  0.324018  0.500000  0.824018  1
  Tc  Tc13  1  0.675982  0.500000  0.175982  1
  Ni  Ni14  1  0.880471  0.880471  0.000000  1
  Ni  Ni15  1  0.119529  0.119529  0.000000  1
  Hg  Hg16  1  0.000000  0.500000  0.500000  1
  Hg  Hg17  1  0.500000  0.000000  0.500000  1
