# generated using pymatgen
data_Sm2Th2Pd7Pt5
_symmetry_space_group_name_H-M   'P 1'
_cell_length_a   5.92801717
_cell_length_b   5.92801697
_cell_length_c   9.73896718
_cell_angle_alpha   89.98109857
_cell_angle_beta   90.01889964
_cell_angle_gamma   120.09613953
_symmetry_Int_Tables_number   1
_chemical_formula_structural   Sm2Th2Pd7Pt5
_chemical_formula_sum   'Sm2 Th2 Pd7 Pt5'
_cell_volume   296.10166403
_cell_formula_units_Z   1
loop_
 _symmetry_equiv_pos_site_id
 _symmetry_equiv_pos_as_xyz
  1  'x, y, z'
loop_
 _atom_site_type_symbol
 _atom_site_label
 _atom_site_symmetry_multiplicity
 _atom_site_fract_x
 _atom_site_fract_y
 _atom_site_fract_z
 _atom_site_occupancy
  Sm  Sm0  1  0.000000  0.000000  0.500000  1
  Sm  Sm1  1  0.000000  0.000000  0.000000  1
  Th  Th2  1  0.333207  0.666793  0.249923  1
  Th  Th3  1  0.666793  0.333207  0.750077  1
  Pd  Pd4  1  0.500000  0.500000  0.000000  1
  Pd  Pd5  1  0.824627  0.649451  0.249859  1
  Pd  Pd6  1  0.350549  0.175373  0.249859  1
  Pd  Pd7  1  0.824463  0.175537  0.249509  1
  Pd  Pd8  1  0.175373  0.350549  0.750141  1
  Pd  Pd9  1  0.649451  0.824627  0.750141  1
  Pd  Pd10  1  0.175537  0.824463  0.750491  1
  Pt  Pt11  1  0.500000  0.500000  0.500000  1
  Pt  Pt12  1  0.500000  0.000000  0.500000  1
  Pt  Pt13  1  0.000000  0.500000  0.500000  1
  Pt  Pt14  1  0.500000  0.000000  0.000000  1
  Pt  Pt15  1  0.000000  0.500000  0.000000  1
