# generated using pymatgen
data_Dy4TmIr2Ru
_symmetry_space_group_name_H-M   'P 1'
_cell_length_a   10.80582600
_cell_length_b   10.80582600
_cell_length_c   6.41936200
_cell_angle_alpha   90.00000000
_cell_angle_beta   90.00000000
_cell_angle_gamma   90.00000000
_symmetry_Int_Tables_number   1
_chemical_formula_structural   Dy4TmIr2Ru
_chemical_formula_sum   'Dy16 Tm4 Ir8 Ru4'
_cell_volume   749.56242435
_cell_formula_units_Z   4
loop_
 _symmetry_equiv_pos_site_id
 _symmetry_equiv_pos_as_xyz
  1  'x, y, z'
loop_
 _atom_site_type_symbol
 _atom_site_label
 _atom_site_symmetry_multiplicity
 _atom_site_fract_x
 _atom_site_fract_y
 _atom_site_fract_z
 _atom_site_occupancy
  Dy  Dy0  1  0.293095  0.086843  0.378399  1
  Dy  Dy1  1  0.293095  0.913157  0.878399  1
  Dy  Dy2  1  0.706905  0.086843  0.878399  1
  Dy  Dy3  1  0.706905  0.913157  0.378399  1
  Dy  Dy4  1  0.586843  0.793095  0.878399  1
  Dy  Dy5  1  0.586843  0.206905  0.378399  1
  Dy  Dy6  1  0.413157  0.793095  0.378399  1
  Dy  Dy7  1  0.413157  0.206905  0.878399  1
  Dy  Dy8  1  0.206905  0.413157  0.621601  1
  Dy  Dy9  1  0.206905  0.586843  0.121601  1
  Dy  Dy10  1  0.793095  0.413157  0.121601  1
  Dy  Dy11  1  0.793095  0.586843  0.621601  1
  Dy  Dy12  1  0.913157  0.706905  0.121601  1
  Dy  Dy13  1  0.913157  0.293095  0.621601  1
  Dy  Dy14  1  0.086843  0.706905  0.621601  1
  Dy  Dy15  1  0.086843  0.293095  0.121601  1
  Tm  Tm16  1  0.000000  0.000000  0.500000  1
  Tm  Tm17  1  0.000000  0.000000  0.000000  1
  Tm  Tm18  1  0.500000  0.500000  0.000000  1
  Tm  Tm19  1  0.500000  0.500000  0.500000  1
  Ir  Ir20  1  0.848438  0.151562  0.250000  1
  Ir  Ir21  1  0.848438  0.848438  0.750000  1
  Ir  Ir22  1  0.151562  0.151562  0.750000  1
  Ir  Ir23  1  0.151562  0.848438  0.250000  1
  Ir  Ir24  1  0.651562  0.348438  0.750000  1
  Ir  Ir25  1  0.651562  0.651562  0.250000  1
  Ir  Ir26  1  0.348438  0.348438  0.250000  1
  Ir  Ir27  1  0.348438  0.651562  0.750000  1
  Ru  Ru28  1  0.500000  0.000000  0.123630  1
  Ru  Ru29  1  0.500000  0.000000  0.623630  1
  Ru  Ru30  1  0.000000  0.500000  0.876370  1
  Ru  Ru31  1  0.000000  0.500000  0.376370  1
