# generated using pymatgen
data_Nd2AsPd14
_symmetry_space_group_name_H-M   'P 1'
_cell_length_a   9.02569800
_cell_length_b   9.02569800
_cell_length_c   7.19843500
_cell_angle_alpha   90.00000000
_cell_angle_beta   90.00000000
_cell_angle_gamma   90.00000000
_symmetry_Int_Tables_number   1
_chemical_formula_structural   Nd2AsPd14
_chemical_formula_sum   'Nd4 As2 Pd28'
_cell_volume   586.40772564
_cell_formula_units_Z   2
loop_
 _symmetry_equiv_pos_site_id
 _symmetry_equiv_pos_as_xyz
  1  'x, y, z'
loop_
 _atom_site_type_symbol
 _atom_site_label
 _atom_site_symmetry_multiplicity
 _atom_site_fract_x
 _atom_site_fract_y
 _atom_site_fract_z
 _atom_site_occupancy
  Nd  Nd0  1  0.500000  0.000000  0.935100  1
  Nd  Nd1  1  0.000000  0.500000  0.064900  1
  Nd  Nd2  1  0.000000  0.000000  0.500000  1
  Nd  Nd3  1  0.500000  0.500000  0.500000  1
  As  As4  1  0.500000  0.000000  0.448566  1
  As  As5  1  0.000000  0.500000  0.551434  1
  Pd  Pd6  1  0.331405  0.831405  0.620102  1
  Pd  Pd7  1  0.331405  0.168595  0.620102  1
  Pd  Pd8  1  0.668595  0.831405  0.620102  1
  Pd  Pd9  1  0.668595  0.168595  0.620102  1
  Pd  Pd10  1  0.168595  0.668595  0.379898  1
  Pd  Pd11  1  0.168595  0.331405  0.379898  1
  Pd  Pd12  1  0.831405  0.668595  0.379898  1
  Pd  Pd13  1  0.831405  0.331405  0.379898  1
  Pd  Pd14  1  0.500000  0.766440  0.253215  1
  Pd  Pd15  1  0.500000  0.233560  0.253215  1
  Pd  Pd16  1  0.266440  0.000000  0.253215  1
  Pd  Pd17  1  0.733560  0.000000  0.253215  1
  Pd  Pd18  1  0.000000  0.733560  0.746785  1
  Pd  Pd19  1  0.000000  0.266440  0.746785  1
  Pd  Pd20  1  0.233560  0.500000  0.746785  1
  Pd  Pd21  1  0.766440  0.500000  0.746785  1
  Pd  Pd22  1  0.500000  0.348773  0.856309  1
  Pd  Pd23  1  0.500000  0.651227  0.856309  1
  Pd  Pd24  1  0.848773  0.000000  0.856309  1
  Pd  Pd25  1  0.151227  0.000000  0.856309  1
  Pd  Pd26  1  0.000000  0.151227  0.143691  1
  Pd  Pd27  1  0.000000  0.848773  0.143691  1
  Pd  Pd28  1  0.651227  0.500000  0.143691  1
  Pd  Pd29  1  0.348773  0.500000  0.143691  1
  Pd  Pd30  1  0.250000  0.750000  0.000000  1
  Pd  Pd31  1  0.250000  0.250000  0.000000  1
  Pd  Pd32  1  0.750000  0.750000  0.000000  1
  Pd  Pd33  1  0.750000  0.250000  0.000000  1
