# generated using pymatgen
data_YbY3Ir2(RhO7)2
_symmetry_space_group_name_H-M   'P 1'
_cell_length_a   7.25019297
_cell_length_b   7.23525509
_cell_length_c   7.24445365
_cell_angle_alpha   59.90178192
_cell_angle_beta   59.97377644
_cell_angle_gamma   59.93167801
_symmetry_Int_Tables_number   1
_chemical_formula_structural   YbY3Ir2(RhO7)2
_chemical_formula_sum   'Yb1 Y3 Ir2 Rh2 O14'
_cell_volume   268.32448509
_cell_formula_units_Z   1
loop_
 _symmetry_equiv_pos_site_id
 _symmetry_equiv_pos_as_xyz
  1  'x, y, z'
loop_
 _atom_site_type_symbol
 _atom_site_label
 _atom_site_symmetry_multiplicity
 _atom_site_fract_x
 _atom_site_fract_y
 _atom_site_fract_z
 _atom_site_occupancy
  Yb  Yb0  1  0.125000  0.125000  0.625000  1
  Y  Y1  1  0.625000  0.125000  0.125000  1
  Y  Y2  1  0.125000  0.625000  0.125000  1
  Y  Y3  1  0.125000  0.125000  0.125000  1
  Ir  Ir4  1  0.125000  0.625000  0.625000  1
  Ir  Ir5  1  0.625000  0.625000  0.625000  1
  Rh  Rh6  1  0.625000  0.125000  0.625000  1
  Rh  Rh7  1  0.625000  0.625000  0.125000  1
  O  O8  1  0.712912  0.705611  0.292691  1
  O  O9  1  0.290512  0.295368  0.707249  1
  O  O10  1  0.706872  0.295368  0.707249  1
  O  O11  1  0.288786  0.705611  0.292691  1
  O  O12  1  0.295954  0.700034  0.708059  1
  O  O13  1  0.713867  0.286225  0.286040  1
  O  O14  1  0.537088  0.544389  0.957309  1
  O  O15  1  0.959488  0.954632  0.542751  1
  O  O16  1  0.543128  0.954632  0.542751  1
  O  O17  1  0.961214  0.544389  0.957309  1
  O  O18  1  0.954046  0.549966  0.541941  1
  O  O19  1  0.536133  0.963775  0.963960  1
  O  O20  1  0.251231  0.252408  0.245130  1
  O  O21  1  0.998769  0.997592  0.004870  1
