# generated using pymatgen
data_Ho6Er3Tm7In6CoNi
_symmetry_space_group_name_H-M   'P 1'
_cell_length_a   10.31694100
_cell_length_b   10.31694162
_cell_length_c   6.93433700
_cell_angle_alpha   90.00000000
_cell_angle_beta   90.00000000
_cell_angle_gamma   119.99999481
_symmetry_Int_Tables_number   1
_chemical_formula_structural   Ho6Er3Tm7In6CoNi
_chemical_formula_sum   'Ho6 Er3 Tm7 In6 Co1 Ni1'
_cell_volume   639.20110691
_cell_formula_units_Z   1
loop_
 _symmetry_equiv_pos_site_id
 _symmetry_equiv_pos_as_xyz
  1  'x, y, z'
loop_
 _atom_site_type_symbol
 _atom_site_label
 _atom_site_symmetry_multiplicity
 _atom_site_fract_x
 _atom_site_fract_y
 _atom_site_fract_z
 _atom_site_occupancy
  Ho  Ho0  1  0.532765  0.065529  0.794724  1
  Ho  Ho1  1  0.934471  0.467235  0.794724  1
  Ho  Ho2  1  0.532765  0.467235  0.794724  1
  Ho  Ho3  1  0.464560  0.929118  0.292566  1
  Ho  Ho4  1  0.070882  0.535440  0.292566  1
  Ho  Ho5  1  0.464560  0.535440  0.292566  1
  Er  Er6  1  0.333333  0.666667  0.682253  1
  Er  Er7  1  0.000000  0.000000  0.776715  1
  Er  Er8  1  0.000000  0.000000  0.278547  1
  Tm  Tm9  1  0.821995  0.643989  0.497625  1
  Tm  Tm10  1  0.356011  0.178005  0.497625  1
  Tm  Tm11  1  0.821995  0.178005  0.497625  1
  Tm  Tm12  1  0.178623  0.357247  0.998885  1
  Tm  Tm13  1  0.642753  0.821377  0.998885  1
  Tm  Tm14  1  0.178623  0.821377  0.998885  1
  Tm  Tm15  1  0.666667  0.333333  0.182032  1
  In  In16  1  0.837933  0.675865  0.037666  1
  In  In17  1  0.324135  0.162067  0.037666  1
  In  In18  1  0.837933  0.162067  0.037666  1
  In  In19  1  0.161995  0.323991  0.539324  1
  In  In20  1  0.676009  0.838005  0.539324  1
  In  In21  1  0.161995  0.838005  0.539324  1
  Co  Co22  1  0.333333  0.666667  0.066209  1
  Ni  Ni23  1  0.666667  0.333333  0.567778  1
