# generated using pymatgen
data_Hf6P2CN
_symmetry_space_group_name_H-M   'P 1'
_cell_length_a   5.73495694
_cell_length_b   5.73495720
_cell_length_c   8.44300409
_cell_angle_alpha   89.23571724
_cell_angle_beta   90.76428301
_cell_angle_gamma   145.43636107
_symmetry_Int_Tables_number   1
_chemical_formula_structural   Hf6P2CN
_chemical_formula_sum   'Hf6 P2 C1 N1'
_cell_volume   157.52301474
_cell_formula_units_Z   1
loop_
 _symmetry_equiv_pos_site_id
 _symmetry_equiv_pos_as_xyz
  1  'x, y, z'
loop_
 _atom_site_type_symbol
 _atom_site_label
 _atom_site_symmetry_multiplicity
 _atom_site_fract_x
 _atom_site_fract_y
 _atom_site_fract_z
 _atom_site_occupancy
  Hf  Hf0  1  0.936429  0.063571  0.246714  1
  Hf  Hf1  1  0.063571  0.936429  0.753286  1
  Hf  Hf2  1  0.633105  0.366895  0.440430  1
  Hf  Hf3  1  0.366895  0.633105  0.559570  1
  Hf  Hf4  1  0.634277  0.365723  0.057161  1
  Hf  Hf5  1  0.365723  0.634277  0.942839  1
  P  P6  1  0.255875  0.744125  0.249903  1
  P  P7  1  0.744125  0.255875  0.750097  1
  C  C8  1  0.000000  0.000000  0.500000  1
  N  N9  1  0.000000  0.000000  0.000000  1
