# generated using pymatgen
data_Dy16Ho3ErPb16
_symmetry_space_group_name_H-M   'P 1'
_cell_length_a   8.20580200
_cell_length_b   8.28176011
_cell_length_c   15.64384600
_cell_angle_alpha   90.00000000
_cell_angle_beta   90.00000000
_cell_angle_gamma   90.00914472
_symmetry_Int_Tables_number   1
_chemical_formula_structural   Dy16Ho3ErPb16
_chemical_formula_sum   'Dy16 Ho3 Er1 Pb16'
_cell_volume   1063.13203929
_cell_formula_units_Z   1
loop_
 _symmetry_equiv_pos_site_id
 _symmetry_equiv_pos_as_xyz
  1  'x, y, z'
loop_
 _atom_site_type_symbol
 _atom_site_label
 _atom_site_symmetry_multiplicity
 _atom_site_fract_x
 _atom_site_fract_y
 _atom_site_fract_z
 _atom_site_occupancy
  Dy  Dy0  1  0.377522  0.840839  0.879374  1
  Dy  Dy1  1  0.877538  0.659174  0.620670  1
  Dy  Dy2  1  0.622366  0.159102  0.379325  1
  Dy  Dy3  1  0.122533  0.340801  0.120662  1
  Dy  Dy4  1  0.622366  0.159102  0.120675  1
  Dy  Dy5  1  0.122533  0.340801  0.379338  1
  Dy  Dy6  1  0.377522  0.840839  0.620626  1
  Dy  Dy7  1  0.877538  0.659174  0.879330  1
  Dy  Dy8  1  0.535125  0.323445  0.899972  1
  Dy  Dy9  1  0.035115  0.176564  0.599990  1
  Dy  Dy10  1  0.464840  0.676641  0.399987  1
  Dy  Dy11  1  0.964936  0.823490  0.100013  1
  Dy  Dy12  1  0.464840  0.676641  0.100013  1
  Dy  Dy13  1  0.964936  0.823490  0.399987  1
  Dy  Dy14  1  0.535125  0.323445  0.600028  1
  Dy  Dy15  1  0.035115  0.176564  0.900010  1
  Ho  Ho16  1  0.208915  0.503932  0.750000  1
  Ho  Ho17  1  0.708912  0.996118  0.750000  1
  Ho  Ho18  1  0.791074  0.496103  0.250000  1
  Er  Er19  1  0.291002  0.003897  0.250000  1
  Pb  Pb20  1  0.280959  0.033483  0.042819  1
  Pb  Pb21  1  0.780922  0.466490  0.457340  1
  Pb  Pb22  1  0.719100  0.966456  0.542637  1
  Pb  Pb23  1  0.219072  0.533516  0.957354  1
  Pb  Pb24  1  0.719100  0.966456  0.957363  1
  Pb  Pb25  1  0.219072  0.533516  0.542646  1
  Pb  Pb26  1  0.280959  0.033483  0.457181  1
  Pb  Pb27  1  0.780922  0.466490  0.042660  1
  Pb  Pb28  1  0.572667  0.626070  0.750000  1
  Pb  Pb29  1  0.072707  0.873976  0.750000  1
  Pb  Pb30  1  0.427127  0.373783  0.250000  1
  Pb  Pb31  1  0.927547  0.125723  0.250000  1
  Pb  Pb32  1  0.347280  0.153244  0.750000  1
  Pb  Pb33  1  0.847325  0.346669  0.750000  1
  Pb  Pb34  1  0.652572  0.846824  0.250000  1
  Pb  Pb35  1  0.152819  0.653659  0.250000  1
