# generated using pymatgen
data_Tb3Ho3Al24(Ir3Ru)2
_symmetry_space_group_name_H-M   'P 1'
_cell_length_a   8.82160900
_cell_length_b   8.82160832
_cell_length_c   9.48692100
_cell_angle_alpha   90.00000000
_cell_angle_beta   90.00000000
_cell_angle_gamma   119.99999880
_symmetry_Int_Tables_number   1
_chemical_formula_structural   Tb3Ho3Al24(Ir3Ru)2
_chemical_formula_sum   'Tb3 Ho3 Al24 Ir6 Ru2'
_cell_volume   639.36888420
_cell_formula_units_Z   1
loop_
 _symmetry_equiv_pos_site_id
 _symmetry_equiv_pos_as_xyz
  1  'x, y, z'
loop_
 _atom_site_type_symbol
 _atom_site_label
 _atom_site_symmetry_multiplicity
 _atom_site_fract_x
 _atom_site_fract_y
 _atom_site_fract_z
 _atom_site_occupancy
  Tb  Tb0  1  0.616453  0.808227  0.750000  1
  Tb  Tb1  1  0.191773  0.808227  0.750000  1
  Tb  Tb2  1  0.191773  0.383547  0.750000  1
  Ho  Ho3  1  0.385458  0.192729  0.250000  1
  Ho  Ho4  1  0.807271  0.192729  0.250000  1
  Ho  Ho5  1  0.807271  0.614542  0.250000  1
  Al  Al6  1  0.437907  0.875813  0.250000  1
  Al  Al7  1  0.124187  0.562093  0.250000  1
  Al  Al8  1  0.437907  0.562093  0.250000  1
  Al  Al9  1  0.562327  0.124655  0.750000  1
  Al  Al10  1  0.875345  0.437673  0.750000  1
  Al  Al11  1  0.562327  0.437673  0.750000  1
  Al  Al12  1  0.163027  0.836973  0.423731  1
  Al  Al13  1  0.163027  0.326055  0.423731  1
  Al  Al14  1  0.673945  0.836973  0.423731  1
  Al  Al15  1  0.836875  0.163125  0.575784  1
  Al  Al16  1  0.836875  0.673750  0.575784  1
  Al  Al17  1  0.326250  0.163125  0.575784  1
  Al  Al18  1  0.836875  0.163125  0.924216  1
  Al  Al19  1  0.836875  0.673750  0.924216  1
  Al  Al20  1  0.326250  0.163125  0.924216  1
  Al  Al21  1  0.163027  0.836973  0.076269  1
  Al  Al22  1  0.163027  0.326055  0.076269  1
  Al  Al23  1  0.673945  0.836973  0.076269  1
  Al  Al24  1  0.333333  0.666667  0.528908  1
  Al  Al25  1  0.666667  0.333333  0.470567  1
  Al  Al26  1  0.666667  0.333333  0.029433  1
  Al  Al27  1  0.333333  0.666667  0.971092  1
  Al  Al28  1  0.000000  0.000000  0.250000  1
  Al  Al29  1  0.000000  0.000000  0.750000  1
  Ir  Ir30  1  0.500273  0.000546  0.499416  1
  Ir  Ir31  1  0.999454  0.499727  0.499416  1
  Ir  Ir32  1  0.500273  0.499727  0.499416  1
  Ir  Ir33  1  0.500273  0.000546  0.000584  1
  Ir  Ir34  1  0.999454  0.499727  0.000584  1
  Ir  Ir35  1  0.500273  0.499727  0.000584  1
  Ru  Ru36  1  0.000000  0.000000  0.499376  1
  Ru  Ru37  1  0.000000  0.000000  0.000624  1
