# generated using pymatgen
data_HoSc(SnRh)2
_symmetry_space_group_name_H-M   'P 1'
_cell_length_a   7.57580900
_cell_length_b   7.57580921
_cell_length_c   7.28559900
_cell_angle_alpha   90.00000000
_cell_angle_beta   90.00000000
_cell_angle_gamma   120.00000346
_symmetry_Int_Tables_number   1
_chemical_formula_structural   HoSc(SnRh)2
_chemical_formula_sum   'Ho3 Sc3 Sn6 Rh6'
_cell_volume   362.12117927
_cell_formula_units_Z   3
loop_
 _symmetry_equiv_pos_site_id
 _symmetry_equiv_pos_as_xyz
  1  'x, y, z'
loop_
 _atom_site_type_symbol
 _atom_site_label
 _atom_site_symmetry_multiplicity
 _atom_site_fract_x
 _atom_site_fract_y
 _atom_site_fract_z
 _atom_site_occupancy
  Ho  Ho0  1  0.999931  0.404442  0.750000  1
  Ho  Ho1  1  0.595558  0.595490  0.750000  1
  Ho  Ho2  1  0.404510  0.000069  0.750000  1
  Sc  Sc3  1  0.999264  0.398558  0.250000  1
  Sc  Sc4  1  0.601442  0.600706  0.250000  1
  Sc  Sc5  1  0.399294  0.000736  0.250000  1
  Sn  Sn6  1  0.269577  0.269915  0.490564  1
  Sn  Sn7  1  0.000338  0.730423  0.490564  1
  Sn  Sn8  1  0.000338  0.730423  0.009436  1
  Sn  Sn9  1  0.730085  0.999662  0.490564  1
  Sn  Sn10  1  0.730085  0.999662  0.009436  1
  Sn  Sn11  1  0.269577  0.269915  0.009436  1
  Rh  Rh12  1  0.333333  0.666667  0.476320  1
  Rh  Rh13  1  0.666667  0.333333  0.477880  1
  Rh  Rh14  1  0.333333  0.666667  0.023680  1
  Rh  Rh15  1  0.000000  0.000000  0.750000  1
  Rh  Rh16  1  0.000000  0.000000  0.250000  1
  Rh  Rh17  1  0.666667  0.333333  0.022120  1
