# generated using pymatgen
data_Y3HoAlRu7
_symmetry_space_group_name_H-M   'P 1'
_cell_length_a   5.38592005
_cell_length_b   5.38591897
_cell_length_c   8.60507400
_cell_angle_alpha   90.00715542
_cell_angle_beta   89.99283721
_cell_angle_gamma   119.94796482
_symmetry_Int_Tables_number   1
_chemical_formula_structural   Y3HoAlRu7
_chemical_formula_sum   'Y3 Ho1 Al1 Ru7'
_cell_volume   216.28800465
_cell_formula_units_Z   1
loop_
 _symmetry_equiv_pos_site_id
 _symmetry_equiv_pos_as_xyz
  1  'x, y, z'
loop_
 _atom_site_type_symbol
 _atom_site_label
 _atom_site_symmetry_multiplicity
 _atom_site_fract_x
 _atom_site_fract_y
 _atom_site_fract_z
 _atom_site_occupancy
  Y  Y0  1  0.666683  0.333317  0.569589  1
  Y  Y1  1  0.333321  0.666679  0.430498  1
  Y  Y2  1  0.333281  0.666719  0.064537  1
  Ho  Ho3  1  0.666720  0.333280  0.935370  1
  Al  Al4  1  0.999987  0.000013  0.499986  1
  Ru  Ru5  1  0.000013  0.999987  0.999954  1
  Ru  Ru6  1  0.171166  0.342141  0.748795  1
  Ru  Ru7  1  0.171053  0.828947  0.748798  1
  Ru  Ru8  1  0.657859  0.828834  0.748795  1
  Ru  Ru9  1  0.828742  0.657712  0.251218  1
  Ru  Ru10  1  0.828888  0.171112  0.251240  1
  Ru  Ru11  1  0.342288  0.171258  0.251218  1
