# generated using pymatgen
data_Dy2TmThPt4
_symmetry_space_group_name_H-M   'P 1'
_cell_length_a   4.58073600
_cell_length_b   5.63417664
_cell_length_c   7.07149500
_cell_angle_alpha   90.41758673
_cell_angle_beta   90.00000000
_cell_angle_gamma   90.00000000
_symmetry_Int_Tables_number   1
_chemical_formula_structural   Dy2TmThPt4
_chemical_formula_sum   'Dy2 Tm1 Th1 Pt4'
_cell_volume   182.50107439
_cell_formula_units_Z   1
loop_
 _symmetry_equiv_pos_site_id
 _symmetry_equiv_pos_as_xyz
  1  'x, y, z'
loop_
 _atom_site_type_symbol
 _atom_site_label
 _atom_site_symmetry_multiplicity
 _atom_site_fract_x
 _atom_site_fract_y
 _atom_site_fract_z
 _atom_site_occupancy
  Dy  Dy0  1  0.250000  0.139538  0.182760  1
  Dy  Dy1  1  0.750000  0.642590  0.314175  1
  Tm  Tm2  1  0.750000  0.858098  0.820743  1
  Th  Th3  1  0.250000  0.359986  0.682996  1
  Pt  Pt4  1  0.250000  0.842950  0.545702  1
  Pt  Pt5  1  0.250000  0.658805  0.041491  1
  Pt  Pt6  1  0.750000  0.156483  0.455217  1
  Pt  Pt7  1  0.750000  0.341549  0.956915  1
