# generated using pymatgen
data_RbNb6PbCl18
_symmetry_space_group_name_H-M   'P 1'
_cell_length_a   9.53660100
_cell_length_b   9.53660062
_cell_length_c   17.62460400
_cell_angle_alpha   90.00000000
_cell_angle_beta   90.00000000
_cell_angle_gamma   120.00000480
_symmetry_Int_Tables_number   1
_chemical_formula_structural   RbNb6PbCl18
_chemical_formula_sum   'Rb2 Nb12 Pb2 Cl36'
_cell_volume   1388.15252154
_cell_formula_units_Z   2
loop_
 _symmetry_equiv_pos_site_id
 _symmetry_equiv_pos_as_xyz
  1  'x, y, z'
loop_
 _atom_site_type_symbol
 _atom_site_label
 _atom_site_symmetry_multiplicity
 _atom_site_fract_x
 _atom_site_fract_y
 _atom_site_fract_z
 _atom_site_occupancy
  Rb  Rb0  1  0.666667  0.333333  0.750000  1
  Rb  Rb1  1  0.333333  0.666667  0.250000  1
  Nb  Nb2  1  0.807084  0.834940  0.930935  1
  Nb  Nb3  1  0.834940  0.027856  0.069065  1
  Nb  Nb4  1  0.192916  0.027856  0.430935  1
  Nb  Nb5  1  0.192916  0.165060  0.069065  1
  Nb  Nb6  1  0.165060  0.972144  0.930935  1
  Nb  Nb7  1  0.972144  0.165060  0.430935  1
  Nb  Nb8  1  0.807084  0.972144  0.569065  1
  Nb  Nb9  1  0.027856  0.834940  0.569065  1
  Nb  Nb10  1  0.165060  0.192916  0.569065  1
  Nb  Nb11  1  0.834940  0.807084  0.430935  1
  Nb  Nb12  1  0.972144  0.807084  0.069065  1
  Nb  Nb13  1  0.027856  0.192916  0.930935  1
  Pb  Pb14  1  0.666667  0.333333  0.250000  1
  Pb  Pb15  1  0.333333  0.666667  0.750000  1
  Cl  Cl16  1  0.840082  0.586289  0.500472  1
  Cl  Cl17  1  0.058251  0.629561  0.656371  1
  Cl  Cl18  1  0.413711  0.159918  0.999528  1
  Cl  Cl19  1  0.746206  0.159918  0.500472  1
  Cl  Cl20  1  0.159918  0.746206  0.000472  1
  Cl  Cl21  1  0.159918  0.413711  0.499528  1
  Cl  Cl22  1  0.222353  0.031679  0.659439  1
  Cl  Cl23  1  0.968321  0.190674  0.659439  1
  Cl  Cl24  1  0.629561  0.058251  0.156371  1
  Cl  Cl25  1  0.190674  0.968321  0.159439  1
  Cl  Cl26  1  0.031679  0.222353  0.159439  1
  Cl  Cl27  1  0.571311  0.629561  0.843629  1
  Cl  Cl28  1  0.586289  0.840082  0.000472  1
  Cl  Cl29  1  0.370439  0.428689  0.656371  1
  Cl  Cl30  1  0.413711  0.253794  0.500472  1
  Cl  Cl31  1  0.840082  0.253794  0.999528  1
  Cl  Cl32  1  0.428689  0.058251  0.343629  1
  Cl  Cl33  1  0.777647  0.968321  0.340561  1
  Cl  Cl34  1  0.586289  0.746206  0.499528  1
  Cl  Cl35  1  0.809326  0.031679  0.840561  1
  Cl  Cl36  1  0.253794  0.840082  0.499528  1
  Cl  Cl37  1  0.629561  0.571311  0.343629  1
  Cl  Cl38  1  0.941749  0.571311  0.156371  1
  Cl  Cl39  1  0.941749  0.370439  0.343629  1
  Cl  Cl40  1  0.777647  0.809326  0.159439  1
  Cl  Cl41  1  0.968321  0.777647  0.840561  1
  Cl  Cl42  1  0.571311  0.941749  0.656371  1
  Cl  Cl43  1  0.222353  0.190674  0.840561  1
  Cl  Cl44  1  0.253794  0.413711  0.000472  1
  Cl  Cl45  1  0.190674  0.222353  0.340561  1
  Cl  Cl46  1  0.370439  0.941749  0.843629  1
  Cl  Cl47  1  0.058251  0.428689  0.843629  1
  Cl  Cl48  1  0.809326  0.777647  0.659439  1
  Cl  Cl49  1  0.428689  0.370439  0.156371  1
  Cl  Cl50  1  0.031679  0.809326  0.340561  1
  Cl  Cl51  1  0.746206  0.586289  0.999528  1
