# generated using pymatgen
data_Y7Er13(Cd3Pt)2
_symmetry_space_group_name_H-M   'P 1'
_cell_length_a   9.67761700
_cell_length_b   9.67761574
_cell_length_c   9.68437700
_cell_angle_alpha   90.00000000
_cell_angle_beta   90.00000000
_cell_angle_gamma   120.00000090
_symmetry_Int_Tables_number   1
_chemical_formula_structural   Y7Er13(Cd3Pt)2
_chemical_formula_sum   'Y7 Er13 Cd6 Pt2'
_cell_volume   785.48721340
_cell_formula_units_Z   1
loop_
 _symmetry_equiv_pos_site_id
 _symmetry_equiv_pos_as_xyz
  1  'x, y, z'
loop_
 _atom_site_type_symbol
 _atom_site_label
 _atom_site_symmetry_multiplicity
 _atom_site_fract_x
 _atom_site_fract_y
 _atom_site_fract_z
 _atom_site_occupancy
  Y  Y0  1  0.542259  0.457741  0.749937  1
  Y  Y1  1  0.542259  0.084517  0.749937  1
  Y  Y2  1  0.915483  0.457741  0.749937  1
  Y  Y3  1  0.457741  0.542259  0.250063  1
  Y  Y4  1  0.457741  0.915483  0.250063  1
  Y  Y5  1  0.084517  0.542259  0.250063  1
  Y  Y6  1  0.000000  0.000000  0.500000  1
  Er  Er7  1  0.207715  0.792285  0.940181  1
  Er  Er8  1  0.207715  0.415429  0.940181  1
  Er  Er9  1  0.584571  0.792285  0.940181  1
  Er  Er10  1  0.792285  0.207715  0.059819  1
  Er  Er11  1  0.792285  0.584571  0.059819  1
  Er  Er12  1  0.415429  0.207715  0.059819  1
  Er  Er13  1  0.791988  0.208012  0.440140  1
  Er  Er14  1  0.791988  0.583975  0.440140  1
  Er  Er15  1  0.416025  0.208012  0.440140  1
  Er  Er16  1  0.208012  0.791988  0.559860  1
  Er  Er17  1  0.208012  0.416025  0.559860  1
  Er  Er18  1  0.583975  0.791988  0.559860  1
  Er  Er19  1  0.000000  0.000000  0.000000  1
  Cd  Cd20  1  0.884249  0.115751  0.750465  1
  Cd  Cd21  1  0.884249  0.768500  0.750465  1
  Cd  Cd22  1  0.231500  0.115751  0.750465  1
  Cd  Cd23  1  0.115751  0.884249  0.249535  1
  Cd  Cd24  1  0.115751  0.231500  0.249535  1
  Cd  Cd25  1  0.768500  0.884249  0.249535  1
  Pt  Pt26  1  0.333333  0.666667  0.750118  1
  Pt  Pt27  1  0.666667  0.333333  0.249882  1
