# generated using pymatgen
data_Er13Lu7(Ag3Ru)2
_symmetry_space_group_name_H-M   'P 1'
_cell_length_a   9.22062750
_cell_length_b   9.21924537
_cell_length_c   9.48314500
_cell_angle_alpha   90.00000000
_cell_angle_beta   89.98117819
_cell_angle_gamma   119.99503464
_symmetry_Int_Tables_number   1
_chemical_formula_structural   Er13Lu7(Ag3Ru)2
_chemical_formula_sum   'Er13 Lu7 Ag6 Ru2'
_cell_volume   698.16901424
_cell_formula_units_Z   1
loop_
 _symmetry_equiv_pos_site_id
 _symmetry_equiv_pos_as_xyz
  1  'x, y, z'
loop_
 _atom_site_type_symbol
 _atom_site_label
 _atom_site_symmetry_multiplicity
 _atom_site_fract_x
 _atom_site_fract_y
 _atom_site_fract_z
 _atom_site_occupancy
  Er  Er0  1  0.416449  0.208224  0.556346  1
  Er  Er1  1  0.791807  0.208597  0.942415  1
  Er  Er2  1  0.791807  0.583208  0.942415  1
  Er  Er3  1  0.416854  0.208427  0.942532  1
  Er  Er4  1  0.208714  0.791428  0.057638  1
  Er  Er5  1  0.208714  0.417287  0.057638  1
  Er  Er6  1  0.583780  0.791891  0.057676  1
  Er  Er7  1  0.540848  0.459544  0.251484  1
  Er  Er8  1  0.540848  0.081305  0.251484  1
  Er  Er9  1  0.917908  0.458954  0.252103  1
  Er  Er10  1  0.459067  0.541711  0.748340  1
  Er  Er11  1  0.459067  0.917355  0.748340  1
  Er  Er12  1  0.082288  0.541144  0.748247  1
  Lu  Lu13  1  0.999329  0.999665  0.499853  1
  Lu  Lu14  1  0.000349  0.000175  0.999750  1
  Lu  Lu15  1  0.208499  0.790339  0.443699  1
  Lu  Lu16  1  0.208499  0.418160  0.443699  1
  Lu  Lu17  1  0.581961  0.790981  0.444309  1
  Lu  Lu18  1  0.791663  0.208946  0.556254  1
  Lu  Lu19  1  0.791663  0.582716  0.556254  1
  Ag  Ag20  1  0.884991  0.114909  0.251255  1
  Ag  Ag21  1  0.884991  0.770083  0.251255  1
  Ag  Ag22  1  0.229507  0.114755  0.250849  1
  Ag  Ag23  1  0.114696  0.884978  0.748589  1
  Ag  Ag24  1  0.114696  0.229717  0.748589  1
  Ag  Ag25  1  0.770084  0.885042  0.748828  1
  Ru  Ru26  1  0.333820  0.666911  0.250857  1
  Ru  Ru27  1  0.667098  0.333549  0.749304  1
