# generated using pymatgen
data_DyAgPt2O7
_symmetry_space_group_name_H-M   'P 1'
_cell_length_a   7.23868940
_cell_length_b   7.23868944
_cell_length_c   7.16103400
_cell_angle_alpha   60.35424381
_cell_angle_beta   60.35424364
_cell_angle_gamma   61.45497787
_symmetry_Int_Tables_number   1
_chemical_formula_structural   DyAgPt2O7
_chemical_formula_sum   'Dy2 Ag2 Pt4 O14'
_cell_volume   269.57909983
_cell_formula_units_Z   2
loop_
 _symmetry_equiv_pos_site_id
 _symmetry_equiv_pos_as_xyz
  1  'x, y, z'
loop_
 _atom_site_type_symbol
 _atom_site_label
 _atom_site_symmetry_multiplicity
 _atom_site_fract_x
 _atom_site_fract_y
 _atom_site_fract_z
 _atom_site_occupancy
  Dy  Dy0  1  0.125000  0.625000  0.125000  1
  Dy  Dy1  1  0.625000  0.125000  0.125000  1
  Ag  Ag2  1  0.125000  0.125000  0.625000  1
  Ag  Ag3  1  0.125000  0.125000  0.125000  1
  Pt  Pt4  1  0.625000  0.625000  0.625000  1
  Pt  Pt5  1  0.125000  0.625000  0.625000  1
  Pt  Pt6  1  0.625000  0.125000  0.625000  1
  Pt  Pt7  1  0.625000  0.625000  0.125000  1
  O  O8  1  0.294156  0.695900  0.721113  1
  O  O9  1  0.554100  0.955844  0.961169  1
  O  O10  1  0.695900  0.294156  0.721113  1
  O  O11  1  0.295810  0.295810  0.704190  1
  O  O12  1  0.718966  0.718966  0.281034  1
  O  O13  1  0.011857  0.011857  0.988143  1
  O  O14  1  0.294156  0.695900  0.288831  1
  O  O15  1  0.955844  0.554100  0.961169  1
  O  O16  1  0.954190  0.954190  0.545810  1
  O  O17  1  0.531034  0.531034  0.968966  1
  O  O18  1  0.238143  0.238143  0.261857  1
  O  O19  1  0.554100  0.955844  0.528887  1
  O  O20  1  0.695900  0.294156  0.288831  1
  O  O21  1  0.955844  0.554100  0.528887  1
