# generated using pymatgen
data_TbDy2Sn3HgIr2
_symmetry_space_group_name_H-M   'P 1'
_cell_length_a   7.62077056
_cell_length_b   7.61447287
_cell_length_c   4.05440400
_cell_angle_alpha   90.00000000
_cell_angle_beta   90.00000000
_cell_angle_gamma   119.95405291
_symmetry_Int_Tables_number   1
_chemical_formula_structural   TbDy2Sn3HgIr2
_chemical_formula_sum   'Tb1 Dy2 Sn3 Hg1 Ir2'
_cell_volume   203.84369021
_cell_formula_units_Z   1
loop_
 _symmetry_equiv_pos_site_id
 _symmetry_equiv_pos_as_xyz
  1  'x, y, z'
loop_
 _atom_site_type_symbol
 _atom_site_label
 _atom_site_symmetry_multiplicity
 _atom_site_fract_x
 _atom_site_fract_y
 _atom_site_fract_z
 _atom_site_occupancy
  Tb  Tb0  1  0.412243  0.391387  0.000000  1
  Dy  Dy1  1  0.609457  0.021757  0.000000  1
  Dy  Dy2  1  0.978627  0.587674  0.000000  1
  Sn  Sn3  1  0.254497  0.008827  0.500000  1
  Sn  Sn4  1  0.990881  0.245634  0.500000  1
  Sn  Sn5  1  0.754534  0.745599  0.500000  1
  Hg  Hg6  1  0.333232  0.666901  0.500000  1
  Ir  Ir7  1  0.667007  0.332788  0.500000  1
  Ir  Ir8  1  0.999522  0.999433  0.000000  1
