# generated using pymatgen
data_Tb8Ho3TmGa20
_symmetry_space_group_name_H-M   'P 1'
_cell_length_a   6.11738410
_cell_length_b   9.63002100
_cell_length_c   11.55777500
_cell_angle_alpha   90.00000000
_cell_angle_beta   90.01052745
_cell_angle_gamma   90.00000000
_symmetry_Int_Tables_number   1
_chemical_formula_structural   Tb8Ho3TmGa20
_chemical_formula_sum   'Tb8 Ho3 Tm1 Ga20'
_cell_volume   680.87472467
_cell_formula_units_Z   1
loop_
 _symmetry_equiv_pos_site_id
 _symmetry_equiv_pos_as_xyz
  1  'x, y, z'
loop_
 _atom_site_type_symbol
 _atom_site_label
 _atom_site_symmetry_multiplicity
 _atom_site_fract_x
 _atom_site_fract_y
 _atom_site_fract_z
 _atom_site_occupancy
  Tb  Tb0  1  0.890741  0.509633  0.351092  1
  Tb  Tb1  1  0.609402  0.990207  0.851374  1
  Tb  Tb2  1  0.109209  0.009481  0.648812  1
  Tb  Tb3  1  0.390954  0.490636  0.148810  1
  Tb  Tb4  1  0.109209  0.490519  0.648812  1
  Tb  Tb5  1  0.390954  0.009364  0.148810  1
  Tb  Tb6  1  0.890741  0.990367  0.351092  1
  Tb  Tb7  1  0.609402  0.509793  0.851374  1
  Ho  Ho8  1  0.651138  0.750000  0.575075  1
  Ho  Ho9  1  0.151076  0.250000  0.925132  1
  Ho  Ho10  1  0.348816  0.250000  0.425093  1
  Tm  Tm11  1  0.848798  0.750000  0.075072  1
  Ga  Ga12  1  0.875191  0.053126  0.089873  1
  Ga  Ga13  1  0.624792  0.446342  0.589953  1
  Ga  Ga14  1  0.124747  0.553692  0.910145  1
  Ga  Ga15  1  0.375158  0.946351  0.409962  1
  Ga  Ga16  1  0.124747  0.946308  0.910145  1
  Ga  Ga17  1  0.375158  0.553649  0.409962  1
  Ga  Ga18  1  0.875191  0.446874  0.089873  1
  Ga  Ga19  1  0.624792  0.053658  0.589953  1
  Ga  Ga20  1  0.171745  0.750000  0.251723  1
  Ga  Ga21  1  0.327238  0.750000  0.752136  1
  Ga  Ga22  1  0.827402  0.250000  0.747955  1
  Ga  Ga23  1  0.672655  0.250000  0.247863  1
  Ga  Ga24  1  0.372882  0.750000  0.004311  1
  Ga  Ga25  1  0.127735  0.750000  0.504077  1
  Ga  Ga26  1  0.627864  0.250000  0.995898  1
  Ga  Ga27  1  0.872275  0.250000  0.495838  1
  Ga  Ga28  1  0.600652  0.750000  0.299229  1
  Ga  Ga29  1  0.899418  0.750000  0.799829  1
  Ga  Ga30  1  0.399504  0.250000  0.700373  1
  Ga  Ga31  1  0.100412  0.250000  0.200357  1
