# generated using pymatgen
data_CsK10Rb(AlSe3)4
_symmetry_space_group_name_H-M   'P 1'
_cell_length_a   13.70847633
_cell_length_b   8.21936475
_cell_length_c   10.46671979
_cell_angle_alpha   52.79771250
_cell_angle_beta   89.46804562
_cell_angle_gamma   90.23977119
_symmetry_Int_Tables_number   1
_chemical_formula_structural   CsK10Rb(AlSe3)4
_chemical_formula_sum   'Cs1 K10 Rb1 Al4 Se12'
_cell_volume   939.23741451
_cell_formula_units_Z   1
loop_
 _symmetry_equiv_pos_site_id
 _symmetry_equiv_pos_as_xyz
  1  'x, y, z'
loop_
 _atom_site_type_symbol
 _atom_site_label
 _atom_site_symmetry_multiplicity
 _atom_site_fract_x
 _atom_site_fract_y
 _atom_site_fract_z
 _atom_site_occupancy
  Cs  Cs0  1  0.685930  0.818297  0.944898  1
  K  K1  1  0.818872  0.832480  0.443880  1
  K  K2  1  0.899118  0.315763  0.403011  1
  K  K3  1  0.618522  0.373317  0.471029  1
  K  K4  1  0.112821  0.633929  0.021536  1
  K  K5  1  0.380770  0.627197  0.528803  1
  K  K6  1  0.887824  0.365655  0.978890  1
  K  K7  1  0.614501  0.298610  0.909551  1
  K  K8  1  0.101250  0.684001  0.597115  1
  K  K9  1  0.384535  0.701754  0.090615  1
  K  K10  1  0.181759  0.167167  0.556407  1
  Rb  Rb11  1  0.312621  0.179966  0.058006  1
  Al  Al12  1  0.065079  0.948175  0.155608  1
  Al  Al13  1  0.565939  0.037071  0.350501  1
  Al  Al14  1  0.432031  0.961577  0.648884  1
  Al  Al15  1  0.937043  0.054404  0.843965  1
  Se  Se16  1  0.416452  0.200113  0.354527  1
  Se  Se17  1  0.906100  0.823442  0.138380  1
  Se  Se18  1  0.580888  0.797996  0.643406  1
  Se  Se19  1  0.096241  0.177885  0.861695  1
  Se  Se20  1  0.701547  0.272043  0.226826  1
  Se  Se21  1  0.185547  0.686698  0.293317  1
  Se  Se22  1  0.299593  0.718327  0.778156  1
  Se  Se23  1  0.817930  0.319761  0.703902  1
  Se  Se24  1  0.541983  0.861227  0.237797  1
  Se  Se25  1  0.052181  0.135553  0.261290  1
  Se  Se26  1  0.453992  0.141022  0.759449  1
  Se  Se27  1  0.948931  0.866570  0.738558  1
