# generated using pymatgen
data_BaSrCa2(TaN3)2
_symmetry_space_group_name_H-M   'P 1'
_cell_length_a   6.32356228
_cell_length_b   6.52187321
_cell_length_c   12.85120170
_cell_angle_alpha   90.04143233
_cell_angle_beta   89.80681384
_cell_angle_gamma   124.50974037
_symmetry_Int_Tables_number   1
_chemical_formula_structural   BaSrCa2(TaN3)2
_chemical_formula_sum   'Ba2 Sr2 Ca4 Ta4 N12'
_cell_volume   436.73493803
_cell_formula_units_Z   2
loop_
 _symmetry_equiv_pos_site_id
 _symmetry_equiv_pos_as_xyz
  1  'x, y, z'
loop_
 _atom_site_type_symbol
 _atom_site_label
 _atom_site_symmetry_multiplicity
 _atom_site_fract_x
 _atom_site_fract_y
 _atom_site_fract_z
 _atom_site_occupancy
  Ba  Ba0  1  0.009659  0.419932  0.859632  1
  Ba  Ba1  1  0.513372  0.918625  0.635707  1
  Sr  Sr2  1  0.459523  0.060855  0.367513  1
  Sr  Sr3  1  0.667683  0.905453  0.070992  1
  Ca  Ca4  1  0.984386  0.607917  0.120219  1
  Ca  Ca5  1  0.185970  0.415591  0.437345  1
  Ca  Ca6  1  0.309633  0.079729  0.932904  1
  Ca  Ca7  1  0.819584  0.586384  0.563618  1
  Ta  Ta8  1  0.821055  0.784669  0.335060  1
  Ta  Ta9  1  0.299865  0.281493  0.168316  1
  Ta  Ta10  1  0.200578  0.216161  0.664484  1
  Ta  Ta11  1  0.697567  0.717596  0.833216  1
  N  N12  1  0.421035  0.374305  0.790626  1
  N  N13  1  0.629052  0.596074  0.207721  1
  N  N14  1  0.928506  0.870781  0.709477  1
  N  N15  1  0.089677  0.133739  0.295678  1
  N  N16  1  0.044025  0.385821  0.623901  1
  N  N17  1  0.548036  0.896534  0.870937  1
  N  N18  1  0.994337  0.642175  0.390036  1
  N  N19  1  0.371302  0.046234  0.117601  1
  N  N20  1  0.878504  0.711434  0.952368  1
  N  N21  1  0.613272  0.788674  0.443694  1
  N  N22  1  0.124321  0.341964  0.062525  1
  N  N23  1  0.389059  0.217862  0.546431  1
