# generated using pymatgen
data_Ho7Er9Cd4(OsPt)2
_symmetry_space_group_name_H-M   'P 1'
_cell_length_a   9.58697848
_cell_length_b   9.58697935
_cell_length_c   9.64871600
_cell_angle_alpha   59.78674898
_cell_angle_beta   59.78674594
_cell_angle_gamma   59.61631537
_symmetry_Int_Tables_number   1
_chemical_formula_structural   Ho7Er9Cd4(OsPt)2
_chemical_formula_sum   'Ho7 Er9 Cd4 Os2 Pt2'
_cell_volume   623.22320982
_cell_formula_units_Z   1
loop_
 _symmetry_equiv_pos_site_id
 _symmetry_equiv_pos_as_xyz
  1  'x, y, z'
loop_
 _atom_site_type_symbol
 _atom_site_label
 _atom_site_symmetry_multiplicity
 _atom_site_fract_x
 _atom_site_fract_y
 _atom_site_fract_z
 _atom_site_occupancy
  Ho  Ho0  1  0.058299  0.058299  0.441701  1
  Ho  Ho1  1  0.188425  0.806357  0.816878  1
  Ho  Ho2  1  0.806357  0.188425  0.188341  1
  Ho  Ho3  1  0.806357  0.188425  0.816878  1
  Ho  Ho4  1  0.188425  0.806357  0.188341  1
  Ho  Ho5  1  0.814159  0.814159  0.185841  1
  Ho  Ho6  1  0.190174  0.190174  0.809826  1
  Er  Er7  1  0.600156  0.600156  0.601548  1
  Er  Er8  1  0.600156  0.600156  0.198141  1
  Er  Er9  1  0.596603  0.204128  0.599635  1
  Er  Er10  1  0.204128  0.596603  0.599635  1
  Er  Er11  1  0.064645  0.437859  0.440582  1
  Er  Er12  1  0.437859  0.064645  0.056912  1
  Er  Er13  1  0.437859  0.064645  0.440582  1
  Er  Er14  1  0.064645  0.437859  0.056912  1
  Er  Er15  1  0.438154  0.438154  0.061846  1
  Cd  Cd16  1  0.829895  0.829895  0.831773  1
  Cd  Cd17  1  0.829895  0.829895  0.508437  1
  Cd  Cd18  1  0.830945  0.505265  0.831895  1
  Cd  Cd19  1  0.505265  0.830945  0.831895  1
  Os  Os20  1  0.394379  0.394379  0.387821  1
  Os  Os21  1  0.394379  0.394379  0.823420  1
  Pt  Pt22  1  0.394642  0.824196  0.390581  1
  Pt  Pt23  1  0.824196  0.394642  0.390581  1
