# generated using pymatgen
data_Nd3SnHg2Pt2Rh
_symmetry_space_group_name_H-M   'P 1'
_cell_length_a   7.76887300
_cell_length_b   7.86666401
_cell_length_c   3.92794900
_cell_angle_alpha   90.00000000
_cell_angle_beta   90.00000000
_cell_angle_gamma   119.58962448
_symmetry_Int_Tables_number   1
_chemical_formula_structural   Nd3SnHg2Pt2Rh
_chemical_formula_sum   'Nd3 Sn1 Hg2 Pt2 Rh1'
_cell_volume   208.74985607
_cell_formula_units_Z   1
loop_
 _symmetry_equiv_pos_site_id
 _symmetry_equiv_pos_as_xyz
  1  'x, y, z'
loop_
 _atom_site_type_symbol
 _atom_site_label
 _atom_site_symmetry_multiplicity
 _atom_site_fract_x
 _atom_site_fract_y
 _atom_site_fract_z
 _atom_site_occupancy
  Nd  Nd0  1  0.995521  0.593800  0.000000  1
  Nd  Nd1  1  0.401721  0.406200  0.000000  1
  Nd  Nd2  1  0.602009  0.000000  0.000000  1
  Sn  Sn3  1  0.253580  0.000000  0.500000  1
  Hg  Hg4  1  0.741802  0.741865  0.500000  1
  Hg  Hg5  1  0.999938  0.258135  0.500000  1
  Pt  Pt6  1  0.652947  0.323547  0.500000  1
  Pt  Pt7  1  0.329399  0.676453  0.500000  1
  Rh  Rh8  1  0.023083  0.000000  0.000000  1
