# generated using pymatgen
data_Dy5P12Ir5(Ru2Rh5)2
_symmetry_space_group_name_H-M   'P 1'
_cell_length_a   12.65360799
_cell_length_b   12.63033779
_cell_length_c   3.95632500
_cell_angle_alpha   90.00000000
_cell_angle_beta   90.00000000
_cell_angle_gamma   119.71465621
_symmetry_Int_Tables_number   1
_chemical_formula_structural   Dy5P12Ir5(Ru2Rh5)2
_chemical_formula_sum   'Dy5 P12 Ir5 Ru4 Rh10'
_cell_volume   549.15317493
_cell_formula_units_Z   1
loop_
 _symmetry_equiv_pos_site_id
 _symmetry_equiv_pos_as_xyz
  1  'x, y, z'
loop_
 _atom_site_type_symbol
 _atom_site_label
 _atom_site_symmetry_multiplicity
 _atom_site_fract_x
 _atom_site_fract_y
 _atom_site_fract_z
 _atom_site_occupancy
  Dy  Dy0  1  0.334997  0.667939  0.500000  1
  Dy  Dy1  1  0.666088  0.332626  0.500000  1
  Dy  Dy2  1  0.000137  0.814684  0.000000  1
  Dy  Dy3  1  0.185848  0.185452  0.000000  1
  Dy  Dy4  1  0.815680  0.999913  0.000000  1
  P  P5  1  0.999433  0.636608  0.500000  1
  P  P6  1  0.363978  0.363802  0.500000  1
  P  P7  1  0.637960  0.003911  0.500000  1
  P  P8  1  0.519511  0.687687  0.000000  1
  P  P9  1  0.312493  0.832288  0.000000  1
  P  P10  1  0.167978  0.480573  0.000000  1
  P  P11  1  0.482268  0.167118  0.000000  1
  P  P12  1  0.688058  0.518883  0.000000  1
  P  P13  1  0.826822  0.308575  0.000000  1
  P  P14  1  0.000332  0.182105  0.500000  1
  P  P15  1  0.817485  0.817875  0.500000  1
  P  P16  1  0.181997  0.999861  0.500000  1
  Ir  Ir17  1  0.181524  0.375596  0.500000  1
  Ir  Ir18  1  0.375875  0.181629  0.500000  1
  Ir  Ir19  1  0.803971  0.622402  0.500000  1
  Ir  Ir20  1  0.819081  0.196437  0.500000  1
  Ir  Ir21  1  0.999534  0.999477  0.500000  1
  Ru  Ru22  1  0.638504  0.126675  0.000000  1
  Ru  Ru23  1  0.999381  0.284312  0.000000  1
  Ru  Ru24  1  0.715882  0.716080  0.000000  1
  Ru  Ru25  1  0.283616  0.000900  0.000000  1
  Rh  Rh26  1  0.509384  0.869940  0.000000  1
  Rh  Rh27  1  0.132801  0.640776  0.000000  1
  Rh  Rh28  1  0.359404  0.491370  0.000000  1
  Rh  Rh29  1  0.491827  0.360013  0.000000  1
  Rh  Rh30  1  0.869308  0.508077  0.000000  1
  Rh  Rh31  1  0.002373  0.455335  0.500000  1
  Rh  Rh32  1  0.544580  0.546629  0.500000  1
  Rh  Rh33  1  0.454069  0.999689  0.500000  1
  Rh  Rh34  1  0.623485  0.806839  0.500000  1
  Rh  Rh35  1  0.194335  0.817921  0.500000  1
