# generated using pymatgen
data_Be6V6Fe11Ni
_symmetry_space_group_name_H-M   'P 1'
_cell_length_a   3.88934600
_cell_length_b   5.50619100
_cell_length_c   11.66392000
_cell_angle_alpha   90.00000000
_cell_angle_beta   89.99893915
_cell_angle_gamma   90.00000000
_symmetry_Int_Tables_number   1
_chemical_formula_structural   Be6V6Fe11Ni
_chemical_formula_sum   'Be6 V6 Fe11 Ni1'
_cell_volume   249.78846810
_cell_formula_units_Z   1
loop_
 _symmetry_equiv_pos_site_id
 _symmetry_equiv_pos_as_xyz
  1  'x, y, z'
loop_
 _atom_site_type_symbol
 _atom_site_label
 _atom_site_symmetry_multiplicity
 _atom_site_fract_x
 _atom_site_fract_y
 _atom_site_fract_z
 _atom_site_occupancy
  Be  Be0  1  0.000000  0.500805  0.000000  1
  Be  Be1  1  0.499855  0.999355  0.167171  1
  Be  Be2  1  0.999849  0.500002  0.332915  1
  Be  Be3  1  0.499999  0.000326  0.500000  1
  Be  Be4  1  0.000153  0.500002  0.667084  1
  Be  Be5  1  0.500144  0.999355  0.832828  1
  V  V6  1  0.000000  0.987909  0.000000  1
  V  V7  1  0.499851  0.504939  0.170304  1
  V  V8  1  0.999852  0.000608  0.332951  1
  V  V9  1  0.499999  0.499975  0.500000  1
  V  V10  1  0.000150  0.000608  0.667049  1
  V  V11  1  0.500150  0.504939  0.829696  1
  Fe  Fe12  1  0.499999  0.750956  0.000000  1
  Fe  Fe13  1  0.999853  0.250420  0.165929  1
  Fe  Fe14  1  0.999862  0.749755  0.165813  1
  Fe  Fe15  1  0.499853  0.249661  0.333102  1
  Fe  Fe16  1  0.499855  0.750005  0.333503  1
  Fe  Fe17  1  0.000000  0.250059  0.500000  1
  Fe  Fe18  1  0.000000  0.749864  0.500000  1
  Fe  Fe19  1  0.500146  0.249661  0.666898  1
  Fe  Fe20  1  0.500144  0.750005  0.666497  1
  Fe  Fe21  1  0.000146  0.250420  0.834071  1
  Fe  Fe22  1  0.000137  0.749755  0.834187  1
  Ni  Ni23  1  0.499999  0.250619  0.000000  1
