# generated using pymatgen
data_Dy4Er4Tc(B8Ru)3
_symmetry_space_group_name_H-M   'P 1'
_cell_length_a   3.65503600
_cell_length_b   9.11738968
_cell_length_c   11.50723600
_cell_angle_alpha   89.91201711
_cell_angle_beta   90.00000000
_cell_angle_gamma   90.00000000
_symmetry_Int_Tables_number   1
_chemical_formula_structural   Dy4Er4Tc(B8Ru)3
_chemical_formula_sum   'Dy4 Er4 Tc1 B24 Ru3'
_cell_volume   383.47113959
_cell_formula_units_Z   1
loop_
 _symmetry_equiv_pos_site_id
 _symmetry_equiv_pos_as_xyz
  1  'x, y, z'
loop_
 _atom_site_type_symbol
 _atom_site_label
 _atom_site_symmetry_multiplicity
 _atom_site_fract_x
 _atom_site_fract_y
 _atom_site_fract_z
 _atom_site_occupancy
  Dy  Dy0  1  0.000000  0.323810  0.413290  1
  Dy  Dy1  1  0.000000  0.677449  0.583505  1
  Dy  Dy2  1  0.000000  0.819996  0.087976  1
  Dy  Dy3  1  0.000000  0.177330  0.915023  1
  Er  Er4  1  0.000000  0.943062  0.372286  1
  Er  Er5  1  0.000000  0.057480  0.628375  1
  Er  Er6  1  0.000000  0.443806  0.128210  1
  Er  Er7  1  0.000000  0.557053  0.871310  1
  Tc  Tc8  1  0.000000  0.637656  0.320853  1
  B  B9  1  0.500000  0.553022  0.432988  1
  B  B10  1  0.500000  0.446379  0.567517  1
  B  B11  1  0.500000  0.053611  0.067266  1
  B  B12  1  0.500000  0.945967  0.933106  1
  B  B13  1  0.500000  0.748536  0.419227  1
  B  B14  1  0.500000  0.251924  0.580761  1
  B  B15  1  0.500000  0.248180  0.080457  1
  B  B16  1  0.500000  0.751492  0.919379  1
  B  B17  1  0.500000  0.791222  0.265989  1
  B  B18  1  0.500000  0.209427  0.734066  1
  B  B19  1  0.500000  0.290542  0.233232  1
  B  B20  1  0.500000  0.709843  0.765932  1
  B  B21  1  0.500000  0.630765  0.185448  1
  B  B22  1  0.500000  0.368897  0.814907  1
  B  B23  1  0.500000  0.130989  0.314379  1
  B  B24  1  0.500000  0.869547  0.685242  1
  B  B25  1  0.500000  0.982770  0.212757  1
  B  B26  1  0.500000  0.017188  0.787759  1
  B  B27  1  0.500000  0.481956  0.287201  1
  B  B28  1  0.500000  0.517036  0.712691  1
  B  B29  1  0.500000  0.605793  0.028697  1
  B  B30  1  0.500000  0.393531  0.970220  1
  B  B31  1  0.500000  0.106865  0.470826  1
  B  B32  1  0.500000  0.894858  0.529799  1
  Ru  Ru33  1  0.000000  0.362026  0.679728  1
  Ru  Ru34  1  0.000000  0.137511  0.178655  1
  Ru  Ru35  1  0.000000  0.862482  0.820943  1
