# generated using pymatgen
data_Eu2Dy2H9
_symmetry_space_group_name_H-M   'P 1'
_cell_length_a   6.59502260
_cell_length_b   6.59502280
_cell_length_c   6.59502231
_cell_angle_alpha   132.03265087
_cell_angle_beta   132.03265344
_cell_angle_gamma   70.17746354
_symmetry_Int_Tables_number   1
_chemical_formula_structural   Eu2Dy2H9
_chemical_formula_sum   'Eu2 Dy2 H9'
_cell_volume   155.12155309
_cell_formula_units_Z   1
loop_
 _symmetry_equiv_pos_site_id
 _symmetry_equiv_pos_as_xyz
  1  'x, y, z'
loop_
 _atom_site_type_symbol
 _atom_site_label
 _atom_site_symmetry_multiplicity
 _atom_site_fract_x
 _atom_site_fract_y
 _atom_site_fract_z
 _atom_site_occupancy
  Eu  Eu0  1  0.500000  0.000000  0.500000  1
  Eu  Eu1  1  0.000000  0.500000  0.500000  1
  Dy  Dy2  1  0.736280  0.736280  0.000000  1
  Dy  Dy3  1  0.263720  0.263720  0.000000  1
  H  H4  1  0.900353  0.375358  0.000000  1
  H  H5  1  0.375358  0.900353  0.000000  1
  H  H6  1  0.624642  0.099647  0.000000  1
  H  H7  1  0.099647  0.099647  0.475004  1
  H  H8  1  0.375358  0.375358  0.475004  1
  H  H9  1  0.500000  0.500000  0.000000  1
  H  H10  1  0.099647  0.624642  0.000000  1
  H  H11  1  0.624642  0.624642  0.524996  1
  H  H12  1  0.900353  0.900353  0.524996  1
