# generated using pymatgen
data_Dy13Tm3InHg3Rh4
_symmetry_space_group_name_H-M   'P 1'
_cell_length_a   9.55482024
_cell_length_b   9.55482010
_cell_length_c   9.55481449
_cell_angle_alpha   60.02306476
_cell_angle_beta   60.02306570
_cell_angle_gamma   60.05176231
_symmetry_Int_Tables_number   1
_chemical_formula_structural   Dy13Tm3InHg3Rh4
_chemical_formula_sum   'Dy13 Tm3 In1 Hg3 Rh4'
_cell_volume   617.26740079
_cell_formula_units_Z   1
loop_
 _symmetry_equiv_pos_site_id
 _symmetry_equiv_pos_as_xyz
  1  'x, y, z'
loop_
 _atom_site_type_symbol
 _atom_site_label
 _atom_site_symmetry_multiplicity
 _atom_site_fract_x
 _atom_site_fract_y
 _atom_site_fract_z
 _atom_site_occupancy
  Dy  Dy0  1  0.936216  0.936216  0.560355  1
  Dy  Dy1  1  0.148075  0.148075  0.552517  1
  Dy  Dy2  1  0.562999  0.937479  0.561702  1
  Dy  Dy3  1  0.148941  0.148941  0.150003  1
  Dy  Dy4  1  0.311392  0.311392  0.688808  1
  Dy  Dy5  1  0.937479  0.562999  0.561702  1
  Dy  Dy6  1  0.561907  0.561907  0.938789  1
  Dy  Dy7  1  0.560706  0.935406  0.937299  1
  Dy  Dy8  1  0.935406  0.560706  0.937299  1
  Dy  Dy9  1  0.147012  0.554038  0.148555  1
  Dy  Dy10  1  0.311681  0.689986  0.688917  1
  Dy  Dy11  1  0.689986  0.311681  0.688917  1
  Dy  Dy12  1  0.554038  0.147012  0.148555  1
  Tm  Tm13  1  0.688825  0.312306  0.310891  1
  Tm  Tm14  1  0.689179  0.689179  0.310831  1
  Tm  Tm15  1  0.312306  0.688825  0.310891  1
  In  In16  1  0.919551  0.919551  0.919887  1
  Hg  Hg17  1  0.914932  0.914932  0.255927  1
  Hg  Hg18  1  0.255956  0.914883  0.915107  1
  Hg  Hg19  1  0.914883  0.255956  0.915107  1
  Rh  Rh20  1  0.357947  0.357947  0.356651  1
  Rh  Rh21  1  0.926337  0.357712  0.356395  1
  Rh  Rh22  1  0.356535  0.356535  0.928497  1
  Rh  Rh23  1  0.357712  0.926337  0.356395  1
