# generated using pymatgen
data_Dy2Lu3P12Ru16Pt3
_symmetry_space_group_name_H-M   'P 1'
_cell_length_a   12.58813900
_cell_length_b   12.58813875
_cell_length_c   3.95627100
_cell_angle_alpha   90.00000000
_cell_angle_beta   90.00000000
_cell_angle_gamma   119.99999945
_symmetry_Int_Tables_number   1
_chemical_formula_structural   Dy2Lu3P12Ru16Pt3
_chemical_formula_sum   'Dy2 Lu3 P12 Ru16 Pt3'
_cell_volume   542.92484688
_cell_formula_units_Z   1
loop_
 _symmetry_equiv_pos_site_id
 _symmetry_equiv_pos_as_xyz
  1  'x, y, z'
loop_
 _atom_site_type_symbol
 _atom_site_label
 _atom_site_symmetry_multiplicity
 _atom_site_fract_x
 _atom_site_fract_y
 _atom_site_fract_z
 _atom_site_occupancy
  Dy  Dy0  1  0.666667  0.333333  0.000000  1
  Dy  Dy1  1  0.333333  0.666667  0.000000  1
  Lu  Lu2  1  0.817119  0.998895  0.500000  1
  Lu  Lu3  1  0.181776  0.182881  0.500000  1
  Lu  Lu4  1  0.001105  0.818224  0.500000  1
  P  P5  1  0.629219  0.987414  0.000000  1
  P  P6  1  0.358195  0.370781  0.000000  1
  P  P7  1  0.012586  0.641805  0.000000  1
  P  P8  1  0.695294  0.528868  0.500000  1
  P  P9  1  0.833575  0.304706  0.500000  1
  P  P10  1  0.309260  0.830768  0.500000  1
  P  P11  1  0.521507  0.690740  0.500000  1
  P  P12  1  0.182115  0.001440  0.000000  1
  P  P13  1  0.819325  0.817885  0.000000  1
  P  P14  1  0.998560  0.180675  0.000000  1
  P  P15  1  0.471132  0.166425  0.500000  1
  P  P16  1  0.169232  0.478493  0.500000  1
  Ru  Ru17  1  0.623195  0.801228  0.000000  1
  Ru  Ru18  1  0.178034  0.376805  0.000000  1
  Ru  Ru19  1  0.376255  0.188150  0.000000  1
  Ru  Ru20  1  0.198772  0.821966  0.000000  1
  Ru  Ru21  1  0.811895  0.623745  0.000000  1
  Ru  Ru22  1  0.127006  0.637272  0.500000  1
  Ru  Ru23  1  0.362728  0.489734  0.500000  1
  Ru  Ru24  1  0.510266  0.872994  0.500000  1
  Ru  Ru25  1  0.000000  0.000000  0.000000  1
  Ru  Ru26  1  0.719041  0.717307  0.500000  1
  Ru  Ru27  1  0.998266  0.280959  0.500000  1
  Ru  Ru28  1  0.453266  0.005455  0.000000  1
  Ru  Ru29  1  0.552188  0.546734  0.000000  1
  Ru  Ru30  1  0.994545  0.447812  0.000000  1
  Ru  Ru31  1  0.811850  0.188105  0.000000  1
  Ru  Ru32  1  0.282693  0.001734  0.500000  1
  Pt  Pt33  1  0.867957  0.502560  0.500000  1
  Pt  Pt34  1  0.497440  0.365397  0.500000  1
  Pt  Pt35  1  0.634603  0.132043  0.500000  1
