# generated using pymatgen
data_Nd6ErPI12
_symmetry_space_group_name_H-M   'P 1'
_cell_length_a   9.95817735
_cell_length_b   9.95817804
_cell_length_c   9.95817800
_cell_angle_alpha   107.68479816
_cell_angle_beta   107.68479559
_cell_angle_gamma   107.68479953
_symmetry_Int_Tables_number   1
_chemical_formula_structural   Nd6ErPI12
_chemical_formula_sum   'Nd6 Er1 P1 I12'
_cell_volume   806.54826062
_cell_formula_units_Z   1
loop_
 _symmetry_equiv_pos_site_id
 _symmetry_equiv_pos_as_xyz
  1  'x, y, z'
loop_
 _atom_site_type_symbol
 _atom_site_label
 _atom_site_symmetry_multiplicity
 _atom_site_fract_x
 _atom_site_fract_y
 _atom_site_fract_z
 _atom_site_occupancy
  Nd  Nd0  1  0.099555  0.028116  0.302773  1
  Nd  Nd1  1  0.302773  0.099555  0.028116  1
  Nd  Nd2  1  0.028116  0.302773  0.099555  1
  Nd  Nd3  1  0.900445  0.971884  0.697227  1
  Nd  Nd4  1  0.697227  0.900445  0.971884  1
  Nd  Nd5  1  0.971884  0.697227  0.900445  1
  Er  Er6  1  0.500000  0.500000  0.500000  1
  P  P7  1  0.000000  0.000000  0.000000  1
  I  I8  1  0.071299  0.683179  0.227073  1
  I  I9  1  0.227073  0.071299  0.683179  1
  I  I10  1  0.683179  0.227073  0.071299  1
  I  I11  1  0.928701  0.316821  0.772927  1
  I  I12  1  0.772927  0.928701  0.316821  1
  I  I13  1  0.316821  0.772927  0.928701  1
  I  I14  1  0.468707  0.166813  0.390240  1
  I  I15  1  0.390240  0.468707  0.166813  1
  I  I16  1  0.166813  0.390240  0.468707  1
  I  I17  1  0.531293  0.833187  0.609760  1
  I  I18  1  0.609760  0.531293  0.833187  1
  I  I19  1  0.833187  0.609760  0.531293  1
