# generated using pymatgen
data_CePr7(ThSe5)4
_symmetry_space_group_name_H-M   'P 1'
_cell_length_a   7.96955041
_cell_length_b   8.62738453
_cell_length_c   12.69180414
_cell_angle_alpha   90.01684531
_cell_angle_beta   90.00349908
_cell_angle_gamma   89.96362666
_symmetry_Int_Tables_number   1
_chemical_formula_structural   CePr7(ThSe5)4
_chemical_formula_sum   'Ce1 Pr7 Th4 Se20'
_cell_volume   872.64224084
_cell_formula_units_Z   1
loop_
 _symmetry_equiv_pos_site_id
 _symmetry_equiv_pos_as_xyz
  1  'x, y, z'
loop_
 _atom_site_type_symbol
 _atom_site_label
 _atom_site_symmetry_multiplicity
 _atom_site_fract_x
 _atom_site_fract_y
 _atom_site_fract_z
 _atom_site_occupancy
  Ce  Ce0  1  0.518342  0.499104  0.321230  1
  Pr  Pr1  1  0.981095  0.001299  0.821244  1
  Pr  Pr2  1  0.481117  0.998734  0.678751  1
  Pr  Pr3  1  0.018963  0.501219  0.178720  1
  Pr  Pr4  1  0.481131  0.501277  0.678810  1
  Pr  Pr5  1  0.018868  0.998744  0.178763  1
  Pr  Pr6  1  0.518885  0.001262  0.321235  1
  Pr  Pr7  1  0.981090  0.498691  0.821255  1
  Th  Th8  1  0.076964  0.749940  0.491005  1
  Th  Th9  1  0.423097  0.749964  0.991045  1
  Th  Th10  1  0.922992  0.250025  0.508961  1
  Th  Th11  1  0.576990  0.250030  0.008961  1
  Se  Se12  1  0.837963  0.956342  0.599923  1
  Se  Se13  1  0.661599  0.543527  0.100315  1
  Se  Se14  1  0.162601  0.456193  0.399981  1
  Se  Se15  1  0.338004  0.043660  0.900069  1
  Se  Se16  1  0.161988  0.043620  0.400040  1
  Se  Se17  1  0.338014  0.456356  0.900067  1
  Se  Se18  1  0.838021  0.543647  0.599887  1
  Se  Se19  1  0.661971  0.956306  0.099903  1
  Se  Se20  1  0.826506  0.749804  0.315192  1
  Se  Se21  1  0.673478  0.750011  0.815222  1
  Se  Se22  1  0.173456  0.249970  0.684745  1
  Se  Se23  1  0.326823  0.250313  0.185027  1
  Se  Se24  1  0.458804  0.749705  0.498923  1
  Se  Se25  1  0.041259  0.749998  0.999154  1
  Se  Se26  1  0.541062  0.250271  0.500701  1
  Se  Se27  1  0.958754  0.250053  0.000838  1
  Se  Se28  1  0.200480  0.749986  0.715649  1
  Se  Se29  1  0.299884  0.749639  0.215828  1
  Se  Se30  1  0.799379  0.250340  0.284263  1
  Se  Se31  1  0.700419  0.249968  0.784296  1
