# generated using pymatgen
data_TbDyAl9PtRh2
_symmetry_space_group_name_H-M   'P 1'
_cell_length_a   7.57681107
_cell_length_b   7.57712087
_cell_length_c   9.46355900
_cell_angle_alpha   89.97195760
_cell_angle_beta   89.96926335
_cell_angle_gamma   119.60021148
_symmetry_Int_Tables_number   1
_chemical_formula_structural   TbDyAl9PtRh2
_chemical_formula_sum   'Tb2 Dy2 Al18 Pt2 Rh4'
_cell_volume   472.40130110
_cell_formula_units_Z   2
loop_
 _symmetry_equiv_pos_site_id
 _symmetry_equiv_pos_as_xyz
  1  'x, y, z'
loop_
 _atom_site_type_symbol
 _atom_site_label
 _atom_site_symmetry_multiplicity
 _atom_site_fract_x
 _atom_site_fract_y
 _atom_site_fract_z
 _atom_site_occupancy
  Tb  Tb0  1  0.995287  0.669342  0.749964  1
  Tb  Tb1  1  0.004713  0.330658  0.250036  1
  Dy  Dy2  1  0.669353  0.995300  0.749975  1
  Dy  Dy3  1  0.330647  0.004700  0.250025  1
  Al  Al4  1  0.125775  0.125805  0.750985  1
  Al  Al5  1  0.874225  0.874195  0.249015  1
  Al  Al6  1  0.001005  0.330869  0.577482  1
  Al  Al7  1  0.998995  0.669131  0.422518  1
  Al  Al8  1  0.000394  0.665539  0.074378  1
  Al  Al9  1  0.334546  0.999644  0.925660  1
  Al  Al10  1  0.999606  0.334461  0.925622  1
  Al  Al11  1  0.665454  0.000356  0.074340  1
  Al  Al12  1  0.669052  0.998956  0.422556  1
  Al  Al13  1  0.330948  0.001044  0.577444  1
  Al  Al14  1  0.332036  0.332005  0.051459  1
  Al  Al15  1  0.667964  0.667995  0.948541  1
  Al  Al16  1  0.669298  0.669333  0.556720  1
  Al  Al17  1  0.330702  0.330667  0.443280  1
  Al  Al18  1  0.339805  0.546667  0.753850  1
  Al  Al19  1  0.660195  0.453333  0.246150  1
  Al  Al20  1  0.546630  0.339743  0.753851  1
  Al  Al21  1  0.453370  0.660257  0.246149  1
  Pt  Pt22  1  0.672235  0.327730  0.500000  1
  Pt  Pt23  1  0.327765  0.672270  0.500000  1
  Rh  Rh24  1  0.328002  0.672048  0.999999  1
  Rh  Rh25  1  0.671998  0.327952  0.000001  1
  Rh  Rh26  1  0.000000  0.000000  0.500000  1
  Rh  Rh27  1  0.000000  0.000000  0.000000  1
