# generated using pymatgen
data_Pa4HC3
_symmetry_space_group_name_H-M   'P 1'
_cell_length_a   11.91814328
_cell_length_b   11.91814349
_cell_length_c   11.91814425
_cell_angle_alpha   17.11295331
_cell_angle_beta   17.11295006
_cell_angle_gamma   17.11295252
_symmetry_Int_Tables_number   1
_chemical_formula_structural   Pa4HC3
_chemical_formula_sum   'Pa4 H1 C3'
_cell_volume   127.88640883
_cell_formula_units_Z   1
loop_
 _symmetry_equiv_pos_site_id
 _symmetry_equiv_pos_as_xyz
  1  'x, y, z'
loop_
 _atom_site_type_symbol
 _atom_site_label
 _atom_site_symmetry_multiplicity
 _atom_site_fract_x
 _atom_site_fract_y
 _atom_site_fract_z
 _atom_site_occupancy
  Pa  Pa0  1  0.874955  0.874955  0.874955  1
  Pa  Pa1  1  0.125045  0.125045  0.125045  1
  Pa  Pa2  1  0.376933  0.376933  0.376933  1
  Pa  Pa3  1  0.623067  0.623067  0.623067  1
  H  H4  1  0.000000  0.000000  0.000000  1
  C  C5  1  0.252238  0.252238  0.252238  1
  C  C6  1  0.500000  0.500000  0.500000  1
  C  C7  1  0.747762  0.747762  0.747762  1
