# generated using pymatgen
data_Er17Tm3(CoSb2)4
_symmetry_space_group_name_H-M   'P 1'
_cell_length_a   7.80425507
_cell_length_b   8.73060507
_cell_length_c   12.11031409
_cell_angle_alpha   90.00945860
_cell_angle_beta   89.98951502
_cell_angle_gamma   90.01121391
_symmetry_Int_Tables_number   1
_chemical_formula_structural   Er17Tm3(CoSb2)4
_chemical_formula_sum   'Er17 Tm3 Co4 Sb8'
_cell_volume   825.14673237
_cell_formula_units_Z   1
loop_
 _symmetry_equiv_pos_site_id
 _symmetry_equiv_pos_as_xyz
  1  'x, y, z'
loop_
 _atom_site_type_symbol
 _atom_site_label
 _atom_site_symmetry_multiplicity
 _atom_site_fract_x
 _atom_site_fract_y
 _atom_site_fract_z
 _atom_site_occupancy
  Er  Er0  1  0.157083  0.750103  0.204177  1
  Er  Er1  1  0.657187  0.249830  0.295654  1
  Er  Er2  1  0.842947  0.250063  0.795881  1
  Er  Er3  1  0.342750  0.750046  0.704265  1
  Er  Er4  1  0.450834  0.749922  0.998082  1
  Er  Er5  1  0.951282  0.249868  0.501875  1
  Er  Er6  1  0.549112  0.249870  0.001930  1
  Er  Er7  1  0.049450  0.750242  0.498074  1
  Er  Er8  1  0.622293  0.750152  0.308036  1
  Er  Er9  1  0.122454  0.250107  0.191755  1
  Er  Er10  1  0.377174  0.249726  0.692011  1
  Er  Er11  1  0.877623  0.750064  0.808325  1
  Er  Er12  1  0.676702  0.537192  0.565648  1
  Er  Er13  1  0.176505  0.037323  0.934313  1
  Er  Er14  1  0.676554  0.962689  0.565648  1
  Er  Er15  1  0.823506  0.537175  0.065696  1
  Er  Er16  1  0.323314  0.462744  0.434253  1
  Tm  Tm17  1  0.824070  0.962642  0.065710  1
  Tm  Tm18  1  0.324030  0.037616  0.434231  1
  Tm  Tm19  1  0.175962  0.462651  0.934351  1
  Co  Co20  1  0.431451  0.750198  0.490745  1
  Co  Co21  1  0.932075  0.250081  0.009075  1
  Co  Co22  1  0.567734  0.249732  0.509072  1
  Co  Co23  1  0.067946  0.750094  0.990972  1
  Sb  Sb24  1  0.931268  0.991659  0.327211  1
  Sb  Sb25  1  0.431219  0.008365  0.172701  1
  Sb  Sb26  1  0.069105  0.491597  0.672849  1
  Sb  Sb27  1  0.568602  0.508291  0.827344  1
  Sb  Sb28  1  0.068891  0.008407  0.672775  1
  Sb  Sb29  1  0.568969  0.991546  0.827274  1
  Sb  Sb30  1  0.930863  0.508446  0.327354  1
  Sb  Sb31  1  0.431047  0.491558  0.172711  1
