# generated using pymatgen
data_Cs11KIn2(FeSe6)2
_symmetry_space_group_name_H-M   'P 1'
_cell_length_a   11.23085714
_cell_length_b   11.23714141
_cell_length_c   14.26136312
_cell_angle_alpha   89.64556285
_cell_angle_beta   89.93269354
_cell_angle_gamma   140.24995477
_symmetry_Int_Tables_number   1
_chemical_formula_structural   Cs11KIn2(FeSe6)2
_chemical_formula_sum   'Cs11 K1 In2 Fe2 Se12'
_cell_volume   1150.80656233
_cell_formula_units_Z   1
loop_
 _symmetry_equiv_pos_site_id
 _symmetry_equiv_pos_as_xyz
  1  'x, y, z'
loop_
 _atom_site_type_symbol
 _atom_site_label
 _atom_site_symmetry_multiplicity
 _atom_site_fract_x
 _atom_site_fract_y
 _atom_site_fract_z
 _atom_site_occupancy
  Cs  Cs0  1  0.145129  0.144552  0.328216  1
  Cs  Cs1  1  0.648410  0.646013  0.164322  1
  Cs  Cs2  1  0.357310  0.355979  0.824640  1
  Cs  Cs3  1  0.161987  0.525152  0.128574  1
  Cs  Cs4  1  0.484459  0.839137  0.874153  1
  Cs  Cs5  1  0.971081  0.334412  0.631023  1
  Cs  Cs6  1  0.661262  0.017223  0.375065  1
  Cs  Cs7  1  0.833028  0.487011  0.873354  1
  Cs  Cs8  1  0.518919  0.165793  0.129933  1
  Cs  Cs9  1  0.013293  0.665329  0.374109  1
  Cs  Cs10  1  0.332355  0.978560  0.633351  1
  K  K11  1  0.840745  0.839131  0.654816  1
  In  In12  1  0.925491  0.088941  0.997404  1
  In  In13  1  0.410637  0.570532  0.503101  1
  Fe  Fe14  1  0.089556  0.923586  0.996744  1
  Fe  Fe15  1  0.572659  0.410346  0.503027  1
  Se  Se16  1  0.279560  0.265982  0.574954  1
  Se  Se17  1  0.704224  0.691001  0.423629  1
  Se  Se18  1  0.215057  0.200310  0.074736  1
  Se  Se19  1  0.823785  0.811649  0.909411  1
  Se  Se20  1  0.688928  0.987481  0.120924  1
  Se  Se21  1  0.023106  0.331924  0.882361  1
  Se  Se22  1  0.521415  0.808560  0.625832  1
  Se  Se23  1  0.181786  0.486897  0.383340  1
  Se  Se24  1  0.307774  0.006841  0.890037  1
  Se  Se25  1  0.001455  0.709453  0.111736  1
  Se  Se26  1  0.500317  0.203325  0.392598  1
  Se  Se27  1  0.786274  0.504883  0.618612  1
