# generated using pymatgen
data_Tb3Mg3Hg2Ge
_symmetry_space_group_name_H-M   'P 1'
_cell_length_a   7.53048300
_cell_length_b   7.53048138
_cell_length_c   4.38413300
_cell_angle_alpha   90.00000000
_cell_angle_beta   90.00000000
_cell_angle_gamma   120.00000272
_symmetry_Int_Tables_number   1
_chemical_formula_structural   Tb3Mg3Hg2Ge
_chemical_formula_sum   'Tb3 Mg3 Hg2 Ge1'
_cell_volume   215.30787370
_cell_formula_units_Z   1
loop_
 _symmetry_equiv_pos_site_id
 _symmetry_equiv_pos_as_xyz
  1  'x, y, z'
loop_
 _atom_site_type_symbol
 _atom_site_label
 _atom_site_symmetry_multiplicity
 _atom_site_fract_x
 _atom_site_fract_y
 _atom_site_fract_z
 _atom_site_occupancy
  Tb  Tb0  1  0.578790  0.006525  0.000000  1
  Tb  Tb1  1  0.993475  0.572262  0.000000  1
  Tb  Tb2  1  0.427738  0.421210  0.000000  1
  Mg  Mg3  1  0.248977  0.000628  0.500000  1
  Mg  Mg4  1  0.999372  0.248349  0.500000  1
  Mg  Mg5  1  0.751651  0.751023  0.500000  1
  Hg  Hg6  1  0.333333  0.666667  0.500000  1
  Hg  Hg7  1  0.000000  0.000000  0.000000  1
  Ge  Ge8  1  0.666667  0.333333  0.500000  1
