# generated using pymatgen
data_Ce9Th(Pb3Cl)2
_symmetry_space_group_name_H-M   'P 1'
_cell_length_a   9.48797400
_cell_length_b   9.48797310
_cell_length_c   6.78948100
_cell_angle_alpha   90.00000000
_cell_angle_beta   90.00000000
_cell_angle_gamma   120.13483379
_symmetry_Int_Tables_number   1
_chemical_formula_structural   Ce9Th(Pb3Cl)2
_chemical_formula_sum   'Ce9 Th1 Pb6 Cl2'
_cell_volume   528.59429292
_cell_formula_units_Z   1
loop_
 _symmetry_equiv_pos_site_id
 _symmetry_equiv_pos_as_xyz
  1  'x, y, z'
loop_
 _atom_site_type_symbol
 _atom_site_label
 _atom_site_symmetry_multiplicity
 _atom_site_fract_x
 _atom_site_fract_y
 _atom_site_fract_z
 _atom_site_occupancy
  Ce  Ce0  1  0.260397  0.998708  0.250000  1
  Ce  Ce1  1  0.739637  0.000202  0.750000  1
  Ce  Ce2  1  0.998708  0.260397  0.250000  1
  Ce  Ce3  1  0.000202  0.739637  0.750000  1
  Ce  Ce4  1  0.738811  0.738811  0.250000  1
  Ce  Ce5  1  0.333793  0.666540  0.999249  1
  Ce  Ce6  1  0.666540  0.333793  0.999249  1
  Ce  Ce7  1  0.666540  0.333793  0.500751  1
  Ce  Ce8  1  0.333793  0.666540  0.500751  1
  Th  Th9  1  0.262507  0.262507  0.750000  1
  Pb  Pb10  1  0.611858  0.999394  0.250000  1
  Pb  Pb11  1  0.388560  0.001009  0.750000  1
  Pb  Pb12  1  0.999394  0.611858  0.250000  1
  Pb  Pb13  1  0.001009  0.388560  0.750000  1
  Pb  Pb14  1  0.386148  0.386148  0.250000  1
  Pb  Pb15  1  0.611677  0.611677  0.750000  1
  Cl  Cl16  1  0.000214  0.000214  0.999234  1
  Cl  Cl17  1  0.000214  0.000214  0.500766  1
