# generated using pymatgen
data_Ho8Ta11Si16Os
_symmetry_space_group_name_H-M   'P 1'
_cell_length_a   7.01058999
_cell_length_b   6.99644038
_cell_length_c   12.96976946
_cell_angle_alpha   90.03652491
_cell_angle_beta   89.68383043
_cell_angle_gamma   89.90097599
_symmetry_Int_Tables_number   1
_chemical_formula_structural   Ho8Ta11Si16Os
_chemical_formula_sum   'Ho8 Ta11 Si16 Os1'
_cell_volume   636.14572177
_cell_formula_units_Z   1
loop_
 _symmetry_equiv_pos_site_id
 _symmetry_equiv_pos_as_xyz
  1  'x, y, z'
loop_
 _atom_site_type_symbol
 _atom_site_label
 _atom_site_symmetry_multiplicity
 _atom_site_fract_x
 _atom_site_fract_y
 _atom_site_fract_z
 _atom_site_occupancy
  Ho  Ho0  1  0.341347  0.002385  0.469856  1
  Ho  Ho1  1  0.500382  0.841042  0.717703  1
  Ho  Ho2  1  0.501640  0.159007  0.217807  1
  Ho  Ho3  1  0.841489  0.498532  0.283278  1
  Ho  Ho4  1  0.157686  0.502275  0.781183  1
  Ho  Ho5  1  0.659100  0.997804  0.966734  1
  Ho  Ho6  1  0.002017  0.340895  0.532157  1
  Ho  Ho7  1  0.998610  0.658934  0.031316  1
  Ta  Ta8  1  0.329816  0.330127  0.999888  1
  Ta  Ta9  1  0.172044  0.829166  0.250700  1
  Ta  Ta10  1  0.828784  0.174696  0.750004  1
  Ta  Ta11  1  0.668125  0.671791  0.499166  1
  Ta  Ta12  1  0.153378  0.004456  0.873630  1
  Ta  Ta13  1  0.493219  0.653611  0.124222  1
  Ta  Ta14  1  0.506076  0.345472  0.624369  1
  Ta  Ta15  1  0.656599  0.495063  0.874593  1
  Ta  Ta16  1  0.342511  0.510428  0.377637  1
  Ta  Ta17  1  0.845449  0.994384  0.373553  1
  Ta  Ta18  1  0.007052  0.153469  0.125646  1
  Si  Si19  1  0.197486  0.126680  0.682573  1
  Si  Si20  1  0.365935  0.703077  0.931499  1
  Si  Si21  1  0.631710  0.296649  0.433359  1
  Si  Si22  1  0.705219  0.366530  0.067820  1
  Si  Si23  1  0.292529  0.633735  0.569006  1
  Si  Si24  1  0.796843  0.865584  0.181980  1
  Si  Si25  1  0.134964  0.203058  0.318355  1
  Si  Si26  1  0.867501  0.799379  0.815565  1
  Si  Si27  1  0.295023  0.955275  0.063191  1
  Si  Si28  1  0.544829  0.794509  0.313140  1
  Si  Si29  1  0.454451  0.206951  0.813508  1
  Si  Si30  1  0.794234  0.547781  0.684677  1
  Si  Si31  1  0.204680  0.455828  0.186406  1
  Si  Si32  1  0.714031  0.039964  0.563375  1
  Si  Si33  1  0.956137  0.294261  0.936842  1
  Si  Si34  1  0.040512  0.708239  0.438842  1
  Os  Os35  1  0.998590  0.838967  0.626418  1
