# generated using pymatgen
data_CaCe(SiRh2)2
_symmetry_space_group_name_H-M   'P 1'
_cell_length_a   9.04914901
_cell_length_b   9.04914987
_cell_length_c   4.13296400
_cell_angle_alpha   90.00000000
_cell_angle_beta   90.00000000
_cell_angle_gamma   154.39952283
_symmetry_Int_Tables_number   1
_chemical_formula_structural   CaCe(SiRh2)2
_chemical_formula_sum   'Ca1 Ce1 Si2 Rh4'
_cell_volume   146.23611284
_cell_formula_units_Z   1
loop_
 _symmetry_equiv_pos_site_id
 _symmetry_equiv_pos_as_xyz
  1  'x, y, z'
loop_
 _atom_site_type_symbol
 _atom_site_label
 _atom_site_symmetry_multiplicity
 _atom_site_fract_x
 _atom_site_fract_y
 _atom_site_fract_z
 _atom_site_occupancy
  Ca  Ca0  1  0.100350  0.899650  0.750000  1
  Ce  Ce1  1  0.907595  0.092405  0.250000  1
  Si  Si2  1  0.320051  0.679949  0.750000  1
  Si  Si3  1  0.677271  0.322729  0.250000  1
  Rh  Rh4  1  0.544735  0.455265  0.250000  1
  Rh  Rh5  1  0.451799  0.548201  0.750000  1
  Rh  Rh6  1  0.249541  0.750459  0.250000  1
  Rh  Rh7  1  0.748657  0.251343  0.750000  1
