# generated using pymatgen
data_Er13Tm7(Ir2Rh)4
_symmetry_space_group_name_H-M   'P 1'
_cell_length_a   10.75575100
_cell_length_b   10.75444301
_cell_length_c   6.32581300
_cell_angle_alpha   90.00360317
_cell_angle_beta   89.99764527
_cell_angle_gamma   89.99946731
_symmetry_Int_Tables_number   1
_chemical_formula_structural   Er13Tm7(Ir2Rh)4
_chemical_formula_sum   'Er13 Tm7 Ir8 Rh4'
_cell_volume   731.72014278
_cell_formula_units_Z   1
loop_
 _symmetry_equiv_pos_site_id
 _symmetry_equiv_pos_as_xyz
  1  'x, y, z'
loop_
 _atom_site_type_symbol
 _atom_site_label
 _atom_site_symmetry_multiplicity
 _atom_site_fract_x
 _atom_site_fract_y
 _atom_site_fract_z
 _atom_site_occupancy
  Er  Er0  1  0.290260  0.088433  0.378028  1
  Er  Er1  1  0.290284  0.911577  0.877906  1
  Er  Er2  1  0.709724  0.088429  0.878012  1
  Er  Er3  1  0.709663  0.911669  0.378103  1
  Er  Er4  1  0.588330  0.790341  0.878027  1
  Er  Er5  1  0.588373  0.209655  0.378123  1
  Er  Er6  1  0.411594  0.790387  0.378145  1
  Er  Er7  1  0.411625  0.209637  0.878087  1
  Er  Er8  1  0.209499  0.411667  0.621841  1
  Er  Er9  1  0.209568  0.588298  0.121958  1
  Er  Er10  1  0.790497  0.411554  0.121936  1
  Er  Er11  1  0.790457  0.588236  0.621829  1
  Er  Er12  1  0.911777  0.709699  0.121964  1
  Tm  Tm13  1  0.911780  0.290526  0.621780  1
  Tm  Tm14  1  0.088276  0.709465  0.621785  1
  Tm  Tm15  1  0.088212  0.290513  0.121781  1
  Tm  Tm16  1  0.000013  0.000015  0.500119  1
  Tm  Tm17  1  0.000052  0.000114  0.000051  1
  Tm  Tm18  1  0.500000  0.499978  0.000073  1
  Tm  Tm19  1  0.500005  0.499986  0.500070  1
  Ir  Ir20  1  0.846390  0.153943  0.250210  1
  Ir  Ir21  1  0.846334  0.846142  0.749902  1
  Ir  Ir22  1  0.153604  0.153958  0.750208  1
  Ir  Ir23  1  0.153747  0.846102  0.250272  1
  Ir  Ir24  1  0.653954  0.346145  0.749893  1
  Ir  Ir25  1  0.653794  0.653820  0.249976  1
  Ir  Ir26  1  0.346035  0.346138  0.249892  1
  Ir  Ir27  1  0.346037  0.653864  0.749907  1
  Rh  Rh28  1  0.499990  0.999998  0.122962  1
  Rh  Rh29  1  0.499995  0.000002  0.622978  1
  Rh  Rh30  1  0.000064  0.499839  0.876960  1
  Rh  Rh31  1  0.000069  0.499869  0.377223  1
