# generated using pymatgen
data_GaSbTeCl4
_symmetry_space_group_name_H-M   'P 1'
_cell_length_a   10.62892534
_cell_length_b   10.62892485
_cell_length_c   10.62892471
_cell_angle_alpha   107.52199721
_cell_angle_beta   107.52199903
_cell_angle_gamma   113.44422290
_symmetry_Int_Tables_number   1
_chemical_formula_structural   GaSbTeCl4
_chemical_formula_sum   'Ga4 Sb4 Te4 Cl16'
_cell_volume   921.01272176
_cell_formula_units_Z   4
loop_
 _symmetry_equiv_pos_site_id
 _symmetry_equiv_pos_as_xyz
  1  'x, y, z'
loop_
 _atom_site_type_symbol
 _atom_site_label
 _atom_site_symmetry_multiplicity
 _atom_site_fract_x
 _atom_site_fract_y
 _atom_site_fract_z
 _atom_site_occupancy
  Ga  Ga0  1  0.342644  0.115576  0.377616  1
  Ga  Ga1  1  0.884424  0.262041  0.227069  1
  Ga  Ga2  1  0.034972  0.657356  0.772931  1
  Ga  Ga3  1  0.737959  0.965028  0.622384  1
  Sb  Sb4  1  0.533383  0.430830  0.212019  1
  Sb  Sb5  1  0.569170  0.781187  0.102554  1
  Sb  Sb6  1  0.678635  0.466617  0.897446  1
  Sb  Sb7  1  0.218813  0.321365  0.787981  1
  Te  Te8  1  0.785179  0.686859  0.205629  1
  Te  Te9  1  0.420450  0.214821  0.901681  1
  Te  Te10  1  0.481231  0.579550  0.794371  1
  Te  Te11  1  0.313141  0.518769  0.098319  1
  Cl  Cl12  1  0.784415  0.024954  0.452215  1
  Cl  Cl13  1  0.572738  0.332199  0.547785  1
  Cl  Cl14  1  0.918304  0.401288  0.107776  1
  Cl  Cl15  1  0.975046  0.427262  0.759463  1
  Cl  Cl16  1  0.932517  0.741882  0.910026  1
  Cl  Cl17  1  0.189473  0.081696  0.482985  1
  Cl  Cl18  1  0.345077  0.904552  0.288636  1
  Cl  Cl19  1  0.095448  0.384084  0.440525  1
  Cl  Cl20  1  0.598712  0.706488  0.517015  1
  Cl  Cl21  1  0.258118  0.168143  0.190634  1
  Cl  Cl22  1  0.293512  0.810527  0.892224  1
  Cl  Cl23  1  0.943559  0.654923  0.559475  1
  Cl  Cl24  1  0.977509  0.067483  0.809366  1
  Cl  Cl25  1  0.831857  0.022491  0.089974  1
  Cl  Cl26  1  0.667801  0.215585  0.240537  1
  Cl  Cl27  1  0.615916  0.056441  0.711364  1
