# generated using pymatgen
data_Ca3Yb5(AgPb)4
_symmetry_space_group_name_H-M   'P 1'
_cell_length_a   7.75728500
_cell_length_b   5.30145100
_cell_length_c   10.60298900
_cell_angle_alpha   90.00000000
_cell_angle_beta   89.99788914
_cell_angle_gamma   90.00000000
_symmetry_Int_Tables_number   1
_chemical_formula_structural   Ca3Yb5(AgPb)4
_chemical_formula_sum   'Ca3 Yb5 Ag4 Pb4'
_cell_volume   436.04650508
_cell_formula_units_Z   1
loop_
 _symmetry_equiv_pos_site_id
 _symmetry_equiv_pos_as_xyz
  1  'x, y, z'
loop_
 _atom_site_type_symbol
 _atom_site_label
 _atom_site_symmetry_multiplicity
 _atom_site_fract_x
 _atom_site_fract_y
 _atom_site_fract_z
 _atom_site_occupancy
  Ca  Ca0  1  0.999800  0.750000  0.624782  1
  Ca  Ca1  1  0.500083  0.249999  0.875193  1
  Ca  Ca2  1  0.999749  0.249999  0.875020  1
  Yb  Yb3  1  0.000242  0.750000  0.125454  1
  Yb  Yb4  1  0.500316  0.750000  0.125578  1
  Yb  Yb5  1  0.000177  0.249999  0.374714  1
  Yb  Yb6  1  0.500059  0.249999  0.374705  1
  Yb  Yb7  1  0.499753  0.750000  0.624589  1
  Ag  Ag8  1  0.750140  0.249999  0.129386  1
  Ag  Ag9  1  0.252096  0.750000  0.372877  1
  Ag  Ag10  1  0.745591  0.249999  0.620123  1
  Ag  Ag11  1  0.252028  0.750000  0.877427  1
  Pb  Pb12  1  0.250210  0.249999  0.126449  1
  Pb  Pb13  1  0.749178  0.750000  0.374386  1
  Pb  Pb14  1  0.251752  0.249999  0.623260  1
  Pb  Pb15  1  0.748826  0.750000  0.876059  1
