# generated using pymatgen
data_BaSe27
_symmetry_space_group_name_H-M   'P 1'
_cell_length_a   14.58957963
_cell_length_b   14.58958074
_cell_length_c   14.58958063
_cell_angle_alpha   118.14115978
_cell_angle_beta   118.14116575
_cell_angle_gamma   118.14116151
_symmetry_Int_Tables_number   1
_chemical_formula_structural   BaSe27
_chemical_formula_sum   'Ba1 Se27'
_cell_volume   1088.32255719
_cell_formula_units_Z   1
loop_
 _symmetry_equiv_pos_site_id
 _symmetry_equiv_pos_as_xyz
  1  'x, y, z'
loop_
 _atom_site_type_symbol
 _atom_site_label
 _atom_site_symmetry_multiplicity
 _atom_site_fract_x
 _atom_site_fract_y
 _atom_site_fract_z
 _atom_site_occupancy
  Ba  Ba0  1  0.447074  0.447074  0.447074  1
  Se  Se1  1  0.021043  0.647404  0.647404  1
  Se  Se2  1  0.647404  0.647404  0.021043  1
  Se  Se3  1  0.647404  0.021043  0.647404  1
  Se  Se4  1  0.237846  0.873955  0.721761  1
  Se  Se5  1  0.873955  0.721761  0.237846  1
  Se  Se6  1  0.721761  0.237846  0.873955  1
  Se  Se7  1  0.873955  0.237846  0.721761  1
  Se  Se8  1  0.237846  0.721761  0.873955  1
  Se  Se9  1  0.721761  0.873955  0.237846  1
  Se  Se10  1  0.098516  0.639139  0.427505  1
  Se  Se11  1  0.639139  0.427505  0.098516  1
  Se  Se12  1  0.427505  0.098516  0.639139  1
  Se  Se13  1  0.639139  0.098516  0.427505  1
  Se  Se14  1  0.098516  0.427505  0.639139  1
  Se  Se15  1  0.427505  0.639139  0.098516  1
  Se  Se16  1  0.365745  0.738761  0.587397  1
  Se  Se17  1  0.738761  0.587397  0.365745  1
  Se  Se18  1  0.587397  0.365745  0.738761  1
  Se  Se19  1  0.738761  0.365745  0.587397  1
  Se  Se20  1  0.365745  0.587397  0.738761  1
  Se  Se21  1  0.587397  0.738761  0.365745  1
  Se  Se22  1  0.191080  0.436429  0.436429  1
  Se  Se23  1  0.436429  0.436429  0.191080  1
  Se  Se24  1  0.436429  0.191080  0.436429  1
  Se  Se25  1  0.015572  0.911709  0.911709  1
  Se  Se26  1  0.911709  0.911709  0.015572  1
  Se  Se27  1  0.911709  0.015572  0.911709  1
