# generated using pymatgen
data_Sr8FeMo3O16
_symmetry_space_group_name_H-M   'P 1'
_cell_length_a   5.69970252
_cell_length_b   5.69968182
_cell_length_c   12.75455663
_cell_angle_alpha   89.93961099
_cell_angle_beta   90.06114533
_cell_angle_gamma   89.27134124
_symmetry_Int_Tables_number   1
_chemical_formula_structural   Sr8FeMo3O16
_chemical_formula_sum   'Sr8 Fe1 Mo3 O16'
_cell_volume   414.31680758
_cell_formula_units_Z   1
loop_
 _symmetry_equiv_pos_site_id
 _symmetry_equiv_pos_as_xyz
  1  'x, y, z'
loop_
 _atom_site_type_symbol
 _atom_site_label
 _atom_site_symmetry_multiplicity
 _atom_site_fract_x
 _atom_site_fract_y
 _atom_site_fract_z
 _atom_site_occupancy
  Sr  Sr0  1  0.261885  0.758067  0.104566  1
  Sr  Sr1  1  0.261371  0.238627  0.600474  1
  Sr  Sr2  1  0.740047  0.759949  0.597761  1
  Sr  Sr3  1  0.741931  0.238115  0.104568  1
  Sr  Sr4  1  0.758069  0.261885  0.395432  1
  Sr  Sr5  1  0.759953  0.740051  0.902239  1
  Sr  Sr6  1  0.238629  0.261373  0.899526  1
  Sr  Sr7  1  0.238115  0.741933  0.395434  1
  Fe  Fe8  1  0.750000  0.750000  0.250000  1
  Mo  Mo9  1  0.250000  0.750000  0.750000  1
  Mo  Mo10  1  0.250000  0.250000  0.250000  1
  Mo  Mo11  1  0.750000  0.250000  0.750000  1
  O  O12  1  0.277487  0.222514  0.089805  1
  O  O13  1  0.282738  0.783777  0.585338  1
  O  O14  1  0.499453  0.000510  0.779581  1
  O  O15  1  0.490891  0.009112  0.267215  1
  O  O16  1  0.499531  0.499525  0.750004  1
  O  O17  1  0.499459  0.499455  0.250000  1
  O  O18  1  0.716231  0.217278  0.585357  1
  O  O19  1  0.719396  0.780603  0.091335  1
  O  O20  1  0.783769  0.282722  0.914643  1
  O  O21  1  0.780604  0.719397  0.408665  1
  O  O22  1  0.000541  0.000545  0.250000  1
  O  O23  1  0.009109  0.490888  0.232785  1
  O  O24  1  0.000469  0.000475  0.749996  1
  O  O25  1  0.000547  0.499490  0.720419  1
  O  O26  1  0.217262  0.716223  0.914662  1
  O  O27  1  0.222513  0.277486  0.410195  1
