# generated using pymatgen
data_Ho16Hf4IrRh11
_symmetry_space_group_name_H-M   'P 1'
_cell_length_a   10.81213332
_cell_length_b   10.81213332
_cell_length_c   6.19448935
_cell_angle_alpha   90.02712108
_cell_angle_beta   90.02712108
_cell_angle_gamma   89.99437963
_symmetry_Int_Tables_number   1
_chemical_formula_structural   Ho16Hf4IrRh11
_chemical_formula_sum   'Ho16 Hf4 Ir1 Rh11'
_cell_volume   724.14943307
_cell_formula_units_Z   1
loop_
 _symmetry_equiv_pos_site_id
 _symmetry_equiv_pos_as_xyz
  1  'x, y, z'
loop_
 _atom_site_type_symbol
 _atom_site_label
 _atom_site_symmetry_multiplicity
 _atom_site_fract_x
 _atom_site_fract_y
 _atom_site_fract_z
 _atom_site_occupancy
  Ho  Ho0  1  0.288491  0.086097  0.374888  1
  Ho  Ho1  1  0.288900  0.912218  0.874590  1
  Ho  Ho2  1  0.711438  0.086106  0.874875  1
  Ho  Ho3  1  0.711449  0.913676  0.374913  1
  Ho  Ho4  1  0.584781  0.788096  0.874729  1
  Ho  Ho5  1  0.586120  0.211612  0.375401  1
  Ho  Ho6  1  0.413635  0.788004  0.375645  1
  Ho  Ho7  1  0.413656  0.211336  0.874815  1
  Ho  Ho8  1  0.211904  0.415219  0.625271  1
  Ho  Ho9  1  0.211996  0.586365  0.124355  1
  Ho  Ho10  1  0.788388  0.413880  0.124599  1
  Ho  Ho11  1  0.788664  0.586344  0.625185  1
  Ho  Ho12  1  0.913903  0.711509  0.125112  1
  Ho  Ho13  1  0.913894  0.288562  0.625125  1
  Ho  Ho14  1  0.087782  0.711100  0.625410  1
  Ho  Ho15  1  0.086324  0.288551  0.125087  1
  Hf  Hf16  1  0.000041  0.000001  0.500169  1
  Hf  Hf17  1  0.999999  0.999959  0.999831  1
  Hf  Hf18  1  0.499605  0.500309  0.999685  1
  Hf  Hf19  1  0.499691  0.500395  0.500315  1
  Ir  Ir20  1  0.356174  0.643826  0.750000  1
  Rh  Rh21  1  0.856258  0.143742  0.250000  1
  Rh  Rh22  1  0.856277  0.856418  0.749966  1
  Rh  Rh23  1  0.143582  0.143723  0.750034  1
  Rh  Rh24  1  0.143256  0.856744  0.250000  1
  Rh  Rh25  1  0.643715  0.356285  0.750000  1
  Rh  Rh26  1  0.644621  0.643790  0.250283  1
  Rh  Rh27  1  0.356210  0.355379  0.249717  1
  Rh  Rh28  1  0.500174  0.000394  0.121890  1
  Rh  Rh29  1  0.500180  0.000716  0.621303  1
  Rh  Rh30  1  0.999284  0.499820  0.878697  1
  Rh  Rh31  1  0.999606  0.499826  0.378110  1
