# generated using pymatgen
data_Pr16Cd3AgIr4
_symmetry_space_group_name_H-M   'P 1'
_cell_length_a   10.03348978
_cell_length_b   10.03348921
_cell_length_c   10.03349002
_cell_angle_alpha   60.00648154
_cell_angle_beta   60.00648685
_cell_angle_gamma   60.00648159
_symmetry_Int_Tables_number   1
_chemical_formula_structural   Pr16Cd3AgIr4
_chemical_formula_sum   'Pr16 Cd3 Ag1 Ir4'
_cell_volume   714.33981454
_cell_formula_units_Z   1
loop_
 _symmetry_equiv_pos_site_id
 _symmetry_equiv_pos_as_xyz
  1  'x, y, z'
loop_
 _atom_site_type_symbol
 _atom_site_label
 _atom_site_symmetry_multiplicity
 _atom_site_fract_x
 _atom_site_fract_y
 _atom_site_fract_z
 _atom_site_occupancy
  Pr  Pr0  1  0.347685  0.347685  0.347685  1
  Pr  Pr1  1  0.348636  0.348636  0.954178  1
  Pr  Pr2  1  0.348636  0.954178  0.348636  1
  Pr  Pr3  1  0.954178  0.348636  0.348636  1
  Pr  Pr4  1  0.809363  0.190636  0.190636  1
  Pr  Pr5  1  0.190364  0.808846  0.808846  1
  Pr  Pr6  1  0.190636  0.809363  0.190636  1
  Pr  Pr7  1  0.808846  0.190364  0.808846  1
  Pr  Pr8  1  0.190636  0.190636  0.809363  1
  Pr  Pr9  1  0.808846  0.808846  0.190364  1
  Pr  Pr10  1  0.936732  0.561513  0.561513  1
  Pr  Pr11  1  0.560996  0.938469  0.938469  1
  Pr  Pr12  1  0.561513  0.936732  0.561513  1
  Pr  Pr13  1  0.938469  0.560996  0.938469  1
  Pr  Pr14  1  0.561513  0.561513  0.936732  1
  Pr  Pr15  1  0.938469  0.938469  0.560996  1
  Cd  Cd16  1  0.579781  0.579781  0.262158  1
  Cd  Cd17  1  0.579781  0.262158  0.579781  1
  Cd  Cd18  1  0.262158  0.579781  0.579781  1
  Ag  Ag19  1  0.581229  0.581229  0.581229  1
  Ir  Ir20  1  0.141497  0.141497  0.141497  1
  Ir  Ir21  1  0.142085  0.142085  0.575863  1
  Ir  Ir22  1  0.142085  0.575863  0.142085  1
  Ir  Ir23  1  0.575863  0.142085  0.142085  1
