# generated using pymatgen
data_Nd4ThB6
_symmetry_space_group_name_H-M   'P 1'
_cell_length_a   3.78824900
_cell_length_b   17.90704387
_cell_length_c   17.90704568
_cell_angle_alpha   169.87759604
_cell_angle_beta   90.00000000
_cell_angle_gamma   90.00000000
_symmetry_Int_Tables_number   1
_chemical_formula_structural   Nd4ThB6
_chemical_formula_sum   'Nd4 Th1 B6'
_cell_volume   213.49407730
_cell_formula_units_Z   1
loop_
 _symmetry_equiv_pos_site_id
 _symmetry_equiv_pos_as_xyz
  1  'x, y, z'
loop_
 _atom_site_type_symbol
 _atom_site_label
 _atom_site_symmetry_multiplicity
 _atom_site_fract_x
 _atom_site_fract_y
 _atom_site_fract_z
 _atom_site_occupancy
  Nd  Nd0  1  0.499999  0.795845  0.204152  1
  Nd  Nd1  1  0.000000  0.597700  0.402297  1
  Nd  Nd2  1  0.000000  0.402297  0.597700  1
  Nd  Nd3  1  0.499999  0.204152  0.795845  1
  Th  Th4  1  0.000000  0.000000  0.000000  1
  B  B5  1  0.499999  0.943319  0.056677  1
  B  B6  1  0.000000  0.743289  0.256708  1
  B  B7  1  0.499999  0.543439  0.456557  1
  B  B8  1  0.499999  0.456557  0.543439  1
  B  B9  1  0.000000  0.256708  0.743289  1
  B  B10  1  0.499999  0.056677  0.943319  1
