# generated using pymatgen
data_Ho10Ir5Os
_symmetry_space_group_name_H-M   'P 1'
_cell_length_a   10.81960500
_cell_length_b   10.81960500
_cell_length_c   6.38521000
_cell_angle_alpha   90.00000000
_cell_angle_beta   90.00000000
_cell_angle_gamma   90.00000000
_symmetry_Int_Tables_number   1
_chemical_formula_structural   Ho10Ir5Os
_chemical_formula_sum   'Ho20 Ir10 Os2'
_cell_volume   747.47728070
_cell_formula_units_Z   2
loop_
 _symmetry_equiv_pos_site_id
 _symmetry_equiv_pos_as_xyz
  1  'x, y, z'
loop_
 _atom_site_type_symbol
 _atom_site_label
 _atom_site_symmetry_multiplicity
 _atom_site_fract_x
 _atom_site_fract_y
 _atom_site_fract_z
 _atom_site_occupancy
  Ho  Ho0  1  0.294049  0.086297  0.377228  1
  Ho  Ho1  1  0.294049  0.913703  0.877228  1
  Ho  Ho2  1  0.705951  0.086297  0.877228  1
  Ho  Ho3  1  0.705951  0.913703  0.377228  1
  Ho  Ho4  1  0.586297  0.794049  0.877228  1
  Ho  Ho5  1  0.586297  0.205951  0.377228  1
  Ho  Ho6  1  0.413703  0.794049  0.377228  1
  Ho  Ho7  1  0.413703  0.205951  0.877228  1
  Ho  Ho8  1  0.209223  0.412091  0.621906  1
  Ho  Ho9  1  0.209223  0.587909  0.121906  1
  Ho  Ho10  1  0.790777  0.412091  0.121906  1
  Ho  Ho11  1  0.790777  0.587909  0.621906  1
  Ho  Ho12  1  0.912091  0.709223  0.121906  1
  Ho  Ho13  1  0.912091  0.290777  0.621906  1
  Ho  Ho14  1  0.087909  0.709223  0.621906  1
  Ho  Ho15  1  0.087909  0.290777  0.121906  1
  Ho  Ho16  1  0.000000  0.000000  0.499421  1
  Ho  Ho17  1  0.000000  0.000000  0.999421  1
  Ho  Ho18  1  0.500000  0.500000  0.999421  1
  Ho  Ho19  1  0.500000  0.500000  0.499421  1
  Ir  Ir20  1  0.848260  0.153784  0.250358  1
  Ir  Ir21  1  0.848260  0.846216  0.750358  1
  Ir  Ir22  1  0.151740  0.153784  0.750358  1
  Ir  Ir23  1  0.151740  0.846216  0.250358  1
  Ir  Ir24  1  0.653784  0.348260  0.750358  1
  Ir  Ir25  1  0.653784  0.651740  0.250358  1
  Ir  Ir26  1  0.346216  0.348260  0.250358  1
  Ir  Ir27  1  0.346216  0.651740  0.750358  1
  Ir  Ir28  1  0.000000  0.500000  0.879841  1
  Ir  Ir29  1  0.000000  0.500000  0.379841  1
  Os  Os30  1  0.500000  0.000000  0.123351  1
  Os  Os31  1  0.500000  0.000000  0.623351  1
