# generated using pymatgen
data_BaDyLuSi3O10
_symmetry_space_group_name_H-M   'P 1'
_cell_length_a   12.31764400
_cell_length_b   5.43140607
_cell_length_c   6.87220841
_cell_angle_alpha   73.49072328
_cell_angle_beta   90.00000000
_cell_angle_gamma   90.00000000
_symmetry_Int_Tables_number   1
_chemical_formula_structural   BaDyLuSi3O10
_chemical_formula_sum   'Ba2 Dy2 Lu2 Si6 O20'
_cell_volume   440.81094782
_cell_formula_units_Z   2
loop_
 _symmetry_equiv_pos_site_id
 _symmetry_equiv_pos_as_xyz
  1  'x, y, z'
loop_
 _atom_site_type_symbol
 _atom_site_label
 _atom_site_symmetry_multiplicity
 _atom_site_fract_x
 _atom_site_fract_y
 _atom_site_fract_z
 _atom_site_occupancy
  Ba  Ba0  1  0.250936  0.240713  0.014479  1
  Ba  Ba1  1  0.750936  0.759287  0.985521  1
  Dy  Dy2  1  0.099438  0.845786  0.681190  1
  Dy  Dy3  1  0.599438  0.154214  0.318810  1
  Lu  Lu4  1  0.899365  0.154667  0.318933  1
  Lu  Lu5  1  0.399365  0.845333  0.681067  1
  Si  Si6  1  0.251725  0.422351  0.485293  1
  Si  Si7  1  0.751725  0.577649  0.514707  1
  Si  Si8  1  0.058334  0.692765  0.214278  1
  Si  Si9  1  0.558334  0.307235  0.785722  1
  Si  Si10  1  0.940207  0.301780  0.790006  1
  Si  Si11  1  0.440207  0.698220  0.209994  1
  O  O12  1  0.252491  0.635474  0.611531  1
  O  O13  1  0.752491  0.364526  0.388469  1
  O  O14  1  0.253427  0.126302  0.632237  1
  O  O15  1  0.753427  0.873698  0.367763  1
  O  O16  1  0.143189  0.454797  0.339045  1
  O  O17  1  0.643189  0.545203  0.660955  1
  O  O18  1  0.856077  0.544181  0.671071  1
  O  O19  1  0.356077  0.455819  0.328929  1
  O  O20  1  0.945548  0.549427  0.193160  1
  O  O21  1  0.445548  0.450573  0.806840  1
  O  O22  1  0.056200  0.436214  0.806250  1
  O  O23  1  0.556200  0.563786  0.193750  1
  O  O24  1  0.119293  0.839909  0.002643  1
  O  O25  1  0.619293  0.160091  0.997357  1
  O  O26  1  0.881828  0.154921  0.004683  1
  O  O27  1  0.381828  0.845079  0.995317  1
  O  O28  1  0.042607  0.894558  0.353221  1
  O  O29  1  0.542607  0.105442  0.646779  1
  O  O30  1  0.949337  0.105738  0.644557  1
  O  O31  1  0.449337  0.894262  0.355443  1
