# generated using pymatgen
data_Ho4Zr3TiIr4
_symmetry_space_group_name_H-M   'P 1'
_cell_length_a   4.51045700
_cell_length_b   7.04987799
_cell_length_c   8.25168812
_cell_angle_alpha   89.80975237
_cell_angle_beta   90.00000000
_cell_angle_gamma   90.00000000
_symmetry_Int_Tables_number   1
_chemical_formula_structural   Ho4Zr3TiIr4
_chemical_formula_sum   'Ho4 Zr3 Ti1 Ir4'
_cell_volume   262.38714762
_cell_formula_units_Z   1
loop_
 _symmetry_equiv_pos_site_id
 _symmetry_equiv_pos_as_xyz
  1  'x, y, z'
loop_
 _atom_site_type_symbol
 _atom_site_label
 _atom_site_symmetry_multiplicity
 _atom_site_fract_x
 _atom_site_fract_y
 _atom_site_fract_z
 _atom_site_occupancy
  Ho  Ho0  1  0.250000  0.025492  0.322220  1
  Ho  Ho1  1  0.250000  0.509864  0.184521  1
  Ho  Ho2  1  0.750000  0.989512  0.670594  1
  Ho  Ho3  1  0.750000  0.482132  0.821979  1
  Zr  Zr4  1  0.250000  0.143518  0.924327  1
  Zr  Zr5  1  0.250000  0.644337  0.573660  1
  Zr  Zr6  1  0.750000  0.852997  0.075058  1
  Ti  Ti7  1  0.750000  0.362212  0.430122  1
  Ir  Ir8  1  0.250000  0.271248  0.585548  1
  Ir  Ir9  1  0.250000  0.763579  0.906713  1
  Ir  Ir10  1  0.750000  0.722752  0.403220  1
  Ir  Ir11  1  0.750000  0.232357  0.102040  1
