# generated using pymatgen
data_Tm5CoRhO12
_symmetry_space_group_name_H-M   'P 1'
_cell_length_a   6.70889081
_cell_length_b   6.70889002
_cell_length_c   7.10752851
_cell_angle_alpha   74.47739887
_cell_angle_beta   74.47739775
_cell_angle_gamma   51.21562659
_symmetry_Int_Tables_number   1
_chemical_formula_structural   Tm5CoRhO12
_chemical_formula_sum   'Tm5 Co1 Rh1 O12'
_cell_volume   238.13397169
_cell_formula_units_Z   1
loop_
 _symmetry_equiv_pos_site_id
 _symmetry_equiv_pos_as_xyz
  1  'x, y, z'
loop_
 _atom_site_type_symbol
 _atom_site_label
 _atom_site_symmetry_multiplicity
 _atom_site_fract_x
 _atom_site_fract_y
 _atom_site_fract_z
 _atom_site_occupancy
  Tm  Tm0  1  0.810485  0.795403  0.358601  1
  Tm  Tm1  1  0.204597  0.189515  0.641399  1
  Tm  Tm2  1  0.192968  0.188781  0.168603  1
  Tm  Tm3  1  0.811219  0.807032  0.831397  1
  Tm  Tm4  1  0.496882  0.503118  0.500000  1
  Co  Co5  1  0.247507  0.752493  0.000000  1
  Rh  Rh6  1  0.738498  0.261502  0.000000  1
  O  O7  1  0.402025  0.922382  0.917536  1
  O  O8  1  0.077618  0.597975  0.082464  1
  O  O9  1  0.596492  0.069337  0.083869  1
  O  O10  1  0.930663  0.403508  0.916131  1
  O  O11  1  0.600340  0.098162  0.573881  1
  O  O12  1  0.901838  0.399660  0.426119  1
  O  O13  1  0.405489  0.901122  0.425506  1
  O  O14  1  0.008429  0.992443  0.814889  1
  O  O15  1  0.007557  0.991571  0.185111  1
  O  O16  1  0.484218  0.515702  0.819648  1
  O  O17  1  0.484298  0.515782  0.180352  1
  O  O18  1  0.098878  0.594511  0.574494  1
