# generated using pymatgen
data_YAl3Cu
_symmetry_space_group_name_H-M   'P 1'
_cell_length_a   4.13302658
_cell_length_b   4.13386718
_cell_length_c   6.10381175
_cell_angle_alpha   70.20657671
_cell_angle_beta   70.21077763
_cell_angle_gamma   90.00000403
_symmetry_Int_Tables_number   1
_chemical_formula_structural   YAl3Cu
_chemical_formula_sum   'Y1 Al3 Cu1'
_cell_volume   91.55251756
_cell_formula_units_Z   1
loop_
 _symmetry_equiv_pos_site_id
 _symmetry_equiv_pos_as_xyz
  1  'x, y, z'
loop_
 _atom_site_type_symbol
 _atom_site_label
 _atom_site_symmetry_multiplicity
 _atom_site_fract_x
 _atom_site_fract_y
 _atom_site_fract_z
 _atom_site_occupancy
  Y  Y0  1  0.994712  0.994712  0.010576  1
  Al  Al1  1  0.400963  0.400963  0.198075  1
  Al  Al2  1  0.742100  0.242100  0.515801  1
  Al  Al3  1  0.242224  0.742224  0.515552  1
  Cu  Cu4  1  0.620002  0.620002  0.759996  1
