# generated using pymatgen
data_Rb6TlSe4Cl
_symmetry_space_group_name_H-M   'P 1'
_cell_length_a   11.13104700
_cell_length_b   11.13104684
_cell_length_c   8.19324300
_cell_angle_alpha   90.00000000
_cell_angle_beta   90.00000000
_cell_angle_gamma   120.00000345
_symmetry_Int_Tables_number   1
_chemical_formula_structural   Rb6TlSe4Cl
_chemical_formula_sum   'Rb12 Tl2 Se8 Cl2'
_cell_volume   879.14088785
_cell_formula_units_Z   2
loop_
 _symmetry_equiv_pos_site_id
 _symmetry_equiv_pos_as_xyz
  1  'x, y, z'
loop_
 _atom_site_type_symbol
 _atom_site_label
 _atom_site_symmetry_multiplicity
 _atom_site_fract_x
 _atom_site_fract_y
 _atom_site_fract_z
 _atom_site_occupancy
  Rb  Rb0  1  0.131431  0.868569  0.515261  1
  Rb  Rb1  1  0.737138  0.868569  0.515261  1
  Rb  Rb2  1  0.948955  0.474477  0.320073  1
  Rb  Rb3  1  0.525523  0.474477  0.320073  1
  Rb  Rb4  1  0.868569  0.737138  0.015261  1
  Rb  Rb5  1  0.262862  0.131431  0.015261  1
  Rb  Rb6  1  0.525523  0.051045  0.320073  1
  Rb  Rb7  1  0.131431  0.262862  0.515261  1
  Rb  Rb8  1  0.868569  0.131431  0.015261  1
  Rb  Rb9  1  0.051045  0.525523  0.820073  1
  Rb  Rb10  1  0.474477  0.948955  0.820073  1
  Rb  Rb11  1  0.474477  0.525523  0.820073  1
  Tl  Tl12  1  0.666667  0.333333  0.707444  1
  Tl  Tl13  1  0.333333  0.666667  0.207444  1
  Se  Se14  1  0.401477  0.200738  0.604248  1
  Se  Se15  1  0.598523  0.799262  0.104248  1
  Se  Se16  1  0.666667  0.333333  0.040377  1
  Se  Se17  1  0.799262  0.598523  0.604248  1
  Se  Se18  1  0.200738  0.401477  0.104248  1
  Se  Se19  1  0.333333  0.666667  0.540377  1
  Se  Se20  1  0.200738  0.799262  0.104248  1
  Se  Se21  1  0.799262  0.200738  0.604248  1
  Cl  Cl22  1  0.000000  0.000000  0.274035  1
  Cl  Cl23  1  0.000000  0.000000  0.774035  1
