# generated using pymatgen
data_Li2LaDySb4
_symmetry_space_group_name_H-M   'P 1'
_cell_length_a   4.32055200
_cell_length_b   4.32055200
_cell_length_c   11.03333100
_cell_angle_alpha   90.00000000
_cell_angle_beta   90.00000000
_cell_angle_gamma   90.00000000
_symmetry_Int_Tables_number   1
_chemical_formula_structural   Li2LaDySb4
_chemical_formula_sum   'Li2 La1 Dy1 Sb4'
_cell_volume   205.96106086
_cell_formula_units_Z   1
loop_
 _symmetry_equiv_pos_site_id
 _symmetry_equiv_pos_as_xyz
  1  'x, y, z'
loop_
 _atom_site_type_symbol
 _atom_site_label
 _atom_site_symmetry_multiplicity
 _atom_site_fract_x
 _atom_site_fract_y
 _atom_site_fract_z
 _atom_site_occupancy
  Li  Li0  1  0.000000  0.000000  0.995467  1
  Li  Li1  1  0.500000  0.500000  0.995467  1
  La  La2  1  0.500000  0.000000  0.265522  1
  Dy  Dy3  1  0.000000  0.500000  0.734739  1
  Sb  Sb4  1  0.000000  0.000000  0.508842  1
  Sb  Sb5  1  0.500000  0.500000  0.508842  1
  Sb  Sb6  1  0.500000  0.000000  0.832691  1
  Sb  Sb7  1  0.000000  0.500000  0.158430  1
