# generated using pymatgen
data_Tb11YAl12V8O48
_symmetry_space_group_name_H-M   'P 1'
_cell_length_a   10.65901376
_cell_length_b   10.67036660
_cell_length_c   10.65893000
_cell_angle_alpha   109.57497247
_cell_angle_beta   109.22828505
_cell_angle_gamma   109.56809948
_symmetry_Int_Tables_number   1
_chemical_formula_structural   Tb11YAl12V8O48
_chemical_formula_sum   'Tb11 Y1 Al12 V8 O48'
_cell_volume   933.70723900
_cell_formula_units_Z   1
loop_
 _symmetry_equiv_pos_site_id
 _symmetry_equiv_pos_as_xyz
  1  'x, y, z'
loop_
 _atom_site_type_symbol
 _atom_site_label
 _atom_site_symmetry_multiplicity
 _atom_site_fract_x
 _atom_site_fract_y
 _atom_site_fract_z
 _atom_site_occupancy
  Tb  Tb0  1  0.374993  0.750032  0.125001  1
  Tb  Tb1  1  0.247849  0.373690  0.124026  1
  Tb  Tb2  1  0.375627  0.126045  0.251859  1
  Tb  Tb3  1  0.873558  0.625831  0.249894  1
  Tb  Tb4  1  0.750028  0.126097  0.373585  1
  Tb  Tb5  1  0.124981  0.250129  0.375475  1
  Tb  Tb6  1  0.250075  0.874048  0.626445  1
  Tb  Tb7  1  0.874950  0.749856  0.624468  1
  Tb  Tb8  1  0.126337  0.374067  0.750010  1
  Tb  Tb9  1  0.624403  0.874043  0.748161  1
  Tb  Tb10  1  0.752108  0.626209  0.875977  1
  Y  Y11  1  0.625002  0.249978  0.875013  1
  Al  Al12  1  0.875210  0.249823  0.125135  1
  Al  Al13  1  0.749711  0.874586  0.124940  1
  Al  Al14  1  0.124599  0.874822  0.249632  1
  Al  Al15  1  0.625024  0.374652  0.249875  1
  Al  Al16  1  0.250448  0.625255  0.375281  1
  Al  Al17  1  0.625377  0.749959  0.375407  1
  Al  Al18  1  0.749557  0.374701  0.624681  1
  Al  Al19  1  0.374798  0.250023  0.624810  1
  Al  Al20  1  0.875419  0.125206  0.750456  1
  Al  Al21  1  0.375018  0.625345  0.750133  1
  Al  Al22  1  0.250314  0.125478  0.875057  1
  Al  Al23  1  0.124588  0.750164  0.874623  1
  V  V24  1  0.000052  0.999887  0.000102  1
  V  V25  1  0.499946  0.999970  0.999969  1
  V  V26  1  0.499987  0.500014  0.999999  1
  V  V27  1  0.999999  0.500008  0.999960  1
  V  V28  1  0.500033  0.000013  0.500011  1
  V  V29  1  0.000225  0.500070  0.500093  1
  V  V30  1  0.000005  0.000079  0.500116  1
  V  V31  1  0.499860  0.499863  0.499934  1
  O  O32  1  0.210059  0.122389  0.023928  1
  O  O33  1  0.315269  0.900005  0.022183  1
  O  O34  1  0.709758  0.685331  0.085911  1
  O  O35  1  0.877395  0.399772  0.084280  1
  O  O36  1  0.975640  0.685556  0.099764  1
  O  O37  1  0.624245  0.413372  0.099703  1
  O  O38  1  0.599605  0.913450  0.124241  1
  O  O39  1  0.025297  0.211436  0.124169  1
  O  O40  1  0.210568  0.586227  0.186245  1
  O  O41  1  0.477690  0.599885  0.184721  1
  O  O42  1  0.585759  0.185350  0.209804  1
  O  O43  1  0.120456  0.022146  0.206663  1
  O  O44  1  0.476601  0.378218  0.291057  1
  O  O45  1  0.313531  0.913661  0.289335  1
  O  O46  1  0.912290  0.288385  0.313479  1
  O  O47  1  0.901318  0.022771  0.314882  1
  O  O48  1  0.293110  0.477708  0.379283  1
  O  O49  1  0.584835  0.900124  0.377806  1
  O  O50  1  0.815098  0.522476  0.401318  1
  O  O51  1  0.086974  0.878766  0.401754  1
  O  O52  1  0.813455  0.787952  0.412013  1
  O  O53  1  0.098267  0.621725  0.412651  1
  O  O54  1  0.375574  0.287622  0.474389  1
  O  O55  1  0.599680  0.185394  0.475524  1
  O  O56  1  0.400289  0.814571  0.524381  1
  O  O57  1  0.624442  0.712345  0.525761  1
  O  O58  1  0.901725  0.378259  0.587195  1
  O  O59  1  0.186668  0.212073  0.588026  1
  O  O60  1  0.913114  0.121316  0.598317  1
  O  O61  1  0.184983  0.477541  0.598694  1
  O  O62  1  0.706900  0.522285  0.620757  1
  O  O63  1  0.415615  0.100082  0.622662  1
  O  O64  1  0.098675  0.977253  0.685132  1
  O  O65  1  0.087725  0.711669  0.686407  1
  O  O66  1  0.686523  0.086475  0.710785  1
  O  O67  1  0.523415  0.621726  0.709060  1
  O  O68  1  0.414171  0.814590  0.790196  1
  O  O69  1  0.879589  0.977849  0.793403  1
  O  O70  1  0.789280  0.413630  0.813667  1
  O  O71  1  0.522582  0.399904  0.815514  1
  O  O72  1  0.974579  0.788494  0.875772  1
  O  O73  1  0.400413  0.086654  0.875702  1
  O  O74  1  0.024456  0.314521  0.900250  1
  O  O75  1  0.375720  0.586510  0.900207  1
  O  O76  1  0.290180  0.314731  0.914085  1
  O  O77  1  0.122099  0.600023  0.915227  1
  O  O78  1  0.684443  0.100198  0.977510  1
  O  O79  1  0.789871  0.877638  0.976065  1
