# generated using pymatgen
data_La2Re3Si2MoC2
_symmetry_space_group_name_H-M   'P 1'
_cell_length_a   5.91474574
_cell_length_b   5.91474553
_cell_length_c   7.52111261
_cell_angle_alpha   88.79477530
_cell_angle_beta   91.20522514
_cell_angle_gamma   140.13974111
_symmetry_Int_Tables_number   1
_chemical_formula_structural   La2Re3Si2MoC2
_chemical_formula_sum   'La2 Re3 Si2 Mo1 C2'
_cell_volume   168.59610857
_cell_formula_units_Z   1
loop_
 _symmetry_equiv_pos_site_id
 _symmetry_equiv_pos_as_xyz
  1  'x, y, z'
loop_
 _atom_site_type_symbol
 _atom_site_label
 _atom_site_symmetry_multiplicity
 _atom_site_fract_x
 _atom_site_fract_y
 _atom_site_fract_z
 _atom_site_occupancy
  La  La0  1  0.541816  0.458184  0.251097  1
  La  La1  1  0.458418  0.541582  0.749230  1
  Re  Re2  1  0.180171  0.819829  0.942551  1
  Re  Re3  1  0.168865  0.831135  0.565975  1
  Re  Re4  1  0.828629  0.171371  0.434577  1
  Si  Si5  1  0.262866  0.737134  0.266442  1
  Si  Si6  1  0.734563  0.265437  0.734684  1
  Mo  Mo7  1  0.822128  0.177872  0.057203  1
  C  C8  1  0.003674  0.996326  0.998640  1
  C  C9  1  0.998871  0.001129  0.499601  1
