# generated using pymatgen
data_Y5HoTm14(Cd3Ru)2
_symmetry_space_group_name_H-M   'P 1'
_cell_length_a   9.53041901
_cell_length_b   9.53041840
_cell_length_c   9.74333200
_cell_angle_alpha   90.00000000
_cell_angle_beta   90.00000000
_cell_angle_gamma   119.99390313
_symmetry_Int_Tables_number   1
_chemical_formula_structural   Y5HoTm14(Cd3Ru)2
_chemical_formula_sum   'Y5 Ho1 Tm14 Cd6 Ru2'
_cell_volume   766.45872692
_cell_formula_units_Z   1
loop_
 _symmetry_equiv_pos_site_id
 _symmetry_equiv_pos_as_xyz
  1  'x, y, z'
loop_
 _atom_site_type_symbol
 _atom_site_label
 _atom_site_symmetry_multiplicity
 _atom_site_fract_x
 _atom_site_fract_y
 _atom_site_fract_z
 _atom_site_occupancy
  Y  Y0  1  0.540424  0.081105  0.250000  1
  Y  Y1  1  0.918895  0.459576  0.250000  1
  Y  Y2  1  0.459580  0.540420  0.750000  1
  Y  Y3  1  0.459557  0.919156  0.750000  1
  Y  Y4  1  0.080844  0.540443  0.750000  1
  Ho  Ho5  1  0.540311  0.459689  0.250000  1
  Tm  Tm6  1  0.000019  0.999981  0.500047  1
  Tm  Tm7  1  0.000019  0.999981  0.999953  1
  Tm  Tm8  1  0.209860  0.790140  0.440119  1
  Tm  Tm9  1  0.210152  0.419744  0.440002  1
  Tm  Tm10  1  0.580256  0.789848  0.440002  1
  Tm  Tm11  1  0.790127  0.209873  0.559938  1
  Tm  Tm12  1  0.789944  0.580187  0.559736  1
  Tm  Tm13  1  0.419813  0.210056  0.559736  1
  Tm  Tm14  1  0.790127  0.209873  0.940062  1
  Tm  Tm15  1  0.789944  0.580187  0.940264  1
  Tm  Tm16  1  0.419813  0.210056  0.940264  1
  Tm  Tm17  1  0.209860  0.790140  0.059881  1
  Tm  Tm18  1  0.210152  0.419744  0.059998  1
  Tm  Tm19  1  0.580256  0.789848  0.059998  1
  Cd  Cd20  1  0.885898  0.114102  0.250000  1
  Cd  Cd21  1  0.885541  0.771478  0.250000  1
  Cd  Cd22  1  0.228522  0.114459  0.250000  1
  Cd  Cd23  1  0.114126  0.885874  0.750000  1
  Cd  Cd24  1  0.114136  0.228268  0.750000  1
  Cd  Cd25  1  0.771732  0.885864  0.750000  1
  Ru  Ru26  1  0.333422  0.666578  0.250000  1
  Ru  Ru27  1  0.666668  0.333332  0.750000  1
