# generated using pymatgen
data_Ba4Al6MoO16
_symmetry_space_group_name_H-M   'P 1'
_cell_length_a   8.47079392
_cell_length_b   8.47079467
_cell_length_c   8.47079384
_cell_angle_alpha   109.80196800
_cell_angle_beta   109.80196847
_cell_angle_gamma   108.81172440
_symmetry_Int_Tables_number   1
_chemical_formula_structural   Ba4Al6MoO16
_chemical_formula_sum   'Ba4 Al6 Mo1 O16'
_cell_volume   467.85086126
_cell_formula_units_Z   1
loop_
 _symmetry_equiv_pos_site_id
 _symmetry_equiv_pos_as_xyz
  1  'x, y, z'
loop_
 _atom_site_type_symbol
 _atom_site_label
 _atom_site_symmetry_multiplicity
 _atom_site_fract_x
 _atom_site_fract_y
 _atom_site_fract_z
 _atom_site_occupancy
  Ba  Ba0  1  0.493949  0.993949  0.987899  1
  Ba  Ba1  1  0.006051  0.993949  0.500000  1
  Ba  Ba2  1  0.006051  0.506051  0.012101  1
  Ba  Ba3  1  0.493949  0.506051  0.500000  1
  Al  Al4  1  0.502477  0.251238  0.748762  1
  Al  Al5  1  0.750000  0.250000  0.500000  1
  Al  Al6  1  0.246285  0.497523  0.748762  1
  Al  Al7  1  0.250000  0.750000  0.500000  1
  Al  Al8  1  0.502477  0.753715  0.251238  1
  Al  Al9  1  0.748762  0.497523  0.251238  1
  Mo  Mo10  1  0.000000  0.000000  0.000000  1
  O  O11  1  0.657331  0.000970  0.343640  1
  O  O12  1  0.297425  0.647959  0.649467  1
  O  O13  1  0.654413  0.345587  0.000000  1
  O  O14  1  0.352041  0.001508  0.649467  1
  O  O15  1  0.999030  0.342669  0.656360  1
  O  O16  1  0.654413  0.654413  0.308827  1
  O  O17  1  0.657331  0.313692  0.656360  1
  O  O18  1  0.998492  0.647959  0.350533  1
  O  O19  1  0.345587  0.654413  0.000000  1
  O  O20  1  0.352041  0.702575  0.350533  1
  O  O21  1  0.686308  0.342669  0.343640  1
  O  O22  1  0.345587  0.345587  0.691173  1
  O  O23  1  0.106124  0.955727  0.849604  1
  O  O24  1  0.044273  0.893876  0.150396  1
  O  O25  1  0.106124  0.256520  0.150396  1
  O  O26  1  0.743480  0.893876  0.849604  1
