# generated using pymatgen
data_CaPrTmGa8Ag3
_symmetry_space_group_name_H-M   'P 1'
_cell_length_a   4.37645200
_cell_length_b   8.41377334
_cell_length_c   8.41377192
_cell_angle_alpha   70.26680269
_cell_angle_beta   74.92538889
_cell_angle_gamma   74.92538277
_symmetry_Int_Tables_number   1
_chemical_formula_structural   CaPrTmGa8Ag3
_chemical_formula_sum   'Ca1 Pr1 Tm1 Ga8 Ag3'
_cell_volume   276.48269632
_cell_formula_units_Z   1
loop_
 _symmetry_equiv_pos_site_id
 _symmetry_equiv_pos_as_xyz
  1  'x, y, z'
loop_
 _atom_site_type_symbol
 _atom_site_label
 _atom_site_symmetry_multiplicity
 _atom_site_fract_x
 _atom_site_fract_y
 _atom_site_fract_z
 _atom_site_occupancy
  Ca  Ca0  1  0.198217  0.801783  0.801783  1
  Pr  Pr1  1  0.500737  0.499263  0.499263  1
  Tm  Tm2  1  0.799597  0.200403  0.200403  1
  Ga  Ga3  1  0.357777  0.357695  0.926751  1
  Ga  Ga4  1  0.644524  0.635568  0.075384  1
  Ga  Ga5  1  0.357777  0.926751  0.357695  1
  Ga  Ga6  1  0.644524  0.075384  0.635568  1
  Ga  Ga7  1  0.161055  0.468896  0.208993  1
  Ga  Ga8  1  0.838132  0.528842  0.794895  1
  Ga  Ga9  1  0.161055  0.208993  0.468896  1
  Ga  Ga10  1  0.838132  0.794895  0.528842  1
  Ag  Ag11  1  0.498743  0.001257  0.001257  1
  Ag  Ag12  1  0.999866  0.804412  0.195857  1
  Ag  Ag13  1  0.999866  0.195857  0.804412  1
