# generated using pymatgen
data_Nb5GaFe2(BRu2)4
_symmetry_space_group_name_H-M   'P 1'
_cell_length_a   9.24228400
_cell_length_b   9.24228400
_cell_length_c   3.02039200
_cell_angle_alpha   90.00000000
_cell_angle_beta   90.00000000
_cell_angle_gamma   90.00000000
_symmetry_Int_Tables_number   1
_chemical_formula_structural   Nb5GaFe2(BRu2)4
_chemical_formula_sum   'Nb5 Ga1 Fe2 B4 Ru8'
_cell_volume   258.00132145
_cell_formula_units_Z   1
loop_
 _symmetry_equiv_pos_site_id
 _symmetry_equiv_pos_as_xyz
  1  'x, y, z'
loop_
 _atom_site_type_symbol
 _atom_site_label
 _atom_site_symmetry_multiplicity
 _atom_site_fract_x
 _atom_site_fract_y
 _atom_site_fract_z
 _atom_site_occupancy
  Nb  Nb0  1  0.825147  0.670898  0.000000  1
  Nb  Nb1  1  0.174853  0.329102  0.000000  1
  Nb  Nb2  1  0.329102  0.825147  0.000000  1
  Nb  Nb3  1  0.670898  0.174853  0.000000  1
  Nb  Nb4  1  0.000000  0.000000  0.000000  1
  Ga  Ga5  1  0.500000  0.500000  0.000000  1
  Fe  Fe6  1  0.500000  0.000000  0.500000  1
  Fe  Fe7  1  0.000000  0.500000  0.500000  1
  B  B8  1  0.608911  0.880485  0.000000  1
  B  B9  1  0.391089  0.119515  0.000000  1
  B  B10  1  0.119515  0.608911  0.000000  1
  B  B11  1  0.880485  0.391089  0.000000  1
  Ru  Ru12  1  0.566970  0.718892  0.500000  1
  Ru  Ru13  1  0.433030  0.281108  0.500000  1
  Ru  Ru14  1  0.067497  0.776200  0.500000  1
  Ru  Ru15  1  0.932503  0.223800  0.500000  1
  Ru  Ru16  1  0.281108  0.566970  0.500000  1
  Ru  Ru17  1  0.718892  0.433030  0.500000  1
  Ru  Ru18  1  0.223800  0.067497  0.500000  1
  Ru  Ru19  1  0.776200  0.932503  0.500000  1
