# generated using pymatgen
data_Y8Lu4Co4SnRh
_symmetry_space_group_name_H-M   'P 1'
_cell_length_a   8.25378138
_cell_length_b   8.25391120
_cell_length_c   8.25378160
_cell_angle_alpha   111.01613759
_cell_angle_beta   110.62127741
_cell_angle_gamma   106.80825362
_symmetry_Int_Tables_number   1
_chemical_formula_structural   Y8Lu4Co4SnRh
_chemical_formula_sum   'Y8 Lu4 Co4 Sn1 Rh1'
_cell_volume   432.15723878
_cell_formula_units_Z   1
loop_
 _symmetry_equiv_pos_site_id
 _symmetry_equiv_pos_as_xyz
  1  'x, y, z'
loop_
 _atom_site_type_symbol
 _atom_site_label
 _atom_site_symmetry_multiplicity
 _atom_site_fract_x
 _atom_site_fract_y
 _atom_site_fract_z
 _atom_site_occupancy
  Y  Y0  1  0.413490  0.218355  0.195117  1
  Y  Y1  1  0.586510  0.781645  0.804883  1
  Y  Y2  1  0.023238  0.218355  0.804865  1
  Y  Y3  1  0.976762  0.781645  0.195135  1
  Y  Y4  1  0.185658  0.287140  0.472802  1
  Y  Y5  1  0.814342  0.712860  0.527198  1
  Y  Y6  1  0.185662  0.712860  0.898518  1
  Y  Y7  1  0.814338  0.287140  0.101482  1
  Lu  Lu8  1  0.316337  0.626750  0.310414  1
  Lu  Lu9  1  0.683663  0.373250  0.689586  1
  Lu  Lu10  1  0.316316  0.005912  0.689596  1
  Lu  Lu11  1  0.683684  0.994088  0.310404  1
  Co  Co12  1  0.377063  0.000000  0.377063  1
  Co  Co13  1  0.622937  0.000000  0.622937  1
  Co  Co14  1  0.112682  0.612678  0.499996  1
  Co  Co15  1  0.887318  0.387322  0.500004  1
  Sn  Sn16  1  0.500000  0.500000  0.000000  1
  Rh  Rh17  1  0.000000  0.000000  0.000000  1
