# generated using pymatgen
data_Pr5CoIrO12
_symmetry_space_group_name_H-M   'P 1'
_cell_length_a   7.09215302
_cell_length_b   7.09215201
_cell_length_c   7.59546999
_cell_angle_alpha   74.51655226
_cell_angle_beta   74.51655259
_cell_angle_gamma   50.67248731
_symmetry_Int_Tables_number   1
_chemical_formula_structural   Pr5CoIrO12
_chemical_formula_sum   'Pr5 Co1 Ir1 O12'
_cell_volume   282.33754093
_cell_formula_units_Z   1
loop_
 _symmetry_equiv_pos_site_id
 _symmetry_equiv_pos_as_xyz
  1  'x, y, z'
loop_
 _atom_site_type_symbol
 _atom_site_label
 _atom_site_symmetry_multiplicity
 _atom_site_fract_x
 _atom_site_fract_y
 _atom_site_fract_z
 _atom_site_occupancy
  Pr  Pr0  1  0.317331  0.296058  0.355953  1
  Pr  Pr1  1  0.703942  0.682669  0.644047  1
  Pr  Pr2  1  0.695904  0.690785  0.163755  1
  Pr  Pr3  1  0.309215  0.304096  0.836245  1
  Pr  Pr4  1  0.999889  0.000111  0.500000  1
  Co  Co5  1  0.747951  0.252049  0.000000  1
  Ir  Ir6  1  0.237887  0.762113  0.000000  1
  O  O7  1  0.101368  0.595450  0.576065  1
  O  O8  1  0.983860  0.014734  0.165800  1
  O  O9  1  0.404550  0.898632  0.423935  1
  O  O10  1  0.504593  0.496385  0.166950  1
  O  O11  1  0.099099  0.584837  0.078437  1
  O  O12  1  0.910473  0.400285  0.420557  1
  O  O13  1  0.985266  0.016140  0.834200  1
  O  O14  1  0.599715  0.089526  0.579443  1
  O  O15  1  0.503615  0.495407  0.833050  1
  O  O16  1  0.583495  0.103317  0.076761  1
  O  O17  1  0.415163  0.900901  0.921563  1
  O  O18  1  0.896683  0.416505  0.923239  1
