# generated using pymatgen
data_Ba3CePd2O9
_symmetry_space_group_name_H-M   'P 1'
_cell_length_a   5.96334400
_cell_length_b   5.96334329
_cell_length_c   15.05548900
_cell_angle_alpha   90.00000000
_cell_angle_beta   90.00000000
_cell_angle_gamma   120.00001502
_symmetry_Int_Tables_number   1
_chemical_formula_structural   Ba3CePd2O9
_chemical_formula_sum   'Ba6 Ce2 Pd4 O18'
_cell_volume   463.66584493
_cell_formula_units_Z   2
loop_
 _symmetry_equiv_pos_site_id
 _symmetry_equiv_pos_as_xyz
  1  'x, y, z'
loop_
 _atom_site_type_symbol
 _atom_site_label
 _atom_site_symmetry_multiplicity
 _atom_site_fract_x
 _atom_site_fract_y
 _atom_site_fract_z
 _atom_site_occupancy
  Ba  Ba0  1  0.333333  0.666667  0.594891  1
  Ba  Ba1  1  0.666667  0.333333  0.094891  1
  Ba  Ba2  1  0.666667  0.333333  0.405109  1
  Ba  Ba3  1  0.333333  0.666667  0.905109  1
  Ba  Ba4  1  0.000000  0.000000  0.750000  1
  Ba  Ba5  1  0.000000  0.000000  0.250000  1
  Ce  Ce6  1  0.000000  0.000000  0.000000  1
  Ce  Ce7  1  0.000000  0.000000  0.500000  1
  Pd  Pd8  1  0.666667  0.333333  0.660549  1
  Pd  Pd9  1  0.333333  0.666667  0.160549  1
  Pd  Pd10  1  0.666667  0.333333  0.839451  1
  Pd  Pd11  1  0.333333  0.666667  0.339451  1
  O  O12  1  0.172944  0.827056  0.084694  1
  O  O13  1  0.172944  0.345890  0.084694  1
  O  O14  1  0.654110  0.827056  0.084694  1
  O  O15  1  0.345890  0.172944  0.584694  1
  O  O16  1  0.827056  0.654110  0.915306  1
  O  O17  1  0.827056  0.172944  0.584694  1
  O  O18  1  0.827056  0.654110  0.584694  1
  O  O19  1  0.172944  0.827056  0.415306  1
  O  O20  1  0.654110  0.827056  0.415306  1
  O  O21  1  0.345890  0.172944  0.915306  1
  O  O22  1  0.827056  0.172944  0.915306  1
  O  O23  1  0.172944  0.345890  0.415306  1
  O  O24  1  0.484888  0.969775  0.250000  1
  O  O25  1  0.515112  0.484888  0.750000  1
  O  O26  1  0.969775  0.484888  0.750000  1
  O  O27  1  0.030225  0.515112  0.250000  1
  O  O28  1  0.484888  0.515112  0.250000  1
  O  O29  1  0.515112  0.030225  0.750000  1
