# generated using pymatgen
data_TbSmNi2(As2Ru)2
_symmetry_space_group_name_H-M   'P 1'
_cell_length_a   4.23208600
_cell_length_b   4.23208600
_cell_length_c   9.52697100
_cell_angle_alpha   90.00000000
_cell_angle_beta   90.00000000
_cell_angle_gamma   90.00000000
_symmetry_Int_Tables_number   1
_chemical_formula_structural   TbSmNi2(As2Ru)2
_chemical_formula_sum   'Tb1 Sm1 Ni2 As4 Ru2'
_cell_volume   170.63330865
_cell_formula_units_Z   1
loop_
 _symmetry_equiv_pos_site_id
 _symmetry_equiv_pos_as_xyz
  1  'x, y, z'
loop_
 _atom_site_type_symbol
 _atom_site_label
 _atom_site_symmetry_multiplicity
 _atom_site_fract_x
 _atom_site_fract_y
 _atom_site_fract_z
 _atom_site_occupancy
  Tb  Tb0  1  0.000000  0.500000  0.255164  1
  Sm  Sm1  1  0.500000  0.000000  0.743786  1
  Ni  Ni2  1  0.000000  0.500000  0.616992  1
  Ni  Ni3  1  0.500000  0.000000  0.382059  1
  As  As4  1  0.000000  0.000000  0.498552  1
  As  As5  1  0.500000  0.500000  0.498552  1
  As  As6  1  0.000000  0.500000  0.864877  1
  As  As7  1  0.500000  0.000000  0.136681  1
  Ru  Ru8  1  0.000000  0.000000  0.001669  1
  Ru  Ru9  1  0.500000  0.500000  0.001669  1
