# generated using pymatgen
data_La2Tb4FeI10
_symmetry_space_group_name_H-M   'P 1'
_cell_length_a   7.80834992
_cell_length_b   9.90754309
_cell_length_c   9.85946716
_cell_angle_alpha   107.41243504
_cell_angle_beta   105.33228124
_cell_angle_gamma   98.78013751
_symmetry_Int_Tables_number   1
_chemical_formula_structural   La2Tb4FeI10
_chemical_formula_sum   'La2 Tb4 Fe1 I10'
_cell_volume   679.26116770
_cell_formula_units_Z   1
loop_
 _symmetry_equiv_pos_site_id
 _symmetry_equiv_pos_as_xyz
  1  'x, y, z'
loop_
 _atom_site_type_symbol
 _atom_site_label
 _atom_site_symmetry_multiplicity
 _atom_site_fract_x
 _atom_site_fract_y
 _atom_site_fract_z
 _atom_site_occupancy
  La  La0  1  0.678198  0.844780  0.884779  1
  La  La1  1  0.321802  0.155220  0.115221  1
  Tb  Tb2  1  0.030325  0.913416  0.711720  1
  Tb  Tb3  1  0.969675  0.086584  0.288280  1
  Tb  Tb4  1  0.114580  0.759279  0.041080  1
  Tb  Tb5  1  0.885420  0.240721  0.958920  1
  Fe  Fe6  1  0.000000  0.000000  0.000000  1
  I  I7  1  0.649792  0.723151  0.538225  1
  I  I8  1  0.350208  0.276849  0.461775  1
  I  I9  1  0.202643  0.653096  0.740257  1
  I  I10  1  0.797357  0.346904  0.259743  1
  I  I11  1  0.454268  0.092967  0.807668  1
  I  I12  1  0.545732  0.907033  0.192332  1
  I  I13  1  0.256518  0.467137  0.087762  1
  I  I14  1  0.743482  0.532863  0.912238  1
  I  I15  1  0.085049  0.823701  0.368919  1
  I  I16  1  0.914951  0.176299  0.631081  1
