# generated using pymatgen
data_Ta3NbGaC3
_symmetry_space_group_name_H-M   'P 1'
_cell_length_a   3.15400900
_cell_length_b   3.15400932
_cell_length_c   24.02663900
_cell_angle_alpha   90.00000000
_cell_angle_beta   90.00000000
_cell_angle_gamma   120.00000712
_symmetry_Int_Tables_number   1
_chemical_formula_structural   Ta3NbGaC3
_chemical_formula_sum   'Ta6 Nb2 Ga2 C6'
_cell_volume   206.99007622
_cell_formula_units_Z   2
loop_
 _symmetry_equiv_pos_site_id
 _symmetry_equiv_pos_as_xyz
  1  'x, y, z'
loop_
 _atom_site_type_symbol
 _atom_site_label
 _atom_site_symmetry_multiplicity
 _atom_site_fract_x
 _atom_site_fract_y
 _atom_site_fract_z
 _atom_site_occupancy
  Ta  Ta0  1  0.000000  0.000000  0.657901  1
  Ta  Ta1  1  0.000000  0.000000  0.157901  1
  Ta  Ta2  1  0.333333  0.666667  0.444318  1
  Ta  Ta3  1  0.666667  0.333333  0.944318  1
  Ta  Ta4  1  0.666667  0.333333  0.555648  1
  Ta  Ta5  1  0.333333  0.666667  0.055648  1
  Nb  Nb6  1  0.000000  0.000000  0.341732  1
  Nb  Nb7  1  0.000000  0.000000  0.841732  1
  Ga  Ga8  1  0.666667  0.333333  0.749955  1
  Ga  Ga9  1  0.333333  0.666667  0.249955  1
  C  C10  1  0.666667  0.333333  0.391899  1
  C  C11  1  0.333333  0.666667  0.891899  1
  C  C12  1  0.333333  0.666667  0.608615  1
  C  C13  1  0.000000  0.000000  0.999932  1
  C  C14  1  0.666667  0.333333  0.108615  1
  C  C15  1  0.000000  0.000000  0.499932  1
