# generated using pymatgen
data_Nb4Rh(SeS3)2
_symmetry_space_group_name_H-M   'P 1'
_cell_length_a   6.75633200
_cell_length_b   6.75633187
_cell_length_c   12.15116800
_cell_angle_alpha   90.00000000
_cell_angle_beta   90.00000000
_cell_angle_gamma   120.00000063
_symmetry_Int_Tables_number   1
_chemical_formula_structural   Nb4Rh(SeS3)2
_chemical_formula_sum   'Nb8 Rh2 Se4 S12'
_cell_volume   480.36417481
_cell_formula_units_Z   2
loop_
 _symmetry_equiv_pos_site_id
 _symmetry_equiv_pos_as_xyz
  1  'x, y, z'
loop_
 _atom_site_type_symbol
 _atom_site_label
 _atom_site_symmetry_multiplicity
 _atom_site_fract_x
 _atom_site_fract_y
 _atom_site_fract_z
 _atom_site_occupancy
  Nb  Nb0  1  0.000000  0.000000  0.250000  1
  Nb  Nb1  1  0.000000  0.000000  0.750000  1
  Nb  Nb2  1  0.504723  0.495277  0.250000  1
  Nb  Nb3  1  0.504723  0.009447  0.250000  1
  Nb  Nb4  1  0.990553  0.495277  0.250000  1
  Nb  Nb5  1  0.495277  0.504723  0.750000  1
  Nb  Nb6  1  0.495277  0.990553  0.750000  1
  Nb  Nb7  1  0.009447  0.504723  0.750000  1
  Rh  Rh8  1  0.000000  0.000000  0.500000  1
  Rh  Rh9  1  0.000000  0.000000  0.000000  1
  Se  Se10  1  0.333333  0.666667  0.894999  1
  Se  Se11  1  0.666667  0.333333  0.105001  1
  Se  Se12  1  0.666667  0.333333  0.394999  1
  Se  Se13  1  0.333333  0.666667  0.605001  1
  S  S14  1  0.166095  0.833905  0.377380  1
  S  S15  1  0.166095  0.332189  0.377380  1
  S  S16  1  0.667811  0.833905  0.377380  1
  S  S17  1  0.833905  0.166095  0.622620  1
  S  S18  1  0.833905  0.667811  0.622620  1
  S  S19  1  0.332189  0.166095  0.622620  1
  S  S20  1  0.833905  0.166095  0.877380  1
  S  S21  1  0.833905  0.667811  0.877380  1
  S  S22  1  0.332189  0.166095  0.877380  1
  S  S23  1  0.166095  0.833905  0.122620  1
  S  S24  1  0.166095  0.332189  0.122620  1
  S  S25  1  0.667811  0.833905  0.122620  1
