# generated using pymatgen
data_Ho4Zr3RuF28
_symmetry_space_group_name_H-M   'P 1'
_cell_length_a   5.68899811
_cell_length_b   9.03401047
_cell_length_c   12.11961585
_cell_angle_alpha   62.77024961
_cell_angle_beta   90.15196020
_cell_angle_gamma   90.05368947
_symmetry_Int_Tables_number   1
_chemical_formula_structural   Ho4Zr3RuF28
_chemical_formula_sum   'Ho4 Zr3 Ru1 F28'
_cell_volume   553.85086441
_cell_formula_units_Z   1
loop_
 _symmetry_equiv_pos_site_id
 _symmetry_equiv_pos_as_xyz
  1  'x, y, z'
loop_
 _atom_site_type_symbol
 _atom_site_label
 _atom_site_symmetry_multiplicity
 _atom_site_fract_x
 _atom_site_fract_y
 _atom_site_fract_z
 _atom_site_occupancy
  Ho  Ho0  1  0.757102  0.814232  0.768099  1
  Ho  Ho1  1  0.256548  0.185371  0.728488  1
  Ho  Ho2  1  0.242845  0.186812  0.238758  1
  Ho  Ho3  1  0.743470  0.819079  0.266255  1
  Zr  Zr4  1  0.755996  0.273375  0.955477  1
  Zr  Zr5  1  0.254501  0.725798  0.543827  1
  Zr  Zr6  1  0.245023  0.726141  0.046173  1
  Ru  Ru7  1  0.743602  0.272985  0.454835  1
  F  F8  1  0.464655  0.707147  0.920913  1
  F  F9  1  0.950935  0.289218  0.579568  1
  F  F10  1  0.534040  0.290662  0.080265  1
  F  F11  1  0.032439  0.710600  0.418148  1
  F  F12  1  0.458769  0.279811  0.546967  1
  F  F13  1  0.946324  0.722693  0.951641  1
  F  F14  1  0.549700  0.717426  0.449325  1
  F  F15  1  0.050857  0.275969  0.052252  1
  F  F16  1  0.774734  0.526263  0.857672  1
  F  F17  1  0.265393  0.473626  0.640786  1
  F  F18  1  0.224931  0.473830  0.143352  1
  F  F19  1  0.735448  0.510271  0.361639  1
  F  F20  1  0.756936  0.020865  0.058904  1
  F  F21  1  0.261206  0.977590  0.442890  1
  F  F22  1  0.243868  0.976817  0.940369  1
  F  F23  1  0.743416  0.035843  0.547091  1
  F  F24  1  0.977010  0.737551  0.646031  1
  F  F25  1  0.484083  0.266237  0.847973  1
  F  F26  1  0.019900  0.268784  0.358111  1
  F  F27  1  0.519218  0.729594  0.153631  1
  F  F28  1  0.034274  0.748063  0.175380  1
  F  F29  1  0.541297  0.256560  0.327229  1
  F  F30  1  0.969224  0.250639  0.826985  1
  F  F31  1  0.467977  0.750143  0.671708  1
  F  F32  1  0.428168  0.975898  0.235967  1
  F  F33  1  0.927849  0.028036  0.267264  1
  F  F34  1  0.568291  0.023960  0.763320  1
  F  F35  1  0.069971  0.972110  0.732708  1
