# generated using pymatgen
data_La17Yb3Sn16
_symmetry_space_group_name_H-M   'P 1'
_cell_length_a   8.33259701
_cell_length_b   8.61114145
_cell_length_c   16.41048200
_cell_angle_alpha   90.00000000
_cell_angle_beta   90.00000000
_cell_angle_gamma   89.87271906
_symmetry_Int_Tables_number   1
_chemical_formula_structural   La17Yb3Sn16
_chemical_formula_sum   'La17 Yb3 Sn16'
_cell_volume   1177.50122362
_cell_formula_units_Z   1
loop_
 _symmetry_equiv_pos_site_id
 _symmetry_equiv_pos_as_xyz
  1  'x, y, z'
loop_
 _atom_site_type_symbol
 _atom_site_label
 _atom_site_symmetry_multiplicity
 _atom_site_fract_x
 _atom_site_fract_y
 _atom_site_fract_z
 _atom_site_occupancy
  La  La0  1  0.648175  0.167634  0.622403  1
  La  La1  1  0.148924  0.331001  0.878174  1
  La  La2  1  0.351676  0.830314  0.123657  1
  La  La3  1  0.852259  0.665943  0.378078  1
  La  La4  1  0.351676  0.830314  0.376343  1
  La  La5  1  0.852259  0.665943  0.121922  1
  La  La6  1  0.648175  0.167634  0.877597  1
  La  La7  1  0.148924  0.331001  0.621826  1
  La  La8  1  0.493959  0.684607  0.597537  1
  La  La9  1  0.999294  0.818258  0.903570  1
  La  La10  1  0.504009  0.316613  0.097129  1
  La  La11  1  0.001454  0.185397  0.403582  1
  La  La12  1  0.504009  0.316613  0.402871  1
  La  La13  1  0.001454  0.185397  0.096418  1
  La  La14  1  0.493959  0.684607  0.902463  1
  La  La15  1  0.999294  0.818258  0.596430  1
  La  La16  1  0.819249  0.502339  0.750000  1
  Yb  Yb17  1  0.318872  0.000241  0.750000  1
  Yb  Yb18  1  0.182883  0.496356  0.250000  1
  Yb  Yb19  1  0.680431  0.001766  0.250000  1
  Sn  Sn20  1  0.688589  0.962519  0.459337  1
  Sn  Sn21  1  0.193958  0.535851  0.040644  1
  Sn  Sn22  1  0.310965  0.037069  0.961345  1
  Sn  Sn23  1  0.807700  0.464946  0.541537  1
  Sn  Sn24  1  0.310965  0.037069  0.538655  1
  Sn  Sn25  1  0.807700  0.464946  0.958463  1
  Sn  Sn26  1  0.688589  0.962519  0.040663  1
  Sn  Sn27  1  0.193958  0.535851  0.459356  1
  Sn  Sn28  1  0.446891  0.390942  0.750000  1
  Sn  Sn29  1  0.951691  0.105492  0.750000  1
  Sn  Sn30  1  0.551058  0.603605  0.250000  1
  Sn  Sn31  1  0.048019  0.897333  0.250000  1
  Sn  Sn32  1  0.695666  0.860671  0.750000  1
  Sn  Sn33  1  0.195278  0.642872  0.750000  1
  Sn  Sn34  1  0.303407  0.139826  0.250000  1
  Sn  Sn35  1  0.804632  0.358250  0.250000  1
