# generated using pymatgen
data_Dy4FeI4
_symmetry_space_group_name_H-M   'P 1'
_cell_length_a   11.51684982
_cell_length_b   11.51685150
_cell_length_c   6.09089501
_cell_angle_alpha   90.02829499
_cell_angle_beta   90.02829903
_cell_angle_gamma   89.93995066
_symmetry_Int_Tables_number   1
_chemical_formula_structural   Dy4FeI4
_chemical_formula_sum   'Dy8 Fe2 I8'
_cell_volume   807.88257311
_cell_formula_units_Z   2
loop_
 _symmetry_equiv_pos_site_id
 _symmetry_equiv_pos_as_xyz
  1  'x, y, z'
loop_
 _atom_site_type_symbol
 _atom_site_label
 _atom_site_symmetry_multiplicity
 _atom_site_fract_x
 _atom_site_fract_y
 _atom_site_fract_z
 _atom_site_occupancy
  Dy  Dy0  1  0.810250  0.078254  0.000766  1
  Dy  Dy1  1  0.078254  0.810250  0.500766  1
  Dy  Dy2  1  0.077879  0.189714  0.000848  1
  Dy  Dy3  1  0.189714  0.077879  0.500848  1
  Dy  Dy4  1  0.922121  0.810286  0.999152  1
  Dy  Dy5  1  0.921746  0.189750  0.499234  1
  Dy  Dy6  1  0.189750  0.921746  0.999234  1
  Dy  Dy7  1  0.810286  0.922121  0.499152  1
  Fe  Fe8  1  0.000101  0.999899  0.250000  1
  Fe  Fe9  1  0.999899  0.000101  0.750000  1
  I  I10  1  0.651770  0.144670  0.488842  1
  I  I11  1  0.854388  0.653140  0.506701  1
  I  I12  1  0.346860  0.145612  0.993299  1
  I  I13  1  0.145612  0.346860  0.493299  1
  I  I14  1  0.653140  0.854388  0.006701  1
  I  I15  1  0.348230  0.855330  0.511158  1
  I  I16  1  0.144670  0.651770  0.988842  1
  I  I17  1  0.855330  0.348230  0.011158  1
