# generated using pymatgen
data_TbZnGaCu2Pd
_symmetry_space_group_name_H-M   'P 1'
_cell_length_a   5.08617952
_cell_length_b   5.08618055
_cell_length_c   5.16185769
_cell_angle_alpha   59.71326941
_cell_angle_beta   59.71325906
_cell_angle_gamma   60.29206765
_symmetry_Int_Tables_number   1
_chemical_formula_structural   TbZnGaCu2Pd
_chemical_formula_sum   'Tb1 Zn1 Ga1 Cu2 Pd1'
_cell_volume   94.21490012
_cell_formula_units_Z   1
loop_
 _symmetry_equiv_pos_site_id
 _symmetry_equiv_pos_as_xyz
  1  'x, y, z'
loop_
 _atom_site_type_symbol
 _atom_site_label
 _atom_site_symmetry_multiplicity
 _atom_site_fract_x
 _atom_site_fract_y
 _atom_site_fract_z
 _atom_site_occupancy
  Tb  Tb0  1  0.246724  0.246724  0.252442  1
  Zn  Zn1  1  0.628543  0.628543  0.118527  1
  Ga  Ga2  1  0.630130  0.630130  0.626111  1
  Cu  Cu3  1  0.623775  0.125626  0.626164  1
  Cu  Cu4  1  0.125626  0.623775  0.626164  1
  Pd  Pd5  1  0.995204  0.995204  0.000593  1
