# generated using pymatgen
data_La2Zn20NiIr
_symmetry_space_group_name_H-M   'P 1'
_cell_length_a   8.34760229
_cell_length_b   8.33284942
_cell_length_c   8.26631925
_cell_angle_alpha   100.34287238
_cell_angle_beta   98.90555978
_cell_angle_gamma   131.61235432
_symmetry_Int_Tables_number   1
_chemical_formula_structural   La2Zn20NiIr
_chemical_formula_sum   'La2 Zn20 Ni1 Ir1'
_cell_volume   392.46569910
_cell_formula_units_Z   1
loop_
 _symmetry_equiv_pos_site_id
 _symmetry_equiv_pos_as_xyz
  1  'x, y, z'
loop_
 _atom_site_type_symbol
 _atom_site_label
 _atom_site_symmetry_multiplicity
 _atom_site_fract_x
 _atom_site_fract_y
 _atom_site_fract_z
 _atom_site_occupancy
  La  La0  1  0.258906  0.753506  0.499833  1
  La  La1  1  0.991094  0.996494  0.000167  1
  Zn  Zn2  1  0.896456  0.568329  0.086240  1
  Zn  Zn3  1  0.625000  0.875000  0.250000  1
  Zn  Zn4  1  0.432482  0.505868  0.319377  1
  Zn  Zn5  1  0.489421  0.569365  0.673283  1
  Zn  Zn6  1  0.432606  0.106969  0.923485  1
  Zn  Zn7  1  0.760579  0.180635  0.826717  1
  Zn  Zn8  1  0.486673  0.817092  0.916532  1
  Zn  Zn9  1  0.507713  0.491239  0.002384  1
  Zn  Zn10  1  0.763327  0.932908  0.583468  1
  Zn  Zn11  1  0.742287  0.258761  0.497616  1
  Zn  Zn12  1  0.065978  0.654985  0.831629  1
  Zn  Zn13  1  0.125000  0.375000  0.750000  1
  Zn  Zn14  1  0.353544  0.181671  0.413760  1
  Zn  Zn15  1  0.817394  0.643031  0.576515  1
  Zn  Zn16  1  0.898117  0.808736  0.330011  1
  Zn  Zn17  1  0.184022  0.095015  0.668371  1
  Zn  Zn18  1  0.066562  0.238536  0.412835  1
  Zn  Zn19  1  0.351883  0.941264  0.169989  1
  Zn  Zn20  1  0.817518  0.244132  0.180623  1
  Zn  Zn21  1  0.183438  0.511464  0.087165  1
  Ni  Ni22  1  0.625000  0.375000  0.250000  1
  Ir  Ir23  1  0.625000  0.375000  0.750000  1
