# generated using pymatgen
data_MnNb6Cr(B3Ru2)2
_symmetry_space_group_name_H-M   'P 1'
_cell_length_a   3.13001900
_cell_length_b   6.38035600
_cell_length_c   10.85792500
_cell_angle_alpha   90.00000000
_cell_angle_beta   90.00000000
_cell_angle_gamma   90.00000000
_symmetry_Int_Tables_number   1
_chemical_formula_structural   MnNb6Cr(B3Ru2)2
_chemical_formula_sum   'Mn1 Nb6 Cr1 B6 Ru4'
_cell_volume   216.83966253
_cell_formula_units_Z   1
loop_
 _symmetry_equiv_pos_site_id
 _symmetry_equiv_pos_as_xyz
  1  'x, y, z'
loop_
 _atom_site_type_symbol
 _atom_site_label
 _atom_site_symmetry_multiplicity
 _atom_site_fract_x
 _atom_site_fract_y
 _atom_site_fract_z
 _atom_site_occupancy
  Mn  Mn0  1  0.500000  0.299713  0.750000  1
  Nb  Nb1  1  0.000000  0.275517  0.951428  1
  Nb  Nb2  1  0.000000  0.725038  0.049094  1
  Nb  Nb3  1  0.000000  0.275517  0.548572  1
  Nb  Nb4  1  0.000000  0.725038  0.450906  1
  Nb  Nb5  1  0.000000  0.361703  0.250000  1
  Nb  Nb6  1  0.000000  0.637843  0.750000  1
  Cr  Cr7  1  0.500000  0.698008  0.250000  1
  B  B8  1  0.000000  0.939089  0.250000  1
  B  B9  1  0.000000  0.061013  0.750000  1
  B  B10  1  0.500000  0.451964  0.085457  1
  B  B11  1  0.500000  0.547467  0.913961  1
  B  B12  1  0.500000  0.451964  0.414543  1
  B  B13  1  0.500000  0.547467  0.586039  1
  Ru  Ru14  1  0.500000  0.073241  0.123533  1
  Ru  Ru15  1  0.500000  0.928087  0.875419  1
  Ru  Ru16  1  0.500000  0.073241  0.376467  1
  Ru  Ru17  1  0.500000  0.928087  0.624581  1
