# generated using pymatgen
data_Sc3Ta2Si3O
_symmetry_space_group_name_H-M   'P 1'
_cell_length_a   7.73679500
_cell_length_b   7.73679524
_cell_length_c   5.42794500
_cell_angle_alpha   90.00000000
_cell_angle_beta   90.00000000
_cell_angle_gamma   120.00000326
_symmetry_Int_Tables_number   1
_chemical_formula_structural   Sc3Ta2Si3O
_chemical_formula_sum   'Sc6 Ta4 Si6 O2'
_cell_volume   281.37677550
_cell_formula_units_Z   2
loop_
 _symmetry_equiv_pos_site_id
 _symmetry_equiv_pos_as_xyz
  1  'x, y, z'
loop_
 _atom_site_type_symbol
 _atom_site_label
 _atom_site_symmetry_multiplicity
 _atom_site_fract_x
 _atom_site_fract_y
 _atom_site_fract_z
 _atom_site_occupancy
  Sc  Sc0  1  0.235493  0.000000  0.250000  1
  Sc  Sc1  1  0.764507  0.000000  0.750000  1
  Sc  Sc2  1  0.000000  0.235493  0.250000  1
  Sc  Sc3  1  0.000000  0.764507  0.750000  1
  Sc  Sc4  1  0.764507  0.764507  0.250000  1
  Sc  Sc5  1  0.235493  0.235493  0.750000  1
  Ta  Ta6  1  0.333333  0.666667  0.000000  1
  Ta  Ta7  1  0.666667  0.333333  0.000000  1
  Ta  Ta8  1  0.666667  0.333333  0.500000  1
  Ta  Ta9  1  0.333333  0.666667  0.500000  1
  Si  Si10  1  0.591615  0.000000  0.250000  1
  Si  Si11  1  0.408385  0.000000  0.750000  1
  Si  Si12  1  0.000000  0.591615  0.250000  1
  Si  Si13  1  0.000000  0.408385  0.750000  1
  Si  Si14  1  0.408385  0.408385  0.250000  1
  Si  Si15  1  0.591615  0.591615  0.750000  1
  O  O16  1  0.000000  0.000000  0.000000  1
  O  O17  1  0.000000  0.000000  0.500000  1
