# generated using pymatgen
data_Tb8Ti3Si16(MoW2)3
_symmetry_space_group_name_H-M   'P 1'
_cell_length_a   6.91303549
_cell_length_b   6.91819334
_cell_length_c   12.84276873
_cell_angle_alpha   89.93440394
_cell_angle_beta   89.96028290
_cell_angle_gamma   89.90456325
_symmetry_Int_Tables_number   1
_chemical_formula_structural   Tb8Ti3Si16(MoW2)3
_chemical_formula_sum   'Tb8 Ti3 Si16 Mo3 W6'
_cell_volume   614.21320915
_cell_formula_units_Z   1
loop_
 _symmetry_equiv_pos_site_id
 _symmetry_equiv_pos_as_xyz
  1  'x, y, z'
loop_
 _atom_site_type_symbol
 _atom_site_label
 _atom_site_symmetry_multiplicity
 _atom_site_fract_x
 _atom_site_fract_y
 _atom_site_fract_z
 _atom_site_occupancy
  Tb  Tb0  1  0.338602  0.002212  0.468494  1
  Tb  Tb1  1  0.496735  0.837764  0.719111  1
  Tb  Tb2  1  0.499821  0.162535  0.217412  1
  Tb  Tb3  1  0.837676  0.497136  0.280924  1
  Tb  Tb4  1  0.162370  0.498781  0.782557  1
  Tb  Tb5  1  0.660561  0.998886  0.968771  1
  Tb  Tb6  1  0.001415  0.338617  0.531506  1
  Tb  Tb7  1  0.999589  0.660779  0.031223  1
  Ti  Ti8  1  0.169790  0.832519  0.248687  1
  Ti  Ti9  1  0.831655  0.170339  0.751535  1
  Ti  Ti10  1  0.668718  0.669221  0.499766  1
  Si  Si11  1  0.199982  0.127558  0.683819  1
  Si  Si12  1  0.374617  0.697247  0.934576  1
  Si  Si13  1  0.627517  0.299143  0.433936  1
  Si  Si14  1  0.698046  0.375257  0.065912  1
  Si  Si15  1  0.298847  0.627391  0.565869  1
  Si  Si16  1  0.797694  0.873737  0.184479  1
  Si  Si17  1  0.127486  0.200610  0.316243  1
  Si  Si18  1  0.873645  0.796642  0.815140  1
  Si  Si19  1  0.288849  0.963851  0.061867  1
  Si  Si20  1  0.539301  0.790780  0.313836  1
  Si  Si21  1  0.459308  0.209713  0.814409  1
  Si  Si22  1  0.790279  0.539723  0.686364  1
  Si  Si23  1  0.210892  0.459810  0.185657  1
  Si  Si24  1  0.709935  0.040397  0.563838  1
  Si  Si25  1  0.963909  0.287757  0.937640  1
  Si  Si26  1  0.040610  0.710036  0.436247  1
  Mo  Mo27  1  0.158102  0.002326  0.873403  1
  Mo  Mo28  1  0.494583  0.666601  0.125708  1
  Mo  Mo29  1  0.506195  0.339343  0.624912  1
  W  W30  1  0.332126  0.331853  0.999966  1
  W  W31  1  0.664998  0.493107  0.875087  1
  W  W32  1  0.339465  0.506092  0.375187  1
  W  W33  1  0.839323  0.993211  0.374412  1
  W  W34  1  0.004183  0.159307  0.126130  1
  W  W35  1  0.993180  0.839721  0.625377  1
