# generated using pymatgen
data_Ho20In4GaSi7
_symmetry_space_group_name_H-M   'P 1'
_cell_length_a   7.66752715
_cell_length_b   7.66752715
_cell_length_c   13.94972000
_cell_angle_alpha   90.00127093
_cell_angle_beta   90.00127093
_cell_angle_gamma   89.82302067
_symmetry_Int_Tables_number   1
_chemical_formula_structural   Ho20In4GaSi7
_chemical_formula_sum   'Ho20 In4 Ga1 Si7'
_cell_volume   820.11369247
_cell_formula_units_Z   1
loop_
 _symmetry_equiv_pos_site_id
 _symmetry_equiv_pos_as_xyz
  1  'x, y, z'
loop_
 _atom_site_type_symbol
 _atom_site_label
 _atom_site_symmetry_multiplicity
 _atom_site_fract_x
 _atom_site_fract_y
 _atom_site_fract_z
 _atom_site_occupancy
  Ho  Ho0  1  0.002014  0.501521  0.758311  1
  Ho  Ho1  1  0.999729  0.499716  0.257774  1
  Ho  Ho2  1  0.500284  0.000271  0.242226  1
  Ho  Ho3  1  0.498479  0.997986  0.741689  1
  Ho  Ho4  1  0.672286  0.665059  0.609839  1
  Ho  Ho5  1  0.671607  0.336111  0.110450  1
  Ho  Ho6  1  0.828528  0.836896  0.389233  1
  Ho  Ho7  1  0.170991  0.837006  0.889648  1
  Ho  Ho8  1  0.326129  0.336337  0.609924  1
  Ho  Ho9  1  0.328181  0.664195  0.111143  1
  Ho  Ho10  1  0.171234  0.163465  0.389179  1
  Ho  Ho11  1  0.830900  0.160971  0.890818  1
  Ho  Ho12  1  0.663889  0.328393  0.389550  1
  Ho  Ho13  1  0.334941  0.327714  0.890161  1
  Ho  Ho14  1  0.162994  0.829009  0.610352  1
  Ho  Ho15  1  0.836535  0.828766  0.110821  1
  Ho  Ho16  1  0.335805  0.671819  0.388857  1
  Ho  Ho17  1  0.663663  0.673871  0.890076  1
  Ho  Ho18  1  0.839029  0.169100  0.609182  1
  Ho  Ho19  1  0.163104  0.171472  0.110767  1
  In  In20  1  0.000352  0.500487  0.497178  1
  In  In21  1  0.000388  0.500605  0.998344  1
  In  In22  1  0.499395  0.999612  0.501656  1
  In  In23  1  0.499513  0.999648  0.002822  1
  Ga  Ga24  1  0.628509  0.371491  0.750000  1
  Si  Si25  1  0.870814  0.871346  0.749927  1
  Si  Si26  1  0.871329  0.128671  0.250000  1
  Si  Si27  1  0.628341  0.628302  0.249983  1
  Si  Si28  1  0.372413  0.627587  0.750000  1
  Si  Si29  1  0.128654  0.129186  0.750073  1
  Si  Si30  1  0.128273  0.871727  0.250000  1
  Si  Si31  1  0.371698  0.371659  0.250017  1
