# generated using pymatgen
data_Pr2Ho2Zn10SiSn
_symmetry_space_group_name_H-M   'P 1'
_cell_length_a   8.36514054
_cell_length_b   8.36514119
_cell_length_c   8.89906800
_cell_angle_alpha   90.00000000
_cell_angle_beta   90.00000000
_cell_angle_gamma   149.62518243
_symmetry_Int_Tables_number   1
_chemical_formula_structural   Pr2Ho2Zn10SiSn
_chemical_formula_sum   'Pr2 Ho2 Zn10 Si1 Sn1'
_cell_volume   314.87996462
_cell_formula_units_Z   1
loop_
 _symmetry_equiv_pos_site_id
 _symmetry_equiv_pos_as_xyz
  1  'x, y, z'
loop_
 _atom_site_type_symbol
 _atom_site_label
 _atom_site_symmetry_multiplicity
 _atom_site_fract_x
 _atom_site_fract_y
 _atom_site_fract_z
 _atom_site_occupancy
  Pr  Pr0  1  0.001101  0.998899  0.487093  1
  Pr  Pr1  1  0.001101  0.998899  0.012907  1
  Ho  Ho2  1  0.201134  0.798866  0.250000  1
  Ho  Ho3  1  0.795327  0.204673  0.750000  1
  Zn  Zn4  1  0.811750  0.188250  0.390419  1
  Zn  Zn5  1  0.187333  0.812667  0.607490  1
  Zn  Zn6  1  0.811750  0.188250  0.109581  1
  Zn  Zn7  1  0.187333  0.812667  0.892510  1
  Zn  Zn8  1  0.652890  0.347110  0.472581  1
  Zn  Zn9  1  0.342126  0.657874  0.516380  1
  Zn  Zn10  1  0.652890  0.347110  0.027419  1
  Zn  Zn11  1  0.342126  0.657874  0.983620  1
  Zn  Zn12  1  0.402751  0.597249  0.250000  1
  Zn  Zn13  1  0.607065  0.392935  0.750000  1
  Si  Si14  1  0.559022  0.440978  0.250000  1
  Sn  Sn15  1  0.444303  0.555697  0.750000  1
