# generated using pymatgen
data_SmDy3(CBr)2
_symmetry_space_group_name_H-M   'P 1'
_cell_length_a   3.70184500
_cell_length_b   3.70184268
_cell_length_c   14.25923400
_cell_angle_alpha   90.00000000
_cell_angle_beta   90.00000000
_cell_angle_gamma   119.99999391
_symmetry_Int_Tables_number   1
_chemical_formula_structural   SmDy3(CBr)2
_chemical_formula_sum   'Sm1 Dy3 C2 Br2'
_cell_volume   169.22442352
_cell_formula_units_Z   1
loop_
 _symmetry_equiv_pos_site_id
 _symmetry_equiv_pos_as_xyz
  1  'x, y, z'
loop_
 _atom_site_type_symbol
 _atom_site_label
 _atom_site_symmetry_multiplicity
 _atom_site_fract_x
 _atom_site_fract_y
 _atom_site_fract_z
 _atom_site_occupancy
  Sm  Sm0  1  0.333333  0.666667  0.908770  1
  Dy  Dy1  1  0.333333  0.666667  0.588580  1
  Dy  Dy2  1  0.666667  0.333333  0.410174  1
  Dy  Dy3  1  0.666667  0.333333  0.091937  1
  C  C4  1  0.000000  0.000000  0.006105  1
  C  C5  1  0.000000  0.000000  0.499352  1
  Br  Br6  1  0.333333  0.666667  0.251880  1
  Br  Br7  1  0.666667  0.333333  0.743201  1
