# generated using pymatgen
data_HfTa8CdSe16
_symmetry_space_group_name_H-M   'P 1'
_cell_length_a   6.99628000
_cell_length_b   6.99628032
_cell_length_c   13.88412700
_cell_angle_alpha   90.00000000
_cell_angle_beta   90.00000000
_cell_angle_gamma   120.00000796
_symmetry_Int_Tables_number   1
_chemical_formula_structural   HfTa8CdSe16
_chemical_formula_sum   'Hf1 Ta8 Cd1 Se16'
_cell_volume   588.55026341
_cell_formula_units_Z   1
loop_
 _symmetry_equiv_pos_site_id
 _symmetry_equiv_pos_as_xyz
  1  'x, y, z'
loop_
 _atom_site_type_symbol
 _atom_site_label
 _atom_site_symmetry_multiplicity
 _atom_site_fract_x
 _atom_site_fract_y
 _atom_site_fract_z
 _atom_site_occupancy
  Hf  Hf0  1  0.000000  0.000000  0.500000  1
  Ta  Ta1  1  0.507374  0.492626  0.742976  1
  Ta  Ta2  1  0.014746  0.507374  0.257024  1
  Ta  Ta3  1  0.492626  0.985254  0.257024  1
  Ta  Ta4  1  0.507374  0.014746  0.742976  1
  Ta  Ta5  1  0.985254  0.492626  0.742976  1
  Ta  Ta6  1  0.492626  0.507374  0.257024  1
  Ta  Ta7  1  0.000000  0.000000  0.739911  1
  Ta  Ta8  1  0.000000  0.000000  0.260089  1
  Cd  Cd9  1  0.000000  0.000000  0.000000  1
  Se  Se10  1  0.829932  0.170068  0.377960  1
  Se  Se11  1  0.829932  0.659862  0.377960  1
  Se  Se12  1  0.340138  0.170068  0.377960  1
  Se  Se13  1  0.663396  0.831698  0.860267  1
  Se  Se14  1  0.170068  0.340138  0.622040  1
  Se  Se15  1  0.168302  0.831698  0.860267  1
  Se  Se16  1  0.168302  0.336604  0.860267  1
  Se  Se17  1  0.831698  0.168302  0.139733  1
  Se  Se18  1  0.336604  0.168302  0.139733  1
  Se  Se19  1  0.659862  0.829932  0.622040  1
  Se  Se20  1  0.333333  0.666667  0.132545  1
  Se  Se21  1  0.666667  0.333333  0.618679  1
  Se  Se22  1  0.666667  0.333333  0.867455  1
  Se  Se23  1  0.333333  0.666667  0.381321  1
  Se  Se24  1  0.831698  0.663396  0.139733  1
  Se  Se25  1  0.170068  0.829932  0.622040  1
