# generated using pymatgen
data_KNi9P5
_symmetry_space_group_name_H-M   'P 1'
_cell_length_a   6.51698900
_cell_length_b   6.51699009
_cell_length_c   10.84458300
_cell_angle_alpha   90.00000000
_cell_angle_beta   90.00000000
_cell_angle_gamma   119.99999954
_symmetry_Int_Tables_number   1
_chemical_formula_structural   KNi9P5
_chemical_formula_sum   'K2 Ni18 P10'
_cell_volume   398.87566316
_cell_formula_units_Z   2
loop_
 _symmetry_equiv_pos_site_id
 _symmetry_equiv_pos_as_xyz
  1  'x, y, z'
loop_
 _atom_site_type_symbol
 _atom_site_label
 _atom_site_symmetry_multiplicity
 _atom_site_fract_x
 _atom_site_fract_y
 _atom_site_fract_z
 _atom_site_occupancy
  K  K0  1  0.000000  0.000000  0.000000  1
  K  K1  1  0.000000  0.000000  0.500000  1
  Ni  Ni2  1  0.536088  0.463912  0.107837  1
  Ni  Ni3  1  0.072176  0.536088  0.607837  1
  Ni  Ni4  1  0.463912  0.927824  0.607837  1
  Ni  Ni5  1  0.536088  0.072176  0.107837  1
  Ni  Ni6  1  0.927824  0.463912  0.107837  1
  Ni  Ni7  1  0.072176  0.536088  0.892163  1
  Ni  Ni8  1  0.463912  0.927824  0.892163  1
  Ni  Ni9  1  0.463912  0.536088  0.607837  1
  Ni  Ni10  1  0.463912  0.536088  0.892163  1
  Ni  Ni11  1  0.536088  0.463912  0.392163  1
  Ni  Ni12  1  0.927824  0.463912  0.392163  1
  Ni  Ni13  1  0.536088  0.072176  0.392163  1
  Ni  Ni14  1  0.203363  0.796637  0.250000  1
  Ni  Ni15  1  0.406727  0.203363  0.750000  1
  Ni  Ni16  1  0.796637  0.593273  0.750000  1
  Ni  Ni17  1  0.203363  0.406727  0.250000  1
  Ni  Ni18  1  0.593273  0.796637  0.250000  1
  Ni  Ni19  1  0.796637  0.203363  0.750000  1
  P  P20  1  0.825741  0.174259  0.250000  1
  P  P21  1  0.651480  0.825741  0.750000  1
  P  P22  1  0.174259  0.348520  0.750000  1
  P  P23  1  0.825741  0.651480  0.250000  1
  P  P24  1  0.348520  0.174259  0.250000  1
  P  P25  1  0.174259  0.825741  0.750000  1
  P  P26  1  0.333333  0.666667  0.061497  1
  P  P27  1  0.666667  0.333333  0.561497  1
  P  P28  1  0.666667  0.333333  0.938503  1
  P  P29  1  0.333333  0.666667  0.438503  1
