# generated using pymatgen
data_UTaCo6H
_symmetry_space_group_name_H-M   'P 1'
_cell_length_a   5.23989956
_cell_length_b   5.23989940
_cell_length_c   5.23990000
_cell_angle_alpha   59.99999623
_cell_angle_beta   59.99999719
_cell_angle_gamma   60.00000446
_symmetry_Int_Tables_number   1
_chemical_formula_structural   UTaCo6H
_chemical_formula_sum   'U1 Ta1 Co6 H1'
_cell_volume   101.73113865
_cell_formula_units_Z   1
loop_
 _symmetry_equiv_pos_site_id
 _symmetry_equiv_pos_as_xyz
  1  'x, y, z'
loop_
 _atom_site_type_symbol
 _atom_site_label
 _atom_site_symmetry_multiplicity
 _atom_site_fract_x
 _atom_site_fract_y
 _atom_site_fract_z
 _atom_site_occupancy
  U  U0  1  0.249999  0.249999  0.249999  1
  Ta  Ta1  1  0.750000  0.750000  0.750000  1
  Co  Co2  1  0.748320  0.251680  0.251680  1
  Co  Co3  1  0.748320  0.748320  0.251680  1
  Co  Co4  1  0.251680  0.748320  0.251680  1
  Co  Co5  1  0.251680  0.748320  0.748320  1
  Co  Co6  1  0.251680  0.251680  0.748320  1
  Co  Co7  1  0.748320  0.251680  0.748320  1
  H  H8  1  0.000000  0.000000  0.000000  1
