# generated using pymatgen
data_Th3Sn2Ru3Au
_symmetry_space_group_name_H-M   'P 1'
_cell_length_a   7.45391870
_cell_length_b   7.45391893
_cell_length_c   3.99031600
_cell_angle_alpha   90.00000000
_cell_angle_beta   90.00000000
_cell_angle_gamma   115.27979101
_symmetry_Int_Tables_number   1
_chemical_formula_structural   Th3Sn2Ru3Au
_chemical_formula_sum   'Th3 Sn2 Ru3 Au1'
_cell_volume   200.47354439
_cell_formula_units_Z   1
loop_
 _symmetry_equiv_pos_site_id
 _symmetry_equiv_pos_as_xyz
  1  'x, y, z'
loop_
 _atom_site_type_symbol
 _atom_site_label
 _atom_site_symmetry_multiplicity
 _atom_site_fract_x
 _atom_site_fract_y
 _atom_site_fract_z
 _atom_site_occupancy
  Th  Th0  1  0.417874  0.417874  0.500000  1
  Th  Th1  1  0.609120  0.004420  0.500000  1
  Th  Th2  1  0.004420  0.609120  0.500000  1
  Sn  Sn3  1  0.257554  0.997741  0.000000  1
  Sn  Sn4  1  0.997741  0.257554  0.000000  1
  Ru  Ru5  1  0.638977  0.308817  0.000000  1
  Ru  Ru6  1  0.308817  0.638977  0.000000  1
  Ru  Ru7  1  0.021863  0.021863  0.500000  1
  Au  Au8  1  0.743632  0.743632  0.000000  1
