# generated using pymatgen
data_Tm4LuZr5Pb6
_symmetry_space_group_name_H-M   'P 1'
_cell_length_a   8.84899832
_cell_length_b   8.85690947
_cell_length_c   6.07985200
_cell_angle_alpha   90.00000000
_cell_angle_beta   90.00000000
_cell_angle_gamma   119.90152141
_symmetry_Int_Tables_number   1
_chemical_formula_structural   Tm4LuZr5Pb6
_chemical_formula_sum   'Tm4 Lu1 Zr5 Pb6'
_cell_volume   413.07610077
_cell_formula_units_Z   1
loop_
 _symmetry_equiv_pos_site_id
 _symmetry_equiv_pos_as_xyz
  1  'x, y, z'
loop_
 _atom_site_type_symbol
 _atom_site_label
 _atom_site_symmetry_multiplicity
 _atom_site_fract_x
 _atom_site_fract_y
 _atom_site_fract_z
 _atom_site_occupancy
  Tm  Tm0  1  0.757818  0.757717  0.250000  1
  Tm  Tm1  1  0.001100  0.238667  0.250000  1
  Tm  Tm2  1  0.764295  0.001947  0.750000  1
  Tm  Tm3  1  0.238425  0.000965  0.250000  1
  Lu  Lu4  1  0.002054  0.764276  0.750000  1
  Zr  Zr5  1  0.333088  0.664055  0.500170  1
  Zr  Zr6  1  0.663891  0.332957  0.500161  1
  Zr  Zr7  1  0.333088  0.664055  0.999830  1
  Zr  Zr8  1  0.243882  0.243805  0.750000  1
  Zr  Zr9  1  0.663891  0.332957  0.999839  1
  Pb  Pb10  1  0.603010  0.602818  0.750000  1
  Pb  Pb11  1  0.394473  0.001100  0.750000  1
  Pb  Pb12  1  0.603829  0.000590  0.250000  1
  Pb  Pb13  1  0.001346  0.394951  0.750000  1
  Pb  Pb14  1  0.395252  0.395304  0.250000  1
  Pb  Pb15  1  0.000562  0.603838  0.250000  1
