# generated using pymatgen
data_Tb14Tm3Lu3Pb16
_symmetry_space_group_name_H-M   'P 1'
_cell_length_a   8.17823205
_cell_length_b   8.26851412
_cell_length_c   15.64469004
_cell_angle_alpha   89.99654541
_cell_angle_beta   89.99956630
_cell_angle_gamma   90.01218603
_symmetry_Int_Tables_number   1
_chemical_formula_structural   Tb14Tm3Lu3Pb16
_chemical_formula_sum   'Tb14 Tm3 Lu3 Pb16'
_cell_volume   1057.92249993
_cell_formula_units_Z   1
loop_
 _symmetry_equiv_pos_site_id
 _symmetry_equiv_pos_as_xyz
  1  'x, y, z'
loop_
 _atom_site_type_symbol
 _atom_site_label
 _atom_site_symmetry_multiplicity
 _atom_site_fract_x
 _atom_site_fract_y
 _atom_site_fract_z
 _atom_site_occupancy
  Tb  Tb0  1  0.626907  0.157195  0.380277  1
  Tb  Tb1  1  0.126908  0.342804  0.119741  1
  Tb  Tb2  1  0.624928  0.158831  0.121419  1
  Tb  Tb3  1  0.124918  0.341185  0.378571  1
  Tb  Tb4  1  0.375308  0.842766  0.621294  1
  Tb  Tb5  1  0.875136  0.657366  0.878709  1
  Tb  Tb6  1  0.533532  0.323406  0.901123  1
  Tb  Tb7  1  0.033451  0.176518  0.598886  1
  Tb  Tb8  1  0.466274  0.676789  0.401743  1
  Tb  Tb9  1  0.966282  0.823206  0.098240  1
  Tb  Tb10  1  0.468840  0.678626  0.096828  1
  Tb  Tb11  1  0.968860  0.821375  0.403190  1
  Tb  Tb12  1  0.532767  0.324925  0.599731  1
  Tb  Tb13  1  0.032680  0.174986  0.900259  1
  Tm  Tm14  1  0.372498  0.844082  0.876298  1
  Tm  Tm15  1  0.872348  0.656024  0.623691  1
  Tm  Tm16  1  0.206294  0.505356  0.749962  1
  Lu  Lu17  1  0.706387  0.994565  0.750034  1
  Lu  Lu18  1  0.793727  0.495251  0.250749  1
  Lu  Lu19  1  0.293728  0.004722  0.249244  1
  Pb  Pb20  1  0.284175  0.032910  0.041600  1
  Pb  Pb21  1  0.784164  0.467095  0.458402  1
  Pb  Pb22  1  0.719103  0.961805  0.544848  1
  Pb  Pb23  1  0.219099  0.538196  0.955237  1
  Pb  Pb24  1  0.711888  0.964050  0.955587  1
  Pb  Pb25  1  0.211887  0.535950  0.544330  1
  Pb  Pb26  1  0.284044  0.034228  0.455885  1
  Pb  Pb27  1  0.784048  0.465777  0.044111  1
  Pb  Pb28  1  0.568626  0.626158  0.750493  1
  Pb  Pb29  1  0.068380  0.874043  0.749514  1
  Pb  Pb30  1  0.430945  0.375868  0.250648  1
  Pb  Pb31  1  0.930942  0.124123  0.249357  1
  Pb  Pb32  1  0.346115  0.156153  0.750315  1
  Pb  Pb33  1  0.846062  0.343601  0.749683  1
  Pb  Pb34  1  0.654378  0.843969  0.250154  1
  Pb  Pb35  1  0.154365  0.656097  0.249849  1
