# generated using pymatgen
data_Yb6CrSi24Ru7
_symmetry_space_group_name_H-M   'P 1'
_cell_length_a   10.12313800
_cell_length_b   10.12313798
_cell_length_c   8.16902859
_cell_angle_alpha   89.98238682
_cell_angle_beta   89.98238585
_cell_angle_gamma   132.38969231
_symmetry_Int_Tables_number   1
_chemical_formula_structural   Yb6CrSi24Ru7
_chemical_formula_sum   'Yb6 Cr1 Si24 Ru7'
_cell_volume   618.29562011
_cell_formula_units_Z   1
loop_
 _symmetry_equiv_pos_site_id
 _symmetry_equiv_pos_as_xyz
  1  'x, y, z'
loop_
 _atom_site_type_symbol
 _atom_site_label
 _atom_site_symmetry_multiplicity
 _atom_site_fract_x
 _atom_site_fract_y
 _atom_site_fract_z
 _atom_site_occupancy
  Yb  Yb0  1  0.999132  0.000868  0.000000  1
  Yb  Yb1  1  0.499829  0.500171  0.500000  1
  Yb  Yb2  1  0.003215  0.503969  0.249512  1
  Yb  Yb3  1  0.995656  0.497038  0.749733  1
  Yb  Yb4  1  0.496031  0.996785  0.750488  1
  Yb  Yb5  1  0.502962  0.004344  0.250267  1
  Cr  Cr6  1  0.831578  0.168422  0.000000  1
  Si  Si7  1  0.706189  0.293811  0.000000  1
  Si  Si8  1  0.294254  0.705746  0.000000  1
  Si  Si9  1  0.794275  0.205725  0.500000  1
  Si  Si10  1  0.205662  0.794338  0.500000  1
  Si  Si11  1  0.334822  0.330927  0.167490  1
  Si  Si12  1  0.669073  0.665178  0.832510  1
  Si  Si13  1  0.168252  0.165705  0.667634  1
  Si  Si14  1  0.834295  0.831748  0.332366  1
  Si  Si15  1  0.847396  0.614593  0.007208  1
  Si  Si16  1  0.150561  0.384873  0.989440  1
  Si  Si17  1  0.653262  0.886473  0.508673  1
  Si  Si18  1  0.113527  0.346738  0.491327  1
  Si  Si19  1  0.346444  0.113042  0.493542  1
  Si  Si20  1  0.886958  0.653556  0.506458  1
  Si  Si21  1  0.385407  0.152604  0.992792  1
  Si  Si22  1  0.615127  0.849439  0.010560  1
  Si  Si23  1  0.894668  0.127835  0.267623  1
  Si  Si24  1  0.108297  0.875771  0.730789  1
  Si  Si25  1  0.607805  0.374518  0.768886  1
  Si  Si26  1  0.625482  0.392195  0.231114  1
  Si  Si27  1  0.394865  0.628763  0.231071  1
  Si  Si28  1  0.371237  0.605135  0.768929  1
  Si  Si29  1  0.872165  0.105332  0.732377  1
  Si  Si30  1  0.124229  0.891703  0.269211  1
  Ru  Ru31  1  0.168988  0.831012  0.000000  1
  Ru  Ru32  1  0.668895  0.331105  0.500000  1
  Ru  Ru33  1  0.331322  0.668678  0.500000  1
  Ru  Ru34  1  0.125798  0.126404  0.375088  1
  Ru  Ru35  1  0.873596  0.874202  0.624912  1
  Ru  Ru36  1  0.374153  0.375407  0.875252  1
  Ru  Ru37  1  0.624593  0.625847  0.124748  1
