# generated using pymatgen
data_Dy3Tm11Lu6(CoSb2)4
_symmetry_space_group_name_H-M   'P 1'
_cell_length_a   7.72936043
_cell_length_b   8.74058174
_cell_length_c   12.03911301
_cell_angle_alpha   89.99910801
_cell_angle_beta   90.02266661
_cell_angle_gamma   90.04735773
_symmetry_Int_Tables_number   1
_chemical_formula_structural   Dy3Tm11Lu6(CoSb2)4
_chemical_formula_sum   'Dy3 Tm11 Lu6 Co4 Sb8'
_cell_volume   813.35137780
_cell_formula_units_Z   1
loop_
 _symmetry_equiv_pos_site_id
 _symmetry_equiv_pos_as_xyz
  1  'x, y, z'
loop_
 _atom_site_type_symbol
 _atom_site_label
 _atom_site_symmetry_multiplicity
 _atom_site_fract_x
 _atom_site_fract_y
 _atom_site_fract_z
 _atom_site_occupancy
  Dy  Dy0  1  0.878382  0.749695  0.807496  1
  Dy  Dy1  1  0.377785  0.249823  0.692265  1
  Dy  Dy2  1  0.122539  0.250164  0.192572  1
  Tm  Tm3  1  0.155139  0.749861  0.203763  1
  Tm  Tm4  1  0.345134  0.750156  0.703663  1
  Tm  Tm5  1  0.845523  0.249991  0.796328  1
  Tm  Tm6  1  0.654464  0.250003  0.296373  1
  Tm  Tm7  1  0.449439  0.749845  0.997823  1
  Tm  Tm8  1  0.050301  0.750169  0.497918  1
  Tm  Tm9  1  0.549519  0.250282  0.002222  1
  Tm  Tm10  1  0.949745  0.249689  0.501922  1
  Tm  Tm11  1  0.620414  0.750309  0.308849  1
  Tm  Tm12  1  0.823011  0.963608  0.065316  1
  Tm  Tm13  1  0.677055  0.537176  0.564698  1
  Lu  Lu14  1  0.824617  0.536473  0.065046  1
  Lu  Lu15  1  0.675523  0.962744  0.564450  1
  Lu  Lu16  1  0.175728  0.036942  0.934866  1
  Lu  Lu17  1  0.324814  0.464478  0.434462  1
  Lu  Lu18  1  0.175345  0.462959  0.935012  1
  Lu  Lu19  1  0.325231  0.035565  0.434583  1
  Co  Co20  1  0.433031  0.750546  0.491073  1
  Co  Co21  1  0.067349  0.749477  0.991365  1
  Co  Co22  1  0.565827  0.249537  0.508120  1
  Co  Co23  1  0.933905  0.250460  0.008571  1
  Sb  Sb24  1  0.929280  0.509322  0.328081  1
  Sb  Sb25  1  0.569670  0.991513  0.828192  1
  Sb  Sb26  1  0.069365  0.008783  0.671826  1
  Sb  Sb27  1  0.431758  0.492163  0.172230  1
  Sb  Sb28  1  0.069997  0.491150  0.671955  1
  Sb  Sb29  1  0.431180  0.007939  0.172369  1
  Sb  Sb30  1  0.929548  0.990674  0.328244  1
  Sb  Sb31  1  0.569377  0.508503  0.828346  1
