# generated using pymatgen
data_ScAl4VMo
_symmetry_space_group_name_H-M   'P 1'
_cell_length_a   5.36468344
_cell_length_b   5.36468323
_cell_length_c   5.36468285
_cell_angle_alpha   103.72527978
_cell_angle_beta   103.72527923
_cell_angle_gamma   121.69964736
_symmetry_Int_Tables_number   1
_chemical_formula_structural   ScAl4VMo
_chemical_formula_sum   'Sc1 Al4 V1 Mo1'
_cell_volume   114.72376025
_cell_formula_units_Z   1
loop_
 _symmetry_equiv_pos_site_id
 _symmetry_equiv_pos_as_xyz
  1  'x, y, z'
loop_
 _atom_site_type_symbol
 _atom_site_label
 _atom_site_symmetry_multiplicity
 _atom_site_fract_x
 _atom_site_fract_y
 _atom_site_fract_z
 _atom_site_occupancy
  Sc  Sc0  1  0.000000  0.000000  0.000000  1
  Al  Al1  1  0.303241  0.303241  0.606484  1
  Al  Al2  1  0.696759  0.696759  0.393516  1
  Al  Al3  1  0.696759  0.303241  0.000000  1
  Al  Al4  1  0.303241  0.696759  0.000000  1
  V  V5  1  0.250000  0.750000  0.500000  1
  Mo  Mo6  1  0.750000  0.250000  0.500000  1
