# generated using pymatgen
data_Pr3Nd7IrRu3
_symmetry_space_group_name_H-M   'P 1'
_cell_length_a   8.92659269
_cell_length_b   8.94907695
_cell_length_c   7.39568351
_cell_angle_alpha   83.54095390
_cell_angle_beta   83.62092782
_cell_angle_gamma   43.42772699
_symmetry_Int_Tables_number   1
_chemical_formula_structural   Pr3Nd7IrRu3
_chemical_formula_sum   'Pr3 Nd7 Ir1 Ru3'
_cell_volume   403.18849395
_cell_formula_units_Z   1
loop_
 _symmetry_equiv_pos_site_id
 _symmetry_equiv_pos_as_xyz
  1  'x, y, z'
loop_
 _atom_site_type_symbol
 _atom_site_label
 _atom_site_symmetry_multiplicity
 _atom_site_fract_x
 _atom_site_fract_y
 _atom_site_fract_z
 _atom_site_occupancy
  Pr  Pr0  1  0.015906  0.799659  0.916883  1
  Pr  Pr1  1  0.202342  0.983511  0.585954  1
  Pr  Pr2  1  0.984053  0.201163  0.086263  1
  Nd  Nd3  1  0.795829  0.020011  0.413268  1
  Nd  Nd4  1  0.359196  0.207341  0.815434  1
  Nd  Nd5  1  0.789754  0.642135  0.685041  1
  Nd  Nd6  1  0.642428  0.791002  0.185934  1
  Nd  Nd7  1  0.208813  0.355655  0.314441  1
  Nd  Nd8  1  0.572919  0.426886  0.749402  1
  Nd  Nd9  1  0.427663  0.573963  0.248331  1
  Ir  Ir10  1  0.178975  0.596296  0.574380  1
  Ru  Ru11  1  0.399591  0.823994  0.924250  1
  Ru  Ru12  1  0.824199  0.399970  0.426138  1
  Ru  Ru13  1  0.598332  0.178414  0.074283  1
