# generated using pymatgen
data_Ba5Sr3Ca4(ReN4)4
_symmetry_space_group_name_H-M   'P 1'
_cell_length_a   10.95471190
_cell_length_b   10.59056402
_cell_length_c   7.92329334
_cell_angle_alpha   71.02400262
_cell_angle_beta   65.99389453
_cell_angle_gamma   43.11253314
_symmetry_Int_Tables_number   1
_chemical_formula_structural   Ba5Sr3Ca4(ReN4)4
_chemical_formula_sum   'Ba5 Sr3 Ca4 Re4 N16'
_cell_volume   573.30903954
_cell_formula_units_Z   1
loop_
 _symmetry_equiv_pos_site_id
 _symmetry_equiv_pos_as_xyz
  1  'x, y, z'
loop_
 _atom_site_type_symbol
 _atom_site_label
 _atom_site_symmetry_multiplicity
 _atom_site_fract_x
 _atom_site_fract_y
 _atom_site_fract_z
 _atom_site_occupancy
  Ba  Ba0  1  0.112617  0.112374  0.887044  1
  Ba  Ba1  1  0.139234  0.136727  0.361251  1
  Ba  Ba2  1  0.362788  0.361251  0.136727  1
  Ba  Ba3  1  0.674172  0.325828  0.325828  1
  Ba  Ba4  1  0.887966  0.887044  0.112374  1
  Sr  Sr5  1  0.566823  0.933177  0.933177  1
  Sr  Sr6  1  0.932853  0.567147  0.567147  1
  Sr  Sr7  1  0.315863  0.684137  0.684137  1
  Ca  Ca8  1  0.337936  0.340589  0.661777  1
  Ca  Ca9  1  0.913145  0.906175  0.588697  1
  Ca  Ca10  1  0.659698  0.661777  0.340589  1
  Ca  Ca11  1  0.591983  0.588697  0.906175  1
  Re  Re12  1  0.493153  0.006812  0.493436  1
  Re  Re13  1  0.006598  0.493436  0.006812  1
  Re  Re14  1  0.758019  0.241486  0.755491  1
  Re  Re15  1  0.245004  0.755491  0.241486  1
  N  N16  1  0.003746  0.659230  0.826668  1
  N  N17  1  0.706295  0.279623  0.998439  1
  N  N18  1  0.660968  0.999577  0.514008  1
  N  N19  1  0.510357  0.826668  0.659230  1
  N  N20  1  0.244422  0.593123  0.424435  1
  N  N21  1  0.738020  0.424435  0.593123  1
  N  N22  1  0.003138  0.010551  0.703775  1
  N  N23  1  0.544186  0.969865  0.248127  1
  N  N24  1  0.422485  0.741964  0.245205  1
  N  N25  1  0.969020  0.545101  0.238162  1
  N  N26  1  0.282536  0.703775  0.010551  1
  N  N27  1  0.825448  0.514008  0.999577  1
  N  N28  1  0.237822  0.248127  0.969865  1
  N  N29  1  0.590344  0.245205  0.741964  1
  N  N30  1  0.247717  0.238162  0.545101  1
  N  N31  1  0.015644  0.998439  0.279623  1
