# generated using pymatgen
data_Ho2Tm10CdCo4Ir
_symmetry_space_group_name_H-M   'P 1'
_cell_length_a   8.18900150
_cell_length_b   8.18446742
_cell_length_c   8.18493837
_cell_angle_alpha   111.22279826
_cell_angle_beta   110.53300331
_cell_angle_gamma   106.65407657
_symmetry_Int_Tables_number   1
_chemical_formula_structural   Ho2Tm10CdCo4Ir
_chemical_formula_sum   'Ho2 Tm10 Cd1 Co4 Ir1'
_cell_volume   421.73465179
_cell_formula_units_Z   1
loop_
 _symmetry_equiv_pos_site_id
 _symmetry_equiv_pos_as_xyz
  1  'x, y, z'
loop_
 _atom_site_type_symbol
 _atom_site_label
 _atom_site_symmetry_multiplicity
 _atom_site_fract_x
 _atom_site_fract_y
 _atom_site_fract_z
 _atom_site_occupancy
  Ho  Ho0  1  0.586658  0.280180  0.305613  1
  Ho  Ho1  1  0.181753  0.215542  0.397786  1
  Tm  Tm2  1  0.181040  0.782478  0.964067  1
  Tm  Tm3  1  0.685392  0.491711  0.808483  1
  Tm  Tm4  1  0.684339  0.876521  0.193232  1
  Tm  Tm5  1  0.975355  0.280401  0.695547  1
  Tm  Tm6  1  0.024858  0.718558  0.305661  1
  Tm  Tm7  1  0.315475  0.122308  0.806485  1
  Tm  Tm8  1  0.315218  0.509505  0.192779  1
  Tm  Tm9  1  0.817663  0.216213  0.033474  1
  Tm  Tm10  1  0.818202  0.784016  0.601856  1
  Tm  Tm11  1  0.415078  0.720355  0.695524  1
  Cd  Cd12  1  0.499951  0.999586  0.500582  1
  Co  Co13  1  0.886114  0.887075  0.998237  1
  Co  Co14  1  0.374671  0.500495  0.875628  1
  Co  Co15  1  0.624531  0.499850  0.124260  1
  Co  Co16  1  0.111057  0.112791  0.997443  1
  Ir  Ir17  1  0.002645  0.502417  0.503345  1
