# generated using pymatgen
data_Dy10Tl5BiS2
_symmetry_space_group_name_H-M   'P 1'
_cell_length_a   9.15058100
_cell_length_b   9.15058120
_cell_length_c   6.71071200
_cell_angle_alpha   90.00000000
_cell_angle_beta   90.00000000
_cell_angle_gamma   120.11221224
_symmetry_Int_Tables_number   1
_chemical_formula_structural   Dy10Tl5BiS2
_chemical_formula_sum   'Dy10 Tl5 Bi1 S2'
_cell_volume   486.07625069
_cell_formula_units_Z   1
loop_
 _symmetry_equiv_pos_site_id
 _symmetry_equiv_pos_as_xyz
  1  'x, y, z'
loop_
 _atom_site_type_symbol
 _atom_site_label
 _atom_site_symmetry_multiplicity
 _atom_site_fract_x
 _atom_site_fract_y
 _atom_site_fract_z
 _atom_site_occupancy
  Dy  Dy0  1  0.670304  0.334370  0.004915  1
  Dy  Dy1  1  0.334370  0.670304  0.004915  1
  Dy  Dy2  1  0.334370  0.670304  0.495085  1
  Dy  Dy3  1  0.670304  0.334370  0.495085  1
  Dy  Dy4  1  0.759217  0.759217  0.750000  1
  Dy  Dy5  1  0.237696  0.993739  0.750000  1
  Dy  Dy6  1  0.993739  0.237696  0.750000  1
  Dy  Dy7  1  0.241447  0.241447  0.250000  1
  Dy  Dy8  1  0.756075  0.997588  0.250000  1
  Dy  Dy9  1  0.997588  0.756075  0.250000  1
  Tl  Tl10  1  0.598319  0.999581  0.750000  1
  Tl  Tl11  1  0.999581  0.598319  0.750000  1
  Tl  Tl12  1  0.600962  0.600962  0.250000  1
  Tl  Tl13  1  0.403692  0.002573  0.250000  1
  Tl  Tl14  1  0.002573  0.403692  0.250000  1
  Bi  Bi15  1  0.397456  0.397456  0.750000  1
  S  S16  1  0.001153  0.001153  0.997728  1
  S  S17  1  0.001153  0.001153  0.502272  1
