# generated using pymatgen
data_Li3Ho8Sc7(Si8W)2
_symmetry_space_group_name_H-M   'P 1'
_cell_length_a   6.86449078
_cell_length_b   7.25179900
_cell_length_c   13.84077195
_cell_angle_alpha   90.08616498
_cell_angle_beta   89.83732163
_cell_angle_gamma   89.41532823
_symmetry_Int_Tables_number   1
_chemical_formula_structural   Li3Ho8Sc7(Si8W)2
_chemical_formula_sum   'Li3 Ho8 Sc7 Si16 W2'
_cell_volume   688.95288733
_cell_formula_units_Z   1
loop_
 _symmetry_equiv_pos_site_id
 _symmetry_equiv_pos_as_xyz
  1  'x, y, z'
loop_
 _atom_site_type_symbol
 _atom_site_label
 _atom_site_symmetry_multiplicity
 _atom_site_fract_x
 _atom_site_fract_y
 _atom_site_fract_z
 _atom_site_occupancy
  Li  Li0  1  0.161887  0.505073  0.746659  1
  Li  Li1  1  0.840404  0.494097  0.251132  1
  Li  Li2  1  0.341567  0.008005  0.249917  1
  Ho  Ho3  1  0.014070  0.180468  0.098031  1
  Ho  Ho4  1  0.990044  0.822798  0.896922  1
  Ho  Ho5  1  0.488856  0.676452  0.896468  1
  Ho  Ho6  1  0.990432  0.827614  0.598364  1
  Ho  Ho7  1  0.513601  0.318303  0.095548  1
  Ho  Ho8  1  0.012758  0.181132  0.402292  1
  Ho  Ho9  1  0.512525  0.316930  0.409664  1
  Ho  Ho10  1  0.488845  0.674582  0.598028  1
  Sc  Sc11  1  0.667687  0.825928  0.379791  1
  Sc  Sc12  1  0.168506  0.679736  0.378979  1
  Sc  Sc13  1  0.668692  0.823307  0.124858  1
  Sc  Sc14  1  0.841533  0.319979  0.625731  1
  Sc  Sc15  1  0.325177  0.180468  0.870625  1
  Sc  Sc16  1  0.826265  0.323636  0.870964  1
  Sc  Sc17  1  0.168728  0.679144  0.126497  1
  Si  Si18  1  0.030333  0.100325  0.747538  1
  Si  Si19  1  0.968037  0.897861  0.251520  1
  Si  Si20  1  0.469332  0.607363  0.251966  1
  Si  Si21  1  0.531479  0.368550  0.744255  1
  Si  Si22  1  0.300363  0.884487  0.746251  1
  Si  Si23  1  0.713884  0.121676  0.250550  1
  Si  Si24  1  0.222685  0.379427  0.251422  1
  Si  Si25  1  0.778461  0.633102  0.746575  1
  Si  Si26  1  0.175179  0.450816  0.538080  1
  Si  Si27  1  0.841678  0.535491  0.467960  1
  Si  Si28  1  0.330009  0.966784  0.476259  1
  Si  Si29  1  0.842000  0.539773  0.033848  1
  Si  Si30  1  0.643540  0.035272  0.551570  1
  Si  Si31  1  0.157403  0.464094  0.963659  1
  Si  Si32  1  0.652756  0.033080  0.950499  1
  Si  Si33  1  0.339246  0.961448  0.031746  1
  W  W34  1  0.659358  0.007929  0.746035  1
  W  W35  1  0.322682  0.174873  0.629797  1
