# generated using pymatgen
data_AgTeO4
_symmetry_space_group_name_H-M   'P 1'
_cell_length_a   5.13547600
_cell_length_b   5.09429800
_cell_length_c   12.57400200
_cell_angle_alpha   90.00000000
_cell_angle_beta   90.00000000
_cell_angle_gamma   90.00000000
_symmetry_Int_Tables_number   1
_chemical_formula_structural   AgTeO4
_chemical_formula_sum   'Ag4 Te4 O16'
_cell_volume   328.95657801
_cell_formula_units_Z   4
loop_
 _symmetry_equiv_pos_site_id
 _symmetry_equiv_pos_as_xyz
  1  'x, y, z'
loop_
 _atom_site_type_symbol
 _atom_site_label
 _atom_site_symmetry_multiplicity
 _atom_site_fract_x
 _atom_site_fract_y
 _atom_site_fract_z
 _atom_site_occupancy
  Ag  Ag0  1  0.750000  0.000000  0.671977  1
  Ag  Ag1  1  0.250000  0.500000  0.828023  1
  Ag  Ag2  1  0.250000  0.000000  0.328023  1
  Ag  Ag3  1  0.750000  0.500000  0.171977  1
  Te  Te4  1  0.750000  0.500000  0.427927  1
  Te  Te5  1  0.250000  0.000000  0.072073  1
  Te  Te6  1  0.250000  0.500000  0.572073  1
  Te  Te7  1  0.750000  0.000000  0.927927  1
  O  O8  1  0.108840  0.279848  0.679756  1
  O  O9  1  0.608840  0.220152  0.820244  1
  O  O10  1  0.891160  0.779848  0.820244  1
  O  O11  1  0.391160  0.720152  0.679756  1
  O  O12  1  0.891160  0.720152  0.320244  1
  O  O13  1  0.391160  0.779848  0.179756  1
  O  O14  1  0.108840  0.220152  0.179756  1
  O  O15  1  0.608840  0.279848  0.320244  1
  O  O16  1  0.568872  0.285120  0.543190  1
  O  O17  1  0.068872  0.214880  0.956810  1
  O  O18  1  0.431128  0.785120  0.956810  1
  O  O19  1  0.931128  0.714880  0.543190  1
  O  O20  1  0.431128  0.714880  0.456810  1
  O  O21  1  0.931128  0.785120  0.043190  1
  O  O22  1  0.568872  0.214880  0.043190  1
  O  O23  1  0.068872  0.285120  0.456810  1
