# generated using pymatgen
data_Dy4TaOs6W
_symmetry_space_group_name_H-M   'P 1'
_cell_length_a   5.26491415
_cell_length_b   5.26491508
_cell_length_c   9.03773400
_cell_angle_alpha   90.00000000
_cell_angle_beta   90.00000000
_cell_angle_gamma   115.71508408
_symmetry_Int_Tables_number   1
_chemical_formula_structural   Dy4TaOs6W
_chemical_formula_sum   'Dy4 Ta1 Os6 W1'
_cell_volume   225.70911100
_cell_formula_units_Z   1
loop_
 _symmetry_equiv_pos_site_id
 _symmetry_equiv_pos_as_xyz
  1  'x, y, z'
loop_
 _atom_site_type_symbol
 _atom_site_label
 _atom_site_symmetry_multiplicity
 _atom_site_fract_x
 _atom_site_fract_y
 _atom_site_fract_z
 _atom_site_occupancy
  Dy  Dy0  1  0.329289  0.670711  0.437240  1
  Dy  Dy1  1  0.669203  0.330797  0.566478  1
  Dy  Dy2  1  0.669203  0.330797  0.933522  1
  Dy  Dy3  1  0.329289  0.670711  0.062760  1
  Ta  Ta4  1  0.842081  0.157919  0.250000  1
  Os  Os5  1  0.002634  0.997366  0.503125  1
  Os  Os6  1  0.002634  0.997366  0.996875  1
  Os  Os7  1  0.822581  0.648002  0.250000  1
  Os  Os8  1  0.351998  0.177419  0.250000  1
  Os  Os9  1  0.173192  0.352918  0.750000  1
  Os  Os10  1  0.647082  0.826808  0.750000  1
  W  W11  1  0.160815  0.839185  0.750000  1
