# generated using pymatgen
data_Ho7Er9MgCd3Ir4
_symmetry_space_group_name_H-M   'P 1'
_cell_length_a   9.60836721
_cell_length_b   9.60836668
_cell_length_c   9.60731809
_cell_angle_alpha   59.71996151
_cell_angle_beta   59.71996464
_cell_angle_gamma   59.73762832
_symmetry_Int_Tables_number   1
_chemical_formula_structural   Ho7Er9MgCd3Ir4
_chemical_formula_sum   'Ho7 Er9 Mg1 Cd3 Ir4'
_cell_volume   623.26655211
_cell_formula_units_Z   1
loop_
 _symmetry_equiv_pos_site_id
 _symmetry_equiv_pos_as_xyz
  1  'x, y, z'
loop_
 _atom_site_type_symbol
 _atom_site_label
 _atom_site_symmetry_multiplicity
 _atom_site_fract_x
 _atom_site_fract_y
 _atom_site_fract_z
 _atom_site_occupancy
  Ho  Ho0  1  0.061700  0.061700  0.436928  1
  Ho  Ho1  1  0.189239  0.812719  0.812872  1
  Ho  Ho2  1  0.812085  0.187873  0.187738  1
  Ho  Ho3  1  0.812719  0.189239  0.812872  1
  Ho  Ho4  1  0.187873  0.812085  0.187738  1
  Ho  Ho5  1  0.812772  0.812772  0.189216  1
  Ho  Ho6  1  0.187804  0.187804  0.812161  1
  Er  Er7  1  0.599269  0.599269  0.599405  1
  Er  Er8  1  0.598516  0.598516  0.205311  1
  Er  Er9  1  0.598262  0.205468  0.598633  1
  Er  Er10  1  0.205468  0.598262  0.598633  1
  Er  Er11  1  0.059782  0.439607  0.439477  1
  Er  Er12  1  0.436982  0.061902  0.061593  1
  Er  Er13  1  0.439607  0.059782  0.439477  1
  Er  Er14  1  0.061902  0.436982  0.061593  1
  Er  Er15  1  0.439465  0.439465  0.059714  1
  Mg  Mg16  1  0.825861  0.825861  0.825976  1
  Cd  Cd17  1  0.831170  0.831170  0.506047  1
  Cd  Cd18  1  0.831201  0.506039  0.831193  1
  Cd  Cd19  1  0.506039  0.831201  0.831193  1
  Ir  Ir20  1  0.391784  0.391784  0.391804  1
  Ir  Ir21  1  0.392674  0.392674  0.825084  1
  Ir  Ir22  1  0.393023  0.824807  0.392673  1
  Ir  Ir23  1  0.824807  0.393023  0.392673  1
