# generated using pymatgen
data_V2Ga2Sb2O9
_symmetry_space_group_name_H-M   'P 1'
_cell_length_a   6.01374400
_cell_length_b   8.26342900
_cell_length_c   8.35000200
_cell_angle_alpha   90.00000000
_cell_angle_beta   90.00000000
_cell_angle_gamma   90.00000000
_symmetry_Int_Tables_number   1
_chemical_formula_structural   V2Ga2Sb2O9
_chemical_formula_sum   'V4 Ga4 Sb4 O18'
_cell_volume   414.94622323
_cell_formula_units_Z   2
loop_
 _symmetry_equiv_pos_site_id
 _symmetry_equiv_pos_as_xyz
  1  'x, y, z'
loop_
 _atom_site_type_symbol
 _atom_site_label
 _atom_site_symmetry_multiplicity
 _atom_site_fract_x
 _atom_site_fract_y
 _atom_site_fract_z
 _atom_site_occupancy
  V  V0  1  0.259641  0.500000  0.500000  1
  V  V1  1  0.740359  0.000000  0.000000  1
  V  V2  1  0.740359  0.500000  0.500000  1
  V  V3  1  0.259641  0.000000  0.000000  1
  Ga  Ga4  1  0.500000  0.149351  0.656628  1
  Ga  Ga5  1  0.500000  0.850649  0.343372  1
  Ga  Ga6  1  0.500000  0.649351  0.843372  1
  Ga  Ga7  1  0.500000  0.350649  0.156628  1
  Sb  Sb8  1  0.000000  0.303922  0.816341  1
  Sb  Sb9  1  0.000000  0.696078  0.183659  1
  Sb  Sb10  1  0.000000  0.803922  0.683659  1
  Sb  Sb11  1  0.000000  0.196078  0.316341  1
  O  O12  1  0.500000  0.500000  0.000000  1
  O  O13  1  0.500000  0.000000  0.500000  1
  O  O14  1  0.243457  0.865713  0.209438  1
  O  O15  1  0.243457  0.134287  0.790562  1
  O  O16  1  0.756543  0.365713  0.290562  1
  O  O17  1  0.756543  0.634287  0.709438  1
  O  O18  1  0.756543  0.134287  0.790562  1
  O  O19  1  0.756543  0.865713  0.209438  1
  O  O20  1  0.243457  0.634287  0.709438  1
  O  O21  1  0.243457  0.365713  0.290562  1
  O  O22  1  0.500000  0.366549  0.598044  1
  O  O23  1  0.500000  0.633451  0.401956  1
  O  O24  1  0.000000  0.149102  0.072325  1
  O  O25  1  0.000000  0.850898  0.927675  1
  O  O26  1  0.000000  0.649102  0.427675  1
  O  O27  1  0.000000  0.350898  0.572325  1
  O  O28  1  0.500000  0.133451  0.098044  1
  O  O29  1  0.500000  0.866549  0.901956  1
