# generated using pymatgen
data_TbLu9(Tl3S)2
_symmetry_space_group_name_H-M   'P 1'
_cell_length_a   9.03692300
_cell_length_b   9.03076522
_cell_length_c   6.47092900
_cell_angle_alpha   90.00000000
_cell_angle_beta   90.00000000
_cell_angle_gamma   119.97747059
_symmetry_Int_Tables_number   1
_chemical_formula_structural   TbLu9(Tl3S)2
_chemical_formula_sum   'Tb1 Lu9 Tl6 S2'
_cell_volume   457.44717459
_cell_formula_units_Z   1
loop_
 _symmetry_equiv_pos_site_id
 _symmetry_equiv_pos_as_xyz
  1  'x, y, z'
loop_
 _atom_site_type_symbol
 _atom_site_label
 _atom_site_symmetry_multiplicity
 _atom_site_fract_x
 _atom_site_fract_y
 _atom_site_fract_z
 _atom_site_occupancy
  Tb  Tb0  1  0.000000  0.755680  0.750000  1
  Lu  Lu1  1  0.664650  0.331258  0.499810  1
  Lu  Lu2  1  0.335350  0.666609  0.499810  1
  Lu  Lu3  1  0.335350  0.666609  0.000190  1
  Lu  Lu4  1  0.664650  0.331258  0.000190  1
  Lu  Lu5  1  0.757495  0.758991  0.250000  1
  Lu  Lu6  1  0.242505  0.001496  0.250000  1
  Lu  Lu7  1  0.000000  0.244014  0.250000  1
  Lu  Lu8  1  0.242499  0.241736  0.750000  1
  Lu  Lu9  1  0.757501  0.999236  0.750000  1
  Tl  Tl10  1  0.399489  0.399506  0.250000  1
  Tl  Tl11  1  0.600511  0.000016  0.250000  1
  Tl  Tl12  1  0.000000  0.597597  0.250000  1
  Tl  Tl13  1  0.598243  0.599157  0.750000  1
  Tl  Tl14  1  0.401757  0.000914  0.750000  1
  Tl  Tl15  1  0.000000  0.399902  0.750000  1
  S  S16  1  0.000000  0.003012  0.498198  1
  S  S17  1  0.000000  0.003012  0.001802  1
