# generated using pymatgen
data_Rb2Hf7BBr18
_symmetry_space_group_name_H-M   'P 1'
_cell_length_a   10.97766868
_cell_length_b   10.97766960
_cell_length_c   10.97767045
_cell_angle_alpha   55.84017452
_cell_angle_beta   55.84017353
_cell_angle_gamma   55.84017227
_symmetry_Int_Tables_number   1
_chemical_formula_structural   Rb2Hf7BBr18
_chemical_formula_sum   'Rb2 Hf7 B1 Br18'
_cell_volume   845.22521676
_cell_formula_units_Z   1
loop_
 _symmetry_equiv_pos_site_id
 _symmetry_equiv_pos_as_xyz
  1  'x, y, z'
loop_
 _atom_site_type_symbol
 _atom_site_label
 _atom_site_symmetry_multiplicity
 _atom_site_fract_x
 _atom_site_fract_y
 _atom_site_fract_z
 _atom_site_occupancy
  Rb  Rb0  1  0.775381  0.775381  0.775381  1
  Rb  Rb1  1  0.224619  0.224619  0.224619  1
  Hf  Hf2  1  0.153450  0.903352  0.802554  1
  Hf  Hf3  1  0.846550  0.096648  0.197446  1
  Hf  Hf4  1  0.096648  0.197446  0.846550  1
  Hf  Hf5  1  0.197446  0.846550  0.096648  1
  Hf  Hf6  1  0.903352  0.802554  0.153450  1
  Hf  Hf7  1  0.802554  0.153450  0.903352  1
  Hf  Hf8  1  0.500000  0.500000  0.500000  1
  B  B9  1  0.000000  0.000000  0.000000  1
  Br  Br10  1  0.223387  0.468510  0.643679  1
  Br  Br11  1  0.776613  0.531490  0.356321  1
  Br  Br12  1  0.345462  0.052865  0.934417  1
  Br  Br13  1  0.654538  0.947135  0.065583  1
  Br  Br14  1  0.934417  0.345462  0.052865  1
  Br  Br15  1  0.711594  0.878409  0.413121  1
  Br  Br16  1  0.356321  0.776613  0.531490  1
  Br  Br17  1  0.586879  0.288406  0.121591  1
  Br  Br18  1  0.288406  0.121591  0.586879  1
  Br  Br19  1  0.121591  0.586879  0.288406  1
  Br  Br20  1  0.947135  0.065583  0.654538  1
  Br  Br21  1  0.413121  0.711594  0.878409  1
  Br  Br22  1  0.878409  0.413121  0.711594  1
  Br  Br23  1  0.065583  0.654538  0.947135  1
  Br  Br24  1  0.468510  0.643679  0.223387  1
  Br  Br25  1  0.643679  0.223387  0.468510  1
  Br  Br26  1  0.531490  0.356321  0.776613  1
  Br  Br27  1  0.052865  0.934417  0.345462  1
