# generated using pymatgen
data_Sm2HoGa3(Ni3Sn)3
_symmetry_space_group_name_H-M   'P 1'
_cell_length_a   4.07358100
_cell_length_b   9.14777228
_cell_length_c   9.14777246
_cell_angle_alpha   60.00839304
_cell_angle_beta   90.00000000
_cell_angle_gamma   90.00000000
_symmetry_Int_Tables_number   1
_chemical_formula_structural   Sm2HoGa3(Ni3Sn)3
_chemical_formula_sum   'Sm2 Ho1 Ga3 Ni9 Sn3'
_cell_volume   295.23946535
_cell_formula_units_Z   1
loop_
 _symmetry_equiv_pos_site_id
 _symmetry_equiv_pos_as_xyz
  1  'x, y, z'
loop_
 _atom_site_type_symbol
 _atom_site_label
 _atom_site_symmetry_multiplicity
 _atom_site_fract_x
 _atom_site_fract_y
 _atom_site_fract_z
 _atom_site_occupancy
  Sm  Sm0  1  0.500000  0.333356  0.333281  1
  Sm  Sm1  1  0.500000  0.666719  0.666644  1
  Ho  Ho2  1  0.000000  0.999990  0.000010  1
  Ga  Ga3  1  0.500000  0.742558  0.257442  1
  Ga  Ga4  1  0.500000  0.257443  0.000027  1
  Ga  Ga5  1  0.500000  0.999973  0.742557  1
  Ni  Ni6  1  0.000000  0.206073  0.158688  1
  Ni  Ni7  1  0.000000  0.158711  0.635286  1
  Ni  Ni8  1  0.000000  0.635312  0.205976  1
  Ni  Ni9  1  0.000000  0.841312  0.793927  1
  Ni  Ni10  1  0.000000  0.364714  0.841289  1
  Ni  Ni11  1  0.000000  0.794024  0.364688  1
  Ni  Ni12  1  0.500000  0.277535  0.722465  1
  Ni  Ni13  1  0.500000  0.722258  0.000102  1
  Ni  Ni14  1  0.500000  0.999898  0.277742  1
  Sn  Sn15  1  0.000000  0.468552  0.531448  1
  Sn  Sn16  1  0.000000  0.531429  0.999957  1
  Sn  Sn17  1  0.000000  0.000043  0.468571  1
