# generated using pymatgen
data_Hf6Zn5RhN2
_symmetry_space_group_name_H-M   'P 1'
_cell_length_a   8.50907491
_cell_length_b   8.50907511
_cell_length_c   8.50730600
_cell_angle_alpha   60.00686955
_cell_angle_beta   60.00686879
_cell_angle_gamma   60.09492694
_symmetry_Int_Tables_number   1
_chemical_formula_structural   Hf6Zn5RhN2
_chemical_formula_sum   'Hf12 Zn10 Rh2 N4'
_cell_volume   435.91067901
_cell_formula_units_Z   2
loop_
 _symmetry_equiv_pos_site_id
 _symmetry_equiv_pos_as_xyz
  1  'x, y, z'
loop_
 _atom_site_type_symbol
 _atom_site_label
 _atom_site_symmetry_multiplicity
 _atom_site_fract_x
 _atom_site_fract_y
 _atom_site_fract_z
 _atom_site_occupancy
  Hf  Hf0  1  0.809481  0.192082  0.185902  1
  Hf  Hf1  1  0.192082  0.809481  0.185902  1
  Hf  Hf2  1  0.819777  0.819777  0.180223  1
  Hf  Hf3  1  0.192082  0.809481  0.812535  1
  Hf  Hf4  1  0.809481  0.192082  0.812535  1
  Hf  Hf5  1  0.192472  0.192472  0.807528  1
  Hf  Hf6  1  0.434931  0.066024  0.061836  1
  Hf  Hf7  1  0.066024  0.434931  0.061836  1
  Hf  Hf8  1  0.435265  0.435265  0.064735  1
  Hf  Hf9  1  0.066024  0.434931  0.437210  1
  Hf  Hf10  1  0.434931  0.066024  0.437210  1
  Hf  Hf11  1  0.064231  0.064231  0.435769  1
  Zn  Zn12  1  0.739965  0.418666  0.420684  1
  Zn  Zn13  1  0.418666  0.739965  0.420684  1
  Zn  Zn14  1  0.832895  0.832895  0.499350  1
  Zn  Zn15  1  0.832895  0.832895  0.834861  1
  Zn  Zn16  1  0.502640  0.832029  0.832666  1
  Zn  Zn17  1  0.832029  0.502640  0.832666  1
  Zn  Zn18  1  0.627659  0.627659  0.124894  1
  Zn  Zn19  1  0.627659  0.627659  0.619790  1
  Zn  Zn20  1  0.123603  0.630480  0.622959  1
  Zn  Zn21  1  0.630480  0.123603  0.622959  1
  Rh  Rh22  1  0.409981  0.409981  0.768914  1
  Rh  Rh23  1  0.409981  0.409981  0.411123  1
  N  N24  1  0.123404  0.123404  0.625938  1
  N  N25  1  0.123404  0.123404  0.127255  1
  N  N26  1  0.623955  0.124008  0.126018  1
  N  N27  1  0.124008  0.623955  0.126018  1
