# generated using pymatgen
data_NaHfCrSe4
_symmetry_space_group_name_H-M   'P 1'
_cell_length_a   7.47970534
_cell_length_b   14.77893330
_cell_length_c   6.43047190
_cell_angle_alpha   90.08688941
_cell_angle_beta   90.00758173
_cell_angle_gamma   89.69939240
_symmetry_Int_Tables_number   1
_chemical_formula_structural   NaHfCrSe4
_chemical_formula_sum   'Na4 Hf4 Cr4 Se16'
_cell_volume   710.82704528
_cell_formula_units_Z   4
loop_
 _symmetry_equiv_pos_site_id
 _symmetry_equiv_pos_as_xyz
  1  'x, y, z'
loop_
 _atom_site_type_symbol
 _atom_site_label
 _atom_site_symmetry_multiplicity
 _atom_site_fract_x
 _atom_site_fract_y
 _atom_site_fract_z
 _atom_site_occupancy
  Na  Na0  1  0.002319  0.001584  0.342969  1
  Na  Na1  1  0.499763  0.498059  0.666284  1
  Na  Na2  1  0.995682  0.499926  0.012412  1
  Na  Na3  1  0.504805  0.998772  0.987510  1
  Hf  Hf4  1  0.514752  0.747255  0.001427  1
  Hf  Hf5  1  0.250426  0.249663  0.499747  1
  Hf  Hf6  1  0.750076  0.249583  0.499584  1
  Hf  Hf7  1  0.234799  0.751823  0.501456  1
  Cr  Cr8  1  0.000099  0.248840  0.000347  1
  Cr  Cr9  1  0.999756  0.751881  0.998798  1
  Cr  Cr10  1  0.499832  0.250677  0.000755  1
  Cr  Cr11  1  0.750127  0.750113  0.497494  1
  Se  Se12  1  0.249770  0.349948  0.847439  1
  Se  Se13  1  0.764058  0.648979  0.820347  1
  Se  Se14  1  0.751660  0.149349  0.152628  1
  Se  Se15  1  0.243459  0.854098  0.156474  1
  Se  Se16  1  0.250587  0.149359  0.152740  1
  Se  Se17  1  0.760548  0.851828  0.174408  1
  Se  Se18  1  0.748127  0.349902  0.847504  1
  Se  Se19  1  0.243552  0.646683  0.841085  1
  Se  Se20  1  0.001081  0.145892  0.676945  1
  Se  Se21  1  0.984222  0.851834  0.674285  1
  Se  Se22  1  0.499061  0.353984  0.323751  1
  Se  Se23  1  0.506840  0.647093  0.341003  1
  Se  Se24  1  0.999094  0.353546  0.325679  1
  Se  Se25  1  0.988663  0.651271  0.322179  1
  Se  Se26  1  0.501117  0.146053  0.675343  1
  Se  Se27  1  0.505724  0.852004  0.659411  1
