# generated using pymatgen
data_Tb2Lu2B12MoRu
_symmetry_space_group_name_H-M   'P 1'
_cell_length_a   3.62993600
_cell_length_b   9.14566275
_cell_length_c   11.55060367
_cell_angle_alpha   89.76800015
_cell_angle_beta   90.00000000
_cell_angle_gamma   90.00000000
_symmetry_Int_Tables_number   1
_chemical_formula_structural   Tb2Lu2B12MoRu
_chemical_formula_sum   'Tb4 Lu4 B24 Mo2 Ru2'
_cell_volume   383.45576584
_cell_formula_units_Z   2
loop_
 _symmetry_equiv_pos_site_id
 _symmetry_equiv_pos_as_xyz
  1  'x, y, z'
loop_
 _atom_site_type_symbol
 _atom_site_label
 _atom_site_symmetry_multiplicity
 _atom_site_fract_x
 _atom_site_fract_y
 _atom_site_fract_z
 _atom_site_occupancy
  Tb  Tb0  1  0.000000  0.321605  0.414724  1
  Tb  Tb1  1  0.000000  0.678395  0.585276  1
  Tb  Tb2  1  0.000000  0.821783  0.085270  1
  Tb  Tb3  1  0.000000  0.178217  0.914730  1
  Lu  Lu4  1  0.000000  0.944777  0.370935  1
  Lu  Lu5  1  0.000000  0.055223  0.629065  1
  Lu  Lu6  1  0.000000  0.442076  0.128446  1
  Lu  Lu7  1  0.000000  0.557924  0.871554  1
  B  B8  1  0.500000  0.552373  0.433434  1
  B  B9  1  0.500000  0.447627  0.566566  1
  B  B10  1  0.500000  0.054794  0.067628  1
  B  B11  1  0.500000  0.945206  0.932372  1
  B  B12  1  0.500000  0.752338  0.419629  1
  B  B13  1  0.500000  0.247662  0.580371  1
  B  B14  1  0.500000  0.250101  0.081990  1
  B  B15  1  0.500000  0.749899  0.918010  1
  B  B16  1  0.500000  0.795658  0.263873  1
  B  B17  1  0.500000  0.204342  0.736127  1
  B  B18  1  0.500000  0.291073  0.234005  1
  B  B19  1  0.500000  0.708927  0.765995  1
  B  B20  1  0.500000  0.630416  0.181819  1
  B  B21  1  0.500000  0.369584  0.818181  1
  B  B22  1  0.500000  0.129630  0.314176  1
  B  B23  1  0.500000  0.870370  0.685824  1
  B  B24  1  0.500000  0.983429  0.212323  1
  B  B25  1  0.500000  0.016571  0.787677  1
  B  B26  1  0.500000  0.478557  0.286074  1
  B  B27  1  0.500000  0.521443  0.713926  1
  B  B28  1  0.500000  0.599863  0.026910  1
  B  B29  1  0.500000  0.400137  0.973090  1
  B  B30  1  0.500000  0.099822  0.471939  1
  B  B31  1  0.500000  0.900178  0.528061  1
  Mo  Mo32  1  0.000000  0.639744  0.317974  1
  Mo  Mo33  1  0.000000  0.360256  0.682026  1
  Ru  Ru34  1  0.000000  0.139042  0.179232  1
  Ru  Ru35  1  0.000000  0.860958  0.820768  1
