# generated using pymatgen
data_Tm3LuSc3AlPt4
_symmetry_space_group_name_H-M   'P 1'
_cell_length_a   4.49048100
_cell_length_b   6.94799600
_cell_length_c   8.24739936
_cell_angle_alpha   87.18374754
_cell_angle_beta   90.00000000
_cell_angle_gamma   90.00000000
_symmetry_Int_Tables_number   1
_chemical_formula_structural   Tm3LuSc3AlPt4
_chemical_formula_sum   'Tm3 Lu1 Sc3 Al1 Pt4'
_cell_volume   257.00679592
_cell_formula_units_Z   1
loop_
 _symmetry_equiv_pos_site_id
 _symmetry_equiv_pos_as_xyz
  1  'x, y, z'
loop_
 _atom_site_type_symbol
 _atom_site_label
 _atom_site_symmetry_multiplicity
 _atom_site_fract_x
 _atom_site_fract_y
 _atom_site_fract_z
 _atom_site_occupancy
  Tm  Tm0  1  0.250000  0.039521  0.671313  1
  Tm  Tm1  1  0.250000  0.519472  0.815651  1
  Tm  Tm2  1  0.750000  0.991238  0.341618  1
  Lu  Lu3  1  0.750000  0.466851  0.182261  1
  Sc  Sc4  1  0.250000  0.133778  0.070754  1
  Sc  Sc5  1  0.250000  0.643493  0.434850  1
  Sc  Sc6  1  0.750000  0.858959  0.929601  1
  Al  Al7  1  0.750000  0.362010  0.567188  1
  Pt  Pt8  1  0.250000  0.263563  0.383463  1
  Pt  Pt9  1  0.250000  0.740100  0.102067  1
  Pt  Pt10  1  0.750000  0.734438  0.616168  1
  Pt  Pt11  1  0.750000  0.246580  0.885067  1
