# generated using pymatgen
data_Zn2CoP7Ru11
_symmetry_space_group_name_H-M   'P 1'
_cell_length_a   9.51202094
_cell_length_b   9.51346268
_cell_length_c   3.71764000
_cell_angle_alpha   90.00000000
_cell_angle_beta   90.00000000
_cell_angle_gamma   120.87923615
_symmetry_Int_Tables_number   1
_chemical_formula_structural   Zn2CoP7Ru11
_chemical_formula_sum   'Zn2 Co1 P7 Ru11'
_cell_volume   288.73075372
_cell_formula_units_Z   1
loop_
 _symmetry_equiv_pos_site_id
 _symmetry_equiv_pos_as_xyz
  1  'x, y, z'
loop_
 _atom_site_type_symbol
 _atom_site_label
 _atom_site_symmetry_multiplicity
 _atom_site_fract_x
 _atom_site_fract_y
 _atom_site_fract_z
 _atom_site_occupancy
  Zn  Zn0  1  0.331188  0.669033  0.000000  1
  Zn  Zn1  1  0.997282  0.999592  0.500000  1
  Co  Co2  1  0.523570  0.462789  0.000000  1
  P  P3  1  0.974204  0.247947  0.000000  1
  P  P4  1  0.280531  0.031449  0.000000  1
  P  P5  1  0.741889  0.713252  0.000000  1
  P  P6  1  0.048764  0.641524  0.500000  1
  P  P7  1  0.585180  0.942951  0.500000  1
  P  P8  1  0.362196  0.412364  0.500000  1
  P  P9  1  0.661937  0.339844  0.000000  1
  Ru  Ru10  1  0.766692  0.964690  0.000000  1
  Ru  Ru11  1  0.209837  0.236192  0.000000  1
  Ru  Ru12  1  0.023734  0.797085  0.000000  1
  Ru  Ru13  1  0.935293  0.474534  0.000000  1
  Ru  Ru14  1  0.543676  0.067243  0.000000  1
  Ru  Ru15  1  0.138474  0.441424  0.500000  1
  Ru  Ru16  1  0.301490  0.873846  0.500000  1
  Ru  Ru17  1  0.561656  0.690462  0.500000  1
  Ru  Ru18  1  0.807273  0.213222  0.500000  1
  Ru  Ru19  1  0.436624  0.216888  0.500000  1
  Ru  Ru20  1  0.768511  0.563670  0.500000  1
