# generated using pymatgen
data_Tb2Ho2Al18FePd5
_symmetry_space_group_name_H-M   'P 1'
_cell_length_a   7.59833498
_cell_length_b   7.59873799
_cell_length_c   9.45425790
_cell_angle_alpha   90.09646595
_cell_angle_beta   90.07130749
_cell_angle_gamma   119.65220077
_symmetry_Int_Tables_number   1
_chemical_formula_structural   Tb2Ho2Al18FePd5
_chemical_formula_sum   'Tb2 Ho2 Al18 Fe1 Pd5'
_cell_volume   474.38127145
_cell_formula_units_Z   1
loop_
 _symmetry_equiv_pos_site_id
 _symmetry_equiv_pos_as_xyz
  1  'x, y, z'
loop_
 _atom_site_type_symbol
 _atom_site_label
 _atom_site_symmetry_multiplicity
 _atom_site_fract_x
 _atom_site_fract_y
 _atom_site_fract_z
 _atom_site_occupancy
  Tb  Tb0  1  0.993993  0.667585  0.248970  1
  Tb  Tb1  1  0.006008  0.332416  0.751030  1
  Ho  Ho2  1  0.667649  0.993987  0.248902  1
  Ho  Ho3  1  0.332348  0.006011  0.751099  1
  Al  Al4  1  0.122395  0.122510  0.241344  1
  Al  Al5  1  0.877605  0.877490  0.758656  1
  Al  Al6  1  0.998321  0.323691  0.073077  1
  Al  Al7  1  0.001679  0.676310  0.926923  1
  Al  Al8  1  0.999077  0.666156  0.578868  1
  Al  Al9  1  0.334354  0.001156  0.421277  1
  Al  Al10  1  0.000924  0.333844  0.421131  1
  Al  Al11  1  0.665646  0.998844  0.578723  1
  Al  Al12  1  0.675807  0.001399  0.927149  1
  Al  Al13  1  0.324193  0.998601  0.072851  1
  Al  Al14  1  0.334213  0.333993  0.559136  1
  Al  Al15  1  0.665788  0.666008  0.440864  1
  Al  Al16  1  0.677744  0.677984  0.052430  1
  Al  Al17  1  0.322256  0.322017  0.947569  1
  Al  Al18  1  0.339998  0.546205  0.248119  1
  Al  Al19  1  0.660002  0.453795  0.751881  1
  Al  Al20  1  0.545965  0.339632  0.248132  1
  Al  Al21  1  0.454035  0.660368  0.751868  1
  Fe  Fe22  1  0.000001  0.000001  0.000000  1
  Pd  Pd23  1  0.672271  0.327398  0.999989  1
  Pd  Pd24  1  0.327729  0.672602  0.000011  1
  Pd  Pd25  1  0.327857  0.672442  0.499997  1
  Pd  Pd26  1  0.672143  0.327558  0.500004  1
  Pd  Pd27  1  0.000000  0.000000  0.500000  1
