# generated using pymatgen
data_Er3In3NiPdRh
_symmetry_space_group_name_H-M   'P 1'
_cell_length_a   7.68012400
_cell_length_b   7.68012481
_cell_length_c   3.69612200
_cell_angle_alpha   90.00000000
_cell_angle_beta   90.00000000
_cell_angle_gamma   119.99998790
_symmetry_Int_Tables_number   1
_chemical_formula_structural   Er3In3NiPdRh
_chemical_formula_sum   'Er3 In3 Ni1 Pd1 Rh1'
_cell_volume   188.80500043
_cell_formula_units_Z   1
loop_
 _symmetry_equiv_pos_site_id
 _symmetry_equiv_pos_as_xyz
  1  'x, y, z'
loop_
 _atom_site_type_symbol
 _atom_site_label
 _atom_site_symmetry_multiplicity
 _atom_site_fract_x
 _atom_site_fract_y
 _atom_site_fract_z
 _atom_site_occupancy
  Er  Er0  1  0.011180  0.600841  0.500000  1
  Er  Er1  1  0.399159  0.410339  0.500000  1
  Er  Er2  1  0.589661  0.988820  0.500000  1
  In  In3  1  0.254857  0.000576  0.000000  1
  In  In4  1  0.745719  0.745143  0.000000  1
  In  In5  1  0.999424  0.254281  0.000000  1
  Ni  Ni6  1  0.000000  0.000000  0.500000  1
  Pd  Pd7  1  0.666667  0.333333  0.000000  1
  Rh  Rh8  1  0.333333  0.666667  0.000000  1
