# generated using pymatgen
data_Y6Pa2Tl3Pt8Pb
_symmetry_space_group_name_H-M   'P 1'
_cell_length_a   7.81607900
_cell_length_b   7.80592013
_cell_length_c   7.47684600
_cell_angle_alpha   90.00000000
_cell_angle_beta   90.00000000
_cell_angle_gamma   93.17582700
_symmetry_Int_Tables_number   1
_chemical_formula_structural   Y6Pa2Tl3Pt8Pb
_chemical_formula_sum   'Y6 Pa2 Tl3 Pt8 Pb1'
_cell_volume   455.47441665
_cell_formula_units_Z   1
loop_
 _symmetry_equiv_pos_site_id
 _symmetry_equiv_pos_as_xyz
  1  'x, y, z'
loop_
 _atom_site_type_symbol
 _atom_site_label
 _atom_site_symmetry_multiplicity
 _atom_site_fract_x
 _atom_site_fract_y
 _atom_site_fract_z
 _atom_site_occupancy
  Y  Y0  1  0.664914  0.666186  0.000267  1
  Y  Y1  1  0.832098  0.166436  0.499436  1
  Y  Y2  1  0.335086  0.333814  0.000267  1
  Y  Y3  1  0.167902  0.833564  0.499436  1
  Y  Y4  1  0.825145  0.171741  0.000403  1
  Y  Y5  1  0.174855  0.828259  0.000403  1
  Pa  Pa6  1  0.324694  0.325180  0.499606  1
  Pa  Pa7  1  0.675306  0.674820  0.499606  1
  Tl  Tl8  1  0.500000  0.000000  0.753741  1
  Tl  Tl9  1  0.500000  0.000000  0.246472  1
  Tl  Tl10  1  0.000000  0.500000  0.756847  1
  Pt  Pt11  1  0.868609  0.867714  0.747778  1
  Pt  Pt12  1  0.131391  0.132286  0.747778  1
  Pt  Pt13  1  0.624838  0.374385  0.730829  1
  Pt  Pt14  1  0.623152  0.373055  0.269482  1
  Pt  Pt15  1  0.376848  0.626945  0.269482  1
  Pt  Pt16  1  0.132622  0.130751  0.251505  1
  Pt  Pt17  1  0.867378  0.869249  0.251505  1
  Pt  Pt18  1  0.375162  0.625615  0.730829  1
  Pb  Pb19  1  0.000000  0.500000  0.244326  1
