# generated using pymatgen
data_YLu4GaSb2
_symmetry_space_group_name_H-M   'P 1'
_cell_length_a   8.70917308
_cell_length_b   8.70917228
_cell_length_c   6.29971400
_cell_angle_alpha   90.00000000
_cell_angle_beta   90.00000000
_cell_angle_gamma   120.28321376
_symmetry_Int_Tables_number   1
_chemical_formula_structural   YLu4GaSb2
_chemical_formula_sum   'Y2 Lu8 Ga2 Sb4'
_cell_volume   412.62807076
_cell_formula_units_Z   2
loop_
 _symmetry_equiv_pos_site_id
 _symmetry_equiv_pos_as_xyz
  1  'x, y, z'
loop_
 _atom_site_type_symbol
 _atom_site_label
 _atom_site_symmetry_multiplicity
 _atom_site_fract_x
 _atom_site_fract_y
 _atom_site_fract_z
 _atom_site_occupancy
  Y  Y0  1  0.760718  0.760718  0.750000  1
  Y  Y1  1  0.234405  0.234405  0.250000  1
  Lu  Lu2  1  0.667939  0.326455  0.004239  1
  Lu  Lu3  1  0.326455  0.667939  0.004239  1
  Lu  Lu4  1  0.326455  0.667939  0.495761  1
  Lu  Lu5  1  0.667939  0.326455  0.495761  1
  Lu  Lu6  1  0.239596  0.996573  0.750000  1
  Lu  Lu7  1  0.996573  0.239596  0.750000  1
  Lu  Lu8  1  0.761817  0.015098  0.250000  1
  Lu  Lu9  1  0.015098  0.761817  0.250000  1
  Ga  Ga10  1  0.396818  0.000838  0.250000  1
  Ga  Ga11  1  0.000838  0.396818  0.250000  1
  Sb  Sb12  1  0.391048  0.391048  0.750000  1
  Sb  Sb13  1  0.602000  0.997890  0.750000  1
  Sb  Sb14  1  0.997890  0.602000  0.750000  1
  Sb  Sb15  1  0.614414  0.614414  0.250000  1
