# generated using pymatgen
data_MgRu2F12
_symmetry_space_group_name_H-M   'P 1'
_cell_length_a   5.51379434
_cell_length_b   11.10870735
_cell_length_c   5.52781510
_cell_angle_alpha   58.17148504
_cell_angle_beta   58.06313756
_cell_angle_gamma   58.25401094
_symmetry_Int_Tables_number   1
_chemical_formula_structural   MgRu2F12
_chemical_formula_sum   'Mg1 Ru2 F12'
_cell_volume   229.33390950
_cell_formula_units_Z   1
loop_
 _symmetry_equiv_pos_site_id
 _symmetry_equiv_pos_as_xyz
  1  'x, y, z'
loop_
 _atom_site_type_symbol
 _atom_site_label
 _atom_site_symmetry_multiplicity
 _atom_site_fract_x
 _atom_site_fract_y
 _atom_site_fract_z
 _atom_site_occupancy
  Mg  Mg0  1  0.500000  0.750000  0.500000  1
  Ru  Ru1  1  0.004518  0.001015  0.994361  1
  Ru  Ru2  1  0.995482  0.498985  0.005639  1
  F  F3  1  0.334061  0.066667  0.767506  1
  F  F4  1  0.325705  0.582134  0.755110  1
  F  F5  1  0.140554  0.388248  0.323909  1
  F  F6  1  0.159651  0.874148  0.331690  1
  F  F7  1  0.229180  0.343648  0.851487  1
  F  F8  1  0.245093  0.830577  0.846655  1
  F  F9  1  0.859446  0.111752  0.676091  1
  F  F10  1  0.840349  0.625852  0.668310  1
  F  F11  1  0.665939  0.433333  0.232494  1
  F  F12  1  0.674295  0.917866  0.244890  1
  F  F13  1  0.770820  0.156352  0.148513  1
  F  F14  1  0.754907  0.669423  0.153345  1
