# generated using pymatgen
data_Pr5RhPb2
_symmetry_space_group_name_H-M   'P 1'
_cell_length_a   8.38828800
_cell_length_b   9.27219400
_cell_length_c   12.96493000
_cell_angle_alpha   90.00000000
_cell_angle_beta   90.00000000
_cell_angle_gamma   90.00000000
_symmetry_Int_Tables_number   1
_chemical_formula_structural   Pr5RhPb2
_chemical_formula_sum   'Pr20 Rh4 Pb8'
_cell_volume   1008.38416900
_cell_formula_units_Z   4
loop_
 _symmetry_equiv_pos_site_id
 _symmetry_equiv_pos_as_xyz
  1  'x, y, z'
loop_
 _atom_site_type_symbol
 _atom_site_label
 _atom_site_symmetry_multiplicity
 _atom_site_fract_x
 _atom_site_fract_y
 _atom_site_fract_z
 _atom_site_occupancy
  Pr  Pr0  1  0.340980  0.750000  0.711980  1
  Pr  Pr1  1  0.659020  0.250000  0.288020  1
  Pr  Pr2  1  0.840980  0.250000  0.788020  1
  Pr  Pr3  1  0.159020  0.750000  0.211980  1
  Pr  Pr4  1  0.873980  0.750000  0.801803  1
  Pr  Pr5  1  0.126020  0.250000  0.198197  1
  Pr  Pr6  1  0.373980  0.250000  0.698197  1
  Pr  Pr7  1  0.626020  0.750000  0.301803  1
  Pr  Pr8  1  0.679292  0.538486  0.569366  1
  Pr  Pr9  1  0.320708  0.461514  0.430634  1
  Pr  Pr10  1  0.179292  0.461514  0.930634  1
  Pr  Pr11  1  0.320708  0.038486  0.430634  1
  Pr  Pr12  1  0.820708  0.538486  0.069366  1
  Pr  Pr13  1  0.679292  0.961514  0.569366  1
  Pr  Pr14  1  0.820708  0.961514  0.069366  1
  Pr  Pr15  1  0.179292  0.038486  0.930634  1
  Pr  Pr16  1  0.051566  0.750000  0.498493  1
  Pr  Pr17  1  0.948434  0.250000  0.501507  1
  Pr  Pr18  1  0.551566  0.250000  0.001507  1
  Pr  Pr19  1  0.448434  0.750000  0.998493  1
  Rh  Rh20  1  0.074243  0.750000  0.991204  1
  Rh  Rh21  1  0.925757  0.250000  0.008796  1
  Rh  Rh22  1  0.574243  0.250000  0.508796  1
  Rh  Rh23  1  0.425757  0.750000  0.491204  1
  Pb  Pb24  1  0.572850  0.506429  0.828949  1
  Pb  Pb25  1  0.427150  0.493571  0.171051  1
  Pb  Pb26  1  0.072850  0.493571  0.671051  1
  Pb  Pb27  1  0.427150  0.006429  0.171051  1
  Pb  Pb28  1  0.927150  0.506429  0.328949  1
  Pb  Pb29  1  0.572850  0.993571  0.828949  1
  Pb  Pb30  1  0.927150  0.993571  0.328949  1
  Pb  Pb31  1  0.072850  0.006429  0.671051  1
