# generated using pymatgen
data_Er4BeSi5
_symmetry_space_group_name_H-M   'P 1'
_cell_length_a   3.82164700
_cell_length_b   4.12745870
_cell_length_c   12.18514013
_cell_angle_alpha   99.75087181
_cell_angle_beta   90.00000000
_cell_angle_gamma   90.00000000
_symmetry_Int_Tables_number   1
_chemical_formula_structural   Er4BeSi5
_chemical_formula_sum   'Er4 Be1 Si5'
_cell_volume   189.42793741
_cell_formula_units_Z   1
loop_
 _symmetry_equiv_pos_site_id
 _symmetry_equiv_pos_as_xyz
  1  'x, y, z'
loop_
 _atom_site_type_symbol
 _atom_site_label
 _atom_site_symmetry_multiplicity
 _atom_site_fract_x
 _atom_site_fract_y
 _atom_site_fract_z
 _atom_site_occupancy
  Er  Er0  1  0.750000  0.430748  0.861495  1
  Er  Er1  1  0.250000  0.570035  0.140071  1
  Er  Er2  1  0.750000  0.702646  0.405293  1
  Er  Er3  1  0.250000  0.297126  0.594249  1
  Be  Be4  1  0.750000  0.022637  0.045273  1
  Si  Si5  1  0.250000  0.981210  0.962420  1
  Si  Si6  1  0.750000  0.113170  0.226342  1
  Si  Si7  1  0.250000  0.884054  0.768107  1
  Si  Si8  1  0.750000  0.824097  0.648194  1
  Si  Si9  1  0.250000  0.174278  0.348554  1
