# generated using pymatgen
data_Ho3ErSiTc7
_symmetry_space_group_name_H-M   'P 1'
_cell_length_a   5.31835000
_cell_length_b   5.31834982
_cell_length_c   8.87191400
_cell_angle_alpha   90.00000000
_cell_angle_beta   90.00000000
_cell_angle_gamma   120.00000111
_symmetry_Int_Tables_number   1
_chemical_formula_structural   Ho3ErSiTc7
_chemical_formula_sum   'Ho3 Er1 Si1 Tc7'
_cell_volume   217.32103524
_cell_formula_units_Z   1
loop_
 _symmetry_equiv_pos_site_id
 _symmetry_equiv_pos_as_xyz
  1  'x, y, z'
loop_
 _atom_site_type_symbol
 _atom_site_label
 _atom_site_symmetry_multiplicity
 _atom_site_fract_x
 _atom_site_fract_y
 _atom_site_fract_z
 _atom_site_occupancy
  Ho  Ho0  1  0.333333  0.666667  0.434857  1
  Ho  Ho1  1  0.666667  0.333333  0.565126  1
  Ho  Ho2  1  0.666667  0.333333  0.934687  1
  Er  Er3  1  0.333333  0.666667  0.065330  1
  Si  Si4  1  0.000000  0.000000  0.500007  1
  Tc  Tc5  1  0.000000  0.000000  0.000030  1
  Tc  Tc6  1  0.830070  0.169930  0.254362  1
  Tc  Tc7  1  0.830070  0.660140  0.254362  1
  Tc  Tc8  1  0.339860  0.169930  0.254362  1
  Tc  Tc9  1  0.169937  0.830063  0.745625  1
  Tc  Tc10  1  0.169937  0.339875  0.745625  1
  Tc  Tc11  1  0.660125  0.830063  0.745625  1
