# generated using pymatgen
data_NdY(Co3Si2)2
_symmetry_space_group_name_H-M   'P 1'
_cell_length_a   6.31847447
_cell_length_b   6.31847372
_cell_length_c   6.31847560
_cell_angle_alpha   130.44494217
_cell_angle_beta   113.72880301
_cell_angle_gamma   87.06947007
_symmetry_Int_Tables_number   1
_chemical_formula_structural   NdY(Co3Si2)2
_chemical_formula_sum   'Nd1 Y1 Co6 Si4'
_cell_volume   167.57523867
_cell_formula_units_Z   1
loop_
 _symmetry_equiv_pos_site_id
 _symmetry_equiv_pos_as_xyz
  1  'x, y, z'
loop_
 _atom_site_type_symbol
 _atom_site_label
 _atom_site_symmetry_multiplicity
 _atom_site_fract_x
 _atom_site_fract_y
 _atom_site_fract_z
 _atom_site_occupancy
  Nd  Nd0  1  0.250000  0.528893  0.278893  1
  Y  Y1  1  0.750000  0.466254  0.716254  1
  Co  Co2  1  0.001383  0.001089  0.502471  1
  Co  Co3  1  0.498617  0.001089  0.999706  1
  Co  Co4  1  0.724591  0.002364  0.724428  1
  Co  Co5  1  0.222063  0.499837  0.724428  1
  Co  Co6  1  0.277937  0.002364  0.277774  1
  Co  Co7  1  0.775409  0.499837  0.277774  1
  Si  Si8  1  0.077818  0.871306  0.793488  1
  Si  Si9  1  0.916704  0.122352  0.205648  1
  Si  Si10  1  0.583296  0.788945  0.205648  1
  Si  Si11  1  0.422182  0.215668  0.793488  1
