# generated using pymatgen
data_NbGa2B4Ru10W3
_symmetry_space_group_name_H-M   'P 1'
_cell_length_a   9.33954383
_cell_length_b   9.33954383
_cell_length_c   2.93719100
_cell_angle_alpha   90.00000000
_cell_angle_beta   90.00000000
_cell_angle_gamma   89.89623680
_symmetry_Int_Tables_number   1
_chemical_formula_structural   NbGa2B4Ru10W3
_chemical_formula_sum   'Nb1 Ga2 B4 Ru10 W3'
_cell_volume   256.20217106
_cell_formula_units_Z   1
loop_
 _symmetry_equiv_pos_site_id
 _symmetry_equiv_pos_as_xyz
  1  'x, y, z'
loop_
 _atom_site_type_symbol
 _atom_site_label
 _atom_site_symmetry_multiplicity
 _atom_site_fract_x
 _atom_site_fract_y
 _atom_site_fract_z
 _atom_site_occupancy
  Nb  Nb0  1  0.677956  0.177956  0.000000  1
  Ga  Ga1  1  0.500926  0.498550  0.000000  1
  Ga  Ga2  1  0.998550  0.000926  0.000000  1
  B  B3  1  0.625353  0.875672  0.000000  1
  B  B4  1  0.375672  0.125353  0.000000  1
  B  B5  1  0.125332  0.625332  0.000000  1
  B  B6  1  0.874872  0.374872  0.000000  1
  Ru  Ru7  1  0.566780  0.716012  0.500000  1
  Ru  Ru8  1  0.426588  0.285051  0.500000  1
  Ru  Ru9  1  0.068359  0.783916  0.500000  1
  Ru  Ru10  1  0.937706  0.218681  0.500000  1
  Ru  Ru11  1  0.283916  0.568359  0.500000  1
  Ru  Ru12  1  0.718681  0.437706  0.500000  1
  Ru  Ru13  1  0.216012  0.066780  0.500000  1
  Ru  Ru14  1  0.785051  0.926588  0.500000  1
  Ru  Ru15  1  0.496942  0.996942  0.500000  1
  Ru  Ru16  1  0.000849  0.500849  0.500000  1
  W  W17  1  0.821500  0.677888  0.000000  1
  W  W18  1  0.177888  0.321500  0.000000  1
  W  W19  1  0.321067  0.821067  0.000000  1
