# generated using pymatgen
data_NdHo3(CCl)2
_symmetry_space_group_name_H-M   'P 1'
_cell_length_a   3.65733900
_cell_length_b   3.65744042
_cell_length_c   13.77399105
_cell_angle_alpha   89.99676865
_cell_angle_beta   90.00399177
_cell_angle_gamma   119.99742487
_symmetry_Int_Tables_number   1
_chemical_formula_structural   NdHo3(CCl)2
_chemical_formula_sum   'Nd1 Ho3 C2 Cl2'
_cell_volume   159.56740146
_cell_formula_units_Z   1
loop_
 _symmetry_equiv_pos_site_id
 _symmetry_equiv_pos_as_xyz
  1  'x, y, z'
loop_
 _atom_site_type_symbol
 _atom_site_label
 _atom_site_symmetry_multiplicity
 _atom_site_fract_x
 _atom_site_fract_y
 _atom_site_fract_z
 _atom_site_occupancy
  Nd  Nd0  1  0.333374  0.666556  0.095096  1
  Ho  Ho1  1  0.666638  0.333481  0.593871  1
  Ho  Ho2  1  0.666707  0.333194  0.902430  1
  Ho  Ho3  1  0.333290  0.666804  0.409825  1
  C  C4  1  0.000032  0.999858  0.987934  1
  C  C5  1  0.999973  0.000131  0.502180  1
  Cl  Cl6  1  0.333328  0.666617  0.746684  1
  Cl  Cl7  1  0.666659  0.333359  0.261980  1
