# generated using pymatgen
data_Dy2Y4PtI10
_symmetry_space_group_name_H-M   'P 1'
_cell_length_a   7.72581222
_cell_length_b   9.73394322
_cell_length_c   9.75714204
_cell_angle_alpha   107.37692355
_cell_angle_beta   96.98140051
_cell_angle_gamma   104.88754543
_symmetry_Int_Tables_number   1
_chemical_formula_structural   Dy2Y4PtI10
_chemical_formula_sum   'Dy2 Y4 Pt1 I10'
_cell_volume   660.94391412
_cell_formula_units_Z   1
loop_
 _symmetry_equiv_pos_site_id
 _symmetry_equiv_pos_as_xyz
  1  'x, y, z'
loop_
 _atom_site_type_symbol
 _atom_site_label
 _atom_site_symmetry_multiplicity
 _atom_site_fract_x
 _atom_site_fract_y
 _atom_site_fract_z
 _atom_site_occupancy
  Dy  Dy0  1  0.885946  0.960657  0.242463  1
  Dy  Dy1  1  0.114054  0.039343  0.757537  1
  Y  Y2  1  0.351469  0.127340  0.166961  1
  Y  Y3  1  0.648531  0.872660  0.833039  1
  Y  Y4  1  0.972436  0.288548  0.087435  1
  Y  Y5  1  0.027564  0.711452  0.912565  1
  Pt  Pt6  1  0.000000  0.000000  0.000000  1
  I  I7  1  0.358372  0.455824  0.273872  1
  I  I8  1  0.641628  0.544176  0.726128  1
  I  I9  1  0.913826  0.627621  0.180376  1
  I  I10  1  0.086174  0.372379  0.819624  1
  I  I11  1  0.453040  0.816871  0.092502  1
  I  I12  1  0.546960  0.183129  0.907498  1
  I  I13  1  0.261598  0.088448  0.464440  1
  I  I14  1  0.738402  0.911552  0.535560  1
  I  I15  1  0.782925  0.261283  0.350144  1
  I  I16  1  0.217075  0.738717  0.649856  1
