# generated using pymatgen
data_Tm2Lu(MgHg)3
_symmetry_space_group_name_H-M   'P 1'
_cell_length_a   7.66030424
_cell_length_b   7.66030534
_cell_length_c   4.23996900
_cell_angle_alpha   90.00000000
_cell_angle_beta   90.00000000
_cell_angle_gamma   119.91243057
_symmetry_Int_Tables_number   1
_chemical_formula_structural   Tm2Lu(MgHg)3
_chemical_formula_sum   'Tm2 Lu1 Mg3 Hg3'
_cell_volume   215.65918593
_cell_formula_units_Z   1
loop_
 _symmetry_equiv_pos_site_id
 _symmetry_equiv_pos_as_xyz
  1  'x, y, z'
loop_
 _atom_site_type_symbol
 _atom_site_label
 _atom_site_symmetry_multiplicity
 _atom_site_fract_x
 _atom_site_fract_y
 _atom_site_fract_z
 _atom_site_occupancy
  Tm  Tm0  1  0.412741  0.999999  0.000000  1
  Tm  Tm1  1  0.999999  0.412741  0.000000  1
  Lu  Lu2  1  0.587465  0.587465  0.000000  1
  Mg  Mg3  1  0.748383  0.999782  0.500000  1
  Mg  Mg4  1  0.251806  0.251806  0.500000  1
  Mg  Mg5  1  0.999782  0.748383  0.500000  1
  Hg  Hg6  1  0.999669  0.999669  0.000000  1
  Hg  Hg7  1  0.666480  0.333674  0.500000  1
  Hg  Hg8  1  0.333674  0.666480  0.500000  1
