# generated using pymatgen
data_Ce2Gd3ZnSn3
_symmetry_space_group_name_H-M   'P 1'
_cell_length_a   9.62195200
_cell_length_b   9.62195262
_cell_length_c   6.55184600
_cell_angle_alpha   90.00000000
_cell_angle_beta   90.00000000
_cell_angle_gamma   120.00000476
_symmetry_Int_Tables_number   1
_chemical_formula_structural   Ce2Gd3ZnSn3
_chemical_formula_sum   'Ce4 Gd6 Zn2 Sn6'
_cell_volume   525.31607615
_cell_formula_units_Z   2
loop_
 _symmetry_equiv_pos_site_id
 _symmetry_equiv_pos_as_xyz
  1  'x, y, z'
loop_
 _atom_site_type_symbol
 _atom_site_label
 _atom_site_symmetry_multiplicity
 _atom_site_fract_x
 _atom_site_fract_y
 _atom_site_fract_z
 _atom_site_occupancy
  Ce  Ce0  1  0.666667  0.333333  0.500000  1
  Ce  Ce1  1  0.333333  0.666667  0.500000  1
  Ce  Ce2  1  0.333333  0.666667  0.000000  1
  Ce  Ce3  1  0.666667  0.333333  0.000000  1
  Gd  Gd4  1  0.723534  0.723534  0.250000  1
  Gd  Gd5  1  0.276466  0.000000  0.250000  1
  Gd  Gd6  1  0.000000  0.276466  0.250000  1
  Gd  Gd7  1  0.276466  0.276466  0.750000  1
  Gd  Gd8  1  0.723534  0.000000  0.750000  1
  Gd  Gd9  1  0.000000  0.723534  0.750000  1
  Zn  Zn10  1  0.000000  0.000000  0.500000  1
  Zn  Zn11  1  0.000000  0.000000  0.000000  1
  Sn  Sn12  1  0.373807  0.373807  0.250000  1
  Sn  Sn13  1  0.626193  0.000000  0.250000  1
  Sn  Sn14  1  0.000000  0.626193  0.250000  1
  Sn  Sn15  1  0.626193  0.626193  0.750000  1
  Sn  Sn16  1  0.373807  0.000000  0.750000  1
  Sn  Sn17  1  0.000000  0.373807  0.750000  1
