# generated using pymatgen
data_Ca20(CdAg3)3
_symmetry_space_group_name_H-M   'P 1'
_cell_length_a   8.12516600
_cell_length_b   8.12516600
_cell_length_c   14.87061000
_cell_angle_alpha   90.00000000
_cell_angle_beta   90.00000000
_cell_angle_gamma   90.00000000
_symmetry_Int_Tables_number   1
_chemical_formula_structural   Ca20(CdAg3)3
_chemical_formula_sum   'Ca20 Cd3 Ag9'
_cell_volume   981.73272716
_cell_formula_units_Z   1
loop_
 _symmetry_equiv_pos_site_id
 _symmetry_equiv_pos_as_xyz
  1  'x, y, z'
loop_
 _atom_site_type_symbol
 _atom_site_label
 _atom_site_symmetry_multiplicity
 _atom_site_fract_x
 _atom_site_fract_y
 _atom_site_fract_z
 _atom_site_occupancy
  Ca  Ca0  1  0.670793  0.163425  0.105962  1
  Ca  Ca1  1  0.168320  0.667582  0.608590  1
  Ca  Ca2  1  0.329207  0.836575  0.105962  1
  Ca  Ca3  1  0.831680  0.332418  0.608590  1
  Ca  Ca4  1  0.836575  0.670793  0.105962  1
  Ca  Ca5  1  0.332418  0.168320  0.608590  1
  Ca  Ca6  1  0.163425  0.329207  0.105962  1
  Ca  Ca7  1  0.667582  0.831680  0.608590  1
  Ca  Ca8  1  0.836575  0.329207  0.894038  1
  Ca  Ca9  1  0.332418  0.831680  0.391410  1
  Ca  Ca10  1  0.163425  0.670793  0.894038  1
  Ca  Ca11  1  0.667582  0.168320  0.391410  1
  Ca  Ca12  1  0.670793  0.836575  0.894038  1
  Ca  Ca13  1  0.168320  0.332418  0.391410  1
  Ca  Ca14  1  0.329207  0.163425  0.894038  1
  Ca  Ca15  1  0.831680  0.667582  0.391410  1
  Ca  Ca16  1  0.500000  0.500000  0.754332  1
  Ca  Ca17  1  0.000000  0.000000  0.250956  1
  Ca  Ca18  1  0.000000  0.000000  0.749044  1
  Ca  Ca19  1  0.500000  0.500000  0.245668  1
  Cd  Cd20  1  0.500000  0.500000  0.500000  1
  Cd  Cd21  1  0.500000  0.500000  0.000000  1
  Cd  Cd22  1  0.000000  0.000000  0.500000  1
  Ag  Ag23  1  0.626496  0.127255  0.751477  1
  Ag  Ag24  1  0.127255  0.626496  0.248523  1
  Ag  Ag25  1  0.872745  0.373504  0.248523  1
  Ag  Ag26  1  0.373504  0.872745  0.751477  1
  Ag  Ag27  1  0.872745  0.626496  0.751477  1
  Ag  Ag28  1  0.373504  0.127255  0.248523  1
  Ag  Ag29  1  0.127255  0.373504  0.751477  1
  Ag  Ag30  1  0.626496  0.872745  0.248523  1
  Ag  Ag31  1  0.000000  0.000000  0.000000  1
