# generated using pymatgen
data_La2Nd6Cd2CoPd
_symmetry_space_group_name_H-M   'P 1'
_cell_length_a   9.97765159
_cell_length_b   9.97801653
_cell_length_c   10.01034826
_cell_angle_alpha   59.87224527
_cell_angle_beta   59.86960356
_cell_angle_gamma   60.06191138
_symmetry_Int_Tables_number   1
_chemical_formula_structural   La2Nd6Cd2CoPd
_chemical_formula_sum   'La4 Nd12 Cd4 Co2 Pd2'
_cell_volume   703.65321715
_cell_formula_units_Z   2
loop_
 _symmetry_equiv_pos_site_id
 _symmetry_equiv_pos_as_xyz
  1  'x, y, z'
loop_
 _atom_site_type_symbol
 _atom_site_label
 _atom_site_symmetry_multiplicity
 _atom_site_fract_x
 _atom_site_fract_y
 _atom_site_fract_z
 _atom_site_occupancy
  La  La0  1  0.343847  0.343836  0.361365  1
  La  La1  1  0.343934  0.343949  0.950850  1
  La  La2  1  0.338730  0.957970  0.351738  1
  La  La3  1  0.957972  0.338727  0.351741  1
  Nd  Nd4  1  0.821767  0.188619  0.188817  1
  Nd  Nd5  1  0.188642  0.821639  0.800894  1
  Nd  Nd6  1  0.188622  0.821775  0.188812  1
  Nd  Nd7  1  0.821633  0.188641  0.800907  1
  Nd  Nd8  1  0.187361  0.187363  0.812668  1
  Nd  Nd9  1  0.809116  0.809130  0.190897  1
  Nd  Nd10  1  0.935317  0.562511  0.565682  1
  Nd  Nd11  1  0.562495  0.935332  0.936450  1
  Nd  Nd12  1  0.562514  0.935306  0.565690  1
  Nd  Nd13  1  0.935323  0.562499  0.936454  1
  Nd  Nd14  1  0.562127  0.562133  0.937859  1
  Nd  Nd15  1  0.934368  0.934364  0.565627  1
  Cd  Cd16  1  0.580151  0.580168  0.579873  1
  Cd  Cd17  1  0.580154  0.580183  0.259745  1
  Cd  Cd18  1  0.581826  0.256689  0.580699  1
  Cd  Cd19  1  0.256703  0.581851  0.580751  1
  Co  Co20  1  0.144127  0.144135  0.141128  1
  Co  Co21  1  0.144065  0.144070  0.570622  1
  Pd  Pd22  1  0.145493  0.573652  0.140371  1
  Pd  Pd23  1  0.573715  0.145459  0.140359  1
