# generated using pymatgen
data_Nd2Eu2SnW3O14
_symmetry_space_group_name_H-M   'P 1'
_cell_length_a   7.51092539
_cell_length_b   7.51092615
_cell_length_c   7.59079936
_cell_angle_alpha   60.30011886
_cell_angle_beta   60.30012215
_cell_angle_gamma   59.77753832
_symmetry_Int_Tables_number   1
_chemical_formula_structural   Nd2Eu2SnW3O14
_chemical_formula_sum   'Nd2 Eu2 Sn1 W3 O14'
_cell_volume   303.64961196
_cell_formula_units_Z   1
loop_
 _symmetry_equiv_pos_site_id
 _symmetry_equiv_pos_as_xyz
  1  'x, y, z'
loop_
 _atom_site_type_symbol
 _atom_site_label
 _atom_site_symmetry_multiplicity
 _atom_site_fract_x
 _atom_site_fract_y
 _atom_site_fract_z
 _atom_site_occupancy
  Nd  Nd0  1  0.125000  0.125000  0.125000  1
  Nd  Nd1  1  0.125000  0.125000  0.625000  1
  Eu  Eu2  1  0.625000  0.125000  0.125000  1
  Eu  Eu3  1  0.125000  0.625000  0.125000  1
  Sn  Sn4  1  0.625000  0.625000  0.625000  1
  W  W5  1  0.125000  0.625000  0.625000  1
  W  W6  1  0.625000  0.125000  0.625000  1
  W  W7  1  0.625000  0.625000  0.125000  1
  O  O8  1  0.947072  0.543794  0.958726  1
  O  O9  1  0.706206  0.302928  0.291274  1
  O  O10  1  0.289477  0.706394  0.709302  1
  O  O11  1  0.706394  0.289477  0.709302  1
  O  O12  1  0.289668  0.289668  0.721786  1
  O  O13  1  0.701617  0.701617  0.293210  1
  O  O14  1  0.960332  0.960332  0.528214  1
  O  O15  1  0.543794  0.947072  0.958726  1
  O  O16  1  0.960523  0.543606  0.540698  1
  O  O17  1  0.548383  0.548383  0.956790  1
  O  O18  1  0.302928  0.706206  0.291274  1
  O  O19  1  0.543606  0.960523  0.540698  1
  O  O20  1  0.001387  0.001387  0.996898  1
  O  O21  1  0.248613  0.248613  0.253102  1
