# generated using pymatgen
data_Er10In8IrPd2Ru
_symmetry_space_group_name_H-M   'P 1'
_cell_length_a   3.58723400
_cell_length_b   8.08854917
_cell_length_c   18.19935217
_cell_angle_alpha   90.05037760
_cell_angle_beta   90.00000000
_cell_angle_gamma   90.00000000
_symmetry_Int_Tables_number   1
_chemical_formula_structural   Er10In8IrPd2Ru
_chemical_formula_sum   'Er10 In8 Ir1 Pd2 Ru1'
_cell_volume   528.06343694
_cell_formula_units_Z   1
loop_
 _symmetry_equiv_pos_site_id
 _symmetry_equiv_pos_as_xyz
  1  'x, y, z'
loop_
 _atom_site_type_symbol
 _atom_site_label
 _atom_site_symmetry_multiplicity
 _atom_site_fract_x
 _atom_site_fract_y
 _atom_site_fract_z
 _atom_site_occupancy
  Er  Er0  1  0.000000  0.499802  0.500118  1
  Er  Er1  1  0.000000  0.999810  0.999892  1
  Er  Er2  1  0.000000  0.726727  0.277409  1
  Er  Er3  1  0.000000  0.271792  0.722093  1
  Er  Er4  1  0.000000  0.748384  0.779888  1
  Er  Er5  1  0.000000  0.253722  0.219819  1
  Er  Er6  1  0.000000  0.613892  0.087137  1
  Er  Er7  1  0.000000  0.385556  0.913783  1
  Er  Er8  1  0.000000  0.884196  0.584932  1
  Er  Er9  1  0.000000  0.116755  0.415258  1
  In  In10  1  0.500000  0.709980  0.932112  1
  In  In11  1  0.500000  0.291228  0.068156  1
  In  In12  1  0.500000  0.790062  0.432421  1
  In  In13  1  0.500000  0.209388  0.567969  1
  In  In14  1  0.500000  0.578704  0.648144  1
  In  In15  1  0.500000  0.423560  0.350793  1
  In  In16  1  0.500000  0.922509  0.149476  1
  In  In17  1  0.500000  0.076721  0.850496  1
  Ir  Ir18  1  0.500000  0.479743  0.804205  1
  Pd  Pd19  1  0.500000  0.980081  0.695964  1
  Pd  Pd20  1  0.500000  0.019139  0.304016  1
  Ru  Ru21  1  0.500000  0.518249  0.195917  1
