# generated using pymatgen
data_Nd6Mn(SiSe7)2
_symmetry_space_group_name_H-M   'P 1'
_cell_length_a   10.67792100
_cell_length_b   10.67792052
_cell_length_c   6.01854100
_cell_angle_alpha   90.00000000
_cell_angle_beta   90.00000000
_cell_angle_gamma   120.00000459
_symmetry_Int_Tables_number   1
_chemical_formula_structural   Nd6Mn(SiSe7)2
_chemical_formula_sum   'Nd6 Mn1 Si2 Se14'
_cell_volume   594.28562074
_cell_formula_units_Z   1
loop_
 _symmetry_equiv_pos_site_id
 _symmetry_equiv_pos_as_xyz
  1  'x, y, z'
loop_
 _atom_site_type_symbol
 _atom_site_label
 _atom_site_symmetry_multiplicity
 _atom_site_fract_x
 _atom_site_fract_y
 _atom_site_fract_z
 _atom_site_occupancy
  Nd  Nd0  1  0.876058  0.231932  0.249345  1
  Nd  Nd1  1  0.768068  0.644127  0.249345  1
  Nd  Nd2  1  0.355873  0.123942  0.249345  1
  Nd  Nd3  1  0.123778  0.768379  0.750014  1
  Nd  Nd4  1  0.231621  0.355399  0.750014  1
  Nd  Nd5  1  0.644601  0.876222  0.750014  1
  Mn  Mn6  1  0.000000  0.000000  0.486438  1
  Si  Si7  1  0.666667  0.333333  0.834630  1
  Si  Si8  1  0.333333  0.666667  0.337962  1
  Se  Se9  1  0.666667  0.333333  0.459434  1
  Se  Se10  1  0.333333  0.666667  0.962377  1
  Se  Se11  1  0.913257  0.160734  0.725911  1
  Se  Se12  1  0.839266  0.752524  0.725911  1
  Se  Se13  1  0.247476  0.086743  0.725911  1
  Se  Se14  1  0.084430  0.836902  0.245586  1
  Se  Se15  1  0.163098  0.247528  0.245586  1
  Se  Se16  1  0.752472  0.915570  0.245586  1
  Se  Se17  1  0.588381  0.107407  0.985555  1
  Se  Se18  1  0.892593  0.480975  0.985555  1
  Se  Se19  1  0.519025  0.411619  0.985555  1
  Se  Se20  1  0.412020  0.892599  0.488528  1
  Se  Se21  1  0.107401  0.519420  0.488528  1
  Se  Se22  1  0.480580  0.587980  0.488528  1
