# generated using pymatgen
data_UCu4(Bi2S5)2
_symmetry_space_group_name_H-M   'P 1'
_cell_length_a   8.87981131
_cell_length_b   8.87981213
_cell_length_c   12.83466454
_cell_angle_alpha   73.72186134
_cell_angle_beta   73.72186071
_cell_angle_gamma   25.57875238
_symmetry_Int_Tables_number   1
_chemical_formula_structural   UCu4(Bi2S5)2
_chemical_formula_sum   'U1 Cu4 Bi4 S10'
_cell_volume   418.50537929
_cell_formula_units_Z   1
loop_
 _symmetry_equiv_pos_site_id
 _symmetry_equiv_pos_as_xyz
  1  'x, y, z'
loop_
 _atom_site_type_symbol
 _atom_site_label
 _atom_site_symmetry_multiplicity
 _atom_site_fract_x
 _atom_site_fract_y
 _atom_site_fract_z
 _atom_site_occupancy
  U  U0  1  0.000000  0.000000  0.000000  1
  Cu  Cu1  1  0.904362  0.904362  0.512186  1
  Cu  Cu2  1  0.095638  0.095638  0.487814  1
  Cu  Cu3  1  0.712284  0.712284  0.945896  1
  Cu  Cu4  1  0.287716  0.287716  0.054104  1
  Bi  Bi5  1  0.409885  0.409885  0.772383  1
  Bi  Bi6  1  0.590115  0.590115  0.227617  1
  Bi  Bi7  1  0.198927  0.198927  0.658955  1
  Bi  Bi8  1  0.801073  0.801073  0.341045  1
  S  S9  1  0.978229  0.978229  0.636181  1
  S  S10  1  0.021771  0.021771  0.363819  1
  S  S11  1  0.851358  0.851358  0.975230  1
  S  S12  1  0.148642  0.148642  0.024770  1
  S  S13  1  0.335785  0.335785  0.501548  1
  S  S14  1  0.664215  0.664215  0.498452  1
  S  S15  1  0.760206  0.760206  0.760050  1
  S  S16  1  0.239794  0.239794  0.239950  1
  S  S17  1  0.539630  0.539630  0.846280  1
  S  S18  1  0.460370  0.460370  0.153720  1
