# generated using pymatgen
data_Zr10SiBi6Ir
_symmetry_space_group_name_H-M   'P 1'
_cell_length_a   8.89167600
_cell_length_b   8.89167524
_cell_length_c   5.92240100
_cell_angle_alpha   90.00000000
_cell_angle_beta   90.00000000
_cell_angle_gamma   119.99999538
_symmetry_Int_Tables_number   1
_chemical_formula_structural   Zr10SiBi6Ir
_chemical_formula_sum   'Zr10 Si1 Bi6 Ir1'
_cell_volume   405.50450467
_cell_formula_units_Z   1
loop_
 _symmetry_equiv_pos_site_id
 _symmetry_equiv_pos_as_xyz
  1  'x, y, z'
loop_
 _atom_site_type_symbol
 _atom_site_label
 _atom_site_symmetry_multiplicity
 _atom_site_fract_x
 _atom_site_fract_y
 _atom_site_fract_z
 _atom_site_occupancy
  Zr  Zr0  1  0.743833  0.000000  0.254773  1
  Zr  Zr1  1  0.000000  0.743833  0.254773  1
  Zr  Zr2  1  0.256167  0.256167  0.254773  1
  Zr  Zr3  1  0.256167  0.000000  0.745227  1
  Zr  Zr4  1  0.000000  0.256167  0.745227  1
  Zr  Zr5  1  0.743833  0.743833  0.745227  1
  Zr  Zr6  1  0.333333  0.666667  0.500000  1
  Zr  Zr7  1  0.666667  0.333333  0.500000  1
  Zr  Zr8  1  0.666667  0.333333  0.000000  1
  Zr  Zr9  1  0.333333  0.666667  0.000000  1
  Si  Si10  1  0.000000  0.000000  0.500000  1
  Bi  Bi11  1  0.390990  0.000000  0.248272  1
  Bi  Bi12  1  0.000000  0.390990  0.248272  1
  Bi  Bi13  1  0.609010  0.609010  0.248272  1
  Bi  Bi14  1  0.609010  0.000000  0.751728  1
  Bi  Bi15  1  0.000000  0.609010  0.751728  1
  Bi  Bi16  1  0.390990  0.390990  0.751728  1
  Ir  Ir17  1  0.000000  0.000000  0.000000  1
