# generated using pymatgen
data_K2U3(AgSe4)2
_symmetry_space_group_name_H-M   'P 1'
_cell_length_a   4.23840178
_cell_length_b   8.24757396
_cell_length_c   14.64520700
_cell_angle_alpha   94.26069133
_cell_angle_beta   98.19178178
_cell_angle_gamma   104.94385563
_symmetry_Int_Tables_number   1
_chemical_formula_structural   K2U3(AgSe4)2
_chemical_formula_sum   'K2 U3 Ag2 Se8'
_cell_volume   486.27289538
_cell_formula_units_Z   1
loop_
 _symmetry_equiv_pos_site_id
 _symmetry_equiv_pos_as_xyz
  1  'x, y, z'
loop_
 _atom_site_type_symbol
 _atom_site_label
 _atom_site_symmetry_multiplicity
 _atom_site_fract_x
 _atom_site_fract_y
 _atom_site_fract_z
 _atom_site_occupancy
  K  K0  1  0.870711  0.537214  0.203523  1
  K  K1  1  0.129289  0.462786  0.796476  1
  U  U2  1  0.500000  0.000000  0.000000  1
  U  U3  1  0.717838  0.062939  0.378405  1
  U  U4  1  0.282161  0.937061  0.621594  1
  Ag  Ag5  1  0.144066  0.096705  0.192260  1
  Ag  Ag6  1  0.855933  0.903296  0.807739  1
  Se  Se7  1  0.140924  0.240983  0.038989  1
  Se  Se8  1  0.537892  0.890559  0.187325  1
  Se  Se9  1  0.320720  0.293613  0.350144  1
  Se  Se10  1  0.130203  0.842155  0.423548  1
  Se  Se11  1  0.869797  0.157846  0.576451  1
  Se  Se12  1  0.679281  0.706388  0.649857  1
  Se  Se13  1  0.462108  0.109441  0.812675  1
  Se  Se14  1  0.859075  0.759016  0.961010  1
