# generated using pymatgen
data_Dy10(TlTe)3
_symmetry_space_group_name_H-M   'P 1'
_cell_length_a   9.01597300
_cell_length_b   9.01597305
_cell_length_c   6.41114500
_cell_angle_alpha   90.00000000
_cell_angle_beta   90.00000000
_cell_angle_gamma   119.99999616
_symmetry_Int_Tables_number   1
_chemical_formula_structural   Dy10(TlTe)3
_chemical_formula_sum   'Dy10 Tl3 Te3'
_cell_volume   451.32714516
_cell_formula_units_Z   1
loop_
 _symmetry_equiv_pos_site_id
 _symmetry_equiv_pos_as_xyz
  1  'x, y, z'
loop_
 _atom_site_type_symbol
 _atom_site_label
 _atom_site_symmetry_multiplicity
 _atom_site_fract_x
 _atom_site_fract_y
 _atom_site_fract_z
 _atom_site_occupancy
  Dy  Dy0  1  0.666667  0.333333  0.001478  1
  Dy  Dy1  1  0.333333  0.666667  0.001478  1
  Dy  Dy2  1  0.333333  0.666667  0.498522  1
  Dy  Dy3  1  0.666667  0.333333  0.498522  1
  Dy  Dy4  1  0.755182  0.755182  0.750000  1
  Dy  Dy5  1  0.244818  0.000000  0.750000  1
  Dy  Dy6  1  0.000000  0.244818  0.750000  1
  Dy  Dy7  1  0.237076  0.237076  0.250000  1
  Dy  Dy8  1  0.762924  0.000000  0.250000  1
  Dy  Dy9  1  0.000000  0.762924  0.250000  1
  Tl  Tl10  1  0.607539  0.607539  0.250000  1
  Tl  Tl11  1  0.392461  0.000000  0.250000  1
  Tl  Tl12  1  0.000000  0.392461  0.250000  1
  Te  Te13  1  0.386193  0.386193  0.750000  1
  Te  Te14  1  0.613807  0.000000  0.750000  1
  Te  Te15  1  0.000000  0.613807  0.750000  1
