# generated using pymatgen
data_Dy5YTc2
_symmetry_space_group_name_H-M   'P 1'
_cell_length_a   6.27285700
_cell_length_b   7.41298000
_cell_length_c   9.18821400
_cell_angle_alpha   90.00000000
_cell_angle_beta   90.00000000
_cell_angle_gamma   90.00000000
_symmetry_Int_Tables_number   1
_chemical_formula_structural   Dy5YTc2
_chemical_formula_sum   'Dy10 Y2 Tc4'
_cell_volume   427.25712841
_cell_formula_units_Z   2
loop_
 _symmetry_equiv_pos_site_id
 _symmetry_equiv_pos_as_xyz
  1  'x, y, z'
loop_
 _atom_site_type_symbol
 _atom_site_label
 _atom_site_symmetry_multiplicity
 _atom_site_fract_x
 _atom_site_fract_y
 _atom_site_fract_z
 _atom_site_occupancy
  Dy  Dy0  1  0.339137  0.675572  0.063054  1
  Dy  Dy1  1  0.160863  0.175572  0.436946  1
  Dy  Dy2  1  0.660945  0.324646  0.562148  1
  Dy  Dy3  1  0.839055  0.824646  0.937852  1
  Dy  Dy4  1  0.660945  0.324646  0.937852  1
  Dy  Dy5  1  0.839055  0.824646  0.562148  1
  Dy  Dy6  1  0.339137  0.675572  0.436946  1
  Dy  Dy7  1  0.160863  0.175572  0.063054  1
  Dy  Dy8  1  0.872874  0.541589  0.250000  1
  Dy  Dy9  1  0.627126  0.041589  0.250000  1
  Y  Y10  1  0.127347  0.459234  0.750000  1
  Y  Y11  1  0.372653  0.959234  0.750000  1
  Tc  Tc12  1  0.039917  0.885825  0.250000  1
  Tc  Tc13  1  0.460083  0.385825  0.250000  1
  Tc  Tc14  1  0.953618  0.112916  0.750000  1
  Tc  Tc15  1  0.546382  0.612916  0.750000  1
