# generated using pymatgen
data_NaCe2ZnF11
_symmetry_space_group_name_H-M   'P 1'
_cell_length_a   5.94311242
_cell_length_b   5.94311244
_cell_length_c   8.40238879
_cell_angle_alpha   68.73920522
_cell_angle_beta   68.73920162
_cell_angle_gamma   72.47970805
_symmetry_Int_Tables_number   1
_chemical_formula_structural   NaCe2ZnF11
_chemical_formula_sum   'Na1 Ce2 Zn1 F11'
_cell_volume   252.79486863
_cell_formula_units_Z   1
loop_
 _symmetry_equiv_pos_site_id
 _symmetry_equiv_pos_as_xyz
  1  'x, y, z'
loop_
 _atom_site_type_symbol
 _atom_site_label
 _atom_site_symmetry_multiplicity
 _atom_site_fract_x
 _atom_site_fract_y
 _atom_site_fract_z
 _atom_site_occupancy
  Na  Na0  1  0.000000  0.000000  0.000000  1
  Ce  Ce1  1  0.508197  0.508197  0.761648  1
  Ce  Ce2  1  0.491803  0.491803  0.238352  1
  Zn  Zn3  1  0.000000  0.000000  0.500000  1
  F  F4  1  0.211211  0.819893  0.680264  1
  F  F5  1  0.180107  0.788789  0.319736  1
  F  F6  1  0.788789  0.180107  0.319736  1
  F  F7  1  0.819893  0.211211  0.680264  1
  F  F8  1  0.500000  0.500000  0.500000  1
  F  F9  1  0.679560  0.320440  0.000000  1
  F  F10  1  0.320440  0.679560  0.000000  1
  F  F11  1  0.237686  0.237686  0.356611  1
  F  F12  1  0.762314  0.762314  0.643389  1
  F  F13  1  0.262924  0.262924  0.891910  1
  F  F14  1  0.737076  0.737076  0.108090  1
