# generated using pymatgen
data_TaTi2Mn8Nb
_symmetry_space_group_name_H-M   'P 1'
_cell_length_a   4.77640400
_cell_length_b   4.77640382
_cell_length_c   7.87523200
_cell_angle_alpha   90.00000000
_cell_angle_beta   90.00000000
_cell_angle_gamma   120.00000122
_symmetry_Int_Tables_number   1
_chemical_formula_structural   TaTi2Mn8Nb
_chemical_formula_sum   'Ta1 Ti2 Mn8 Nb1'
_cell_volume   155.59515654
_cell_formula_units_Z   1
loop_
 _symmetry_equiv_pos_site_id
 _symmetry_equiv_pos_as_xyz
  1  'x, y, z'
loop_
 _atom_site_type_symbol
 _atom_site_label
 _atom_site_symmetry_multiplicity
 _atom_site_fract_x
 _atom_site_fract_y
 _atom_site_fract_z
 _atom_site_occupancy
  Ta  Ta0  1  0.666667  0.333333  0.936754  1
  Ti  Ti1  1  0.666667  0.333333  0.562901  1
  Ti  Ti2  1  0.333333  0.666667  0.062650  1
  Mn  Mn3  1  0.656533  0.828266  0.750143  1
  Mn  Mn4  1  0.343596  0.171799  0.249405  1
  Mn  Mn5  1  0.828201  0.171799  0.249405  1
  Mn  Mn6  1  0.171734  0.343467  0.750143  1
  Mn  Mn7  1  0.171734  0.828266  0.750143  1
  Mn  Mn8  1  0.828201  0.656404  0.249405  1
  Mn  Mn9  1  0.000000  0.000000  0.501099  1
  Mn  Mn10  1  0.000000  0.000000  0.001416  1
  Nb  Nb11  1  0.333333  0.666667  0.436537  1
