# generated using pymatgen
data_Gd11Er7(ZrIr6)2
_symmetry_space_group_name_H-M   'P 1'
_cell_length_a   10.84272909
_cell_length_b   10.86473243
_cell_length_c   6.31736600
_cell_angle_alpha   89.99004880
_cell_angle_beta   90.00749308
_cell_angle_gamma   89.98724457
_symmetry_Int_Tables_number   1
_chemical_formula_structural   Gd11Er7(ZrIr6)2
_chemical_formula_sum   'Gd11 Er7 Zr2 Ir12'
_cell_volume   744.20684471
_cell_formula_units_Z   1
loop_
 _symmetry_equiv_pos_site_id
 _symmetry_equiv_pos_as_xyz
  1  'x, y, z'
loop_
 _atom_site_type_symbol
 _atom_site_label
 _atom_site_symmetry_multiplicity
 _atom_site_fract_x
 _atom_site_fract_y
 _atom_site_fract_z
 _atom_site_occupancy
  Gd  Gd0  1  0.588428  0.209203  0.374321  1
  Gd  Gd1  1  0.411846  0.792120  0.376600  1
  Gd  Gd2  1  0.413221  0.208201  0.875172  1
  Gd  Gd3  1  0.209957  0.408074  0.625847  1
  Gd  Gd4  1  0.209204  0.587436  0.125461  1
  Gd  Gd5  1  0.791291  0.412364  0.125060  1
  Gd  Gd6  1  0.789904  0.591174  0.625132  1
  Gd  Gd7  1  0.911966  0.713038  0.125005  1
  Gd  Gd8  1  0.911381  0.286001  0.626562  1
  Gd  Gd9  1  0.089598  0.712395  0.626609  1
  Gd  Gd10  1  0.087808  0.285361  0.127128  1
  Er  Er11  1  0.288659  0.086150  0.376378  1
  Er  Er12  1  0.288717  0.915767  0.876761  1
  Er  Er13  1  0.710947  0.085025  0.876250  1
  Er  Er14  1  0.711024  0.914452  0.375620  1
  Er  Er15  1  0.585985  0.794373  0.878349  1
  Er  Er16  1  0.500793  0.500981  0.997971  1
  Er  Er17  1  0.499935  0.501015  0.498168  1
  Zr  Zr18  1  0.999996  0.999064  0.497714  1
  Zr  Zr19  1  0.999020  0.999426  0.997343  1
  Ir  Ir20  1  0.854576  0.141415  0.248648  1
  Ir  Ir21  1  0.852744  0.858745  0.748729  1
  Ir  Ir22  1  0.145047  0.140338  0.748517  1
  Ir  Ir23  1  0.144718  0.858070  0.247643  1
  Ir  Ir24  1  0.653087  0.345595  0.749756  1
  Ir  Ir25  1  0.652488  0.655476  0.246960  1
  Ir  Ir26  1  0.347179  0.345016  0.249433  1
  Ir  Ir27  1  0.349089  0.655667  0.752877  1
  Ir  Ir28  1  0.500406  0.999598  0.121307  1
  Ir  Ir29  1  0.500624  0.999800  0.621516  1
  Ir  Ir30  1  0.000069  0.499391  0.876619  1
  Ir  Ir31  1  0.000295  0.499273  0.380547  1
