# generated using pymatgen
data_Li2FeCoAs2
_symmetry_space_group_name_H-M   'P 1'
_cell_length_a   3.79066200
_cell_length_b   3.79066200
_cell_length_c   6.04145600
_cell_angle_alpha   90.00000000
_cell_angle_beta   90.00000000
_cell_angle_gamma   90.00000000
_symmetry_Int_Tables_number   1
_chemical_formula_structural   Li2FeCoAs2
_chemical_formula_sum   'Li2 Fe1 Co1 As2'
_cell_volume   86.81039656
_cell_formula_units_Z   1
loop_
 _symmetry_equiv_pos_site_id
 _symmetry_equiv_pos_as_xyz
  1  'x, y, z'
loop_
 _atom_site_type_symbol
 _atom_site_label
 _atom_site_symmetry_multiplicity
 _atom_site_fract_x
 _atom_site_fract_y
 _atom_site_fract_z
 _atom_site_occupancy
  Li  Li0  1  0.000000  0.500000  0.169217  1
  Li  Li1  1  0.500000  0.000000  0.830783  1
  Fe  Fe2  1  0.500000  0.500000  0.500000  1
  Co  Co3  1  0.000000  0.000000  0.500000  1
  As  As4  1  0.000000  0.500000  0.726023  1
  As  As5  1  0.500000  0.000000  0.273977  1
