# generated using pymatgen
data_Pa4Re7Ge6
_symmetry_space_group_name_H-M   'P 1'
_cell_length_a   7.33231899
_cell_length_b   7.32587301
_cell_length_c   7.32587085
_cell_angle_alpha   109.45339017
_cell_angle_beta   109.48904342
_cell_angle_gamma   109.48904705
_symmetry_Int_Tables_number   1
_chemical_formula_structural   Pa4Re7Ge6
_chemical_formula_sum   'Pa4 Re7 Ge6'
_cell_volume   302.86042032
_cell_formula_units_Z   1
loop_
 _symmetry_equiv_pos_site_id
 _symmetry_equiv_pos_as_xyz
  1  'x, y, z'
loop_
 _atom_site_type_symbol
 _atom_site_label
 _atom_site_symmetry_multiplicity
 _atom_site_fract_x
 _atom_site_fract_y
 _atom_site_fract_z
 _atom_site_occupancy
  Pa  Pa0  1  0.500000  0.000000  0.000000  1
  Pa  Pa1  1  0.500000  0.500000  0.500000  1
  Pa  Pa2  1  0.000000  0.000000  0.500000  1
  Pa  Pa3  1  0.000000  0.500000  0.000000  1
  Re  Re4  1  0.750096  0.250096  0.500192  1
  Re  Re5  1  0.500000  0.250096  0.749904  1
  Re  Re6  1  0.500000  0.749904  0.250096  1
  Re  Re7  1  0.249904  0.499808  0.749904  1
  Re  Re8  1  0.750096  0.500192  0.250096  1
  Re  Re9  1  0.249904  0.749904  0.499808  1
  Re  Re10  1  0.000000  0.000000  0.000000  1
  Ge  Ge11  1  0.309850  0.309882  0.000000  1
  Ge  Ge12  1  0.000033  0.309882  0.309882  1
  Ge  Ge13  1  0.999967  0.690118  0.690118  1
  Ge  Ge14  1  0.690150  0.000000  0.690118  1
  Ge  Ge15  1  0.309850  0.000000  0.309882  1
  Ge  Ge16  1  0.690150  0.690118  0.000000  1
