# generated using pymatgen
data_Ac5TlSi2
_symmetry_space_group_name_H-M   'P 1'
_cell_length_a   8.39607144
_cell_length_b   8.39607051
_cell_length_c   9.83164051
_cell_angle_alpha   115.27684139
_cell_angle_beta   115.27684144
_cell_angle_gamma   90.00000436
_symmetry_Int_Tables_number   1
_chemical_formula_structural   Ac5TlSi2
_chemical_formula_sum   'Ac10 Tl2 Si4'
_cell_volume   552.44163254
_cell_formula_units_Z   2
loop_
 _symmetry_equiv_pos_site_id
 _symmetry_equiv_pos_as_xyz
  1  'x, y, z'
loop_
 _atom_site_type_symbol
 _atom_site_label
 _atom_site_symmetry_multiplicity
 _atom_site_fract_x
 _atom_site_fract_y
 _atom_site_fract_z
 _atom_site_occupancy
  Ac  Ac0  1  0.500000  0.500000  0.000000  1
  Ac  Ac1  1  0.000000  0.000000  0.000000  1
  Ac  Ac2  1  0.963481  0.813875  0.277356  1
  Ac  Ac3  1  0.313875  0.463481  0.277356  1
  Ac  Ac4  1  0.813875  0.313875  0.277356  1
  Ac  Ac5  1  0.463481  0.963481  0.277356  1
  Ac  Ac6  1  0.036519  0.186125  0.722644  1
  Ac  Ac7  1  0.686125  0.536519  0.722644  1
  Ac  Ac8  1  0.186125  0.686125  0.722644  1
  Ac  Ac9  1  0.536519  0.036519  0.722644  1
  Tl  Tl10  1  0.750000  0.750000  0.500000  1
  Tl  Tl11  1  0.250000  0.250000  0.500000  1
  Si  Si12  1  0.612515  0.887485  0.000000  1
  Si  Si13  1  0.387485  0.112515  0.000000  1
  Si  Si14  1  0.887485  0.387485  0.000000  1
  Si  Si15  1  0.112515  0.612515  0.000000  1
