# generated using pymatgen
data_LaPrFe4(CoB2)4
_symmetry_space_group_name_H-M   'P 1'
_cell_length_a   7.09365615
_cell_length_b   7.09800515
_cell_length_c   3.80612700
_cell_angle_alpha   90.00000000
_cell_angle_beta   90.00000000
_cell_angle_gamma   89.97655145
_symmetry_Int_Tables_number   1
_chemical_formula_structural   LaPrFe4(CoB2)4
_chemical_formula_sum   'La1 Pr1 Fe4 Co4 B8'
_cell_volume   191.64155324
_cell_formula_units_Z   1
loop_
 _symmetry_equiv_pos_site_id
 _symmetry_equiv_pos_as_xyz
  1  'x, y, z'
loop_
 _atom_site_type_symbol
 _atom_site_label
 _atom_site_symmetry_multiplicity
 _atom_site_fract_x
 _atom_site_fract_y
 _atom_site_fract_z
 _atom_site_occupancy
  La  La0  1  0.500000  0.500000  0.501796  1
  Pr  Pr1  1  0.000000  0.000000  0.001654  1
  Fe  Fe2  1  0.386863  0.131836  0.895055  1
  Fe  Fe3  1  0.613137  0.868164  0.895055  1
  Fe  Fe4  1  0.366851  0.886894  0.395628  1
  Fe  Fe5  1  0.633149  0.113106  0.395628  1
  Co  Co6  1  0.114154  0.360550  0.606036  1
  Co  Co7  1  0.885846  0.639450  0.606036  1
  Co  Co8  1  0.138002  0.613969  0.106655  1
  Co  Co9  1  0.861998  0.386031  0.106655  1
  B  B10  1  0.796500  0.664143  0.102229  1
  B  B11  1  0.203500  0.335857  0.102229  1
  B  B12  1  0.837264  0.295065  0.603613  1
  B  B13  1  0.162736  0.704935  0.603613  1
  B  B14  1  0.700650  0.836689  0.393839  1
  B  B15  1  0.299350  0.163311  0.393839  1
  B  B16  1  0.664562  0.199315  0.895220  1
  B  B17  1  0.335438  0.800685  0.895220  1
