# generated using pymatgen
data_Ho10In8AgIr3
_symmetry_space_group_name_H-M   'P 1'
_cell_length_a   8.10383304
_cell_length_b   18.31409020
_cell_length_c   3.62311100
_cell_angle_alpha   90.00000000
_cell_angle_beta   90.00000000
_cell_angle_gamma   89.98208579
_symmetry_Int_Tables_number   1
_chemical_formula_structural   Ho10In8AgIr3
_chemical_formula_sum   'Ho10 In8 Ag1 Ir3'
_cell_volume   537.72156246
_cell_formula_units_Z   1
loop_
 _symmetry_equiv_pos_site_id
 _symmetry_equiv_pos_as_xyz
  1  'x, y, z'
loop_
 _atom_site_type_symbol
 _atom_site_label
 _atom_site_symmetry_multiplicity
 _atom_site_fract_x
 _atom_site_fract_y
 _atom_site_fract_z
 _atom_site_occupancy
  Ho  Ho0  1  0.499152  0.502127  0.000000  1
  Ho  Ho1  1  0.000678  0.997649  0.000000  1
  Ho  Ho2  1  0.768875  0.285257  0.000000  1
  Ho  Ho3  1  0.250972  0.722080  0.000000  1
  Ho  Ho4  1  0.751228  0.776646  0.000000  1
  Ho  Ho5  1  0.223078  0.222519  0.000000  1
  Ho  Ho6  1  0.623044  0.076887  0.000000  1
  Ho  Ho7  1  0.382724  0.909329  0.000000  1
  Ho  Ho8  1  0.880580  0.590046  0.000000  1
  Ho  Ho9  1  0.119790  0.415416  0.000000  1
  In  In10  1  0.707354  0.928395  0.500000  1
  In  In11  1  0.294639  0.066330  0.500000  1
  In  In12  1  0.796055  0.436012  0.500000  1
  In  In13  1  0.203905  0.568737  0.500000  1
  In  In14  1  0.566724  0.649539  0.500000  1
  In  In15  1  0.427725  0.352118  0.500000  1
  In  In16  1  0.922269  0.148131  0.500000  1
  In  In17  1  0.068304  0.849858  0.500000  1
  Ag  Ag18  1  0.530260  0.198020  0.500000  1
  Ir  Ir19  1  0.476696  0.802838  0.500000  1
  Ir  Ir20  1  0.976606  0.696020  0.500000  1
  Ir  Ir21  1  0.029340  0.306047  0.500000  1
