# generated using pymatgen
data_La6TeO12
_symmetry_space_group_name_H-M   'P 1'
_cell_length_a   6.85266959
_cell_length_b   6.85266894
_cell_length_c   6.85266934
_cell_angle_alpha   98.53280732
_cell_angle_beta   98.53280857
_cell_angle_gamma   98.53281767
_symmetry_Int_Tables_number   1
_chemical_formula_structural   La6TeO12
_chemical_formula_sum   'La6 Te1 O12'
_cell_volume   309.89726093
_cell_formula_units_Z   1
loop_
 _symmetry_equiv_pos_site_id
 _symmetry_equiv_pos_as_xyz
  1  'x, y, z'
loop_
 _atom_site_type_symbol
 _atom_site_label
 _atom_site_symmetry_multiplicity
 _atom_site_fract_x
 _atom_site_fract_y
 _atom_site_fract_z
 _atom_site_occupancy
  La  La0  1  0.144158  0.306529  0.605286  1
  La  La1  1  0.394714  0.855842  0.693471  1
  La  La2  1  0.693471  0.394714  0.855842  1
  La  La3  1  0.306529  0.605286  0.144158  1
  La  La4  1  0.605286  0.144158  0.306529  1
  La  La5  1  0.855842  0.693471  0.394714  1
  Te  Te6  1  0.000000  0.000000  0.000000  1
  O  O7  1  0.067940  0.284643  0.969851  1
  O  O8  1  0.030149  0.932060  0.715357  1
  O  O9  1  0.404973  0.560239  0.823032  1
  O  O10  1  0.176968  0.595027  0.439761  1
  O  O11  1  0.715357  0.030149  0.932060  1
  O  O12  1  0.439761  0.176968  0.595027  1
  O  O13  1  0.560239  0.823032  0.404973  1
  O  O14  1  0.284643  0.969851  0.067940  1
  O  O15  1  0.823032  0.404973  0.560239  1
  O  O16  1  0.595027  0.439761  0.176968  1
  O  O17  1  0.969851  0.067940  0.284643  1
  O  O18  1  0.932060  0.715357  0.030149  1
