# generated using pymatgen
data_ErTm3Os7W
_symmetry_space_group_name_H-M   'P 1'
_cell_length_a   5.45162895
_cell_length_b   5.22975778
_cell_length_c   8.90607804
_cell_angle_alpha   89.99047933
_cell_angle_beta   90.00233421
_cell_angle_gamma   121.23614461
_symmetry_Int_Tables_number   1
_chemical_formula_structural   ErTm3Os7W
_chemical_formula_sum   'Er1 Tm3 Os7 W1'
_cell_volume   217.10979248
_cell_formula_units_Z   1
loop_
 _symmetry_equiv_pos_site_id
 _symmetry_equiv_pos_as_xyz
  1  'x, y, z'
loop_
 _atom_site_type_symbol
 _atom_site_label
 _atom_site_symmetry_multiplicity
 _atom_site_fract_x
 _atom_site_fract_y
 _atom_site_fract_z
 _atom_site_occupancy
  Er  Er0  1  0.671379  0.342303  0.563286  1
  Tm  Tm1  1  0.333448  0.667739  0.433787  1
  Tm  Tm2  1  0.333571  0.667932  0.066033  1
  Tm  Tm3  1  0.671473  0.342393  0.937027  1
  Os  Os4  1  0.006358  0.013247  0.496953  1
  Os  Os5  1  0.006181  0.013070  0.002818  1
  Os  Os6  1  0.172848  0.823122  0.750334  1
  Os  Os7  1  0.649327  0.823246  0.750257  1
  Os  Os8  1  0.824481  0.649016  0.249629  1
  Os  Os9  1  0.828016  0.165795  0.249801  1
  Os  Os10  1  0.340434  0.167352  0.249791  1
  W  W11  1  0.162485  0.324785  0.750283  1
