# generated using pymatgen
data_ReTeI
_symmetry_space_group_name_H-M   'P 1'
_cell_length_a   10.59418995
_cell_length_b   10.59418919
_cell_length_c   12.43263100
_cell_angle_alpha   90.00000000
_cell_angle_beta   90.00000000
_cell_angle_gamma   107.83906017
_symmetry_Int_Tables_number   1
_chemical_formula_structural   ReTeI
_chemical_formula_sum   'Re12 Te12 I12'
_cell_volume   1328.30964654
_cell_formula_units_Z   12
loop_
 _symmetry_equiv_pos_site_id
 _symmetry_equiv_pos_as_xyz
  1  'x, y, z'
loop_
 _atom_site_type_symbol
 _atom_site_label
 _atom_site_symmetry_multiplicity
 _atom_site_fract_x
 _atom_site_fract_y
 _atom_site_fract_z
 _atom_site_occupancy
  Re  Re0  1  0.360394  0.639606  0.250000  1
  Re  Re1  1  0.314998  0.814790  0.111194  1
  Re  Re2  1  0.387267  0.888421  0.315667  1
  Re  Re3  1  0.639606  0.360394  0.750000  1
  Re  Re4  1  0.612733  0.111579  0.815667  1
  Re  Re5  1  0.685002  0.185210  0.611194  1
  Re  Re6  1  0.814790  0.314998  0.888806  1
  Re  Re7  1  0.888421  0.387267  0.684333  1
  Re  Re8  1  0.861050  0.138950  0.750000  1
  Re  Re9  1  0.111579  0.612733  0.184333  1
  Re  Re10  1  0.185210  0.685002  0.388806  1
  Re  Re11  1  0.138950  0.861050  0.250000  1
  Te  Te12  1  0.285971  0.563543  0.043708  1
  Te  Te13  1  0.436457  0.714029  0.456292  1
  Te  Te14  1  0.341822  0.066844  0.174645  1
  Te  Te15  1  0.563543  0.285971  0.956292  1
  Te  Te16  1  0.714029  0.436457  0.543708  1
  Te  Te17  1  0.658178  0.933156  0.674645  1
  Te  Te18  1  0.933156  0.658178  0.325355  1
  Te  Te19  1  0.789169  0.066629  0.955570  1
  Te  Te20  1  0.933371  0.210831  0.544430  1
  Te  Te21  1  0.066844  0.341822  0.825355  1
  Te  Te22  1  0.066629  0.789169  0.044430  1
  Te  Te23  1  0.210831  0.933371  0.455570  1
  I  I24  1  0.477042  0.522958  0.750000  1
  I  I25  1  0.425084  0.157723  0.675797  1
  I  I26  1  0.404637  0.888244  0.895247  1
  I  I27  1  0.522958  0.477042  0.250000  1
  I  I28  1  0.595363  0.111756  0.395247  1
  I  I29  1  0.574916  0.842277  0.175797  1
  I  I30  1  0.842277  0.574916  0.824203  1
  I  I31  1  0.888244  0.404637  0.104753  1
  I  I32  1  0.974349  0.025650  0.250000  1
  I  I33  1  0.111756  0.595363  0.604753  1
  I  I34  1  0.025650  0.974349  0.750000  1
  I  I35  1  0.157723  0.425084  0.324203  1
