# generated using pymatgen
data_Tm8Ta12Si3Ge13
_symmetry_space_group_name_H-M   'P 1'
_cell_length_a   6.91583489
_cell_length_b   7.10058193
_cell_length_c   13.48095400
_cell_angle_alpha   90.00000000
_cell_angle_beta   90.00000000
_cell_angle_gamma   89.91531678
_symmetry_Int_Tables_number   1
_chemical_formula_structural   Tm8Ta12Si3Ge13
_chemical_formula_sum   'Tm8 Ta12 Si3 Ge13'
_cell_volume   662.00110151
_cell_formula_units_Z   1
loop_
 _symmetry_equiv_pos_site_id
 _symmetry_equiv_pos_as_xyz
  1  'x, y, z'
loop_
 _atom_site_type_symbol
 _atom_site_label
 _atom_site_symmetry_multiplicity
 _atom_site_fract_x
 _atom_site_fract_y
 _atom_site_fract_z
 _atom_site_occupancy
  Tm  Tm0  1  0.494861  0.672808  0.594986  1
  Tm  Tm1  1  0.994715  0.827219  0.905040  1
  Tm  Tm2  1  0.505360  0.327446  0.094331  1
  Tm  Tm3  1  0.005657  0.174920  0.405733  1
  Tm  Tm4  1  0.505360  0.327446  0.405669  1
  Tm  Tm5  1  0.005657  0.174920  0.094267  1
  Tm  Tm6  1  0.494861  0.672808  0.905014  1
  Tm  Tm7  1  0.994715  0.827219  0.594960  1
  Ta  Ta8  1  0.658764  0.172988  0.627703  1
  Ta  Ta9  1  0.159099  0.327154  0.872404  1
  Ta  Ta10  1  0.345089  0.826651  0.126918  1
  Ta  Ta11  1  0.836677  0.669253  0.373535  1
  Ta  Ta12  1  0.345089  0.826651  0.373082  1
  Ta  Ta13  1  0.836677  0.669253  0.126465  1
  Ta  Ta14  1  0.658764  0.172988  0.872297  1
  Ta  Ta15  1  0.159099  0.327154  0.627596  1
  Ta  Ta16  1  0.832255  0.484067  0.750000  1
  Ta  Ta17  1  0.332248  0.015774  0.750000  1
  Ta  Ta18  1  0.168415  0.513482  0.250000  1
  Ta  Ta19  1  0.663844  0.984141  0.250000  1
  Si  Si20  1  0.456642  0.378090  0.750000  1
  Si  Si21  1  0.956959  0.121949  0.750000  1
  Si  Si22  1  0.542675  0.620775  0.250000  1
  Ge  Ge23  1  0.678387  0.963731  0.459490  1
  Ge  Ge24  1  0.177278  0.537344  0.040823  1
  Ge  Ge25  1  0.322809  0.036502  0.959293  1
  Ge  Ge26  1  0.822479  0.462926  0.541028  1
  Ge  Ge27  1  0.322809  0.036502  0.540707  1
  Ge  Ge28  1  0.822479  0.462926  0.958972  1
  Ge  Ge29  1  0.678387  0.963731  0.040510  1
  Ge  Ge30  1  0.177278  0.537344  0.459177  1
  Ge  Ge31  1  0.041001  0.880215  0.250000  1
  Ge  Ge32  1  0.698041  0.860486  0.750000  1
  Ge  Ge33  1  0.198038  0.639539  0.750000  1
  Ge  Ge34  1  0.305328  0.143734  0.250000  1
  Ge  Ge35  1  0.802198  0.359867  0.250000  1
