# generated using pymatgen
data_Lu12Al(Si4Ir)3
_symmetry_space_group_name_H-M   'P 1'
_cell_length_a   4.16693000
_cell_length_b   10.57416818
_cell_length_c   12.06400880
_cell_angle_alpha   90.10202132
_cell_angle_beta   90.00000000
_cell_angle_gamma   90.00000000
_symmetry_Int_Tables_number   1
_chemical_formula_structural   Lu12Al(Si4Ir)3
_chemical_formula_sum   'Lu12 Al1 Si12 Ir3'
_cell_volume   531.56132455
_cell_formula_units_Z   1
loop_
 _symmetry_equiv_pos_site_id
 _symmetry_equiv_pos_as_xyz
  1  'x, y, z'
loop_
 _atom_site_type_symbol
 _atom_site_label
 _atom_site_symmetry_multiplicity
 _atom_site_fract_x
 _atom_site_fract_y
 _atom_site_fract_z
 _atom_site_occupancy
  Lu  Lu0  1  0.250000  0.879148  0.021136  1
  Lu  Lu1  1  0.250000  0.624838  0.518694  1
  Lu  Lu2  1  0.750000  0.120630  0.981265  1
  Lu  Lu3  1  0.750000  0.378706  0.477783  1
  Lu  Lu4  1  0.250000  0.921002  0.600003  1
  Lu  Lu5  1  0.250000  0.580092  0.101795  1
  Lu  Lu6  1  0.750000  0.079041  0.397081  1
  Lu  Lu7  1  0.750000  0.420014  0.897383  1
  Lu  Lu8  1  0.250000  0.667204  0.803040  1
  Lu  Lu9  1  0.250000  0.841303  0.300366  1
  Lu  Lu10  1  0.750000  0.341766  0.199416  1
  Lu  Lu11  1  0.750000  0.153497  0.699834  1
  Al  Al12  1  0.250000  0.386722  0.680029  1
  Si  Si13  1  0.250000  0.010470  0.822636  1
  Si  Si14  1  0.250000  0.487511  0.324327  1
  Si  Si15  1  0.750000  0.987127  0.178817  1
  Si  Si16  1  0.750000  0.525858  0.675522  1
  Si  Si17  1  0.250000  0.240699  0.848733  1
  Si  Si18  1  0.250000  0.252164  0.339814  1
  Si  Si19  1  0.750000  0.752679  0.159630  1
  Si  Si20  1  0.750000  0.754247  0.658358  1
  Si  Si21  1  0.250000  0.182201  0.536083  1
  Si  Si22  1  0.250000  0.302448  0.045360  1
  Si  Si23  1  0.750000  0.802744  0.455358  1
  Si  Si24  1  0.750000  0.698159  0.958195  1
  Ir  Ir25  1  0.250000  0.109363  0.178062  1
  Ir  Ir26  1  0.750000  0.610301  0.319739  1
  Ir  Ir27  1  0.750000  0.890067  0.821541  1
