# generated using pymatgen
data_Ce3ErF15
_symmetry_space_group_name_H-M   'P 1'
_cell_length_a   8.57373430
_cell_length_b   8.57373440
_cell_length_c   8.55980972
_cell_angle_alpha   79.58633849
_cell_angle_beta   79.58634389
_cell_angle_gamma   100.07600689
_symmetry_Int_Tables_number   1
_chemical_formula_structural   Ce3ErF15
_chemical_formula_sum   'Ce6 Er2 F30'
_cell_volume   594.47863910
_cell_formula_units_Z   2
loop_
 _symmetry_equiv_pos_site_id
 _symmetry_equiv_pos_as_xyz
  1  'x, y, z'
loop_
 _atom_site_type_symbol
 _atom_site_label
 _atom_site_symmetry_multiplicity
 _atom_site_fract_x
 _atom_site_fract_y
 _atom_site_fract_z
 _atom_site_occupancy
  Ce  Ce0  1  0.750087  0.249913  0.250000  1
  Ce  Ce1  1  0.249913  0.750087  0.750000  1
  Ce  Ce2  1  0.754696  0.678739  0.672486  1
  Ce  Ce3  1  0.321261  0.245304  0.827514  1
  Ce  Ce4  1  0.245304  0.321261  0.327514  1
  Ce  Ce5  1  0.678739  0.754696  0.172486  1
  Er  Er6  1  0.178765  0.821235  0.250000  1
  Er  Er7  1  0.821235  0.178765  0.750000  1
  F  F8  1  0.465995  0.534005  0.250000  1
  F  F9  1  0.750611  0.964081  0.962753  1
  F  F10  1  0.035919  0.249389  0.537247  1
  F  F11  1  0.249389  0.035919  0.037247  1
  F  F12  1  0.964081  0.750611  0.462753  1
  F  F13  1  0.534005  0.465995  0.750000  1
  F  F14  1  0.220910  0.490118  0.776293  1
  F  F15  1  0.225064  0.724108  0.010822  1
  F  F16  1  0.987894  0.725087  0.783445  1
  F  F17  1  0.725087  0.987894  0.283445  1
  F  F18  1  0.724108  0.225064  0.510822  1
  F  F19  1  0.490118  0.220910  0.276293  1
  F  F20  1  0.779091  0.509882  0.223707  1
  F  F21  1  0.774936  0.275892  0.989178  1
  F  F22  1  0.012106  0.274913  0.216555  1
  F  F23  1  0.274913  0.012106  0.716555  1
  F  F24  1  0.275892  0.774936  0.489178  1
  F  F25  1  0.509882  0.779090  0.723707  1
  F  F26  1  0.550434  0.154752  0.815824  1
  F  F27  1  0.187062  0.053690  0.345469  1
  F  F28  1  0.648723  0.681697  0.447297  1
  F  F29  1  0.681697  0.648723  0.947297  1
  F  F30  1  0.053690  0.187062  0.845469  1
  F  F31  1  0.154752  0.550434  0.315824  1
  F  F32  1  0.449566  0.845248  0.184176  1
  F  F33  1  0.812938  0.946310  0.654531  1
  F  F34  1  0.351277  0.318303  0.552703  1
  F  F35  1  0.318303  0.351277  0.052703  1
  F  F36  1  0.946310  0.812938  0.154531  1
  F  F37  1  0.845248  0.449566  0.684176  1
