# generated using pymatgen
data_Tb2Cr3P7Rh9
_symmetry_space_group_name_H-M   'P 1'
_cell_length_a   3.83503200
_cell_length_b   9.61181473
_cell_length_c   9.59662033
_cell_angle_alpha   120.05763812
_cell_angle_beta   90.00049991
_cell_angle_gamma   89.99724376
_symmetry_Int_Tables_number   1
_chemical_formula_structural   Tb2Cr3P7Rh9
_chemical_formula_sum   'Tb2 Cr3 P7 Rh9'
_cell_volume   306.17575422
_cell_formula_units_Z   1
loop_
 _symmetry_equiv_pos_site_id
 _symmetry_equiv_pos_as_xyz
  1  'x, y, z'
loop_
 _atom_site_type_symbol
 _atom_site_label
 _atom_site_symmetry_multiplicity
 _atom_site_fract_x
 _atom_site_fract_y
 _atom_site_fract_z
 _atom_site_occupancy
  Tb  Tb0  1  0.261888  0.666666  0.333337  1
  Tb  Tb1  1  0.761880  0.333360  0.666650  1
  Cr  Cr2  1  0.761884  0.102002  0.868406  1
  Cr  Cr3  1  0.761889  0.131819  0.233875  1
  Cr  Cr4  1  0.761876  0.766010  0.897846  1
  P  P5  1  0.261893  0.000096  0.000044  1
  P  P6  1  0.761888  0.884281  0.596712  1
  P  P7  1  0.761880  0.403350  0.287566  1
  P  P8  1  0.761879  0.712511  0.115858  1
  P  P9  1  0.261914  0.116169  0.411245  1
  P  P10  1  0.261922  0.588717  0.704875  1
  P  P11  1  0.261907  0.295058  0.883774  1
  Rh  Rh12  1  0.261923  0.885153  0.157181  1
  Rh  Rh13  1  0.261933  0.842785  0.727845  1
  Rh  Rh14  1  0.261917  0.272236  0.115026  1
  Rh  Rh15  1  0.761964  0.612526  0.558278  1
  Rh  Rh16  1  0.761948  0.441603  0.054075  1
  Rh  Rh17  1  0.761962  0.945681  0.387418  1
  Rh  Rh18  1  0.261886  0.368369  0.438399  1
  Rh  Rh19  1  0.261883  0.561644  0.930010  1
  Rh  Rh20  1  0.261887  0.069964  0.631579  1
