# generated using pymatgen
data_Tb3Er13In3HgRh4
_symmetry_space_group_name_H-M   'P 1'
_cell_length_a   9.58771914
_cell_length_b   9.58676244
_cell_length_c   9.59660400
_cell_angle_alpha   59.96603527
_cell_angle_beta   59.96934054
_cell_angle_gamma   60.03964204
_symmetry_Int_Tables_number   1
_chemical_formula_structural   Tb3Er13In3HgRh4
_chemical_formula_sum   'Tb3 Er13 In3 Hg1 Rh4'
_cell_volume   623.60182862
_cell_formula_units_Z   1
loop_
 _symmetry_equiv_pos_site_id
 _symmetry_equiv_pos_as_xyz
  1  'x, y, z'
loop_
 _atom_site_type_symbol
 _atom_site_label
 _atom_site_symmetry_multiplicity
 _atom_site_fract_x
 _atom_site_fract_y
 _atom_site_fract_z
 _atom_site_occupancy
  Tb  Tb0  1  0.189993  0.189973  0.810018  1
  Tb  Tb1  1  0.437015  0.059948  0.065936  1
  Tb  Tb2  1  0.437015  0.059948  0.437102  1
  Er  Er3  1  0.062923  0.436319  0.064376  1
  Er  Er4  1  0.648985  0.049573  0.650722  1
  Er  Er5  1  0.189650  0.809431  0.811205  1
  Er  Er6  1  0.060954  0.058362  0.440342  1
  Er  Er7  1  0.810669  0.190361  0.190175  1
  Er  Er8  1  0.813293  0.809159  0.188773  1
  Er  Er9  1  0.651306  0.649439  0.047189  1
  Er  Er10  1  0.651306  0.649439  0.652066  1
  Er  Er11  1  0.062923  0.436319  0.436382  1
  Er  Er12  1  0.049485  0.648074  0.651221  1
  Er  Er13  1  0.810669  0.190361  0.808795  1
  Er  Er14  1  0.437561  0.436260  0.063090  1
  Er  Er15  1  0.189650  0.809431  0.189712  1
  In  In16  1  0.417265  0.420323  0.746668  1
  In  In17  1  0.747524  0.420618  0.415929  1
  In  In18  1  0.417265  0.420323  0.415744  1
  Hg  Hg19  1  0.413413  0.757550  0.414518  1
  Rh  Rh20  1  0.856603  0.425884  0.858756  1
  Rh  Rh21  1  0.858681  0.858611  0.427032  1
  Rh  Rh22  1  0.427171  0.855681  0.858574  1
  Rh  Rh23  1  0.858681  0.858611  0.855675  1
