# generated using pymatgen
data_TiNb5Al4(RhC)2
_symmetry_space_group_name_H-M   'P 1'
_cell_length_a   8.32100250
_cell_length_b   8.32100234
_cell_length_c   8.30326400
_cell_angle_alpha   60.07050081
_cell_angle_beta   60.07050145
_cell_angle_gamma   59.85901066
_symmetry_Int_Tables_number   1
_chemical_formula_structural   TiNb5Al4(RhC)2
_chemical_formula_sum   'Ti2 Nb10 Al8 Rh4 C4'
_cell_volume   406.51937402
_cell_formula_units_Z   2
loop_
 _symmetry_equiv_pos_site_id
 _symmetry_equiv_pos_as_xyz
  1  'x, y, z'
loop_
 _atom_site_type_symbol
 _atom_site_label
 _atom_site_symmetry_multiplicity
 _atom_site_fract_x
 _atom_site_fract_y
 _atom_site_fract_z
 _atom_site_occupancy
  Ti  Ti0  1  0.313613  0.313613  0.686387  1
  Ti  Ti1  1  0.563613  0.563613  0.936387  1
  Nb  Nb2  1  0.937104  0.937104  0.562896  1
  Nb  Nb3  1  0.687903  0.312655  0.312407  1
  Nb  Nb4  1  0.312655  0.687903  0.687035  1
  Nb  Nb5  1  0.687104  0.687104  0.312896  1
  Nb  Nb6  1  0.687903  0.312655  0.687035  1
  Nb  Nb7  1  0.312655  0.687903  0.312407  1
  Nb  Nb8  1  0.562965  0.937593  0.562097  1
  Nb  Nb9  1  0.562965  0.937593  0.937345  1
  Nb  Nb10  1  0.937593  0.562965  0.562097  1
  Nb  Nb11  1  0.937593  0.562965  0.937345  1
  Al  Al12  1  0.915280  0.251121  0.916800  1
  Al  Al13  1  0.333200  0.333200  0.998879  1
  Al  Al14  1  0.000227  0.333526  0.333123  1
  Al  Al15  1  0.333200  0.333200  0.334720  1
  Al  Al16  1  0.251121  0.915280  0.916800  1
  Al  Al17  1  0.916877  0.916877  0.916474  1
  Al  Al18  1  0.916877  0.916877  0.249773  1
  Al  Al19  1  0.333526  0.000227  0.333123  1
  Rh  Rh20  1  0.126321  0.624343  0.124668  1
  Rh  Rh21  1  0.125332  0.125332  0.625657  1
  Rh  Rh22  1  0.624343  0.126321  0.124668  1
  Rh  Rh23  1  0.125332  0.125332  0.123679  1
  C  C24  1  0.619047  0.128302  0.626325  1
  C  C25  1  0.623675  0.623675  0.121698  1
  C  C26  1  0.128302  0.619047  0.626325  1
  C  C27  1  0.623675  0.623675  0.630953  1
