# generated using pymatgen
data_Er10Ga2SnSb3
_symmetry_space_group_name_H-M   'P 1'
_cell_length_a   8.77122082
_cell_length_b   8.75718583
_cell_length_c   6.39451500
_cell_angle_alpha   90.00000000
_cell_angle_beta   90.00000000
_cell_angle_gamma   120.02466867
_symmetry_Int_Tables_number   1
_chemical_formula_structural   Er10Ga2SnSb3
_chemical_formula_sum   'Er10 Ga2 Sn1 Sb3'
_cell_volume   425.26030166
_cell_formula_units_Z   1
loop_
 _symmetry_equiv_pos_site_id
 _symmetry_equiv_pos_as_xyz
  1  'x, y, z'
loop_
 _atom_site_type_symbol
 _atom_site_label
 _atom_site_symmetry_multiplicity
 _atom_site_fract_x
 _atom_site_fract_y
 _atom_site_fract_z
 _atom_site_occupancy
  Er  Er0  1  0.011882  0.768578  0.750000  1
  Er  Er1  1  0.012265  0.244065  0.250000  1
  Er  Er2  1  0.755118  0.753839  0.250000  1
  Er  Er3  1  0.754182  0.999957  0.750000  1
  Er  Er4  1  0.243309  0.232015  0.750000  1
  Er  Er5  1  0.242756  0.010654  0.250000  1
  Er  Er6  1  0.335220  0.667554  0.499716  1
  Er  Er7  1  0.652645  0.326717  0.000339  1
  Er  Er8  1  0.652645  0.326717  0.499661  1
  Er  Er9  1  0.335220  0.667554  0.000284  1
  Ga  Ga10  1  0.394973  0.997658  0.750000  1
  Ga  Ga11  1  0.394330  0.397441  0.250000  1
  Sn  Sn12  1  0.998102  0.606201  0.250000  1
  Sb  Sb13  1  0.998356  0.391341  0.750000  1
  Sb  Sb14  1  0.609289  0.608248  0.750000  1
  Sb  Sb15  1  0.609706  0.001462  0.250000  1
