# generated using pymatgen
data_Cd2IO6
_symmetry_space_group_name_H-M   'P 1'
_cell_length_a   5.03274600
_cell_length_b   5.00449600
_cell_length_c   9.96849700
_cell_angle_alpha   90.00000000
_cell_angle_beta   90.00000000
_cell_angle_gamma   90.00000000
_symmetry_Int_Tables_number   1
_chemical_formula_structural   Cd2IO6
_chemical_formula_sum   'Cd4 I2 O12'
_cell_volume   251.07012645
_cell_formula_units_Z   2
loop_
 _symmetry_equiv_pos_site_id
 _symmetry_equiv_pos_as_xyz
  1  'x, y, z'
loop_
 _atom_site_type_symbol
 _atom_site_label
 _atom_site_symmetry_multiplicity
 _atom_site_fract_x
 _atom_site_fract_y
 _atom_site_fract_z
 _atom_site_occupancy
  Cd  Cd0  1  0.000000  0.000000  0.334570  1
  Cd  Cd1  1  0.500000  0.500000  0.165430  1
  Cd  Cd2  1  0.000000  0.000000  0.665430  1
  Cd  Cd3  1  0.500000  0.500000  0.834570  1
  I  I4  1  0.500000  0.500000  0.500000  1
  I  I5  1  0.000000  0.000000  0.000000  1
  O  O6  1  0.680236  0.682063  0.641109  1
  O  O7  1  0.319764  0.317937  0.641109  1
  O  O8  1  0.819764  0.182063  0.858891  1
  O  O9  1  0.180236  0.817937  0.858891  1
  O  O10  1  0.319764  0.317937  0.358891  1
  O  O11  1  0.680236  0.682063  0.358891  1
  O  O12  1  0.180236  0.817937  0.141109  1
  O  O13  1  0.819764  0.182063  0.141109  1
  O  O14  1  0.732210  0.729355  0.000000  1
  O  O15  1  0.267790  0.270645  0.000000  1
  O  O16  1  0.767790  0.229355  0.500000  1
  O  O17  1  0.232210  0.770645  0.500000  1
