# generated using pymatgen
data_SrLi2Bi2Pb
_symmetry_space_group_name_H-M   'P 1'
_cell_length_a   5.01076300
_cell_length_b   7.86804707
_cell_length_c   8.66669508
_cell_angle_alpha   90.67843949
_cell_angle_beta   90.00000000
_cell_angle_gamma   90.00000000
_symmetry_Int_Tables_number   1
_chemical_formula_structural   SrLi2Bi2Pb
_chemical_formula_sum   'Sr2 Li4 Bi4 Pb2'
_cell_volume   341.65979964
_cell_formula_units_Z   2
loop_
 _symmetry_equiv_pos_site_id
 _symmetry_equiv_pos_as_xyz
  1  'x, y, z'
loop_
 _atom_site_type_symbol
 _atom_site_label
 _atom_site_symmetry_multiplicity
 _atom_site_fract_x
 _atom_site_fract_y
 _atom_site_fract_z
 _atom_site_occupancy
  Sr  Sr0  1  0.750000  0.000837  0.752128  1
  Sr  Sr1  1  0.250000  0.999163  0.247872  1
  Li  Li2  1  0.750000  0.357555  0.082418  1
  Li  Li3  1  0.250000  0.642445  0.917582  1
  Li  Li4  1  0.750000  0.652518  0.412674  1
  Li  Li5  1  0.250000  0.347482  0.587326  1
  Bi  Bi6  1  0.750000  0.750087  0.082367  1
  Bi  Bi7  1  0.250000  0.249913  0.917633  1
  Bi  Bi8  1  0.750000  0.248395  0.416160  1
  Bi  Bi9  1  0.250000  0.751605  0.583840  1
  Pb  Pb10  1  0.750000  0.500154  0.745112  1
  Pb  Pb11  1  0.250000  0.499846  0.254888  1
