# generated using pymatgen
data_Tm2Mn5CrP7Ir6
_symmetry_space_group_name_H-M   'P 1'
_cell_length_a   9.38527182
_cell_length_b   9.37934254
_cell_length_c   3.83206100
_cell_angle_alpha   90.00000000
_cell_angle_beta   90.00000000
_cell_angle_gamma   119.97229863
_symmetry_Int_Tables_number   1
_chemical_formula_structural   Tm2Mn5CrP7Ir6
_chemical_formula_sum   'Tm2 Mn5 Cr1 P7 Ir6'
_cell_volume   292.21564098
_cell_formula_units_Z   1
loop_
 _symmetry_equiv_pos_site_id
 _symmetry_equiv_pos_as_xyz
  1  'x, y, z'
loop_
 _atom_site_type_symbol
 _atom_site_label
 _atom_site_symmetry_multiplicity
 _atom_site_fract_x
 _atom_site_fract_y
 _atom_site_fract_z
 _atom_site_occupancy
  Tm  Tm0  1  0.999413  0.999684  0.000000  1
  Tm  Tm1  1  0.665595  0.333957  0.500000  1
  Mn  Mn2  1  0.220377  0.394978  0.000000  1
  Mn  Mn3  1  0.604218  0.827973  0.000000  1
  Mn  Mn4  1  0.174725  0.776905  0.000000  1
  Mn  Mn5  1  0.430056  0.881847  0.500000  1
  Mn  Mn6  1  0.118408  0.547747  0.500000  1
  Cr  Cr7  1  0.451772  0.569369  0.500000  1
  P  P8  1  0.444048  0.369554  0.000000  1
  P  P9  1  0.632914  0.078679  0.000000  1
  P  P10  1  0.922359  0.555359  0.000000  1
  P  P11  1  0.055483  0.268216  0.500000  1
  P  P12  1  0.730135  0.785462  0.500000  1
  P  P13  1  0.213816  0.945148  0.500000  1
  P  P14  1  0.334935  0.664975  0.000000  1
  Ir  Ir15  1  0.696606  0.601371  0.000000  1
  Ir  Ir16  1  0.398391  0.094396  0.000000  1
  Ir  Ir17  1  0.905764  0.304789  0.000000  1
  Ir  Ir18  1  0.276865  0.222806  0.500000  1
  Ir  Ir19  1  0.776522  0.053669  0.500000  1
  Ir  Ir20  1  0.947595  0.723115  0.500000  1
