# generated using pymatgen
data_Ce17(MgIr4)3
_symmetry_space_group_name_H-M   'P 1'
_cell_length_a   11.02881700
_cell_length_b   11.02881700
_cell_length_c   6.09453700
_cell_angle_alpha   90.00000000
_cell_angle_beta   90.00000000
_cell_angle_gamma   90.00000000
_symmetry_Int_Tables_number   1
_chemical_formula_structural   Ce17(MgIr4)3
_chemical_formula_sum   'Ce17 Mg3 Ir12'
_cell_volume   741.30781602
_cell_formula_units_Z   1
loop_
 _symmetry_equiv_pos_site_id
 _symmetry_equiv_pos_as_xyz
  1  'x, y, z'
loop_
 _atom_site_type_symbol
 _atom_site_label
 _atom_site_symmetry_multiplicity
 _atom_site_fract_x
 _atom_site_fract_y
 _atom_site_fract_z
 _atom_site_occupancy
  Ce  Ce0  1  0.279405  0.087702  0.375297  1
  Ce  Ce1  1  0.280724  0.914152  0.871902  1
  Ce  Ce2  1  0.719276  0.085848  0.871902  1
  Ce  Ce3  1  0.720595  0.912298  0.375297  1
  Ce  Ce4  1  0.586795  0.781959  0.874011  1
  Ce  Ce5  1  0.588368  0.212260  0.368183  1
  Ce  Ce6  1  0.411632  0.787740  0.368183  1
  Ce  Ce7  1  0.413205  0.218041  0.874011  1
  Ce  Ce8  1  0.212260  0.411632  0.631817  1
  Ce  Ce9  1  0.218041  0.586795  0.125989  1
  Ce  Ce10  1  0.781959  0.413205  0.125989  1
  Ce  Ce11  1  0.787740  0.588368  0.631817  1
  Ce  Ce12  1  0.914152  0.719276  0.128098  1
  Ce  Ce13  1  0.912298  0.279405  0.624703  1
  Ce  Ce14  1  0.087702  0.720595  0.624703  1
  Ce  Ce15  1  0.085848  0.280724  0.128098  1
  Ce  Ce16  1  0.500000  0.500000  0.500000  1
  Mg  Mg17  1  0.000000  0.000000  0.500000  1
  Mg  Mg18  1  0.000000  0.000000  0.000000  1
  Mg  Mg19  1  0.500000  0.500000  0.000000  1
  Ir  Ir20  1  0.843757  0.156544  0.247457  1
  Ir  Ir21  1  0.843456  0.843757  0.752543  1
  Ir  Ir22  1  0.156544  0.156243  0.752543  1
  Ir  Ir23  1  0.156243  0.843456  0.247457  1
  Ir  Ir24  1  0.654295  0.341359  0.746251  1
  Ir  Ir25  1  0.658641  0.654295  0.253749  1
  Ir  Ir26  1  0.341359  0.345705  0.253749  1
  Ir  Ir27  1  0.345705  0.658641  0.746251  1
  Ir  Ir28  1  0.500000  0.000000  0.108798  1
  Ir  Ir29  1  0.500000  0.000000  0.609950  1
  Ir  Ir30  1  0.000000  0.500000  0.891202  1
  Ir  Ir31  1  0.000000  0.500000  0.390050  1
