# generated using pymatgen
data_NdGd7(Si3Pt)4
_symmetry_space_group_name_H-M   'P 1'
_cell_length_a   8.14850200
_cell_length_b   8.14850173
_cell_length_c   8.16705400
_cell_angle_alpha   90.00000000
_cell_angle_beta   90.00000000
_cell_angle_gamma   119.99999298
_symmetry_Int_Tables_number   1
_chemical_formula_structural   NdGd7(Si3Pt)4
_chemical_formula_sum   'Nd1 Gd7 Si12 Pt4'
_cell_volume   469.62545420
_cell_formula_units_Z   1
loop_
 _symmetry_equiv_pos_site_id
 _symmetry_equiv_pos_as_xyz
  1  'x, y, z'
loop_
 _atom_site_type_symbol
 _atom_site_label
 _atom_site_symmetry_multiplicity
 _atom_site_fract_x
 _atom_site_fract_y
 _atom_site_fract_z
 _atom_site_occupancy
  Nd  Nd0  1  0.000000  0.000000  0.250000  1
  Gd  Gd1  1  0.499647  0.500353  0.750000  1
  Gd  Gd2  1  0.500219  0.499781  0.250000  1
  Gd  Gd3  1  0.000707  0.500353  0.750000  1
  Gd  Gd4  1  0.999562  0.499781  0.250000  1
  Gd  Gd5  1  0.499647  0.999293  0.750000  1
  Gd  Gd6  1  0.500219  0.000438  0.250000  1
  Gd  Gd7  1  0.000000  0.000000  0.750000  1
  Si  Si8  1  0.834481  0.165519  0.997287  1
  Si  Si9  1  0.165551  0.834449  0.998140  1
  Si  Si10  1  0.331038  0.165519  0.997287  1
  Si  Si11  1  0.165551  0.834449  0.501860  1
  Si  Si12  1  0.668897  0.834449  0.998140  1
  Si  Si13  1  0.834481  0.165519  0.502713  1
  Si  Si14  1  0.834481  0.668962  0.997287  1
  Si  Si15  1  0.668897  0.834449  0.501860  1
  Si  Si16  1  0.165551  0.331103  0.998140  1
  Si  Si17  1  0.331038  0.165519  0.502713  1
  Si  Si18  1  0.165551  0.331103  0.501860  1
  Si  Si19  1  0.834481  0.668962  0.502713  1
  Pt  Pt20  1  0.666667  0.333333  0.000495  1
  Pt  Pt21  1  0.333333  0.666667  0.001936  1
  Pt  Pt22  1  0.333333  0.666667  0.498064  1
  Pt  Pt23  1  0.666667  0.333333  0.499505  1
