# generated using pymatgen
data_Er12GaCo4Ru
_symmetry_space_group_name_H-M   'P 1'
_cell_length_a   8.15869165
_cell_length_b   8.15869178
_cell_length_c   8.15869186
_cell_angle_alpha   106.64618323
_cell_angle_beta   110.71091437
_cell_angle_gamma   111.09320600
_symmetry_Int_Tables_number   1
_chemical_formula_structural   Er12GaCo4Ru
_chemical_formula_sum   'Er12 Ga1 Co4 Ru1'
_cell_volume   417.29864567
_cell_formula_units_Z   1
loop_
 _symmetry_equiv_pos_site_id
 _symmetry_equiv_pos_as_xyz
  1  'x, y, z'
loop_
 _atom_site_type_symbol
 _atom_site_label
 _atom_site_symmetry_multiplicity
 _atom_site_fract_x
 _atom_site_fract_y
 _atom_site_fract_z
 _atom_site_occupancy
  Er  Er0  1  0.693433  0.273231  0.966664  1
  Er  Er1  1  0.306567  0.726769  0.033336  1
  Er  Er2  1  0.693433  0.726769  0.420204  1
  Er  Er3  1  0.306567  0.273231  0.579796  1
  Er  Er4  1  0.802700  0.119374  0.316674  1
  Er  Er5  1  0.802700  0.486026  0.683326  1
  Er  Er6  1  0.197300  0.880626  0.683326  1
  Er  Er7  1  0.197300  0.513974  0.316674  1
  Er  Er8  1  0.596763  0.778982  0.817781  1
  Er  Er9  1  0.961199  0.778982  0.182219  1
  Er  Er10  1  0.038801  0.221018  0.817781  1
  Er  Er11  1  0.403237  0.221018  0.182219  1
  Ga  Ga12  1  0.500000  0.000000  0.500000  1
  Co  Co13  1  0.873382  0.500000  0.373382  1
  Co  Co14  1  0.126618  0.500000  0.626618  1
  Co  Co15  1  0.000000  0.113163  0.113163  1
  Co  Co16  1  0.000000  0.886837  0.886837  1
  Ru  Ru17  1  0.500000  0.500000  0.000000  1
