# generated using pymatgen
data_Tb3Er(TiAl3)2
_symmetry_space_group_name_H-M   'P 1'
_cell_length_a   9.54414213
_cell_length_b   9.54414287
_cell_length_c   9.54414320
_cell_angle_alpha   34.81352154
_cell_angle_beta   34.81351461
_cell_angle_gamma   34.81352116
_symmetry_Int_Tables_number   1
_chemical_formula_structural   Tb3Er(TiAl3)2
_chemical_formula_sum   'Tb3 Er1 Ti2 Al6'
_cell_volume   252.92826225
_cell_formula_units_Z   1
loop_
 _symmetry_equiv_pos_site_id
 _symmetry_equiv_pos_as_xyz
  1  'x, y, z'
loop_
 _atom_site_type_symbol
 _atom_site_label
 _atom_site_symmetry_multiplicity
 _atom_site_fract_x
 _atom_site_fract_y
 _atom_site_fract_z
 _atom_site_occupancy
  Tb  Tb0  1  0.186903  0.186903  0.186903  1
  Tb  Tb1  1  0.812999  0.812999  0.812999  1
  Tb  Tb2  1  0.313229  0.313229  0.313229  1
  Er  Er3  1  0.686366  0.686366  0.686366  1
  Ti  Ti4  1  0.000146  0.000146  0.000146  1
  Ti  Ti5  1  0.500138  0.500138  0.500138  1
  Al  Al6  1  0.749480  0.250049  0.250049  1
  Al  Al7  1  0.250569  0.750034  0.750034  1
  Al  Al8  1  0.250049  0.749480  0.250049  1
  Al  Al9  1  0.750034  0.250569  0.750034  1
  Al  Al10  1  0.250049  0.250049  0.749480  1
  Al  Al11  1  0.750034  0.750034  0.250569  1
