# generated using pymatgen
data_Tb2Ho2Ga16Co3
_symmetry_space_group_name_H-M   'P 1'
_cell_length_a   6.02410000
_cell_length_b   6.02410000
_cell_length_c   11.11666800
_cell_angle_alpha   90.00000000
_cell_angle_beta   90.00000000
_cell_angle_gamma   90.00000000
_symmetry_Int_Tables_number   1
_chemical_formula_structural   Tb2Ho2Ga16Co3
_chemical_formula_sum   'Tb2 Ho2 Ga16 Co3'
_cell_volume   403.42144506
_cell_formula_units_Z   1
loop_
 _symmetry_equiv_pos_site_id
 _symmetry_equiv_pos_as_xyz
  1  'x, y, z'
loop_
 _atom_site_type_symbol
 _atom_site_label
 _atom_site_symmetry_multiplicity
 _atom_site_fract_x
 _atom_site_fract_y
 _atom_site_fract_z
 _atom_site_occupancy
  Tb  Tb0  1  0.500000  0.000000  0.805325  1
  Tb  Tb1  1  0.000000  0.500000  0.805325  1
  Ho  Ho2  1  0.500000  0.000000  0.195153  1
  Ho  Ho3  1  0.000000  0.500000  0.195153  1
  Ga  Ga4  1  0.249632  0.249632  0.614804  1
  Ga  Ga5  1  0.750368  0.750368  0.614804  1
  Ga  Ga6  1  0.750368  0.249632  0.614804  1
  Ga  Ga7  1  0.249632  0.750368  0.614804  1
  Ga  Ga8  1  0.750378  0.750378  0.384477  1
  Ga  Ga9  1  0.249622  0.249622  0.384477  1
  Ga  Ga10  1  0.249622  0.750378  0.384477  1
  Ga  Ga11  1  0.750378  0.249622  0.384477  1
  Ga  Ga12  1  0.280185  0.280185  0.000716  1
  Ga  Ga13  1  0.719815  0.719815  0.000716  1
  Ga  Ga14  1  0.719815  0.280185  0.000716  1
  Ga  Ga15  1  0.280185  0.719815  0.000716  1
  Ga  Ga16  1  0.500000  0.500000  0.805904  1
  Ga  Ga17  1  0.500000  0.500000  0.194498  1
  Ga  Ga18  1  0.000000  0.000000  0.782112  1
  Ga  Ga19  1  0.000000  0.000000  0.217434  1
  Co  Co20  1  0.500000  0.000000  0.499615  1
  Co  Co21  1  0.000000  0.500000  0.499615  1
  Co  Co22  1  0.000000  0.000000  0.999883  1
