# generated using pymatgen
data_ErTh3(Ga3Rh)6
_symmetry_space_group_name_H-M   'P 1'
_cell_length_a   7.67398521
_cell_length_b   7.68103220
_cell_length_c   9.53122900
_cell_angle_alpha   90.00000000
_cell_angle_beta   90.00000000
_cell_angle_gamma   119.79591990
_symmetry_Int_Tables_number   1
_chemical_formula_structural   ErTh3(Ga3Rh)6
_chemical_formula_sum   'Er1 Th3 Ga18 Rh6'
_cell_volume   487.53917101
_cell_formula_units_Z   1
loop_
 _symmetry_equiv_pos_site_id
 _symmetry_equiv_pos_as_xyz
  1  'x, y, z'
loop_
 _atom_site_type_symbol
 _atom_site_label
 _atom_site_symmetry_multiplicity
 _atom_site_fract_x
 _atom_site_fract_y
 _atom_site_fract_z
 _atom_site_occupancy
  Er  Er0  1  0.330821  0.003723  0.750000  1
  Th  Th1  1  0.996993  0.668874  0.250000  1
  Th  Th2  1  0.002618  0.331422  0.750000  1
  Th  Th3  1  0.668257  0.996584  0.250000  1
  Ga  Ga4  1  0.132557  0.131284  0.250000  1
  Ga  Ga5  1  0.873212  0.871254  0.750000  1
  Ga  Ga6  1  0.004455  0.334303  0.077474  1
  Ga  Ga7  1  0.002234  0.671730  0.918639  1
  Ga  Ga8  1  0.002234  0.671730  0.581361  1
  Ga  Ga9  1  0.334165  0.003545  0.427513  1
  Ga  Ga10  1  0.004455  0.334303  0.422526  1
  Ga  Ga11  1  0.659892  0.996173  0.581337  1
  Ga  Ga12  1  0.659892  0.996173  0.918663  1
  Ga  Ga13  1  0.334165  0.003545  0.072487  1
  Ga  Ga14  1  0.336518  0.331402  0.564976  1
  Ga  Ga15  1  0.663016  0.663061  0.440525  1
  Ga  Ga16  1  0.663016  0.663061  0.059475  1
  Ga  Ga17  1  0.336518  0.331402  0.935024  1
  Ga  Ga18  1  0.338609  0.541584  0.250000  1
  Ga  Ga19  1  0.658713  0.453075  0.750000  1
  Ga  Ga20  1  0.540695  0.337293  0.250000  1
  Ga  Ga21  1  0.456640  0.663660  0.750000  1
  Rh  Rh22  1  0.673215  0.329432  0.000174  1
  Rh  Rh23  1  0.328156  0.670882  0.000076  1
  Rh  Rh24  1  0.328156  0.670882  0.499924  1
  Rh  Rh25  1  0.673215  0.329432  0.499826  1
  Rh  Rh26  1  0.998793  0.000096  0.000234  1
  Rh  Rh27  1  0.998793  0.000096  0.499766  1
