# generated using pymatgen
data_La12In(SnI4)3
_symmetry_space_group_name_H-M   'P 1'
_cell_length_a   11.30198174
_cell_length_b   11.29728610
_cell_length_c   11.29728621
_cell_angle_alpha   109.46280298
_cell_angle_beta   109.47963397
_cell_angle_gamma   109.47964127
_symmetry_Int_Tables_number   1
_chemical_formula_structural   La12In(SnI4)3
_chemical_formula_sum   'La12 In1 Sn3 I12'
_cell_volume   1110.28850093
_cell_formula_units_Z   1
loop_
 _symmetry_equiv_pos_site_id
 _symmetry_equiv_pos_as_xyz
  1  'x, y, z'
loop_
 _atom_site_type_symbol
 _atom_site_label
 _atom_site_symmetry_multiplicity
 _atom_site_fract_x
 _atom_site_fract_y
 _atom_site_fract_z
 _atom_site_occupancy
  La  La0  1  0.482604  0.491722  0.241766  1
  La  La1  1  0.750000  0.240950  0.259050  1
  La  La2  1  0.750000  0.009079  0.490921  1
  La  La3  1  0.240921  0.481839  0.490921  1
  La  La4  1  0.259162  0.750044  0.241766  1
  La  La5  1  0.017396  0.258234  0.008278  1
  La  La6  1  0.009050  0.018103  0.259050  1
  La  La7  1  0.490883  0.750044  0.008278  1
  La  La8  1  0.490950  0.240950  0.481897  1
  La  La9  1  0.009117  0.491722  0.749956  1
  La  La10  1  0.259079  0.009079  0.018161  1
  La  La11  1  0.240838  0.258234  0.749956  1
  In  In12  1  0.250000  0.500000  0.000000  1
  Sn  Sn13  1  0.250000  0.249847  0.250153  1
  Sn  Sn14  1  0.500153  0.000306  0.250153  1
  Sn  Sn15  1  0.999847  0.249847  0.499694  1
  I  I16  1  0.250000  0.756213  0.743787  1
  I  I17  1  0.511363  0.505717  0.755546  1
  I  I18  1  0.988637  0.744454  0.994283  1
  I  I19  1  0.744184  0.249828  0.755546  1
  I  I20  1  0.993787  0.987572  0.743787  1
  I  I21  1  0.250000  0.994740  0.505260  1
  I  I22  1  0.755260  0.510523  0.505260  1
  I  I23  1  0.505645  0.249828  0.994283  1
  I  I24  1  0.755816  0.744454  0.250172  1
  I  I25  1  0.744740  0.994740  0.989477  1
  I  I26  1  0.994355  0.505717  0.250172  1
  I  I27  1  0.506213  0.756213  0.512428  1
