# generated using pymatgen
data_Ti19Si16Mo
_symmetry_space_group_name_H-M   'P 1'
_cell_length_a   6.69602443
_cell_length_b   6.69602443
_cell_length_c   12.19442416
_cell_angle_alpha   90.01301189
_cell_angle_beta   89.98698811
_cell_angle_gamma   90.03877964
_symmetry_Int_Tables_number   1
_chemical_formula_structural   Ti19Si16Mo
_chemical_formula_sum   'Ti19 Si16 Mo1'
_cell_volume   546.75811003
_cell_formula_units_Z   1
loop_
 _symmetry_equiv_pos_site_id
 _symmetry_equiv_pos_as_xyz
  1  'x, y, z'
loop_
 _atom_site_type_symbol
 _atom_site_label
 _atom_site_symmetry_multiplicity
 _atom_site_fract_x
 _atom_site_fract_y
 _atom_site_fract_z
 _atom_site_occupancy
  Ti  Ti0  1  0.995955  0.148204  0.622067  1
  Ti  Ti1  1  0.350720  0.495694  0.871745  1
  Ti  Ti2  1  0.648905  0.504233  0.371786  1
  Ti  Ti3  1  0.495694  0.350720  0.128255  1
  Ti  Ti4  1  0.504233  0.648905  0.628214  1
  Ti  Ti5  1  0.004945  0.851840  0.121363  1
  Ti  Ti6  1  0.148204  0.995955  0.377933  1
  Ti  Ti7  1  0.851840  0.004945  0.878637  1
  Ti  Ti8  1  0.002412  0.346082  0.218341  1
  Ti  Ti9  1  0.154118  0.502027  0.468271  1
  Ti  Ti10  1  0.844581  0.498138  0.968800  1
  Ti  Ti11  1  0.502027  0.154118  0.531729  1
  Ti  Ti12  1  0.498138  0.844581  0.031200  1
  Ti  Ti13  1  0.997862  0.655033  0.718463  1
  Ti  Ti14  1  0.346082  0.002412  0.781659  1
  Ti  Ti15  1  0.655033  0.997862  0.281537  1
  Ti  Ti16  1  0.328572  0.671271  0.249633  1
  Ti  Ti17  1  0.671271  0.328572  0.750367  1
  Ti  Ti18  1  0.828300  0.828300  0.500000  1
  Si  Si19  1  0.045190  0.301029  0.813072  1
  Si  Si20  1  0.199383  0.544534  0.063864  1
  Si  Si21  1  0.800925  0.454683  0.563538  1
  Si  Si22  1  0.544534  0.199383  0.936136  1
  Si  Si23  1  0.454683  0.800925  0.436462  1
  Si  Si24  1  0.954965  0.698774  0.313657  1
  Si  Si25  1  0.301029  0.045190  0.186928  1
  Si  Si26  1  0.698774  0.954965  0.686343  1
  Si  Si27  1  0.295360  0.356512  0.673135  1
  Si  Si28  1  0.143131  0.794586  0.922385  1
  Si  Si29  1  0.856739  0.205096  0.423185  1
  Si  Si30  1  0.794586  0.143131  0.077615  1
  Si  Si31  1  0.205096  0.856739  0.576815  1
  Si  Si32  1  0.704846  0.643412  0.172938  1
  Si  Si33  1  0.356512  0.295360  0.326865  1
  Si  Si34  1  0.643412  0.704846  0.827062  1
  Mo  Mo35  1  0.171942  0.171942  0.000000  1
