# generated using pymatgen
data_Tb3Ho2Er5Pb6
_symmetry_space_group_name_H-M   'P 1'
_cell_length_a   9.04130643
_cell_length_b   9.04979430
_cell_length_c   6.58457400
_cell_angle_alpha   90.00000000
_cell_angle_beta   90.00000000
_cell_angle_gamma   120.07231814
_symmetry_Int_Tables_number   1
_chemical_formula_structural   Tb3Ho2Er5Pb6
_chemical_formula_sum   'Tb3 Ho2 Er5 Pb6'
_cell_volume   466.24186583
_cell_formula_units_Z   1
loop_
 _symmetry_equiv_pos_site_id
 _symmetry_equiv_pos_as_xyz
  1  'x, y, z'
loop_
 _atom_site_type_symbol
 _atom_site_label
 _atom_site_symmetry_multiplicity
 _atom_site_fract_x
 _atom_site_fract_y
 _atom_site_fract_z
 _atom_site_occupancy
  Tb  Tb0  1  0.761689  0.761433  0.750000  1
  Tb  Tb1  1  0.238549  0.238371  0.250000  1
  Tb  Tb2  1  0.761206  0.999979  0.250000  1
  Ho  Ho3  1  0.238578  0.999887  0.750000  1
  Ho  Ho4  1  0.000121  0.239280  0.750000  1
  Er  Er5  1  0.666687  0.333353  0.999991  1
  Er  Er6  1  0.333262  0.666684  0.999978  1
  Er  Er7  1  0.333262  0.666684  0.500022  1
  Er  Er8  1  0.666687  0.333353  0.500009  1
  Er  Er9  1  0.000158  0.760976  0.250000  1
  Pb  Pb10  1  0.393571  0.393525  0.750000  1
  Pb  Pb11  1  0.605582  0.000508  0.750000  1
  Pb  Pb12  1  0.000515  0.605505  0.750000  1
  Pb  Pb13  1  0.606509  0.605684  0.250000  1
  Pb  Pb14  1  0.393597  0.999241  0.250000  1
  Pb  Pb15  1  0.000029  0.395541  0.250000  1
