# generated using pymatgen
data_DyLu2Al12Ru3Pt
_symmetry_space_group_name_H-M   'P 1'
_cell_length_a   8.79649626
_cell_length_b   8.79649650
_cell_length_c   9.51005600
_cell_angle_alpha   90.00000000
_cell_angle_beta   90.00000000
_cell_angle_gamma   119.81202458
_symmetry_Int_Tables_number   1
_chemical_formula_structural   DyLu2Al12Ru3Pt
_chemical_formula_sum   'Dy2 Lu4 Al24 Ru6 Pt2'
_cell_volume   638.48790595
_cell_formula_units_Z   2
loop_
 _symmetry_equiv_pos_site_id
 _symmetry_equiv_pos_as_xyz
  1  'x, y, z'
loop_
 _atom_site_type_symbol
 _atom_site_label
 _atom_site_symmetry_multiplicity
 _atom_site_fract_x
 _atom_site_fract_y
 _atom_site_fract_z
 _atom_site_occupancy
  Dy  Dy0  1  0.811066  0.614709  0.750000  1
  Dy  Dy1  1  0.385291  0.188934  0.750000  1
  Lu  Lu2  1  0.196889  0.803111  0.250000  1
  Lu  Lu3  1  0.190263  0.389336  0.250000  1
  Lu  Lu4  1  0.610664  0.809737  0.250000  1
  Lu  Lu5  1  0.803094  0.196906  0.750000  1
  Al  Al6  1  0.562118  0.437882  0.250000  1
  Al  Al7  1  0.560064  0.121800  0.250000  1
  Al  Al8  1  0.878200  0.439936  0.250000  1
  Al  Al9  1  0.437056  0.562944  0.750000  1
  Al  Al10  1  0.440601  0.877308  0.750000  1
  Al  Al11  1  0.122692  0.559399  0.750000  1
  Al  Al12  1  0.323562  0.158372  0.419725  1
  Al  Al13  1  0.837181  0.162819  0.421680  1
  Al  Al14  1  0.841628  0.676438  0.419725  1
  Al  Al15  1  0.676035  0.841982  0.577458  1
  Al  Al16  1  0.163809  0.836191  0.576031  1
  Al  Al17  1  0.158018  0.323965  0.577458  1
  Al  Al18  1  0.676035  0.841982  0.922542  1
  Al  Al19  1  0.163809  0.836191  0.923969  1
  Al  Al20  1  0.158018  0.323965  0.922542  1
  Al  Al21  1  0.323562  0.158372  0.080275  1
  Al  Al22  1  0.837181  0.162819  0.078320  1
  Al  Al23  1  0.841628  0.676438  0.080275  1
  Al  Al24  1  0.669242  0.330758  0.522476  1
  Al  Al25  1  0.331302  0.668698  0.474561  1
  Al  Al26  1  0.331302  0.668698  0.025439  1
  Al  Al27  1  0.669242  0.330758  0.977524  1
  Al  Al28  1  0.999478  0.000522  0.250000  1
  Al  Al29  1  0.998593  0.001407  0.750000  1
  Ru  Ru30  1  0.000358  0.999642  0.500048  1
  Ru  Ru31  1  0.000358  0.999642  0.999952  1
  Ru  Ru32  1  0.500340  0.999236  0.499012  1
  Ru  Ru33  1  0.000764  0.499660  0.499012  1
  Ru  Ru34  1  0.500340  0.999236  0.000988  1
  Ru  Ru35  1  0.000764  0.499660  0.000988  1
  Pt  Pt36  1  0.499727  0.500273  0.498957  1
  Pt  Pt37  1  0.499727  0.500273  0.001043  1
