# generated using pymatgen
data_Y4Ho4Cd2CoRu
_symmetry_space_group_name_H-M   'P 1'
_cell_length_a   9.63772985
_cell_length_b   9.56380860
_cell_length_c   9.57055113
_cell_angle_alpha   59.44079471
_cell_angle_beta   59.51634079
_cell_angle_gamma   59.61567680
_symmetry_Int_Tables_number   1
_chemical_formula_structural   Y4Ho4Cd2CoRu
_chemical_formula_sum   'Y8 Ho8 Cd4 Co2 Ru2'
_cell_volume   617.02365992
_cell_formula_units_Z   2
loop_
 _symmetry_equiv_pos_site_id
 _symmetry_equiv_pos_as_xyz
  1  'x, y, z'
loop_
 _atom_site_type_symbol
 _atom_site_label
 _atom_site_symmetry_multiplicity
 _atom_site_fract_x
 _atom_site_fract_y
 _atom_site_fract_z
 _atom_site_occupancy
  Y  Y0  1  0.939327  0.939375  0.559029  1
  Y  Y1  1  0.810773  0.188740  0.187735  1
  Y  Y2  1  0.937217  0.562393  0.564062  1
  Y  Y3  1  0.938950  0.558726  0.938892  1
  Y  Y4  1  0.814796  0.807176  0.185760  1
  Y  Y5  1  0.341507  0.349428  0.349600  1
  Y  Y6  1  0.557630  0.941805  0.941544  1
  Y  Y7  1  0.563461  0.937867  0.560062  1
  Ho  Ho8  1  0.189533  0.810080  0.810347  1
  Ho  Ho9  1  0.188256  0.186703  0.808397  1
  Ho  Ho10  1  0.343338  0.353346  0.960795  1
  Ho  Ho11  1  0.343080  0.961604  0.353047  1
  Ho  Ho12  1  0.814369  0.186461  0.807542  1
  Ho  Ho13  1  0.563380  0.557774  0.939093  1
  Ho  Ho14  1  0.189236  0.807934  0.186248  1
  Ho  Ho15  1  0.965065  0.348405  0.348970  1
  Cd  Cd16  1  0.580464  0.579442  0.258187  1
  Cd  Cd17  1  0.258291  0.579985  0.579953  1
  Cd  Cd18  1  0.580834  0.579503  0.579719  1
  Cd  Cd19  1  0.580478  0.258673  0.579391  1
  Co  Co20  1  0.141804  0.580020  0.141520  1
  Co  Co21  1  0.138583  0.142034  0.581806  1
  Ru  Ru22  1  0.577520  0.143363  0.138608  1
  Ru  Ru23  1  0.142108  0.139171  0.139698  1
