# generated using pymatgen
data_NdEr7(Si3Ni)4
_symmetry_space_group_name_H-M   'P 1'
_cell_length_a   7.93563307
_cell_length_b   7.93439514
_cell_length_c   8.03323700
_cell_angle_alpha   90.00000000
_cell_angle_beta   90.00000000
_cell_angle_gamma   119.99024890
_symmetry_Int_Tables_number   1
_chemical_formula_structural   NdEr7(Si3Ni)4
_chemical_formula_sum   'Nd1 Er7 Si12 Ni4'
_cell_volume   438.08590415
_cell_formula_units_Z   1
loop_
 _symmetry_equiv_pos_site_id
 _symmetry_equiv_pos_as_xyz
  1  'x, y, z'
loop_
 _atom_site_type_symbol
 _atom_site_label
 _atom_site_symmetry_multiplicity
 _atom_site_fract_x
 _atom_site_fract_y
 _atom_site_fract_z
 _atom_site_occupancy
  Nd  Nd0  1  0.999944  0.999999  0.250000  1
  Er  Er1  1  0.499536  0.500378  0.750000  1
  Er  Er2  1  0.500200  0.499721  0.250000  1
  Er  Er3  1  0.000589  0.500319  0.750000  1
  Er  Er4  1  0.999212  0.499608  0.250000  1
  Er  Er5  1  0.499661  0.999409  0.750000  1
  Er  Er6  1  0.500381  0.000806  0.250000  1
  Er  Er7  1  0.999977  0.000017  0.750000  1
  Si  Si8  1  0.828605  0.171455  0.996486  1
  Si  Si9  1  0.171540  0.828414  0.996989  1
  Si  Si10  1  0.342777  0.171458  0.996494  1
  Si  Si11  1  0.171540  0.828414  0.503011  1
  Si  Si12  1  0.657230  0.828703  0.996952  1
  Si  Si13  1  0.828605  0.171455  0.503514  1
  Si  Si14  1  0.828457  0.656989  0.996484  1
  Si  Si15  1  0.657230  0.828703  0.503048  1
  Si  Si16  1  0.171313  0.342858  0.996959  1
  Si  Si17  1  0.342777  0.171458  0.503506  1
  Si  Si18  1  0.171313  0.342858  0.503041  1
  Si  Si19  1  0.828457  0.656989  0.503516  1
  Ni  Ni20  1  0.666580  0.333274  0.999882  1
  Ni  Ni21  1  0.333749  0.666722  0.001147  1
  Ni  Ni22  1  0.333749  0.666722  0.498853  1
  Ni  Ni23  1  0.666580  0.333274  0.500118  1
