# generated using pymatgen
data_Cs5AgSb2
_symmetry_space_group_name_H-M   'P 1'
_cell_length_a   10.93124302
_cell_length_b   10.93124327
_cell_length_c   10.93124297
_cell_angle_alpha   35.00869745
_cell_angle_beta   35.00869541
_cell_angle_gamma   35.00868934
_symmetry_Int_Tables_number   1
_chemical_formula_structural   Cs5AgSb2
_chemical_formula_sum   'Cs5 Ag1 Sb2'
_cell_volume   383.86572553
_cell_formula_units_Z   1
loop_
 _symmetry_equiv_pos_site_id
 _symmetry_equiv_pos_as_xyz
  1  'x, y, z'
loop_
 _atom_site_type_symbol
 _atom_site_label
 _atom_site_symmetry_multiplicity
 _atom_site_fract_x
 _atom_site_fract_y
 _atom_site_fract_z
 _atom_site_occupancy
  Cs  Cs0  1  0.500000  0.500000  0.500000  1
  Cs  Cs1  1  0.364867  0.364867  0.364867  1
  Cs  Cs2  1  0.635133  0.635133  0.635133  1
  Cs  Cs3  1  0.216795  0.216795  0.216795  1
  Cs  Cs4  1  0.783205  0.783205  0.783205  1
  Ag  Ag5  1  0.000000  0.000000  0.000000  1
  Sb  Sb6  1  0.088531  0.088531  0.088531  1
  Sb  Sb7  1  0.911469  0.911469  0.911469  1
