# generated using pymatgen
data_Tb2Dy13Y5(CoSb2)4
_symmetry_space_group_name_H-M   'P 1'
_cell_length_a   7.92496920
_cell_length_b   8.75242800
_cell_length_c   12.22253586
_cell_angle_alpha   90.00000000
_cell_angle_beta   89.98652018
_cell_angle_gamma   90.00000000
_symmetry_Int_Tables_number   1
_chemical_formula_structural   Tb2Dy13Y5(CoSb2)4
_chemical_formula_sum   'Tb2 Dy13 Y5 Co4 Sb8'
_cell_volume   847.78833757
_cell_formula_units_Z   1
loop_
 _symmetry_equiv_pos_site_id
 _symmetry_equiv_pos_as_xyz
  1  'x, y, z'
loop_
 _atom_site_type_symbol
 _atom_site_label
 _atom_site_symmetry_multiplicity
 _atom_site_fract_x
 _atom_site_fract_y
 _atom_site_fract_z
 _atom_site_occupancy
  Tb  Tb0  1  0.122202  0.250000  0.194052  1
  Tb  Tb1  1  0.377798  0.250000  0.694213  1
  Dy  Dy2  1  0.954599  0.250000  0.501768  1
  Dy  Dy3  1  0.545283  0.250000  0.001680  1
  Dy  Dy4  1  0.045263  0.750000  0.498291  1
  Dy  Dy5  1  0.621454  0.750000  0.306306  1
  Dy  Dy6  1  0.878263  0.750000  0.806154  1
  Dy  Dy7  1  0.821883  0.965381  0.065002  1
  Dy  Dy8  1  0.321524  0.034593  0.435035  1
  Dy  Dy9  1  0.178319  0.465391  0.935114  1
  Dy  Dy10  1  0.678565  0.535642  0.564637  1
  Dy  Dy11  1  0.178319  0.034609  0.935114  1
  Dy  Dy12  1  0.678565  0.964358  0.564637  1
  Dy  Dy13  1  0.821883  0.534619  0.065002  1
  Dy  Dy14  1  0.321524  0.465407  0.435035  1
  Y  Y15  1  0.154935  0.750000  0.203929  1
  Y  Y16  1  0.655143  0.250000  0.295773  1
  Y  Y17  1  0.845098  0.250000  0.796190  1
  Y  Y18  1  0.344932  0.750000  0.703855  1
  Y  Y19  1  0.456586  0.750000  0.998324  1
  Co  Co20  1  0.434546  0.750000  0.489531  1
  Co  Co21  1  0.934772  0.250000  0.010261  1
  Co  Co22  1  0.565386  0.250000  0.510026  1
  Co  Co23  1  0.063380  0.750000  0.989870  1
  Sb  Sb24  1  0.927643  0.991329  0.327297  1
  Sb  Sb25  1  0.428246  0.008085  0.172862  1
  Sb  Sb26  1  0.071695  0.491852  0.672922  1
  Sb  Sb27  1  0.572304  0.508605  0.827022  1
  Sb  Sb28  1  0.071695  0.008148  0.672922  1
  Sb  Sb29  1  0.572304  0.991395  0.827022  1
  Sb  Sb30  1  0.927643  0.508671  0.327297  1
  Sb  Sb31  1  0.428246  0.491915  0.172862  1
