# generated using pymatgen
data_DyHo3B16Ir3Rh
_symmetry_space_group_name_H-M   'P 1'
_cell_length_a   3.56931400
_cell_length_b   5.96503604
_cell_length_c   11.56752124
_cell_angle_alpha   89.98157621
_cell_angle_beta   90.00000000
_cell_angle_gamma   90.00000000
_symmetry_Int_Tables_number   1
_chemical_formula_structural   DyHo3B16Ir3Rh
_chemical_formula_sum   'Dy1 Ho3 B16 Ir3 Rh1'
_cell_volume   246.28508431
_cell_formula_units_Z   1
loop_
 _symmetry_equiv_pos_site_id
 _symmetry_equiv_pos_as_xyz
  1  'x, y, z'
loop_
 _atom_site_type_symbol
 _atom_site_label
 _atom_site_symmetry_multiplicity
 _atom_site_fract_x
 _atom_site_fract_y
 _atom_site_fract_z
 _atom_site_occupancy
  Dy  Dy0  1  0.500000  0.868365  0.350766  1
  Ho  Ho1  1  0.500000  0.368835  0.148064  1
  Ho  Ho2  1  0.500000  0.631101  0.852212  1
  Ho  Ho3  1  0.500000  0.131413  0.648711  1
  B  B4  1  0.000000  0.112662  0.046257  1
  B  B5  1  0.000000  0.887557  0.952951  1
  B  B6  1  0.000000  0.387449  0.546924  1
  B  B7  1  0.000000  0.612022  0.453374  1
  B  B8  1  0.000000  0.136183  0.469852  1
  B  B9  1  0.000000  0.863904  0.530296  1
  B  B10  1  0.000000  0.364164  0.969737  1
  B  B11  1  0.000000  0.636034  0.030024  1
  B  B12  1  0.000000  0.023369  0.192493  1
  B  B13  1  0.000000  0.977173  0.807068  1
  B  B14  1  0.000000  0.475581  0.692761  1
  B  B15  1  0.000000  0.524527  0.307049  1
  B  B16  1  0.000000  0.208956  0.311871  1
  B  B17  1  0.000000  0.791844  0.687991  1
  B  B18  1  0.000000  0.290736  0.812283  1
  B  B19  1  0.000000  0.709287  0.187445  1
  Ir  Ir20  1  0.500000  0.356305  0.404011  1
  Ir  Ir21  1  0.500000  0.644330  0.597247  1
  Ir  Ir22  1  0.500000  0.141446  0.904330  1
  Rh  Rh23  1  0.500000  0.856757  0.096280  1
