# generated using pymatgen
data_Nd3Zn2HgPdPt2
_symmetry_space_group_name_H-M   'P 1'
_cell_length_a   7.58478784
_cell_length_b   7.58478706
_cell_length_c   3.93237200
_cell_angle_alpha   90.00000000
_cell_angle_beta   90.00000000
_cell_angle_gamma   118.92383339
_symmetry_Int_Tables_number   1
_chemical_formula_structural   Nd3Zn2HgPdPt2
_chemical_formula_sum   'Nd3 Zn2 Hg1 Pd1 Pt2'
_cell_volume   198.00684466
_cell_formula_units_Z   1
loop_
 _symmetry_equiv_pos_site_id
 _symmetry_equiv_pos_as_xyz
  1  'x, y, z'
loop_
 _atom_site_type_symbol
 _atom_site_label
 _atom_site_symmetry_multiplicity
 _atom_site_fract_x
 _atom_site_fract_y
 _atom_site_fract_z
 _atom_site_occupancy
  Nd  Nd0  1  0.403788  0.403788  0.000000  1
  Nd  Nd1  1  0.590140  0.999872  0.000000  1
  Nd  Nd2  1  0.999872  0.590140  0.000000  1
  Zn  Zn3  1  0.251991  0.999472  0.500000  1
  Zn  Zn4  1  0.999472  0.251991  0.500000  1
  Hg  Hg5  1  0.750498  0.750498  0.500000  1
  Pd  Pd6  1  0.021886  0.021886  0.000000  1
  Pt  Pt7  1  0.662896  0.319457  0.500000  1
  Pt  Pt8  1  0.319457  0.662896  0.500000  1
