# generated using pymatgen
data_Tb4Sn3Bi3Rh7
_symmetry_space_group_name_H-M   'P 1'
_cell_length_a   7.74596676
_cell_length_b   7.72391868
_cell_length_c   7.72391619
_cell_angle_alpha   109.41331998
_cell_angle_beta   109.52905968
_cell_angle_gamma   109.52906119
_symmetry_Int_Tables_number   1
_chemical_formula_structural   Tb4Sn3Bi3Rh7
_chemical_formula_sum   'Tb4 Sn3 Bi3 Rh7'
_cell_volume   355.48270186
_cell_formula_units_Z   1
loop_
 _symmetry_equiv_pos_site_id
 _symmetry_equiv_pos_as_xyz
  1  'x, y, z'
loop_
 _atom_site_type_symbol
 _atom_site_label
 _atom_site_symmetry_multiplicity
 _atom_site_fract_x
 _atom_site_fract_y
 _atom_site_fract_z
 _atom_site_occupancy
  Tb  Tb0  1  0.467320  0.000000  0.000000  1
  Tb  Tb1  1  0.005939  0.513364  0.000000  1
  Tb  Tb2  1  0.005939  0.000000  0.513364  1
  Tb  Tb3  1  0.492575  0.486636  0.486636  1
  Sn  Sn4  1  0.992038  0.670161  0.670161  1
  Sn  Sn5  1  0.321877  0.000000  0.329839  1
  Sn  Sn6  1  0.321877  0.329839  0.000000  1
  Bi  Bi7  1  0.991456  0.302534  0.302534  1
  Bi  Bi8  1  0.688922  0.000000  0.697466  1
  Bi  Bi9  1  0.688922  0.697466  0.000000  1
  Rh  Rh10  1  0.042957  0.000000  0.000000  1
  Rh  Rh11  1  0.498345  0.752449  0.252496  1
  Rh  Rh12  1  0.745896  0.500047  0.247551  1
  Rh  Rh13  1  0.245849  0.747504  0.499953  1
  Rh  Rh14  1  0.245849  0.499953  0.747504  1
  Rh  Rh15  1  0.498345  0.252496  0.752449  1
  Rh  Rh16  1  0.745896  0.247551  0.500047  1
