# generated using pymatgen
data_ErSi4PdRh5
_symmetry_space_group_name_H-M   'P 1'
_cell_length_a   7.01433700
_cell_length_b   7.07659848
_cell_length_c   3.78224400
_cell_angle_alpha   90.00000000
_cell_angle_beta   90.00000000
_cell_angle_gamma   119.70938611
_symmetry_Int_Tables_number   1
_chemical_formula_structural   ErSi4PdRh5
_chemical_formula_sum   'Er1 Si4 Pd1 Rh5'
_cell_volume   163.06310900
_cell_formula_units_Z   1
loop_
 _symmetry_equiv_pos_site_id
 _symmetry_equiv_pos_as_xyz
  1  'x, y, z'
loop_
 _atom_site_type_symbol
 _atom_site_label
 _atom_site_symmetry_multiplicity
 _atom_site_fract_x
 _atom_site_fract_y
 _atom_site_fract_z
 _atom_site_occupancy
  Er  Er0  1  0.996428  0.992856  0.000000  1
  Si  Si1  1  0.337920  0.675839  0.000000  1
  Si  Si2  1  0.401941  0.197155  0.500001  1
  Si  Si3  1  0.795214  0.197155  0.500001  1
  Si  Si4  1  0.801184  0.602369  0.500001  1
  Pd  Pd5  1  0.196154  0.392306  0.500001  1
  Rh  Rh6  1  0.533930  0.067860  0.000000  1
  Rh  Rh7  1  0.531915  0.466861  0.000000  1
  Rh  Rh8  1  0.934946  0.466861  0.000000  1
  Rh  Rh9  1  0.197529  0.803701  0.500001  1
  Rh  Rh10  1  0.606173  0.803701  0.500001  1
