# generated using pymatgen
data_DySc3InPt11
_symmetry_space_group_name_H-M   'P 1'
_cell_length_a   4.08981200
_cell_length_b   5.74053199
_cell_length_c   11.46556011
_cell_angle_alpha   88.23193230
_cell_angle_beta   90.00000000
_cell_angle_gamma   90.00000000
_symmetry_Int_Tables_number   1
_chemical_formula_structural   DySc3InPt11
_chemical_formula_sum   'Dy1 Sc3 In1 Pt11'
_cell_volume   269.05678572
_cell_formula_units_Z   1
loop_
 _symmetry_equiv_pos_site_id
 _symmetry_equiv_pos_as_xyz
  1  'x, y, z'
loop_
 _atom_site_type_symbol
 _atom_site_label
 _atom_site_symmetry_multiplicity
 _atom_site_fract_x
 _atom_site_fract_y
 _atom_site_fract_z
 _atom_site_occupancy
  Dy  Dy0  1  0.500000  0.754283  0.375436  1
  Sc  Sc1  1  0.500000  0.718654  0.862120  1
  Sc  Sc2  1  0.500000  0.280519  0.137457  1
  Sc  Sc3  1  0.500000  0.246095  0.624717  1
  In  In4  1  0.000000  0.000583  0.998455  1
  Pt  Pt5  1  0.000000  0.018051  0.245079  1
  Pt  Pt6  1  0.000000  0.987036  0.752076  1
  Pt  Pt7  1  0.000000  0.499238  0.998438  1
  Pt  Pt8  1  0.000000  0.494723  0.504806  1
  Pt  Pt9  1  0.000000  0.509002  0.245862  1
  Pt  Pt10  1  0.000000  0.486488  0.751477  1
  Pt  Pt11  1  0.500000  0.253209  0.377384  1
  Pt  Pt12  1  0.500000  0.235740  0.878147  1
  Pt  Pt13  1  0.500000  0.764167  0.116475  1
  Pt  Pt14  1  0.500000  0.747901  0.627632  1
  Pt  Pt15  1  0.000000  0.004310  0.504439  1
