# generated using pymatgen
data_Dy2Ho7Cd(SiB4)4
_symmetry_space_group_name_H-M   'P 1'
_cell_length_a   7.17903701
_cell_length_b   7.17876201
_cell_length_c   7.96493100
_cell_angle_alpha   90.00000000
_cell_angle_beta   90.00000000
_cell_angle_gamma   90.00718302
_symmetry_Int_Tables_number   1
_chemical_formula_structural   Dy2Ho7Cd(SiB4)4
_chemical_formula_sum   'Dy2 Ho7 Cd1 Si4 B16'
_cell_volume   410.48544553
_cell_formula_units_Z   1
loop_
 _symmetry_equiv_pos_site_id
 _symmetry_equiv_pos_as_xyz
  1  'x, y, z'
loop_
 _atom_site_type_symbol
 _atom_site_label
 _atom_site_symmetry_multiplicity
 _atom_site_fract_x
 _atom_site_fract_y
 _atom_site_fract_z
 _atom_site_occupancy
  Dy  Dy0  1  0.180110  0.318083  0.770639  1
  Dy  Dy1  1  0.180110  0.318083  0.229361  1
  Ho  Ho2  1  0.681715  0.180011  0.228255  1
  Ho  Ho3  1  0.318365  0.819927  0.771748  1
  Ho  Ho4  1  0.318365  0.819927  0.228252  1
  Ho  Ho5  1  0.819789  0.681875  0.228535  1
  Ho  Ho6  1  0.819789  0.681875  0.771465  1
  Ho  Ho7  1  0.681715  0.180011  0.771745  1
  Ho  Ho8  1  0.500206  0.500234  0.500000  1
  Cd  Cd9  1  0.999863  0.999714  0.500000  1
  Si  Si10  1  0.117481  0.613234  0.500000  1
  Si  Si11  1  0.881807  0.387666  0.500000  1
  Si  Si12  1  0.387866  0.117468  0.500000  1
  Si  Si13  1  0.612887  0.881916  0.500000  1
  B  B14  1  0.175314  0.038272  0.000000  1
  B  B15  1  0.824446  0.961303  0.000000  1
  B  B16  1  0.961048  0.175141  0.000000  1
  B  B17  1  0.327310  0.539904  0.000000  1
  B  B18  1  0.038569  0.824578  0.000000  1
  B  B19  1  0.672944  0.460480  0.000000  1
  B  B20  1  0.539771  0.673082  0.000000  1
  B  B21  1  0.460584  0.327179  0.000000  1
  B  B22  1  0.089412  0.588339  0.000000  1
  B  B23  1  0.910346  0.411861  0.000000  1
  B  B24  1  0.411957  0.089298  0.000000  1
  B  B25  1  0.588073  0.910679  0.000000  1
  B  B26  1  0.999816  0.999733  0.156805  1
  B  B27  1  0.999816  0.999733  0.843195  1
  B  B28  1  0.500262  0.500197  0.836319  1
  B  B29  1  0.500262  0.500197  0.163681  1
