# generated using pymatgen
data_YHo4GaBi2
_symmetry_space_group_name_H-M   'P 1'
_cell_length_a   8.08282200
_cell_length_b   9.29079000
_cell_length_c   12.01633600
_cell_angle_alpha   90.00000000
_cell_angle_beta   90.00000000
_cell_angle_gamma   90.00000000
_symmetry_Int_Tables_number   1
_chemical_formula_structural   YHo4GaBi2
_chemical_formula_sum   'Y4 Ho16 Ga4 Bi8'
_cell_volume   902.37638673
_cell_formula_units_Z   4
loop_
 _symmetry_equiv_pos_site_id
 _symmetry_equiv_pos_as_xyz
  1  'x, y, z'
loop_
 _atom_site_type_symbol
 _atom_site_label
 _atom_site_symmetry_multiplicity
 _atom_site_fract_x
 _atom_site_fract_y
 _atom_site_fract_z
 _atom_site_occupancy
  Y  Y0  1  0.173556  0.750000  0.215648  1
  Y  Y1  1  0.326444  0.750000  0.715648  1
  Y  Y2  1  0.826444  0.250000  0.784352  1
  Y  Y3  1  0.673556  0.250000  0.284352  1
  Ho  Ho4  1  0.819568  0.553693  0.062311  1
  Ho  Ho5  1  0.680432  0.946307  0.562311  1
  Ho  Ho6  1  0.180432  0.053693  0.937689  1
  Ho  Ho7  1  0.319568  0.446307  0.437689  1
  Ho  Ho8  1  0.180432  0.446307  0.937689  1
  Ho  Ho9  1  0.319568  0.053693  0.437689  1
  Ho  Ho10  1  0.819568  0.946307  0.062311  1
  Ho  Ho11  1  0.680432  0.553693  0.562311  1
  Ho  Ho12  1  0.463754  0.750000  0.003345  1
  Ho  Ho13  1  0.036246  0.750000  0.503345  1
  Ho  Ho14  1  0.536246  0.250000  0.996655  1
  Ho  Ho15  1  0.963754  0.250000  0.496655  1
  Ho  Ho16  1  0.645323  0.750000  0.294423  1
  Ho  Ho17  1  0.854677  0.750000  0.794423  1
  Ho  Ho18  1  0.354677  0.250000  0.705577  1
  Ho  Ho19  1  0.145323  0.250000  0.205577  1
  Ga  Ga20  1  0.406087  0.750000  0.474135  1
  Ga  Ga21  1  0.093913  0.750000  0.974135  1
  Ga  Ga22  1  0.593913  0.250000  0.525865  1
  Ga  Ga23  1  0.906087  0.250000  0.025865  1
  Bi  Bi24  1  0.937890  0.509797  0.324970  1
  Bi  Bi25  1  0.562110  0.990203  0.824970  1
  Bi  Bi26  1  0.062110  0.009797  0.675030  1
  Bi  Bi27  1  0.437890  0.490203  0.175030  1
  Bi  Bi28  1  0.062110  0.490203  0.675030  1
  Bi  Bi29  1  0.437890  0.009797  0.175030  1
  Bi  Bi30  1  0.937890  0.990203  0.324970  1
  Bi  Bi31  1  0.562110  0.509797  0.824970  1
