# generated using pymatgen
data_La6As9(PRh5)4
_symmetry_space_group_name_H-M   'P 1'
_cell_length_a   13.88371094
_cell_length_b   13.88592183
_cell_length_c   4.04664515
_cell_angle_alpha   89.97070580
_cell_angle_beta   90.02388200
_cell_angle_gamma   120.02957598
_symmetry_Int_Tables_number   1
_chemical_formula_structural   La6As9(PRh5)4
_chemical_formula_sum   'La6 As9 P4 Rh20'
_cell_volume   675.42395701
_cell_formula_units_Z   1
loop_
 _symmetry_equiv_pos_site_id
 _symmetry_equiv_pos_as_xyz
  1  'x, y, z'
loop_
 _atom_site_type_symbol
 _atom_site_label
 _atom_site_symmetry_multiplicity
 _atom_site_fract_x
 _atom_site_fract_y
 _atom_site_fract_z
 _atom_site_occupancy
  La  La0  1  0.533054  0.719211  0.246564  1
  La  La1  1  0.278900  0.810784  0.246675  1
  La  La2  1  0.185660  0.469596  0.246183  1
  La  La3  1  0.468800  0.280394  0.753281  1
  La  La4  1  0.719920  0.188433  0.753148  1
  La  La5  1  0.812166  0.531697  0.753406  1
  As  As6  1  0.521838  0.134380  0.251489  1
  As  As7  1  0.866802  0.388232  0.250991  1
  As  As8  1  0.612497  0.478226  0.251268  1
  As  As9  1  0.948291  0.719908  0.252851  1
  As  As10  1  0.279181  0.227227  0.252370  1
  As  As11  1  0.772783  0.052130  0.252489  1
  As  As12  1  0.385740  0.522849  0.748140  1
  As  As13  1  0.476487  0.863408  0.748579  1
  As  As14  1  0.000128  0.999834  0.003566  1
  P  P15  1  0.132222  0.613169  0.748483  1
  P  P16  1  0.722794  0.772146  0.746013  1
  P  P17  1  0.227894  0.949681  0.745864  1
  P  P18  1  0.050439  0.278217  0.746026  1
  Rh  Rh19  1  0.324619  0.664346  0.751465  1
  Rh  Rh20  1  0.930558  0.252827  0.256568  1
  Rh  Rh21  1  0.748671  0.678371  0.256460  1
  Rh  Rh22  1  0.321565  0.070227  0.256379  1
  Rh  Rh23  1  0.432271  0.020423  0.752696  1
  Rh  Rh24  1  0.983100  0.417374  0.752030  1
  Rh  Rh25  1  0.588064  0.568128  0.752589  1
  Rh  Rh26  1  0.667505  0.333805  0.248924  1
  Rh  Rh27  1  0.089269  0.188976  0.249043  1
  Rh  Rh28  1  0.811508  0.900822  0.249955  1
  Rh  Rh29  1  0.099509  0.909228  0.249312  1
  Rh  Rh30  1  0.031583  0.586964  0.247679  1
  Rh  Rh31  1  0.413815  0.438254  0.247580  1
  Rh  Rh32  1  0.562081  0.975933  0.247695  1
  Rh  Rh33  1  0.675630  0.918014  0.744168  1
  Rh  Rh34  1  0.081589  0.753207  0.744240  1
  Rh  Rh35  1  0.242457  0.323714  0.744169  1
  Rh  Rh36  1  0.904699  0.811379  0.750540  1
  Rh  Rh37  1  0.188313  0.092186  0.750556  1
  Rh  Rh38  1  0.907596  0.096305  0.750565  1
