# generated using pymatgen
data_TmPa5(Sb4Pt3)2
_symmetry_space_group_name_H-M   'P 1'
_cell_length_a   8.45855997
_cell_length_b   8.45855952
_cell_length_c   8.45856107
_cell_angle_alpha   109.55040827
_cell_angle_beta   109.31296406
_cell_angle_gamma   109.55040441
_symmetry_Int_Tables_number   1
_chemical_formula_structural   TmPa5(Sb4Pt3)2
_chemical_formula_sum   'Tm1 Pa5 Sb8 Pt6'
_cell_volume   465.87023254
_cell_formula_units_Z   1
loop_
 _symmetry_equiv_pos_site_id
 _symmetry_equiv_pos_as_xyz
  1  'x, y, z'
loop_
 _atom_site_type_symbol
 _atom_site_label
 _atom_site_symmetry_multiplicity
 _atom_site_fract_x
 _atom_site_fract_y
 _atom_site_fract_z
 _atom_site_occupancy
  Tm  Tm0  1  0.875000  0.250000  0.125000  1
  Pa  Pa1  1  0.625000  0.750000  0.375000  1
  Pa  Pa2  1  0.250035  0.124904  0.875694  1
  Pa  Pa3  1  0.750790  0.375096  0.625131  1
  Pa  Pa4  1  0.124306  0.874341  0.249210  1
  Pa  Pa5  1  0.374869  0.625659  0.749965  1
  Sb  Sb6  1  0.679398  0.501048  0.000499  1
  Sb  Sb7  1  0.499450  0.998952  0.678350  1
  Sb  Sb8  1  0.998677  0.676096  0.497509  1
  Sb  Sb9  1  0.821414  0.823904  0.822581  1
  Sb  Sb10  1  0.502491  0.001167  0.178586  1
  Sb  Sb11  1  0.177419  0.498833  0.001323  1
  Sb  Sb12  1  0.999501  0.178900  0.500550  1
  Sb  Sb13  1  0.321650  0.321100  0.320602  1
  Pt  Pt14  1  0.375000  0.250000  0.625000  1
  Pt  Pt15  1  0.125000  0.750000  0.875000  1
  Pt  Pt16  1  0.251550  0.625380  0.375897  1
  Pt  Pt17  1  0.750517  0.874620  0.126170  1
  Pt  Pt18  1  0.624103  0.375653  0.249483  1
  Pt  Pt19  1  0.873830  0.124347  0.748450  1
