# generated using pymatgen
data_Dy3Sn3Pd2Rh
_symmetry_space_group_name_H-M   'P 1'
_cell_length_a   7.70790700
_cell_length_b   7.70790738
_cell_length_c   3.79166100
_cell_angle_alpha   90.00000000
_cell_angle_beta   90.00000000
_cell_angle_gamma   119.99999408
_symmetry_Int_Tables_number   1
_chemical_formula_structural   Dy3Sn3Pd2Rh
_chemical_formula_sum   'Dy3 Sn3 Pd2 Rh1'
_cell_volume   195.08914826
_cell_formula_units_Z   1
loop_
 _symmetry_equiv_pos_site_id
 _symmetry_equiv_pos_as_xyz
  1  'x, y, z'
loop_
 _atom_site_type_symbol
 _atom_site_label
 _atom_site_symmetry_multiplicity
 _atom_site_fract_x
 _atom_site_fract_y
 _atom_site_fract_z
 _atom_site_occupancy
  Dy  Dy0  1  0.401422  0.401422  0.500000  1
  Dy  Dy1  1  0.598578  0.000000  0.500000  1
  Dy  Dy2  1  0.000000  0.598578  0.500000  1
  Sn  Sn3  1  0.740692  0.740692  0.000000  1
  Sn  Sn4  1  0.259308  0.000000  0.000000  1
  Sn  Sn5  1  0.000000  0.259308  0.000000  1
  Pd  Pd6  1  0.666667  0.333333  0.000000  1
  Pd  Pd7  1  0.333333  0.666667  0.000000  1
  Rh  Rh8  1  0.000000  0.000000  0.500000  1
