# generated using pymatgen
data_NdSm7Be3Si12Pd
_symmetry_space_group_name_H-M   'P 1'
_cell_length_a   8.00169200
_cell_length_b   8.00169276
_cell_length_c   8.41196300
_cell_angle_alpha   90.00000000
_cell_angle_beta   90.00000000
_cell_angle_gamma   119.99998859
_symmetry_Int_Tables_number   1
_chemical_formula_structural   NdSm7Be3Si12Pd
_chemical_formula_sum   'Nd1 Sm7 Be3 Si12 Pd1'
_cell_volume   466.43565142
_cell_formula_units_Z   1
loop_
 _symmetry_equiv_pos_site_id
 _symmetry_equiv_pos_as_xyz
  1  'x, y, z'
loop_
 _atom_site_type_symbol
 _atom_site_label
 _atom_site_symmetry_multiplicity
 _atom_site_fract_x
 _atom_site_fract_y
 _atom_site_fract_z
 _atom_site_occupancy
  Nd  Nd0  1  0.000000  0.000000  0.250012  1
  Sm  Sm1  1  0.498440  0.501560  0.752357  1
  Sm  Sm2  1  0.498552  0.501448  0.247717  1
  Sm  Sm3  1  0.003120  0.501560  0.752357  1
  Sm  Sm4  1  0.002895  0.501448  0.247717  1
  Sm  Sm5  1  0.498440  0.996880  0.752357  1
  Sm  Sm6  1  0.498552  0.997105  0.247717  1
  Sm  Sm7  1  0.000000  0.000000  0.749813  1
  Be  Be8  1  0.666667  0.333333  0.998662  1
  Be  Be9  1  0.333333  0.666667  0.000957  1
  Be  Be10  1  0.333333  0.666667  0.499400  1
  Si  Si11  1  0.827229  0.172771  0.999623  1
  Si  Si12  1  0.172714  0.827286  0.999678  1
  Si  Si13  1  0.345542  0.172771  0.999623  1
  Si  Si14  1  0.170994  0.829006  0.500158  1
  Si  Si15  1  0.654572  0.827286  0.999678  1
  Si  Si16  1  0.833394  0.166606  0.500730  1
  Si  Si17  1  0.827229  0.654458  0.999623  1
  Si  Si18  1  0.658012  0.829006  0.500158  1
  Si  Si19  1  0.172714  0.345428  0.999678  1
  Si  Si20  1  0.333212  0.166606  0.500730  1
  Si  Si21  1  0.170994  0.341988  0.500158  1
  Si  Si22  1  0.833394  0.666788  0.500730  1
  Pd  Pd23  1  0.666667  0.333333  0.500367  1
