# generated using pymatgen
data_Na3AsO3
_symmetry_space_group_name_H-M   'P 1'
_cell_length_a   7.67706100
_cell_length_b   7.67706100
_cell_length_c   7.67706100
_cell_angle_alpha   90.00000000
_cell_angle_beta   90.00000000
_cell_angle_gamma   90.00000000
_symmetry_Int_Tables_number   1
_chemical_formula_structural   Na3AsO3
_chemical_formula_sum   'Na12 As4 O12'
_cell_volume   452.46498317
_cell_formula_units_Z   4
loop_
 _symmetry_equiv_pos_site_id
 _symmetry_equiv_pos_as_xyz
  1  'x, y, z'
loop_
 _atom_site_type_symbol
 _atom_site_label
 _atom_site_symmetry_multiplicity
 _atom_site_fract_x
 _atom_site_fract_y
 _atom_site_fract_z
 _atom_site_occupancy
  Na  Na0  1  0.014221  0.014221  0.014221  1
  Na  Na1  1  0.485779  0.985779  0.514221  1
  Na  Na2  1  0.514221  0.485779  0.985779  1
  Na  Na3  1  0.985779  0.514221  0.485779  1
  Na  Na4  1  0.216924  0.716924  0.783076  1
  Na  Na5  1  0.283076  0.283076  0.283076  1
  Na  Na6  1  0.211863  0.288137  0.711863  1
  Na  Na7  1  0.288137  0.711863  0.211863  1
  Na  Na8  1  0.711863  0.211863  0.288137  1
  Na  Na9  1  0.788137  0.788137  0.788137  1
  Na  Na10  1  0.716924  0.783076  0.216924  1
  Na  Na11  1  0.783076  0.216924  0.716924  1
  As  As12  1  0.488056  0.011944  0.988056  1
  As  As13  1  0.011944  0.988056  0.488056  1
  As  As14  1  0.988056  0.488056  0.011944  1
  As  As15  1  0.511944  0.511944  0.511944  1
  O  O16  1  0.497350  0.783489  0.935130  1
  O  O17  1  0.997350  0.716511  0.064870  1
  O  O18  1  0.502650  0.283489  0.564870  1
  O  O19  1  0.716511  0.064870  0.997350  1
  O  O20  1  0.783489  0.935130  0.497350  1
  O  O21  1  0.935130  0.497350  0.783489  1
  O  O22  1  0.283489  0.564870  0.502650  1
  O  O23  1  0.216511  0.435130  0.002650  1
  O  O24  1  0.435130  0.002650  0.216511  1
  O  O25  1  0.002650  0.216511  0.435130  1
  O  O26  1  0.564870  0.502650  0.283489  1
  O  O27  1  0.064870  0.997350  0.716511  1
