# generated using pymatgen
data_Tb4Mg4Ir3Au
_symmetry_space_group_name_H-M   'P 1'
_cell_length_a   4.14952900
_cell_length_b   7.15213526
_cell_length_c   8.67205949
_cell_angle_alpha   91.06315297
_cell_angle_beta   90.00000000
_cell_angle_gamma   90.00000000
_symmetry_Int_Tables_number   1
_chemical_formula_structural   Tb4Mg4Ir3Au
_chemical_formula_sum   'Tb4 Mg4 Ir3 Au1'
_cell_volume   257.32501192
_cell_formula_units_Z   1
loop_
 _symmetry_equiv_pos_site_id
 _symmetry_equiv_pos_as_xyz
  1  'x, y, z'
loop_
 _atom_site_type_symbol
 _atom_site_label
 _atom_site_symmetry_multiplicity
 _atom_site_fract_x
 _atom_site_fract_y
 _atom_site_fract_z
 _atom_site_occupancy
  Tb  Tb0  1  0.250000  0.027656  0.336803  1
  Tb  Tb1  1  0.250000  0.558798  0.178470  1
  Tb  Tb2  1  0.750000  0.960745  0.676591  1
  Tb  Tb3  1  0.750000  0.469643  0.813937  1
  Mg  Mg4  1  0.250000  0.132420  0.932139  1
  Mg  Mg5  1  0.250000  0.635337  0.560055  1
  Mg  Mg6  1  0.750000  0.859577  0.059117  1
  Mg  Mg7  1  0.750000  0.365275  0.443542  1
  Ir  Ir8  1  0.250000  0.248663  0.626508  1
  Ir  Ir9  1  0.250000  0.747964  0.875554  1
  Ir  Ir10  1  0.750000  0.747769  0.371383  1
  Au  Au11  1  0.750000  0.246154  0.125898  1
