# generated using pymatgen
data_Yb8GaSbPd23
_symmetry_space_group_name_H-M   'P 1'
_cell_length_a   8.37679300
_cell_length_b   8.37714500
_cell_length_c   8.21987300
_cell_angle_alpha   90.00000000
_cell_angle_beta   90.00000000
_cell_angle_gamma   90.00000000
_symmetry_Int_Tables_number   1
_chemical_formula_structural   Yb8GaSbPd23
_chemical_formula_sum   'Yb8 Ga1 Sb1 Pd23'
_cell_volume   576.81815883
_cell_formula_units_Z   1
loop_
 _symmetry_equiv_pos_site_id
 _symmetry_equiv_pos_as_xyz
  1  'x, y, z'
loop_
 _atom_site_type_symbol
 _atom_site_label
 _atom_site_symmetry_multiplicity
 _atom_site_fract_x
 _atom_site_fract_y
 _atom_site_fract_z
 _atom_site_occupancy
  Yb  Yb0  1  0.267515  0.238555  0.749248  1
  Yb  Yb1  1  0.249366  0.745515  0.251376  1
  Yb  Yb2  1  0.750634  0.254485  0.251376  1
  Yb  Yb3  1  0.732485  0.761445  0.749248  1
  Yb  Yb4  1  0.750634  0.745515  0.251376  1
  Yb  Yb5  1  0.732485  0.238555  0.749248  1
  Yb  Yb6  1  0.267515  0.761445  0.749248  1
  Yb  Yb7  1  0.249366  0.254485  0.251376  1
  Ga  Ga8  1  0.000000  0.000000  0.006140  1
  Sb  Sb9  1  0.000000  0.500000  0.724552  1
  Pd  Pd10  1  0.500000  0.500000  0.748456  1
  Pd  Pd11  1  0.500000  0.254780  0.495595  1
  Pd  Pd12  1  0.257538  0.500000  0.508497  1
  Pd  Pd13  1  0.500000  0.500000  0.253395  1
  Pd  Pd14  1  0.500000  0.745220  0.495595  1
  Pd  Pd15  1  0.742462  0.500000  0.508497  1
  Pd  Pd16  1  0.000000  0.000000  0.710254  1
  Pd  Pd17  1  0.000000  0.292537  0.984947  1
  Pd  Pd18  1  0.292939  0.000000  0.005190  1
  Pd  Pd19  1  0.000000  0.000000  0.298310  1
  Pd  Pd20  1  0.000000  0.707463  0.984947  1
  Pd  Pd21  1  0.707061  0.000000  0.005190  1
  Pd  Pd22  1  0.500000  0.260792  0.006371  1
  Pd  Pd23  1  0.260679  0.000000  0.498286  1
  Pd  Pd24  1  0.000000  0.258985  0.505943  1
  Pd  Pd25  1  0.500000  0.000000  0.739491  1
  Pd  Pd26  1  0.262454  0.500000  0.992682  1
  Pd  Pd27  1  0.000000  0.500000  0.258456  1
  Pd  Pd28  1  0.500000  0.739208  0.006371  1
  Pd  Pd29  1  0.000000  0.741015  0.505943  1
  Pd  Pd30  1  0.500000  0.000000  0.263424  1
  Pd  Pd31  1  0.739321  0.000000  0.498286  1
  Pd  Pd32  1  0.737546  0.500000  0.992682  1
