# generated using pymatgen
data_Ho3Lu3ZrCo17P12
_symmetry_space_group_name_H-M   'P 1'
_cell_length_a   3.68545400
_cell_length_b   10.55258295
_cell_length_c   12.24174811
_cell_angle_alpha   89.95133737
_cell_angle_beta   90.00000000
_cell_angle_gamma   90.00000000
_symmetry_Int_Tables_number   1
_chemical_formula_structural   Ho3Lu3ZrCo17P12
_chemical_formula_sum   'Ho3 Lu3 Zr1 Co17 P12'
_cell_volume   476.09437665
_cell_formula_units_Z   1
loop_
 _symmetry_equiv_pos_site_id
 _symmetry_equiv_pos_as_xyz
  1  'x, y, z'
loop_
 _atom_site_type_symbol
 _atom_site_label
 _atom_site_symmetry_multiplicity
 _atom_site_fract_x
 _atom_site_fract_y
 _atom_site_fract_z
 _atom_site_occupancy
  Ho  Ho0  1  0.000000  0.500019  0.530204  1
  Ho  Ho1  1  0.500000  0.000288  0.476992  1
  Ho  Ho2  1  0.500000  0.821872  0.207392  1
  Lu  Lu3  1  0.500000  0.178084  0.207431  1
  Lu  Lu4  1  0.000000  0.681989  0.796297  1
  Lu  Lu5  1  0.000000  0.317807  0.795785  1
  Zr  Zr6  1  0.500000  0.499537  0.154707  1
  Co  Co7  1  0.000000  0.000410  0.836243  1
  Co  Co8  1  0.500000  0.499733  0.704002  1
  Co  Co9  1  0.000000  0.001280  0.295307  1
  Co  Co10  1  0.000000  0.499377  0.982482  1
  Co  Co11  1  0.500000  0.000572  0.012878  1
  Co  Co12  1  0.500000  0.326560  0.987364  1
  Co  Co13  1  0.500000  0.672516  0.986717  1
  Co  Co14  1  0.000000  0.162185  0.000850  1
  Co  Co15  1  0.000000  0.838608  0.000603  1
  Co  Co16  1  0.500000  0.294393  0.434712  1
  Co  Co17  1  0.500000  0.706008  0.435912  1
  Co  Co18  1  0.000000  0.202189  0.570596  1
  Co  Co19  1  0.000000  0.798111  0.571502  1
  Co  Co20  1  0.500000  0.879283  0.708278  1
  Co  Co21  1  0.500000  0.120792  0.707747  1
  Co  Co22  1  0.000000  0.622646  0.298658  1
  Co  Co23  1  0.000000  0.375403  0.296353  1
  P  P24  1  0.500000  0.499478  0.880491  1
  P  P25  1  0.000000  0.001135  0.116299  1
  P  P26  1  0.500000  0.500293  0.362957  1
  P  P27  1  0.000000  0.000098  0.654099  1
  P  P28  1  0.500000  0.309929  0.619239  1
  P  P29  1  0.500000  0.689981  0.620058  1
  P  P30  1  0.000000  0.187899  0.385386  1
  P  P31  1  0.000000  0.812461  0.386843  1
  P  P32  1  0.500000  0.851332  0.887621  1
  P  P33  1  0.500000  0.148841  0.887119  1
  P  P34  1  0.000000  0.665380  0.099605  1
  P  P35  1  0.000000  0.333514  0.101271  1
