# generated using pymatgen
data_Ho2Er3GePb3
_symmetry_space_group_name_H-M   'P 1'
_cell_length_a   9.28370813
_cell_length_b   9.28370812
_cell_length_c   6.51199900
_cell_angle_alpha   90.00000000
_cell_angle_beta   90.00000000
_cell_angle_gamma   120.01915015
_symmetry_Int_Tables_number   1
_chemical_formula_structural   Ho2Er3GePb3
_chemical_formula_sum   'Ho4 Er6 Ge2 Pb6'
_cell_volume   485.96397406
_cell_formula_units_Z   2
loop_
 _symmetry_equiv_pos_site_id
 _symmetry_equiv_pos_as_xyz
  1  'x, y, z'
loop_
 _atom_site_type_symbol
 _atom_site_label
 _atom_site_symmetry_multiplicity
 _atom_site_fract_x
 _atom_site_fract_y
 _atom_site_fract_z
 _atom_site_occupancy
  Ho  Ho0  1  0.251664  0.000069  0.250000  1
  Ho  Ho1  1  0.748336  0.999931  0.750000  1
  Ho  Ho2  1  0.000069  0.251664  0.250000  1
  Ho  Ho3  1  0.999931  0.748336  0.750000  1
  Er  Er4  1  0.748582  0.748582  0.250000  1
  Er  Er5  1  0.251418  0.251418  0.750000  1
  Er  Er6  1  0.333374  0.666626  0.000000  1
  Er  Er7  1  0.666626  0.333374  0.000000  1
  Er  Er8  1  0.666626  0.333374  0.500000  1
  Er  Er9  1  0.333374  0.666626  0.500000  1
  Ge  Ge10  1  0.000000  0.000000  0.000000  1
  Ge  Ge11  1  0.000000  0.000000  0.500000  1
  Pb  Pb12  1  0.606657  0.999883  0.250000  1
  Pb  Pb13  1  0.393343  0.000117  0.750000  1
  Pb  Pb14  1  0.999883  0.606657  0.250000  1
  Pb  Pb15  1  0.000117  0.393343  0.750000  1
  Pb  Pb16  1  0.393535  0.393535  0.250000  1
  Pb  Pb17  1  0.606465  0.606465  0.750000  1
