# generated using pymatgen
data_K2NiWSe4
_symmetry_space_group_name_H-M   'P 1'
_cell_length_a   13.88919915
_cell_length_b   12.41013510
_cell_length_c   7.36635698
_cell_angle_alpha   85.17938524
_cell_angle_beta   62.91715750
_cell_angle_gamma   31.90346725
_symmetry_Int_Tables_number   1
_chemical_formula_structural   K2NiWSe4
_chemical_formula_sum   'K4 Ni2 W2 Se8'
_cell_volume   457.66457113
_cell_formula_units_Z   2
loop_
 _symmetry_equiv_pos_site_id
 _symmetry_equiv_pos_as_xyz
  1  'x, y, z'
loop_
 _atom_site_type_symbol
 _atom_site_label
 _atom_site_symmetry_multiplicity
 _atom_site_fract_x
 _atom_site_fract_y
 _atom_site_fract_z
 _atom_site_occupancy
  K  K0  1  0.680152  0.680152  0.319848  1
  K  K1  1  0.319848  0.319848  0.680152  1
  K  K2  1  0.569848  0.569848  0.930152  1
  K  K3  1  0.930152  0.930152  0.569848  1
  Ni  Ni4  1  0.000000  0.000000  0.000000  1
  Ni  Ni5  1  0.250000  0.250000  0.250000  1
  W  W6  1  0.500000  0.500000  0.500000  1
  W  W7  1  0.750000  0.750000  0.750000  1
  Se  Se8  1  0.344046  0.042405  0.955153  1
  Se  Se9  1  0.658396  0.955153  0.042405  1
  Se  Se10  1  0.955153  0.658396  0.344046  1
  Se  Se11  1  0.042405  0.344046  0.658396  1
  Se  Se12  1  0.905954  0.207595  0.294847  1
  Se  Se13  1  0.591604  0.294847  0.207595  1
  Se  Se14  1  0.294847  0.591604  0.905954  1
  Se  Se15  1  0.207595  0.905954  0.591604  1
