# generated using pymatgen
data_Nd3Tm(MoN3)4
_symmetry_space_group_name_H-M   'P 1'
_cell_length_a   7.28850485
_cell_length_b   7.28850487
_cell_length_c   6.23520803
_cell_angle_alpha   76.06078418
_cell_angle_beta   76.06078354
_cell_angle_gamma   83.30702789
_symmetry_Int_Tables_number   1
_chemical_formula_structural   Nd3Tm(MoN3)4
_chemical_formula_sum   'Nd3 Tm1 Mo4 N12'
_cell_volume   311.40502023
_cell_formula_units_Z   1
loop_
 _symmetry_equiv_pos_site_id
 _symmetry_equiv_pos_as_xyz
  1  'x, y, z'
loop_
 _atom_site_type_symbol
 _atom_site_label
 _atom_site_symmetry_multiplicity
 _atom_site_fract_x
 _atom_site_fract_y
 _atom_site_fract_z
 _atom_site_occupancy
  Nd  Nd0  1  0.688408  0.311592  0.250000  1
  Nd  Nd1  1  0.086543  0.913457  0.250000  1
  Nd  Nd2  1  0.313509  0.686491  0.750000  1
  Tm  Tm3  1  0.910894  0.089106  0.750000  1
  Mo  Mo4  1  0.802133  0.617726  0.751747  1
  Mo  Mo5  1  0.197833  0.379983  0.254689  1
  Mo  Mo6  1  0.620017  0.802167  0.245311  1
  Mo  Mo7  1  0.382274  0.197867  0.748253  1
  N  N8  1  0.217452  0.004382  0.840610  1
  N  N9  1  0.344561  0.378985  0.480396  1
  N  N10  1  0.667198  0.629841  0.513297  1
  N  N11  1  0.620527  0.108933  0.658274  1
  N  N12  1  0.995618  0.782548  0.659390  1
  N  N13  1  0.777872  0.002277  0.135819  1
  N  N14  1  0.108963  0.613768  0.149020  1
  N  N15  1  0.891067  0.379473  0.841726  1
  N  N16  1  0.997723  0.222128  0.364181  1
  N  N17  1  0.370159  0.332802  0.986703  1
  N  N18  1  0.621015  0.655439  0.019604  1
  N  N19  1  0.386232  0.891037  0.350980  1
