# generated using pymatgen
data_Li4ScP12Ir15Ru4
_symmetry_space_group_name_H-M   'P 1'
_cell_length_a   12.57321667
_cell_length_b   12.48202505
_cell_length_c   3.90864600
_cell_angle_alpha   90.00000000
_cell_angle_beta   90.00000000
_cell_angle_gamma   120.11256155
_symmetry_Int_Tables_number   1
_chemical_formula_structural   Li4ScP12Ir15Ru4
_chemical_formula_sum   'Li4 Sc1 P12 Ir15 Ru4'
_cell_volume   530.63355039
_cell_formula_units_Z   1
loop_
 _symmetry_equiv_pos_site_id
 _symmetry_equiv_pos_as_xyz
  1  'x, y, z'
loop_
 _atom_site_type_symbol
 _atom_site_label
 _atom_site_symmetry_multiplicity
 _atom_site_fract_x
 _atom_site_fract_y
 _atom_site_fract_z
 _atom_site_occupancy
  Li  Li0  1  0.333044  0.664610  0.000000  1
  Li  Li1  1  0.666134  0.334083  0.000000  1
  Li  Li2  1  0.823493  0.999953  0.500000  1
  Li  Li3  1  0.998787  0.822874  0.500000  1
  Sc  Sc4  1  0.175318  0.176626  0.500000  1
  P  P5  1  0.175680  0.994977  0.000000  1
  P  P6  1  0.998167  0.179431  0.000000  1
  P  P7  1  0.821456  0.822474  0.000000  1
  P  P8  1  0.173257  0.484183  0.500000  1
  P  P9  1  0.514021  0.685177  0.500000  1
  P  P10  1  0.315115  0.827048  0.500000  1
  P  P11  1  0.686843  0.513867  0.500000  1
  P  P12  1  0.828260  0.315543  0.500000  1
  P  P13  1  0.487506  0.171597  0.500000  1
  P  P14  1  0.637609  0.000378  0.000000  1
  P  P15  1  0.000859  0.638165  0.000000  1
  P  P16  1  0.359289  0.363875  0.000000  1
  Ir  Ir17  1  0.358854  0.487242  0.500000  1
  Ir  Ir18  1  0.511212  0.869812  0.500000  1
  Ir  Ir19  1  0.132714  0.640704  0.500000  1
  Ir  Ir20  1  0.871325  0.513181  0.500000  1
  Ir  Ir21  1  0.642336  0.131980  0.500000  1
  Ir  Ir22  1  0.491283  0.357033  0.500000  1
  Ir  Ir23  1  0.622734  0.804974  0.000000  1
  Ir  Ir24  1  0.196349  0.817850  0.000000  1
  Ir  Ir25  1  0.805766  0.623794  0.000000  1
  Ir  Ir26  1  0.817061  0.195238  0.000000  1
  Ir  Ir27  1  0.368105  0.181336  0.000000  1
  Ir  Ir28  1  0.288712  0.001560  0.500000  1
  Ir  Ir29  1  0.999032  0.287026  0.500000  1
  Ir  Ir30  1  0.713269  0.713683  0.500000  1
  Ir  Ir31  1  0.002863  0.002796  0.000000  1
  Ru  Ru32  1  0.456444  0.004364  0.000000  1
  Ru  Ru33  1  0.001430  0.455045  0.000000  1
  Ru  Ru34  1  0.546208  0.543645  0.000000  1
  Ru  Ru35  1  0.179464  0.373878  0.000000  1
