# generated using pymatgen
data_DyY2Tc(Ni4P3)2
_symmetry_space_group_name_H-M   'P 1'
_cell_length_a   3.78093400
_cell_length_b   10.74625000
_cell_length_c   12.46711900
_cell_angle_alpha   90.00000000
_cell_angle_beta   90.00000000
_cell_angle_gamma   90.00000000
_symmetry_Int_Tables_number   1
_chemical_formula_structural   DyY2Tc(Ni4P3)2
_chemical_formula_sum   'Dy2 Y4 Tc2 Ni16 P12'
_cell_volume   506.54979160
_cell_formula_units_Z   2
loop_
 _symmetry_equiv_pos_site_id
 _symmetry_equiv_pos_as_xyz
  1  'x, y, z'
loop_
 _atom_site_type_symbol
 _atom_site_label
 _atom_site_symmetry_multiplicity
 _atom_site_fract_x
 _atom_site_fract_y
 _atom_site_fract_z
 _atom_site_occupancy
  Dy  Dy0  1  0.000000  0.500000  0.522684  1
  Dy  Dy1  1  0.500000  0.000000  0.477316  1
  Y  Y2  1  0.500000  0.815797  0.207488  1
  Y  Y3  1  0.500000  0.184203  0.207488  1
  Y  Y4  1  0.000000  0.684203  0.792512  1
  Y  Y5  1  0.000000  0.315797  0.792512  1
  Tc  Tc6  1  0.500000  0.500000  0.154283  1
  Tc  Tc7  1  0.000000  0.000000  0.845717  1
  Ni  Ni8  1  0.500000  0.500000  0.700301  1
  Ni  Ni9  1  0.000000  0.000000  0.299699  1
  Ni  Ni10  1  0.000000  0.500000  0.984457  1
  Ni  Ni11  1  0.500000  0.000000  0.015543  1
  Ni  Ni12  1  0.500000  0.331395  0.986573  1
  Ni  Ni13  1  0.500000  0.668605  0.986573  1
  Ni  Ni14  1  0.000000  0.168605  0.013427  1
  Ni  Ni15  1  0.000000  0.831395  0.013427  1
  Ni  Ni16  1  0.500000  0.303914  0.428118  1
  Ni  Ni17  1  0.500000  0.696086  0.428118  1
  Ni  Ni18  1  0.000000  0.196086  0.571882  1
  Ni  Ni19  1  0.000000  0.803914  0.571882  1
  Ni  Ni20  1  0.500000  0.880251  0.710429  1
  Ni  Ni21  1  0.500000  0.119749  0.710429  1
  Ni  Ni22  1  0.000000  0.619749  0.289571  1
  Ni  Ni23  1  0.000000  0.380251  0.289571  1
  P  P24  1  0.500000  0.500000  0.877740  1
  P  P25  1  0.000000  0.000000  0.122260  1
  P  P26  1  0.500000  0.500000  0.346461  1
  P  P27  1  0.000000  0.000000  0.653539  1
  P  P28  1  0.500000  0.313723  0.613978  1
  P  P29  1  0.500000  0.686277  0.613978  1
  P  P30  1  0.000000  0.186277  0.386022  1
  P  P31  1  0.000000  0.813723  0.386022  1
  P  P32  1  0.500000  0.848852  0.893153  1
  P  P33  1  0.500000  0.151148  0.893153  1
  P  P34  1  0.000000  0.651148  0.106847  1
  P  P35  1  0.000000  0.348852  0.106847  1
