# generated using pymatgen
data_Tb3ErGa4(PdRh)2
_symmetry_space_group_name_H-M   'P 1'
_cell_length_a   4.41845200
_cell_length_b   6.89820179
_cell_length_c   7.69958655
_cell_angle_alpha   89.71761590
_cell_angle_beta   90.00000000
_cell_angle_gamma   90.00000000
_symmetry_Int_Tables_number   1
_chemical_formula_structural   Tb3ErGa4(PdRh)2
_chemical_formula_sum   'Tb3 Er1 Ga4 Pd2 Rh2'
_cell_volume   234.67572406
_cell_formula_units_Z   1
loop_
 _symmetry_equiv_pos_site_id
 _symmetry_equiv_pos_as_xyz
  1  'x, y, z'
loop_
 _atom_site_type_symbol
 _atom_site_label
 _atom_site_symmetry_multiplicity
 _atom_site_fract_x
 _atom_site_fract_y
 _atom_site_fract_z
 _atom_site_occupancy
  Tb  Tb0  1  0.250000  0.980183  0.304835  1
  Tb  Tb1  1  0.750000  0.028927  0.686497  1
  Tb  Tb2  1  0.750000  0.527728  0.814867  1
  Er  Er3  1  0.250000  0.480113  0.194987  1
  Ga  Ga4  1  0.250000  0.336456  0.568212  1
  Ga  Ga5  1  0.250000  0.835197  0.931217  1
  Ga  Ga6  1  0.750000  0.658133  0.426893  1
  Ga  Ga7  1  0.750000  0.159750  0.072864  1
  Pd  Pd8  1  0.250000  0.224411  0.895752  1
  Pd  Pd9  1  0.250000  0.722623  0.605915  1
  Rh  Rh10  1  0.750000  0.771543  0.104937  1
  Rh  Rh11  1  0.750000  0.274936  0.393023  1
