# generated using pymatgen
data_Yb6SmY(MgRu)2
_symmetry_space_group_name_H-M   'P 1'
_cell_length_a   9.95500845
_cell_length_b   9.95500857
_cell_length_c   9.92942100
_cell_angle_alpha   60.08499249
_cell_angle_beta   60.08499210
_cell_angle_gamma   60.13866188
_symmetry_Int_Tables_number   1
_chemical_formula_structural   Yb6SmY(MgRu)2
_chemical_formula_sum   'Yb12 Sm2 Y2 Mg4 Ru4'
_cell_volume   697.43404094
_cell_formula_units_Z   2
loop_
 _symmetry_equiv_pos_site_id
 _symmetry_equiv_pos_as_xyz
  1  'x, y, z'
loop_
 _atom_site_type_symbol
 _atom_site_label
 _atom_site_symmetry_multiplicity
 _atom_site_fract_x
 _atom_site_fract_y
 _atom_site_fract_z
 _atom_site_occupancy
  Yb  Yb0  1  0.953064  0.546640  0.547804  1
  Yb  Yb1  1  0.546640  0.953064  0.952492  1
  Yb  Yb2  1  0.546640  0.953064  0.547804  1
  Yb  Yb3  1  0.953064  0.546640  0.952492  1
  Yb  Yb4  1  0.545947  0.545947  0.954053  1
  Yb  Yb5  1  0.951792  0.951792  0.548208  1
  Yb  Yb6  1  0.809667  0.190710  0.189925  1
  Yb  Yb7  1  0.190710  0.809667  0.809698  1
  Yb  Yb8  1  0.190710  0.809667  0.189925  1
  Yb  Yb9  1  0.809667  0.190710  0.809698  1
  Yb  Yb10  1  0.190979  0.190979  0.809021  1
  Yb  Yb11  1  0.810389  0.810389  0.189611  1
  Sm  Sm12  1  0.339869  0.981303  0.339413  1
  Sm  Sm13  1  0.981303  0.339869  0.339413  1
  Y  Y14  1  0.339279  0.339279  0.339343  1
  Y  Y15  1  0.339279  0.339279  0.982096  1
  Mg  Mg16  1  0.576653  0.576653  0.578081  1
  Mg  Mg17  1  0.576653  0.576653  0.268614  1
  Mg  Mg18  1  0.576416  0.267837  0.577874  1
  Mg  Mg19  1  0.267837  0.576416  0.577874  1
  Ru  Ru20  1  0.138792  0.138792  0.137066  1
  Ru  Ru21  1  0.138792  0.138792  0.585349  1
  Ru  Ru22  1  0.139374  0.586481  0.137072  1
  Ru  Ru23  1  0.586481  0.139374  0.137072  1
