# generated using pymatgen
data_Ba8FeTc3O16
_symmetry_space_group_name_H-M   'P 1'
_cell_length_a   5.75411960
_cell_length_b   9.34237649
_cell_length_c   9.34237475
_cell_angle_alpha   87.08786736
_cell_angle_beta   71.99498964
_cell_angle_gamma   108.00657752
_symmetry_Int_Tables_number   1
_chemical_formula_structural   Ba8FeTc3O16
_chemical_formula_sum   'Ba8 Fe1 Tc3 O16'
_cell_volume   448.24547784
_cell_formula_units_Z   1
loop_
 _symmetry_equiv_pos_site_id
 _symmetry_equiv_pos_as_xyz
  1  'x, y, z'
loop_
 _atom_site_type_symbol
 _atom_site_label
 _atom_site_symmetry_multiplicity
 _atom_site_fract_x
 _atom_site_fract_y
 _atom_site_fract_z
 _atom_site_occupancy
  Ba  Ba0  1  0.252270  0.397226  0.892385  1
  Ba  Ba1  1  0.999949  0.642925  0.643098  1
  Ba  Ba2  1  0.747599  0.892291  0.397279  1
  Ba  Ba3  1  0.500055  0.148091  0.147972  1
  Ba  Ba4  1  0.999975  0.356909  0.357067  1
  Ba  Ba5  1  0.747610  0.602751  0.107682  1
  Ba  Ba6  1  0.500044  0.852015  0.851931  1
  Ba  Ba7  1  0.252271  0.107633  0.602756  1
  Fe  Fe8  1  0.500509  0.500323  0.499617  1
  Tc  Tc9  1  0.252960  0.752818  0.247199  1
  Tc  Tc10  1  0.999893  0.999931  0.000076  1
  Tc  Tc11  1  0.746933  0.247160  0.752828  1
  O  O12  1  0.252348  0.599484  0.095813  1
  O  O13  1  0.999726  0.845841  0.846178  1
  O  O14  1  0.747908  0.095856  0.599171  1
  O  O15  1  0.500021  0.349043  0.349075  1
  O  O16  1  0.999954  0.154028  0.153966  1
  O  O17  1  0.747713  0.400679  0.904281  1
  O  O18  1  0.500271  0.651051  0.650827  1
  O  O19  1  0.252164  0.904035  0.400688  1
  O  O20  1  0.875224  0.123818  0.876091  1
  O  O21  1  0.623960  0.370100  0.629947  1
  O  O22  1  0.376232  0.629915  0.370024  1
  O  O23  1  0.124536  0.876114  0.123999  1
  O  O24  1  0.373389  0.123498  0.876399  1
  O  O25  1  0.113495  0.370475  0.629624  1
  O  O26  1  0.886502  0.629557  0.370341  1
  O  O27  1  0.626488  0.876434  0.123684  1
