# generated using pymatgen
data_YbSc2UGe2Ru3
_symmetry_space_group_name_H-M   'P 1'
_cell_length_a   6.93988570
_cell_length_b   6.93988662
_cell_length_c   3.99907600
_cell_angle_alpha   90.00000000
_cell_angle_beta   90.00000000
_cell_angle_gamma   120.45079763
_symmetry_Int_Tables_number   1
_chemical_formula_structural   YbSc2UGe2Ru3
_chemical_formula_sum   'Yb1 Sc2 U1 Ge2 Ru3'
_cell_volume   166.03674329
_cell_formula_units_Z   1
loop_
 _symmetry_equiv_pos_site_id
 _symmetry_equiv_pos_as_xyz
  1  'x, y, z'
loop_
 _atom_site_type_symbol
 _atom_site_label
 _atom_site_symmetry_multiplicity
 _atom_site_fract_x
 _atom_site_fract_y
 _atom_site_fract_z
 _atom_site_occupancy
  Yb  Yb0  1  0.456537  0.456537  0.000000  1
  Sc  Sc1  1  0.538648  0.000381  0.000000  1
  Sc  Sc2  1  0.000381  0.538648  0.000000  1
  U  U3  1  0.001297  0.001297  0.000000  1
  Ge  Ge4  1  0.672061  0.331294  0.500000  1
  Ge  Ge5  1  0.331294  0.672061  0.500000  1
  Ru  Ru6  1  0.998066  0.237613  0.500000  1
  Ru  Ru7  1  0.764102  0.764102  0.500000  1
  Ru  Ru8  1  0.237613  0.998066  0.500000  1
