# generated using pymatgen
data_CeHf3(Pa2Ga5)4
_symmetry_space_group_name_H-M   'P 1'
_cell_length_a   5.98808804
_cell_length_b   9.39150500
_cell_length_c   11.48467600
_cell_angle_alpha   90.00000000
_cell_angle_beta   89.99347442
_cell_angle_gamma   90.00000000
_symmetry_Int_Tables_number   1
_chemical_formula_structural   CeHf3(Pa2Ga5)4
_chemical_formula_sum   'Ce1 Hf3 Pa8 Ga20'
_cell_volume   645.86554330
_cell_formula_units_Z   1
loop_
 _symmetry_equiv_pos_site_id
 _symmetry_equiv_pos_as_xyz
  1  'x, y, z'
loop_
 _atom_site_type_symbol
 _atom_site_label
 _atom_site_symmetry_multiplicity
 _atom_site_fract_x
 _atom_site_fract_y
 _atom_site_fract_z
 _atom_site_occupancy
  Ce  Ce0  1  0.352572  0.250000  0.429013  1
  Hf  Hf1  1  0.855084  0.750000  0.071492  1
  Hf  Hf2  1  0.647612  0.750000  0.572843  1
  Hf  Hf3  1  0.145222  0.250000  0.929531  1
  Pa  Pa4  1  0.878376  0.502502  0.352922  1
  Pa  Pa5  1  0.620968  0.995467  0.853890  1
  Pa  Pa6  1  0.122079  0.002919  0.648306  1
  Pa  Pa7  1  0.380462  0.496382  0.146603  1
  Pa  Pa8  1  0.122079  0.497081  0.648306  1
  Pa  Pa9  1  0.380462  0.003618  0.146603  1
  Pa  Pa10  1  0.878376  0.997498  0.352922  1
  Pa  Pa11  1  0.620968  0.504533  0.853890  1
  Ga  Ga12  1  0.874558  0.048148  0.086972  1
  Ga  Ga13  1  0.628675  0.454813  0.593558  1
  Ga  Ga14  1  0.125732  0.550043  0.911771  1
  Ga  Ga15  1  0.374378  0.937589  0.409899  1
  Ga  Ga16  1  0.125732  0.949957  0.911771  1
  Ga  Ga17  1  0.374378  0.562411  0.409899  1
  Ga  Ga18  1  0.874558  0.451852  0.086972  1
  Ga  Ga19  1  0.628675  0.045187  0.593558  1
  Ga  Ga20  1  0.148189  0.750000  0.258122  1
  Ga  Ga21  1  0.351673  0.750000  0.759381  1
  Ga  Ga22  1  0.850192  0.250000  0.743427  1
  Ga  Ga23  1  0.658265  0.250000  0.233519  1
  Ga  Ga24  1  0.396197  0.750000  0.993311  1
  Ga  Ga25  1  0.093933  0.750000  0.493704  1
  Ga  Ga26  1  0.604856  0.250000  0.004577  1
  Ga  Ga27  1  0.878349  0.250000  0.510553  1
  Ga  Ga28  1  0.600903  0.750000  0.285127  1
  Ga  Ga29  1  0.906282  0.750000  0.788002  1
  Ga  Ga30  1  0.403839  0.250000  0.718275  1
  Ga  Ga31  1  0.096373  0.250000  0.201287  1
