# generated using pymatgen
data_PrTh3(Al8Pd3)3
_symmetry_space_group_name_H-M   'P 1'
_cell_length_a   7.62064406
_cell_length_b   7.61835869
_cell_length_c   13.33207900
_cell_angle_alpha   84.63974845
_cell_angle_beta   100.90869756
_cell_angle_gamma   119.82337620
_symmetry_Int_Tables_number   1
_chemical_formula_structural   PrTh3(Al8Pd3)3
_chemical_formula_sum   'Pr1 Th3 Al24 Pd9'
_cell_volume   659.37455696
_cell_formula_units_Z   1
loop_
 _symmetry_equiv_pos_site_id
 _symmetry_equiv_pos_as_xyz
  1  'x, y, z'
loop_
 _atom_site_type_symbol
 _atom_site_label
 _atom_site_symmetry_multiplicity
 _atom_site_fract_x
 _atom_site_fract_y
 _atom_site_fract_z
 _atom_site_occupancy
  Pr  Pr0  1  0.437438  0.832475  0.807827  1
  Th  Th1  1  0.562552  0.167089  0.193121  1
  Th  Th2  1  0.767888  0.502156  0.806256  1
  Th  Th3  1  0.232314  0.498106  0.193218  1
  Al  Al4  1  0.478484  0.165493  0.945111  1
  Al  Al5  1  0.521109  0.833346  0.052931  1
  Al  Al6  1  0.021519  0.165642  0.560730  1
  Al  Al7  1  0.979568  0.834698  0.440702  1
  Al  Al8  1  0.352973  0.833196  0.558868  1
  Al  Al9  1  0.647173  0.166554  0.442492  1
  Al  Al10  1  0.622818  0.834656  0.336440  1
  Al  Al11  1  0.378066  0.163445  0.664324  1
  Al  Al12  1  0.057082  0.492029  0.664085  1
  Al  Al13  1  0.945091  0.510231  0.336764  1
  Al  Al14  1  0.731146  0.844164  0.662926  1
  Al  Al15  1  0.266777  0.155536  0.337944  1
  Al  Al16  1  0.149163  0.497502  0.945691  1
  Al  Al17  1  0.851509  0.503901  0.053161  1
  Al  Al18  1  0.819214  0.835294  0.954639  1
  Al  Al19  1  0.179231  0.164307  0.042847  1
  Al  Al20  1  0.311904  0.498971  0.442085  1
  Al  Al21  1  0.688197  0.501116  0.558626  1
  Al  Al22  1  0.099042  0.835996  0.184675  1
  Al  Al23  1  0.899828  0.164827  0.815213  1
  Al  Al24  1  0.303992  0.366019  0.813638  1
  Al  Al25  1  0.696969  0.634471  0.186122  1
  Al  Al26  1  0.100298  0.961740  0.814924  1
  Al  Al27  1  0.898454  0.036899  0.184616  1
  Pd  Pd28  1  0.386740  0.505837  0.636555  1
  Pd  Pd29  1  0.612578  0.492519  0.362650  1
  Pd  Pd30  1  0.171873  0.829224  0.000423  1
  Pd  Pd31  1  0.828904  0.171555  0.001387  1
  Pd  Pd32  1  0.294449  0.833191  0.362722  1
  Pd  Pd33  1  0.706831  0.168068  0.636566  1
  Pd  Pd34  1  0.045849  0.826081  0.636778  1
  Pd  Pd35  1  0.952697  0.174451  0.362127  1
  Pd  Pd36  1  0.500277  0.499213  0.000818  1
