# generated using pymatgen
data_Ce6DyThF30
_symmetry_space_group_name_H-M   'P 1'
_cell_length_a   8.74123204
_cell_length_b   8.74123031
_cell_length_c   8.70596600
_cell_angle_alpha   79.55866908
_cell_angle_beta   79.55867118
_cell_angle_gamma   100.47512790
_symmetry_Int_Tables_number   1
_chemical_formula_structural   Ce6DyThF30
_chemical_formula_sum   'Ce6 Dy1 Th1 F30'
_cell_volume   627.32138289
_cell_formula_units_Z   1
loop_
 _symmetry_equiv_pos_site_id
 _symmetry_equiv_pos_as_xyz
  1  'x, y, z'
loop_
 _atom_site_type_symbol
 _atom_site_label
 _atom_site_symmetry_multiplicity
 _atom_site_fract_x
 _atom_site_fract_y
 _atom_site_fract_z
 _atom_site_occupancy
  Ce  Ce0  1  0.750493  0.249507  0.250000  1
  Ce  Ce1  1  0.250290  0.749710  0.750000  1
  Ce  Ce2  1  0.749105  0.676083  0.679262  1
  Ce  Ce3  1  0.323917  0.250895  0.820738  1
  Ce  Ce4  1  0.247395  0.322287  0.326456  1
  Ce  Ce5  1  0.677713  0.752605  0.173544  1
  Dy  Dy6  1  0.822833  0.177167  0.750000  1
  Th  Th7  1  0.177773  0.822227  0.250000  1
  F  F8  1  0.314359  0.340871  0.056575  1
  F  F9  1  0.946516  0.816149  0.152756  1
  F  F10  1  0.835239  0.447302  0.687144  1
  F  F11  1  0.450649  0.849685  0.179192  1
  F  F12  1  0.812867  0.940341  0.663233  1
  F  F13  1  0.348294  0.318586  0.551603  1
  F  F14  1  0.681414  0.651706  0.948396  1
  F  F15  1  0.059659  0.187133  0.836767  1
  F  F16  1  0.150315  0.549351  0.320808  1
  F  F17  1  0.552698  0.164761  0.812856  1
  F  F18  1  0.183851  0.053484  0.347244  1
  F  F19  1  0.659129  0.685641  0.443425  1
  F  F20  1  0.781619  0.269200  0.992801  1
  F  F21  1  0.009046  0.278612  0.221509  1
  F  F22  1  0.775724  0.508443  0.219757  1
  F  F23  1  0.506148  0.778291  0.721555  1
  F  F24  1  0.280025  0.006824  0.721026  1
  F  F25  1  0.281438  0.777984  0.488029  1
  F  F26  1  0.222016  0.718562  0.011971  1
  F  F27  1  0.993176  0.719975  0.778974  1
  F  F28  1  0.221709  0.493852  0.778445  1
  F  F29  1  0.491557  0.224276  0.280243  1
  F  F30  1  0.721388  0.990954  0.278491  1
  F  F31  1  0.730800  0.218381  0.507199  1
  F  F32  1  0.460295  0.539705  0.250000  1
  F  F33  1  0.749851  0.961782  0.966307  1
  F  F34  1  0.038218  0.250149  0.533693  1
  F  F35  1  0.249489  0.035772  0.033188  1
  F  F36  1  0.964228  0.750511  0.466812  1
  F  F37  1  0.528768  0.471232  0.750000  1
