# generated using pymatgen
data_Ni2GeMo3N
_symmetry_space_group_name_H-M   'P 1'
_cell_length_a   7.88349974
_cell_length_b   7.88334083
_cell_length_c   7.88387514
_cell_angle_alpha   59.99827497
_cell_angle_beta   60.00267644
_cell_angle_gamma   60.00102497
_symmetry_Int_Tables_number   1
_chemical_formula_structural   Ni2GeMo3N
_chemical_formula_sum   'Ni8 Ge4 Mo12 N4'
_cell_volume   346.46597133
_cell_formula_units_Z   4
loop_
 _symmetry_equiv_pos_site_id
 _symmetry_equiv_pos_as_xyz
  1  'x, y, z'
loop_
 _atom_site_type_symbol
 _atom_site_label
 _atom_site_symmetry_multiplicity
 _atom_site_fract_x
 _atom_site_fract_y
 _atom_site_fract_z
 _atom_site_occupancy
  Ni  Ni0  1  0.250451  0.916472  0.916522  1
  Ni  Ni1  1  0.916539  0.250315  0.916570  1
  Ni  Ni2  1  0.916580  0.916566  0.916604  1
  Ni  Ni3  1  0.916526  0.916514  0.250388  1
  Ni  Ni4  1  0.999798  0.333409  0.333396  1
  Ni  Ni5  1  0.333451  0.333451  0.999670  1
  Ni  Ni6  1  0.333439  0.999704  0.333432  1
  Ni  Ni7  1  0.333465  0.333481  0.333464  1
  Ge  Ge8  1  0.624936  0.125009  0.124999  1
  Ge  Ge9  1  0.125007  0.125050  0.624831  1
  Ge  Ge10  1  0.124993  0.624866  0.125043  1
  Ge  Ge11  1  0.125053  0.125091  0.125090  1
  Mo  Mo12  1  0.691324  0.308718  0.691245  1
  Mo  Mo13  1  0.558867  0.558800  0.941109  1
  Mo  Mo14  1  0.558836  0.941187  0.558719  1
  Mo  Mo15  1  0.941065  0.941109  0.558938  1
  Mo  Mo16  1  0.941053  0.558917  0.558860  1
  Mo  Mo17  1  0.941034  0.559010  0.941045  1
  Mo  Mo18  1  0.691445  0.308628  0.308700  1
  Mo  Mo19  1  0.308576  0.691442  0.308622  1
  Mo  Mo20  1  0.308610  0.308580  0.691474  1
  Mo  Mo21  1  0.308669  0.691325  0.691375  1
  Mo  Mo22  1  0.691337  0.691201  0.308771  1
  Mo  Mo23  1  0.558943  0.941163  0.941125  1
  N  N24  1  0.624931  0.624990  0.624975  1
  N  N25  1  0.125266  0.624909  0.624898  1
  N  N26  1  0.624913  0.125148  0.624952  1
  N  N27  1  0.624893  0.624949  0.125184  1
