# generated using pymatgen
data_DyHo5Ni13B4Rh
_symmetry_space_group_name_H-M   'P 1'
_cell_length_a   5.06122053
_cell_length_b   5.04803921
_cell_length_c   14.54461303
_cell_angle_alpha   89.97405822
_cell_angle_beta   90.03195736
_cell_angle_gamma   119.94102509
_symmetry_Int_Tables_number   1
_chemical_formula_structural   DyHo5Ni13B4Rh
_chemical_formula_sum   'Dy1 Ho5 Ni13 B4 Rh1'
_cell_volume   322.00935493
_cell_formula_units_Z   1
loop_
 _symmetry_equiv_pos_site_id
 _symmetry_equiv_pos_as_xyz
  1  'x, y, z'
loop_
 _atom_site_type_symbol
 _atom_site_label
 _atom_site_symmetry_multiplicity
 _atom_site_fract_x
 _atom_site_fract_y
 _atom_site_fract_z
 _atom_site_occupancy
  Dy  Dy0  1  0.666841  0.333501  0.032437  1
  Ho  Ho1  1  0.333151  0.666496  0.967545  1
  Ho  Ho2  1  0.333280  0.666576  0.532489  1
  Ho  Ho3  1  0.666721  0.333417  0.467508  1
  Ho  Ho4  1  0.666631  0.333361  0.248765  1
  Ho  Ho5  1  0.333367  0.666637  0.751268  1
  Ni  Ni6  1  0.833744  0.668530  0.653311  1
  Ni  Ni7  1  0.834268  0.166537  0.653548  1
  Ni  Ni8  1  0.331591  0.165934  0.653302  1
  Ni  Ni9  1  0.166269  0.331496  0.346696  1
  Ni  Ni10  1  0.165736  0.833456  0.346459  1
  Ni  Ni11  1  0.668386  0.834054  0.346699  1
  Ni  Ni12  1  0.165955  0.331163  0.147263  1
  Ni  Ni13  1  0.165252  0.833519  0.147252  1
  Ni  Ni14  1  0.668013  0.834638  0.147358  1
  Ni  Ni15  1  0.834077  0.668900  0.852744  1
  Ni  Ni16  1  0.834780  0.166450  0.852760  1
  Ni  Ni17  1  0.331926  0.165330  0.852650  1
  Ni  Ni18  1  0.000008  0.000005  0.999972  1
  B  B19  1  0.666675  0.333607  0.752959  1
  B  B20  1  0.333323  0.666387  0.247034  1
  B  B21  1  0.000143  0.000148  0.752494  1
  B  B22  1  0.999860  0.999856  0.247490  1
  Rh  Rh23  1  0.000003  0.000002  0.500000  1
