# generated using pymatgen
data_Tb3Sc2Pb3
_symmetry_space_group_name_H-M   'P 1'
_cell_length_a   8.91189200
_cell_length_b   8.91189298
_cell_length_c   6.37086300
_cell_angle_alpha   90.00000000
_cell_angle_beta   90.00000000
_cell_angle_gamma   119.99999636
_symmetry_Int_Tables_number   1
_chemical_formula_structural   Tb3Sc2Pb3
_chemical_formula_sum   'Tb6 Sc4 Pb6'
_cell_volume   438.19638564
_cell_formula_units_Z   2
loop_
 _symmetry_equiv_pos_site_id
 _symmetry_equiv_pos_as_xyz
  1  'x, y, z'
loop_
 _atom_site_type_symbol
 _atom_site_label
 _atom_site_symmetry_multiplicity
 _atom_site_fract_x
 _atom_site_fract_y
 _atom_site_fract_z
 _atom_site_occupancy
  Tb  Tb0  1  0.760769  0.760769  0.750000  1
  Tb  Tb1  1  0.239231  0.000000  0.750000  1
  Tb  Tb2  1  0.000000  0.239231  0.750000  1
  Tb  Tb3  1  0.239231  0.239231  0.250000  1
  Tb  Tb4  1  0.760769  0.000000  0.250000  1
  Tb  Tb5  1  0.000000  0.760769  0.250000  1
  Sc  Sc6  1  0.666667  0.333333  0.000000  1
  Sc  Sc7  1  0.333333  0.666667  0.000000  1
  Sc  Sc8  1  0.333333  0.666667  0.500000  1
  Sc  Sc9  1  0.666667  0.333333  0.500000  1
  Pb  Pb10  1  0.398906  0.398906  0.750000  1
  Pb  Pb11  1  0.601094  0.000000  0.750000  1
  Pb  Pb12  1  0.000000  0.601094  0.750000  1
  Pb  Pb13  1  0.601094  0.601094  0.250000  1
  Pb  Pb14  1  0.398906  0.000000  0.250000  1
  Pb  Pb15  1  0.000000  0.398906  0.250000  1
