# generated using pymatgen
data_LaHoEr4(SbO7)2
_symmetry_space_group_name_H-M   'P 1'
_cell_length_a   6.46526250
_cell_length_b   6.46526202
_cell_length_c   7.53794619
_cell_angle_alpha   89.92864873
_cell_angle_beta   90.07134863
_cell_angle_gamma   108.94156433
_symmetry_Int_Tables_number   1
_chemical_formula_structural   LaHoEr4(SbO7)2
_chemical_formula_sum   'La1 Ho1 Er4 Sb2 O14'
_cell_volume   298.02119044
_cell_formula_units_Z   1
loop_
 _symmetry_equiv_pos_site_id
 _symmetry_equiv_pos_as_xyz
  1  'x, y, z'
loop_
 _atom_site_type_symbol
 _atom_site_label
 _atom_site_symmetry_multiplicity
 _atom_site_fract_x
 _atom_site_fract_y
 _atom_site_fract_z
 _atom_site_occupancy
  La  La0  1  0.501914  0.501914  0.500000  1
  Ho  Ho1  1  0.487912  0.487912  0.000000  1
  Er  Er2  1  0.998382  0.469393  0.752108  1
  Er  Er3  1  0.000715  0.531726  0.244171  1
  Er  Er4  1  0.531726  0.000715  0.755829  1
  Er  Er5  1  0.469393  0.998382  0.247892  1
  Sb  Sb6  1  0.000165  0.000165  0.500000  1
  Sb  Sb7  1  0.999969  0.999969  0.000000  1
  O  O8  1  0.641400  0.358271  0.760906  1
  O  O9  1  0.358271  0.641400  0.239094  1
  O  O10  1  0.929103  0.071462  0.749914  1
  O  O11  1  0.071462  0.929103  0.250086  1
  O  O12  1  0.933189  0.677563  0.529560  1
  O  O13  1  0.075673  0.323519  0.028709  1
  O  O14  1  0.323519  0.075673  0.971291  1
  O  O15  1  0.677563  0.933189  0.470440  1
  O  O16  1  0.364617  0.634871  0.762290  1
  O  O17  1  0.634871  0.364617  0.237710  1
  O  O18  1  0.934010  0.680734  0.968144  1
  O  O19  1  0.064331  0.321079  0.467527  1
  O  O20  1  0.321079  0.064331  0.532473  1
  O  O21  1  0.680734  0.934010  0.031856  1
