# generated using pymatgen
data_Mn2B2MoW
_symmetry_space_group_name_H-M   'P 1'
_cell_length_a   5.87069900
_cell_length_b   3.15907200
_cell_length_c   6.94152700
_cell_angle_alpha   90.00000000
_cell_angle_beta   90.00000000
_cell_angle_gamma   90.00000000
_symmetry_Int_Tables_number   1
_chemical_formula_structural   Mn2B2MoW
_chemical_formula_sum   'Mn4 B4 Mo2 W2'
_cell_volume   128.73728785
_cell_formula_units_Z   2
loop_
 _symmetry_equiv_pos_site_id
 _symmetry_equiv_pos_as_xyz
  1  'x, y, z'
loop_
 _atom_site_type_symbol
 _atom_site_label
 _atom_site_symmetry_multiplicity
 _atom_site_fract_x
 _atom_site_fract_y
 _atom_site_fract_z
 _atom_site_occupancy
  Mn  Mn0  1  0.140410  0.250000  0.441867  1
  Mn  Mn1  1  0.640410  0.250000  0.058133  1
  Mn  Mn2  1  0.858560  0.750000  0.557744  1
  Mn  Mn3  1  0.358560  0.750000  0.942256  1
  B  B4  1  0.265645  0.250000  0.135877  1
  B  B5  1  0.765645  0.250000  0.364123  1
  B  B6  1  0.735093  0.750000  0.865433  1
  B  B7  1  0.235093  0.750000  0.634567  1
  Mo  Mo8  1  0.029870  0.250000  0.827196  1
  Mo  Mo9  1  0.529870  0.250000  0.672804  1
  W  W10  1  0.970423  0.750000  0.172402  1
  W  W11  1  0.470423  0.750000  0.327598  1
