# generated using pymatgen
data_CeTh3ZnCu23
_symmetry_space_group_name_H-M   'P 1'
_cell_length_a   5.08527700
_cell_length_b   8.08553113
_cell_length_c   10.10902907
_cell_angle_alpha   89.82392398
_cell_angle_beta   90.00000000
_cell_angle_gamma   90.00000000
_symmetry_Int_Tables_number   1
_chemical_formula_structural   CeTh3ZnCu23
_chemical_formula_sum   'Ce1 Th3 Zn1 Cu23'
_cell_volume   415.65265876
_cell_formula_units_Z   1
loop_
 _symmetry_equiv_pos_site_id
 _symmetry_equiv_pos_as_xyz
  1  'x, y, z'
loop_
 _atom_site_type_symbol
 _atom_site_label
 _atom_site_symmetry_multiplicity
 _atom_site_fract_x
 _atom_site_fract_y
 _atom_site_fract_z
 _atom_site_occupancy
  Ce  Ce0  1  0.250000  0.257550  0.565240  1
  Th  Th1  1  0.750000  0.740424  0.431624  1
  Th  Th2  1  0.250000  0.761129  0.939475  1
  Th  Th3  1  0.750000  0.240342  0.064835  1
  Zn  Zn4  1  0.250000  0.643557  0.640290  1
  Cu  Cu5  1  0.504510  0.564219  0.191206  1
  Cu  Cu6  1  0.005033  0.435177  0.808453  1
  Cu  Cu7  1  0.994226  0.064702  0.309491  1
  Cu  Cu8  1  0.495068  0.936550  0.691683  1
  Cu  Cu9  1  0.750000  0.354473  0.356989  1
  Cu  Cu10  1  0.750000  0.854976  0.142145  1
  Cu  Cu11  1  0.250000  0.145930  0.856884  1
  Cu  Cu12  1  0.750000  0.682382  0.744338  1
  Cu  Cu13  1  0.250000  0.316657  0.255705  1
  Cu  Cu14  1  0.750000  0.183629  0.755422  1
  Cu  Cu15  1  0.250000  0.817367  0.245370  1
  Cu  Cu16  1  0.750000  0.939387  0.902522  1
  Cu  Cu17  1  0.250000  0.061529  0.097905  1
  Cu  Cu18  1  0.750000  0.435873  0.595321  1
  Cu  Cu19  1  0.250000  0.557718  0.403622  1
  Cu  Cu20  1  0.750000  0.597526  0.984509  1
  Cu  Cu21  1  0.250000  0.401259  0.014972  1
  Cu  Cu22  1  0.750000  0.100365  0.516357  1
  Cu  Cu23  1  0.250000  0.906633  0.484809  1
  Cu  Cu24  1  0.505774  0.064702  0.309491  1
  Cu  Cu25  1  0.004932  0.936550  0.691683  1
  Cu  Cu26  1  0.995490  0.564219  0.191206  1
  Cu  Cu27  1  0.494967  0.435177  0.808453  1
