# generated using pymatgen
data_Tb2Er10Co5Sn
_symmetry_space_group_name_H-M   'P 1'
_cell_length_a   8.21403717
_cell_length_b   8.21375104
_cell_length_c   8.21403652
_cell_angle_alpha   106.88185934
_cell_angle_beta   110.83169352
_cell_angle_gamma   110.73210681
_symmetry_Int_Tables_number   1
_chemical_formula_structural   Tb2Er10Co5Sn
_chemical_formula_sum   'Tb2 Er10 Co5 Sn1'
_cell_volume   425.95442841
_cell_formula_units_Z   1
loop_
 _symmetry_equiv_pos_site_id
 _symmetry_equiv_pos_as_xyz
  1  'x, y, z'
loop_
 _atom_site_type_symbol
 _atom_site_label
 _atom_site_symmetry_multiplicity
 _atom_site_fract_x
 _atom_site_fract_y
 _atom_site_fract_z
 _atom_site_occupancy
  Tb  Tb0  1  0.479458  0.291978  0.187468  1
  Tb  Tb1  1  0.104510  0.291978  0.812521  1
  Er  Er2  1  0.895193  0.709162  0.186003  1
  Er  Er3  1  0.523159  0.709162  0.813971  1
  Er  Er4  1  0.306035  0.620537  0.314502  1
  Er  Er5  1  0.306017  0.991514  0.685497  1
  Er  Er6  1  0.693508  0.380399  0.686891  1
  Er  Er7  1  0.693458  0.006566  0.313109  1
  Er  Er8  1  0.192487  0.208518  0.401400  1
  Er  Er9  1  0.807114  0.791097  0.598613  1
  Er  Er10  1  0.192484  0.791097  0.983982  1
  Er  Er11  1  0.807119  0.208518  0.016033  1
  Co  Co12  1  0.501460  0.614334  0.112873  1
  Co  Co13  1  0.501461  0.388585  0.887123  1
  Co  Co14  1  0.375565  0.999107  0.376463  1
  Co  Co15  1  0.622644  0.999107  0.623542  1
  Co  Co16  1  0.998125  0.998136  0.000011  1
  Sn  Sn17  1  0.000206  0.500205  0.500000  1
