# generated using pymatgen
data_Yb5Co4(Si4Ir5)3
_symmetry_space_group_name_H-M   'P 1'
_cell_length_a   12.72250906
_cell_length_b   12.70104865
_cell_length_c   3.91038300
_cell_angle_alpha   90.00000000
_cell_angle_beta   90.00000000
_cell_angle_gamma   120.04451675
_symmetry_Int_Tables_number   1
_chemical_formula_structural   Yb5Co4(Si4Ir5)3
_chemical_formula_sum   'Yb5 Co4 Si12 Ir15'
_cell_volume   546.97475889
_cell_formula_units_Z   1
loop_
 _symmetry_equiv_pos_site_id
 _symmetry_equiv_pos_as_xyz
  1  'x, y, z'
loop_
 _atom_site_type_symbol
 _atom_site_label
 _atom_site_symmetry_multiplicity
 _atom_site_fract_x
 _atom_site_fract_y
 _atom_site_fract_z
 _atom_site_occupancy
  Yb  Yb0  1  0.331887  0.666254  0.000000  1
  Yb  Yb1  1  0.666473  0.333423  0.000000  1
  Yb  Yb2  1  0.181115  0.180785  0.500000  1
  Yb  Yb3  1  0.818839  0.000212  0.500000  1
  Yb  Yb4  1  0.999976  0.817379  0.500000  1
  Co  Co5  1  0.717853  0.717933  0.500000  1
  Co  Co6  1  0.281495  0.997778  0.500000  1
  Co  Co7  1  0.000902  0.283322  0.500000  1
  Co  Co8  1  0.124523  0.641359  0.500000  1
  Si  Si9  1  0.815012  0.815123  0.000000  1
  Si  Si10  1  0.184915  0.997464  0.000000  1
  Si  Si11  1  0.000798  0.185814  0.000000  1
  Si  Si12  1  0.311229  0.836419  0.500000  1
  Si  Si13  1  0.156574  0.478333  0.500000  1
  Si  Si14  1  0.526027  0.684559  0.500000  1
  Si  Si15  1  0.842937  0.316559  0.500000  1
  Si  Si16  1  0.472977  0.157972  0.500000  1
  Si  Si17  1  0.685884  0.526396  0.500000  1
  Si  Si18  1  0.368495  0.368985  0.000000  1
  Si  Si19  1  0.630575  0.000240  0.000000  1
  Si  Si20  1  0.001848  0.631634  0.000000  1
  Ir  Ir21  1  0.193340  0.814253  0.000000  1
  Ir  Ir22  1  0.180902  0.376209  0.000000  1
  Ir  Ir23  1  0.625521  0.806315  0.000000  1
  Ir  Ir24  1  0.820421  0.195591  0.000000  1
  Ir  Ir25  1  0.373961  0.179539  0.000000  1
  Ir  Ir26  1  0.806058  0.624998  0.000000  1
  Ir  Ir27  1  0.357308  0.486677  0.500000  1
  Ir  Ir28  1  0.511483  0.871061  0.500000  1
  Ir  Ir29  1  0.641551  0.128192  0.500000  1
  Ir  Ir30  1  0.486389  0.359051  0.500000  1
  Ir  Ir31  1  0.877529  0.516750  0.500000  1
  Ir  Ir32  1  0.556281  0.556540  0.000000  1
  Ir  Ir33  1  0.442993  0.998930  0.000000  1
  Ir  Ir34  1  0.005252  0.448035  0.000000  1
  Ir  Ir35  1  0.000678  0.999918  0.000000  1
