# generated using pymatgen
data_Nd8MgHgPd23
_symmetry_space_group_name_H-M   'P 1'
_cell_length_a   8.51009000
_cell_length_b   8.63710900
_cell_length_c   8.63710900
_cell_angle_alpha   90.00000000
_cell_angle_beta   90.00000000
_cell_angle_gamma   90.00000000
_symmetry_Int_Tables_number   1
_chemical_formula_structural   Nd8MgHgPd23
_chemical_formula_sum   'Nd8 Mg1 Hg1 Pd23'
_cell_volume   634.84975145
_cell_formula_units_Z   1
loop_
 _symmetry_equiv_pos_site_id
 _symmetry_equiv_pos_as_xyz
  1  'x, y, z'
loop_
 _atom_site_type_symbol
 _atom_site_label
 _atom_site_symmetry_multiplicity
 _atom_site_fract_x
 _atom_site_fract_y
 _atom_site_fract_z
 _atom_site_occupancy
  Nd  Nd0  1  0.249094  0.241254  0.241254  1
  Nd  Nd1  1  0.749256  0.748418  0.748418  1
  Nd  Nd2  1  0.749256  0.748418  0.251582  1
  Nd  Nd3  1  0.749256  0.251582  0.748418  1
  Nd  Nd4  1  0.249094  0.241254  0.758746  1
  Nd  Nd5  1  0.249094  0.758746  0.241254  1
  Nd  Nd6  1  0.249094  0.758746  0.758746  1
  Nd  Nd7  1  0.749256  0.251582  0.251582  1
  Mg  Mg8  1  0.998610  0.000000  0.000000  1
  Hg  Hg9  1  0.260458  0.500000  0.500000  1
  Pd  Pd10  1  0.263700  0.500000  0.000000  1
  Pd  Pd11  1  0.734780  0.500000  0.000000  1
  Pd  Pd12  1  0.003385  0.263557  0.500000  1
  Pd  Pd13  1  0.501571  0.267704  0.000000  1
  Pd  Pd14  1  0.003385  0.736443  0.500000  1
  Pd  Pd15  1  0.501571  0.732296  0.000000  1
  Pd  Pd16  1  0.501571  0.000000  0.267704  1
  Pd  Pd17  1  0.263700  0.000000  0.500000  1
  Pd  Pd18  1  0.501571  0.000000  0.732296  1
  Pd  Pd19  1  0.734780  0.000000  0.500000  1
  Pd  Pd20  1  0.003385  0.500000  0.263557  1
  Pd  Pd21  1  0.003385  0.500000  0.736443  1
  Pd  Pd22  1  0.745758  0.500000  0.500000  1
  Pd  Pd23  1  0.497255  0.251444  0.500000  1
  Pd  Pd24  1  0.497255  0.748556  0.500000  1
  Pd  Pd25  1  0.497255  0.500000  0.251444  1
  Pd  Pd26  1  0.497255  0.500000  0.748556  1
  Pd  Pd27  1  0.313716  0.000000  0.000000  1
  Pd  Pd28  1  0.690178  0.000000  0.000000  1
  Pd  Pd29  1  0.998018  0.306478  0.000000  1
  Pd  Pd30  1  0.998018  0.693522  0.000000  1
  Pd  Pd31  1  0.998018  0.000000  0.306478  1
  Pd  Pd32  1  0.998018  0.000000  0.693522  1
