# generated using pymatgen
data_AlFe7Si15Rh
_symmetry_space_group_name_H-M   'P 1'
_cell_length_a   6.33526862
_cell_length_b   6.34317886
_cell_length_c   7.88601975
_cell_angle_alpha   89.81148355
_cell_angle_beta   89.71399274
_cell_angle_gamma   103.64610458
_symmetry_Int_Tables_number   1
_chemical_formula_structural   AlFe7Si15Rh
_chemical_formula_sum   'Al1 Fe7 Si15 Rh1'
_cell_volume   307.95268572
_cell_formula_units_Z   1
loop_
 _symmetry_equiv_pos_site_id
 _symmetry_equiv_pos_as_xyz
  1  'x, y, z'
loop_
 _atom_site_type_symbol
 _atom_site_label
 _atom_site_symmetry_multiplicity
 _atom_site_fract_x
 _atom_site_fract_y
 _atom_site_fract_z
 _atom_site_occupancy
  Al  Al0  1  0.420533  0.671256  0.225362  1
  Fe  Fe1  1  0.306397  0.297864  0.312142  1
  Fe  Fe2  1  0.692727  0.694835  0.686894  1
  Fe  Fe3  1  0.815180  0.809166  0.187547  1
  Fe  Fe4  1  0.280590  0.718113  0.504886  1
  Fe  Fe5  1  0.212906  0.785322  0.995239  1
  Fe  Fe6  1  0.715655  0.282610  0.499943  1
  Fe  Fe7  1  0.784496  0.218496  0.999998  1
  Si  Si8  1  0.075069  0.817949  0.724295  1
  Si  Si9  1  0.170646  0.915918  0.272955  1
  Si  Si10  1  0.333235  0.593235  0.774389  1
  Si  Si11  1  0.591842  0.335875  0.773386  1
  Si  Si12  1  0.917641  0.168029  0.272841  1
  Si  Si13  1  0.817872  0.077690  0.723558  1
  Si  Si14  1  0.672139  0.417603  0.228012  1
  Si  Si15  1  0.142786  0.409091  0.057364  1
  Si  Si16  1  0.355441  0.093993  0.543341  1
  Si  Si17  1  0.900877  0.646040  0.449140  1
  Si  Si18  1  0.599927  0.856096  0.953009  1
  Si  Si19  1  0.853971  0.599931  0.952738  1
  Si  Si20  1  0.644651  0.899813  0.448758  1
  Si  Si21  1  0.097879  0.358438  0.540282  1
  Si  Si22  1  0.407335  0.140917  0.058331  1
  Rh  Rh23  1  0.190204  0.191720  0.815588  1
