# generated using pymatgen
data_Tb13Ho7(Bi2Pt)4
_symmetry_space_group_name_H-M   'P 1'
_cell_length_a   8.10227812
_cell_length_b   9.05776805
_cell_length_c   12.47446723
_cell_angle_alpha   90.01131871
_cell_angle_beta   90.01909894
_cell_angle_gamma   89.99624528
_symmetry_Int_Tables_number   1
_chemical_formula_structural   Tb13Ho7(Bi2Pt)4
_chemical_formula_sum   'Tb13 Ho7 Bi8 Pt4'
_cell_volume   915.48306464
_cell_formula_units_Z   1
loop_
 _symmetry_equiv_pos_site_id
 _symmetry_equiv_pos_as_xyz
  1  'x, y, z'
loop_
 _atom_site_type_symbol
 _atom_site_label
 _atom_site_symmetry_multiplicity
 _atom_site_fract_x
 _atom_site_fract_y
 _atom_site_fract_z
 _atom_site_occupancy
  Tb  Tb0  1  0.164024  0.750288  0.209806  1
  Tb  Tb1  1  0.336248  0.750085  0.709772  1
  Tb  Tb2  1  0.836121  0.249965  0.790107  1
  Tb  Tb3  1  0.663606  0.249961  0.290479  1
  Tb  Tb4  1  0.451383  0.750327  0.999872  1
  Tb  Tb5  1  0.048381  0.750040  0.499975  1
  Tb  Tb6  1  0.547475  0.249616  0.999934  1
  Tb  Tb7  1  0.951731  0.249989  0.500094  1
  Tb  Tb8  1  0.628207  0.750111  0.303433  1
  Tb  Tb9  1  0.872072  0.750409  0.802923  1
  Tb  Tb10  1  0.371807  0.249968  0.696850  1
  Tb  Tb11  1  0.128566  0.249837  0.197043  1
  Tb  Tb12  1  0.820892  0.546676  0.066535  1
  Ho  Ho13  1  0.677316  0.952884  0.566460  1
  Ho  Ho14  1  0.177437  0.047296  0.933338  1
  Ho  Ho15  1  0.322637  0.452932  0.433669  1
  Ho  Ho16  1  0.177480  0.452915  0.933426  1
  Ho  Ho17  1  0.322662  0.047114  0.433592  1
  Ho  Ho18  1  0.822656  0.952885  0.066367  1
  Ho  Ho19  1  0.677340  0.547148  0.566424  1
  Bi  Bi20  1  0.933065  0.509363  0.327112  1
  Bi  Bi21  1  0.567252  0.990598  0.826776  1
  Bi  Bi22  1  0.067240  0.009546  0.673004  1
  Bi  Bi23  1  0.432027  0.490502  0.173369  1
  Bi  Bi24  1  0.067184  0.490597  0.673180  1
  Bi  Bi25  1  0.432952  0.009489  0.173232  1
  Bi  Bi26  1  0.932887  0.990609  0.326844  1
  Bi  Bi27  1  0.567491  0.509439  0.826909  1
  Pt  Pt28  1  0.423066  0.749981  0.488660  1
  Pt  Pt29  1  0.078066  0.750626  0.988181  1
  Pt  Pt30  1  0.576857  0.249982  0.511437  1
  Pt  Pt31  1  0.923872  0.248825  0.011196  1
