# generated using pymatgen
data_Tb3CeLu12(CdNi)4
_symmetry_space_group_name_H-M   'P 1'
_cell_length_a   9.42041674
_cell_length_b   9.42041710
_cell_length_c   9.42041831
_cell_angle_alpha   59.50026558
_cell_angle_beta   59.50026617
_cell_angle_gamma   59.50026986
_symmetry_Int_Tables_number   1
_chemical_formula_structural   Tb3CeLu12(CdNi)4
_chemical_formula_sum   'Tb3 Ce1 Lu12 Cd4 Ni4'
_cell_volume   584.42839884
_cell_formula_units_Z   1
loop_
 _symmetry_equiv_pos_site_id
 _symmetry_equiv_pos_as_xyz
  1  'x, y, z'
loop_
 _atom_site_type_symbol
 _atom_site_label
 _atom_site_symmetry_multiplicity
 _atom_site_fract_x
 _atom_site_fract_y
 _atom_site_fract_z
 _atom_site_occupancy
  Tb  Tb0  1  0.352076  0.352076  0.944127  1
  Tb  Tb1  1  0.352076  0.944127  0.352076  1
  Tb  Tb2  1  0.944127  0.352076  0.352076  1
  Ce  Ce3  1  0.345772  0.345772  0.345772  1
  Lu  Lu4  1  0.813206  0.187471  0.187471  1
  Lu  Lu5  1  0.187918  0.814120  0.814120  1
  Lu  Lu6  1  0.187471  0.813206  0.187471  1
  Lu  Lu7  1  0.814120  0.187918  0.814120  1
  Lu  Lu8  1  0.187471  0.187471  0.813206  1
  Lu  Lu9  1  0.814120  0.814120  0.187918  1
  Lu  Lu10  1  0.937345  0.564748  0.564748  1
  Lu  Lu11  1  0.564158  0.935421  0.935421  1
  Lu  Lu12  1  0.564748  0.937345  0.564748  1
  Lu  Lu13  1  0.935421  0.564158  0.935421  1
  Lu  Lu14  1  0.564748  0.564748  0.937345  1
  Lu  Lu15  1  0.935421  0.935421  0.564158  1
  Cd  Cd16  1  0.582627  0.582627  0.582627  1
  Cd  Cd17  1  0.580873  0.580873  0.251998  1
  Cd  Cd18  1  0.580873  0.251998  0.580873  1
  Cd  Cd19  1  0.251998  0.580873  0.580873  1
  Ni  Ni20  1  0.142787  0.142787  0.142787  1
  Ni  Ni21  1  0.143586  0.143586  0.573467  1
  Ni  Ni22  1  0.143586  0.573467  0.143586  1
  Ni  Ni23  1  0.573467  0.143586  0.143586  1
