# generated using pymatgen
data_Dy3Er4LuPt4
_symmetry_space_group_name_H-M   'P 1'
_cell_length_a   4.75508900
_cell_length_b   7.12550711
_cell_length_c   8.71436388
_cell_angle_alpha   90.00089732
_cell_angle_beta   90.00000000
_cell_angle_gamma   90.00000000
_symmetry_Int_Tables_number   1
_chemical_formula_structural   Dy3Er4LuPt4
_chemical_formula_sum   'Dy3 Er4 Lu1 Pt4'
_cell_volume   295.26374116
_cell_formula_units_Z   1
loop_
 _symmetry_equiv_pos_site_id
 _symmetry_equiv_pos_as_xyz
  1  'x, y, z'
loop_
 _atom_site_type_symbol
 _atom_site_label
 _atom_site_symmetry_multiplicity
 _atom_site_fract_x
 _atom_site_fract_y
 _atom_site_fract_z
 _atom_site_occupancy
  Dy  Dy0  1  0.250000  0.511160  0.171380  1
  Dy  Dy1  1  0.750000  0.989078  0.668700  1
  Dy  Dy2  1  0.750000  0.488619  0.829914  1
  Er  Er3  1  0.250000  0.144336  0.921780  1
  Er  Er4  1  0.250000  0.643547  0.577434  1
  Er  Er5  1  0.750000  0.856363  0.079867  1
  Er  Er6  1  0.250000  0.012544  0.331370  1
  Lu  Lu7  1  0.750000  0.354854  0.421562  1
  Pt  Pt8  1  0.250000  0.244013  0.591062  1
  Pt  Pt9  1  0.250000  0.743307  0.906470  1
  Pt  Pt10  1  0.750000  0.755462  0.405331  1
  Pt  Pt11  1  0.750000  0.256718  0.095132  1
