# generated using pymatgen
data_Y3Tm(Co5P3)4
_symmetry_space_group_name_H-M   'P 1'
_cell_length_a   3.64285000
_cell_length_b   10.26573077
_cell_length_c   11.72337609
_cell_angle_alpha   90.02943061
_cell_angle_beta   90.00000000
_cell_angle_gamma   90.00000000
_symmetry_Int_Tables_number   1
_chemical_formula_structural   Y3Tm(Co5P3)4
_chemical_formula_sum   'Y3 Tm1 Co20 P12'
_cell_volume   438.41337950
_cell_formula_units_Z   1
loop_
 _symmetry_equiv_pos_site_id
 _symmetry_equiv_pos_as_xyz
  1  'x, y, z'
loop_
 _atom_site_type_symbol
 _atom_site_label
 _atom_site_symmetry_multiplicity
 _atom_site_fract_x
 _atom_site_fract_y
 _atom_site_fract_z
 _atom_site_occupancy
  Y  Y0  1  0.750000  0.082879  0.797415  1
  Y  Y1  1  0.750000  0.416914  0.297382  1
  Y  Y2  1  0.250000  0.583082  0.702623  1
  Tm  Tm3  1  0.250000  0.917263  0.202262  1
  Co  Co4  1  0.250000  0.783631  0.491784  1
  Co  Co5  1  0.750000  0.216343  0.507923  1
  Co  Co6  1  0.750000  0.283303  0.008608  1
  Co  Co7  1  0.250000  0.716790  0.992240  1
  Co  Co8  1  0.250000  0.092779  0.988867  1
  Co  Co9  1  0.750000  0.906715  0.013114  1
  Co  Co10  1  0.750000  0.593271  0.511495  1
  Co  Co11  1  0.250000  0.406715  0.488442  1
  Co  Co12  1  0.250000  0.278476  0.676492  1
  Co  Co13  1  0.750000  0.722079  0.323137  1
  Co  Co14  1  0.750000  0.778900  0.823726  1
  Co  Co15  1  0.250000  0.221017  0.176598  1
  Co  Co16  1  0.250000  0.618086  0.198769  1
  Co  Co17  1  0.750000  0.382629  0.801497  1
  Co  Co18  1  0.750000  0.116233  0.300690  1
  Co  Co19  1  0.250000  0.882715  0.698441  1
  Co  Co20  1  0.250000  0.031463  0.430734  1
  Co  Co21  1  0.750000  0.967780  0.567459  1
  Co  Co22  1  0.750000  0.532730  0.068494  1
  Co  Co23  1  0.250000  0.468063  0.931927  1
  P  P24  1  0.250000  0.081388  0.611348  1
  P  P25  1  0.750000  0.918550  0.386722  1
  P  P26  1  0.750000  0.581641  0.888309  1
  P  P27  1  0.250000  0.418578  0.111929  1
  P  P28  1  0.250000  0.228909  0.370547  1
  P  P29  1  0.750000  0.771046  0.629473  1
  P  P30  1  0.750000  0.730399  0.130222  1
  P  P31  1  0.250000  0.270849  0.870704  1
  P  P32  1  0.250000  0.897821  0.891581  1
  P  P33  1  0.750000  0.101066  0.108985  1
  P  P34  1  0.750000  0.397739  0.608518  1
  P  P35  1  0.250000  0.602163  0.391545  1
