# generated using pymatgen
data_Tb8TaTi10Si16Mo
_symmetry_space_group_name_H-M   'P 1'
_cell_length_a   7.05497651
_cell_length_b   7.05497652
_cell_length_c   12.98606761
_cell_angle_alpha   90.00070209
_cell_angle_beta   89.99929904
_cell_angle_gamma   90.09643935
_symmetry_Int_Tables_number   1
_chemical_formula_structural   Tb8TaTi10Si16Mo
_chemical_formula_sum   'Tb8 Ta1 Ti10 Si16 Mo1'
_cell_volume   646.35064921
_cell_formula_units_Z   1
loop_
 _symmetry_equiv_pos_site_id
 _symmetry_equiv_pos_as_xyz
  1  'x, y, z'
loop_
 _atom_site_type_symbol
 _atom_site_label
 _atom_site_symmetry_multiplicity
 _atom_site_fract_x
 _atom_site_fract_y
 _atom_site_fract_z
 _atom_site_occupancy
  Tb  Tb0  1  0.340749  0.001713  0.467341  1
  Tb  Tb1  1  0.498464  0.838905  0.715780  1
  Tb  Tb2  1  0.502616  0.160134  0.216922  1
  Tb  Tb3  1  0.838905  0.498464  0.284220  1
  Tb  Tb4  1  0.160134  0.502616  0.783078  1
  Tb  Tb5  1  0.660106  0.996948  0.967144  1
  Tb  Tb6  1  0.001713  0.340749  0.532659  1
  Tb  Tb7  1  0.996948  0.660106  0.032856  1
  Ta  Ta8  1  0.326539  0.326539  0.000000  1
  Ti  Ti9  1  0.173047  0.826188  0.250251  1
  Ti  Ti10  1  0.826188  0.173047  0.749749  1
  Ti  Ti11  1  0.153960  0.009068  0.876673  1
  Ti  Ti12  1  0.491515  0.652278  0.125791  1
  Ti  Ti13  1  0.508793  0.347977  0.625028  1
  Ti  Ti14  1  0.652278  0.491515  0.874209  1
  Ti  Ti15  1  0.347977  0.508793  0.374972  1
  Ti  Ti16  1  0.845622  0.990324  0.377100  1
  Ti  Ti17  1  0.009068  0.153960  0.123327  1
  Ti  Ti18  1  0.990324  0.845622  0.622900  1
  Si  Si19  1  0.202018  0.129299  0.684995  1
  Si  Si20  1  0.370691  0.702112  0.935054  1
  Si  Si21  1  0.628648  0.299192  0.435354  1
  Si  Si22  1  0.702112  0.370691  0.064946  1
  Si  Si23  1  0.299192  0.628648  0.564646  1
  Si  Si24  1  0.798127  0.870656  0.185165  1
  Si  Si25  1  0.129299  0.202018  0.315005  1
  Si  Si26  1  0.870656  0.798127  0.814835  1
  Si  Si27  1  0.291139  0.953212  0.064947  1
  Si  Si28  1  0.547249  0.791086  0.315468  1
  Si  Si29  1  0.454159  0.208149  0.814349  1
  Si  Si30  1  0.791086  0.547249  0.684532  1
  Si  Si31  1  0.208149  0.454159  0.185651  1
  Si  Si32  1  0.709477  0.046152  0.564793  1
  Si  Si33  1  0.953212  0.291139  0.935053  1
  Si  Si34  1  0.046152  0.709477  0.435207  1
  Mo  Mo35  1  0.673690  0.673690  0.500000  1
