# generated using pymatgen
data_PrGa3Cu
_symmetry_space_group_name_H-M   'P 1'
_cell_length_a   6.04073466
_cell_length_b   6.04073526
_cell_length_c   6.04073497
_cell_angle_alpha   138.56924434
_cell_angle_beta   138.56925536
_cell_angle_gamma   60.03227294
_symmetry_Int_Tables_number   1
_chemical_formula_structural   PrGa3Cu
_chemical_formula_sum   'Pr1 Ga3 Cu1'
_cell_volume   95.52629476
_cell_formula_units_Z   1
loop_
 _symmetry_equiv_pos_site_id
 _symmetry_equiv_pos_as_xyz
  1  'x, y, z'
loop_
 _atom_site_type_symbol
 _atom_site_label
 _atom_site_symmetry_multiplicity
 _atom_site_fract_x
 _atom_site_fract_y
 _atom_site_fract_z
 _atom_site_occupancy
  Pr  Pr0  1  0.992792  0.992792  0.000000  1
  Ga  Ga1  1  0.397181  0.397181  0.000000  1
  Ga  Ga2  1  0.742024  0.242024  0.500000  1
  Ga  Ga3  1  0.242024  0.742024  0.500000  1
  Cu  Cu4  1  0.625979  0.625979  0.000000  1
