# generated using pymatgen
data_SrNb6AlS12
_symmetry_space_group_name_H-M   'P 1'
_cell_length_a   5.82072700
_cell_length_b   5.82072686
_cell_length_c   13.56221100
_cell_angle_alpha   90.00000000
_cell_angle_beta   90.00000000
_cell_angle_gamma   120.00000648
_symmetry_Int_Tables_number   1
_chemical_formula_structural   SrNb6AlS12
_chemical_formula_sum   'Sr1 Nb6 Al1 S12'
_cell_volume   397.93812676
_cell_formula_units_Z   1
loop_
 _symmetry_equiv_pos_site_id
 _symmetry_equiv_pos_as_xyz
  1  'x, y, z'
loop_
 _atom_site_type_symbol
 _atom_site_label
 _atom_site_symmetry_multiplicity
 _atom_site_fract_x
 _atom_site_fract_y
 _atom_site_fract_z
 _atom_site_occupancy
  Sr  Sr0  1  0.333333  0.666667  0.250000  1
  Nb  Nb1  1  0.000000  0.000000  0.528859  1
  Nb  Nb2  1  0.000000  0.000000  0.971141  1
  Nb  Nb3  1  0.333333  0.666667  0.971663  1
  Nb  Nb4  1  0.666667  0.333333  0.974165  1
  Nb  Nb5  1  0.666667  0.333333  0.525835  1
  Nb  Nb6  1  0.333333  0.666667  0.528337  1
  Al  Al7  1  0.666667  0.333333  0.750000  1
  S  S8  1  0.330892  0.329176  0.411815  1
  S  S9  1  0.670824  0.001715  0.411815  1
  S  S10  1  0.998285  0.669108  0.411815  1
  S  S11  1  0.333111  0.333359  0.644214  1
  S  S12  1  0.000248  0.666889  0.644214  1
  S  S13  1  0.666641  0.999752  0.644214  1
  S  S14  1  0.666641  0.666889  0.855786  1
  S  S15  1  0.333111  0.999752  0.855786  1
  S  S16  1  0.000248  0.333359  0.855786  1
  S  S17  1  0.670824  0.669108  0.088185  1
  S  S18  1  0.998285  0.329176  0.088185  1
  S  S19  1  0.330892  0.001715  0.088185  1
