# generated using pymatgen
data_Ce4Fe2BiB6
_symmetry_space_group_name_H-M   'P 1'
_cell_length_a   5.31225182
_cell_length_b   5.31225264
_cell_length_c   8.46901079
_cell_angle_alpha   71.72193449
_cell_angle_beta   71.72194748
_cell_angle_gamma   59.99999153
_symmetry_Int_Tables_number   1
_chemical_formula_structural   Ce4Fe2BiB6
_chemical_formula_sum   'Ce4 Fe2 Bi1 B6'
_cell_volume   192.92693911
_cell_formula_units_Z   1
loop_
 _symmetry_equiv_pos_site_id
 _symmetry_equiv_pos_as_xyz
  1  'x, y, z'
loop_
 _atom_site_type_symbol
 _atom_site_label
 _atom_site_symmetry_multiplicity
 _atom_site_fract_x
 _atom_site_fract_y
 _atom_site_fract_z
 _atom_site_occupancy
  Ce  Ce0  1  0.747000  0.747000  0.759000  1
  Ce  Ce1  1  0.253000  0.253000  0.241000  1
  Ce  Ce2  1  0.586557  0.586557  0.240329  1
  Ce  Ce3  1  0.413443  0.413443  0.759671  1
  Fe  Fe4  1  0.881542  0.881542  0.355377  1
  Fe  Fe5  1  0.118458  0.118458  0.644624  1
  Bi  Bi6  1  0.000000  0.000000  0.000000  1
  B  B7  1  0.500000  0.168543  0.500000  1
  B  B8  1  0.831457  0.500000  0.500000  1
  B  B9  1  0.168543  0.831457  0.500000  1
  B  B10  1  0.168543  0.500000  0.500000  1
  B  B11  1  0.831457  0.168543  0.500000  1
  B  B12  1  0.500000  0.831457  0.500000  1
