# generated using pymatgen
data_Pr8Lu11ScSi15Au
_symmetry_space_group_name_H-M   'P 1'
_cell_length_a   7.38971191
_cell_length_b   7.74276183
_cell_length_c   14.68981500
_cell_angle_alpha   90.00000000
_cell_angle_beta   90.00000000
_cell_angle_gamma   90.64704694
_symmetry_Int_Tables_number   1
_chemical_formula_structural   Pr8Lu11ScSi15Au
_chemical_formula_sum   'Pr8 Lu11 Sc1 Si15 Au1'
_cell_volume   840.45030778
_cell_formula_units_Z   1
loop_
 _symmetry_equiv_pos_site_id
 _symmetry_equiv_pos_as_xyz
  1  'x, y, z'
loop_
 _atom_site_type_symbol
 _atom_site_label
 _atom_site_symmetry_multiplicity
 _atom_site_fract_x
 _atom_site_fract_y
 _atom_site_fract_z
 _atom_site_occupancy
  Pr  Pr0  1  0.018363  0.178644  0.399353  1
  Pr  Pr1  1  0.515789  0.323455  0.399810  1
  Pr  Pr2  1  0.487967  0.667274  0.908352  1
  Pr  Pr3  1  0.487967  0.667274  0.591648  1
  Pr  Pr4  1  0.981547  0.824631  0.593060  1
  Pr  Pr5  1  0.981547  0.824631  0.906940  1
  Pr  Pr6  1  0.515789  0.323455  0.100190  1
  Pr  Pr7  1  0.018363  0.178644  0.100647  1
  Lu  Lu8  1  0.322504  0.181850  0.621731  1
  Lu  Lu9  1  0.676740  0.827460  0.373645  1
  Lu  Lu10  1  0.650888  0.982685  0.750000  1
  Lu  Lu11  1  0.179048  0.676126  0.375600  1
  Lu  Lu12  1  0.824980  0.320432  0.878665  1
  Lu  Lu13  1  0.824980  0.320432  0.621335  1
  Lu  Lu14  1  0.842882  0.495956  0.250000  1
  Lu  Lu15  1  0.322504  0.181850  0.878269  1
  Lu  Lu16  1  0.179048  0.676126  0.124400  1
  Lu  Lu17  1  0.676740  0.827460  0.126355  1
  Lu  Lu18  1  0.161455  0.508969  0.750000  1
  Sc  Sc19  1  0.343378  0.005940  0.250000  1
  Si  Si20  1  0.471472  0.619459  0.250000  1
  Si  Si21  1  0.024003  0.122630  0.750000  1
  Si  Si22  1  0.534905  0.382124  0.750000  1
  Si  Si23  1  0.149070  0.468388  0.538924  1
  Si  Si24  1  0.980454  0.883012  0.250000  1
  Si  Si25  1  0.714378  0.125258  0.250000  1
  Si  Si26  1  0.846918  0.534561  0.041250  1
  Si  Si27  1  0.350716  0.966462  0.040077  1
  Si  Si28  1  0.149070  0.468388  0.961076  1
  Si  Si29  1  0.647175  0.033317  0.537674  1
  Si  Si30  1  0.350716  0.966462  0.459923  1
  Si  Si31  1  0.846918  0.534561  0.458750  1
  Si  Si32  1  0.777042  0.614338  0.750000  1
  Si  Si33  1  0.222396  0.376505  0.250000  1
  Si  Si34  1  0.647175  0.033317  0.962326  1
  Au  Au35  1  0.275111  0.877925  0.750000  1
