# generated using pymatgen
data_Rb3Na2UAs3
_symmetry_space_group_name_H-M   'P 1'
_cell_length_a   11.28868900
_cell_length_b   11.28868819
_cell_length_c   16.47201600
_cell_angle_alpha   90.00000000
_cell_angle_beta   90.00000000
_cell_angle_gamma   142.92125709
_symmetry_Int_Tables_number   1
_chemical_formula_structural   Rb3Na2UAs3
_chemical_formula_sum   'Rb12 Na8 U4 As12'
_cell_volume   1265.57444390
_cell_formula_units_Z   4
loop_
 _symmetry_equiv_pos_site_id
 _symmetry_equiv_pos_as_xyz
  1  'x, y, z'
loop_
 _atom_site_type_symbol
 _atom_site_label
 _atom_site_symmetry_multiplicity
 _atom_site_fract_x
 _atom_site_fract_y
 _atom_site_fract_z
 _atom_site_occupancy
  Rb  Rb0  1  0.606330  0.944553  0.825042  1
  Rb  Rb1  1  0.298352  0.298352  0.313637  1
  Rb  Rb2  1  0.201648  0.201648  0.813637  1
  Rb  Rb3  1  0.701648  0.701648  0.686363  1
  Rb  Rb4  1  0.444553  0.106330  0.674958  1
  Rb  Rb5  1  0.893670  0.555447  0.325042  1
  Rb  Rb6  1  0.055447  0.393670  0.174958  1
  Rb  Rb7  1  0.393670  0.055447  0.174958  1
  Rb  Rb8  1  0.555447  0.893670  0.325042  1
  Rb  Rb9  1  0.106330  0.444553  0.674958  1
  Rb  Rb10  1  0.944553  0.606330  0.825042  1
  Rb  Rb11  1  0.798352  0.798352  0.186363  1
  Na  Na12  1  0.081332  0.918668  0.000000  1
  Na  Na13  1  0.581332  0.418668  0.500000  1
  Na  Na14  1  0.918668  0.081332  0.000000  1
  Na  Na15  1  0.752625  0.247375  0.000000  1
  Na  Na16  1  0.747375  0.252625  0.500000  1
  Na  Na17  1  0.247375  0.752625  0.000000  1
  Na  Na18  1  0.252625  0.747375  0.500000  1
  Na  Na19  1  0.418668  0.581332  0.500000  1
  U  U20  1  0.073933  0.926067  0.500000  1
  U  U21  1  0.426067  0.573933  0.000000  1
  U  U22  1  0.926067  0.073933  0.500000  1
  U  U23  1  0.573933  0.426067  0.000000  1
  As  As24  1  0.059715  0.368593  0.405575  1
  As  As25  1  0.868593  0.559715  0.094425  1
  As  As26  1  0.440285  0.131407  0.905575  1
  As  As27  1  0.631407  0.940285  0.594425  1
  As  As28  1  0.940285  0.631407  0.594425  1
  As  As29  1  0.131407  0.440285  0.905575  1
  As  As30  1  0.559715  0.868593  0.094425  1
  As  As31  1  0.368593  0.059715  0.405575  1
  As  As32  1  0.234082  0.234082  0.601574  1
  As  As33  1  0.734082  0.734082  0.898426  1
  As  As34  1  0.265918  0.265918  0.101574  1
  As  As35  1  0.765918  0.765918  0.398426  1
