# generated using pymatgen
data_Y9Th(PPb3)2
_symmetry_space_group_name_H-M   'P 1'
_cell_length_a   9.23277009
_cell_length_b   9.23277039
_cell_length_c   6.82399300
_cell_angle_alpha   90.00000000
_cell_angle_beta   90.00000000
_cell_angle_gamma   120.20019588
_symmetry_Int_Tables_number   1
_chemical_formula_structural   Y9Th(PPb3)2
_chemical_formula_sum   'Y9 Th1 P2 Pb6'
_cell_volume   502.75177877
_cell_formula_units_Z   1
loop_
 _symmetry_equiv_pos_site_id
 _symmetry_equiv_pos_as_xyz
  1  'x, y, z'
loop_
 _atom_site_type_symbol
 _atom_site_label
 _atom_site_symmetry_multiplicity
 _atom_site_fract_x
 _atom_site_fract_y
 _atom_site_fract_z
 _atom_site_occupancy
  Y  Y0  1  0.238793  0.000929  0.750000  1
  Y  Y1  1  0.000929  0.238793  0.750000  1
  Y  Y2  1  0.237795  0.237795  0.250000  1
  Y  Y3  1  0.762515  0.000461  0.250000  1
  Y  Y4  1  0.000461  0.762515  0.250000  1
  Y  Y5  1  0.667000  0.332915  0.000678  1
  Y  Y6  1  0.332915  0.667000  0.000678  1
  Y  Y7  1  0.332915  0.667000  0.499322  1
  Y  Y8  1  0.667000  0.332915  0.499322  1
  Th  Th9  1  0.760647  0.760647  0.750000  1
  P  P10  1  0.001600  0.001600  0.001433  1
  P  P11  1  0.001600  0.001600  0.498567  1
  Pb  Pb12  1  0.397561  0.397561  0.750000  1
  Pb  Pb13  1  0.597405  0.002463  0.750000  1
  Pb  Pb14  1  0.002463  0.597405  0.750000  1
  Pb  Pb15  1  0.598900  0.598900  0.250000  1
  Pb  Pb16  1  0.399976  0.999526  0.250000  1
  Pb  Pb17  1  0.999526  0.399976  0.250000  1
