# generated using pymatgen
data_Ho4Lu4Sc11Si16Ru
_symmetry_space_group_name_H-M   'P 1'
_cell_length_a   6.96855210
_cell_length_b   7.34271949
_cell_length_c   13.81859037
_cell_angle_alpha   90.01419317
_cell_angle_beta   89.97750296
_cell_angle_gamma   90.03957077
_symmetry_Int_Tables_number   1
_chemical_formula_structural   Ho4Lu4Sc11Si16Ru
_chemical_formula_sum   'Ho4 Lu4 Sc11 Si16 Ru1'
_cell_volume   707.07109201
_cell_formula_units_Z   1
loop_
 _symmetry_equiv_pos_site_id
 _symmetry_equiv_pos_as_xyz
  1  'x, y, z'
loop_
 _atom_site_type_symbol
 _atom_site_label
 _atom_site_symmetry_multiplicity
 _atom_site_fract_x
 _atom_site_fract_y
 _atom_site_fract_z
 _atom_site_occupancy
  Ho  Ho0  1  0.512470  0.321935  0.093134  1
  Ho  Ho1  1  0.013089  0.179014  0.407928  1
  Ho  Ho2  1  0.512917  0.322584  0.405228  1
  Ho  Ho3  1  0.489165  0.674074  0.596916  1
  Lu  Lu4  1  0.013427  0.179796  0.091859  1
  Lu  Lu5  1  0.990728  0.816160  0.902157  1
  Lu  Lu6  1  0.488689  0.674363  0.902970  1
  Lu  Lu7  1  0.990771  0.816232  0.599441  1
  Sc  Sc8  1  0.842959  0.496129  0.249305  1
  Sc  Sc9  1  0.344638  0.004356  0.249168  1
  Sc  Sc10  1  0.652903  0.994293  0.750413  1
  Sc  Sc11  1  0.321985  0.175341  0.628264  1
  Sc  Sc12  1  0.674591  0.825911  0.373946  1
  Sc  Sc13  1  0.174123  0.673886  0.376817  1
  Sc  Sc14  1  0.674371  0.825536  0.124544  1
  Sc  Sc15  1  0.825769  0.330461  0.630357  1
  Sc  Sc16  1  0.322296  0.175333  0.872482  1
  Sc  Sc17  1  0.825271  0.329915  0.871119  1
  Sc  Sc18  1  0.173763  0.673663  0.122441  1
  Si  Si19  1  0.023739  0.104113  0.750852  1
  Si  Si20  1  0.976213  0.888570  0.249273  1
  Si  Si21  1  0.470994  0.614921  0.249241  1
  Si  Si22  1  0.511937  0.398518  0.750968  1
  Si  Si23  1  0.280673  0.856704  0.750979  1
  Si  Si24  1  0.720632  0.131800  0.248714  1
  Si  Si25  1  0.215719  0.369664  0.248970  1
  Si  Si26  1  0.793445  0.632528  0.751187  1
  Si  Si27  1  0.155759  0.467335  0.548713  1
  Si  Si28  1  0.843718  0.537395  0.464794  1
  Si  Si29  1  0.346125  0.965142  0.463166  1
  Si  Si30  1  0.844091  0.535542  0.035685  1
  Si  Si31  1  0.660392  0.034420  0.540561  1
  Si  Si32  1  0.157802  0.467532  0.951097  1
  Si  Si33  1  0.659333  0.032436  0.959006  1
  Si  Si34  1  0.343568  0.964191  0.036287  1
  Ru  Ru35  1  0.151937  0.510211  0.752016  1
