# generated using pymatgen
data_Bi10Mo(SeO12)2
_symmetry_space_group_name_H-M   'P 1'
_cell_length_a   12.32963881
_cell_length_b   12.27367852
_cell_length_c   8.76826175
_cell_angle_alpha   83.85336062
_cell_angle_beta   83.77762503
_cell_angle_gamma   27.02510723
_symmetry_Int_Tables_number   1
_chemical_formula_structural   Bi10Mo(SeO12)2
_chemical_formula_sum   'Bi10 Mo1 Se2 O24'
_cell_volume   599.20401531
_cell_formula_units_Z   1
loop_
 _symmetry_equiv_pos_site_id
 _symmetry_equiv_pos_as_xyz
  1  'x, y, z'
loop_
 _atom_site_type_symbol
 _atom_site_label
 _atom_site_symmetry_multiplicity
 _atom_site_fract_x
 _atom_site_fract_y
 _atom_site_fract_z
 _atom_site_occupancy
  Bi  Bi0  1  0.461580  0.464037  0.317761  1
  Bi  Bi1  1  0.606360  0.781329  0.453990  1
  Bi  Bi2  1  0.521897  0.546744  0.676327  1
  Bi  Bi3  1  0.212512  0.267020  0.188088  1
  Bi  Bi4  1  0.066585  0.087639  0.411308  1
  Bi  Bi5  1  0.218273  0.391522  0.546746  1
  Bi  Bi6  1  0.130374  0.162770  0.754381  1
  Bi  Bi7  1  0.926545  0.923023  0.587713  1
  Bi  Bi8  1  0.826380  0.878610  0.246398  1
  Bi  Bi9  1  0.734121  0.786370  0.812551  1
  Mo  Mo10  1  0.317850  0.430820  0.926813  1
  Se  Se11  1  0.982163  0.008989  0.993573  1
  Se  Se12  1  0.585893  0.679067  0.081105  1
  O  O13  1  0.896764  0.756244  0.644590  1
  O  O14  1  0.389279  0.954508  0.019597  1
  O  O15  1  0.239031  0.111647  0.361907  1
  O  O16  1  0.191912  0.905984  0.906723  1
  O  O17  1  0.707431  0.294817  0.495312  1
  O  O18  1  0.012326  0.541827  0.348112  1
  O  O19  1  0.229400  0.774949  0.495875  1
  O  O20  1  0.854722  0.175398  0.144757  1
  O  O21  1  0.710651  0.522619  0.924177  1
  O  O22  1  0.490997  0.285267  0.096705  1
  O  O23  1  0.455253  0.196783  0.836734  1
  O  O24  1  0.297380  0.557723  0.770044  1
  O  O25  1  0.657858  0.135590  0.407241  1
  O  O26  1  0.796046  0.555632  0.174697  1
  O  O27  1  0.458733  0.699944  0.211206  1
  O  O28  1  0.865594  0.339025  0.601484  1
  O  O29  1  0.109331  0.775659  0.065805  1
  O  O30  1  0.355765  0.861947  0.582720  1
  O  O31  1  0.983020  0.464596  0.685145  1
  O  O32  1  0.144315  0.641056  0.416502  1
  O  O33  1  0.530695  0.021865  0.311907  1
  O  O34  1  0.785322  0.162002  0.859361  1
  O  O35  1  0.030626  0.627174  0.988091  1
  O  O36  1  0.461596  0.985225  0.654555  1
