# generated using pymatgen
data_Gd6LuRhO12
_symmetry_space_group_name_H-M   'P 1'
_cell_length_a   6.68789020
_cell_length_b   6.68789008
_cell_length_c   6.68788957
_cell_angle_alpha   94.33927636
_cell_angle_beta   94.33927939
_cell_angle_gamma   94.33928937
_symmetry_Int_Tables_number   1
_chemical_formula_structural   Gd6LuRhO12
_chemical_formula_sum   'Gd6 Lu1 Rh1 O12'
_cell_volume   296.42450329
_cell_formula_units_Z   1
loop_
 _symmetry_equiv_pos_site_id
 _symmetry_equiv_pos_as_xyz
  1  'x, y, z'
loop_
 _atom_site_type_symbol
 _atom_site_label
 _atom_site_symmetry_multiplicity
 _atom_site_fract_x
 _atom_site_fract_y
 _atom_site_fract_z
 _atom_site_occupancy
  Gd  Gd0  1  0.569310  0.082448  0.262303  1
  Gd  Gd1  1  0.082448  0.262303  0.569310  1
  Gd  Gd2  1  0.737697  0.430690  0.917552  1
  Gd  Gd3  1  0.262303  0.569310  0.082448  1
  Gd  Gd4  1  0.917552  0.737697  0.430690  1
  Gd  Gd5  1  0.430690  0.917552  0.737697  1
  Lu  Lu6  1  0.000000  0.000000  0.000000  1
  Rh  Rh7  1  0.500000  0.500000  0.500000  1
  O  O8  1  0.687506  0.084210  0.933946  1
  O  O9  1  0.915790  0.066054  0.312494  1
  O  O10  1  0.414288  0.198892  0.543832  1
  O  O11  1  0.066054  0.312494  0.915790  1
  O  O12  1  0.543832  0.414288  0.198892  1
  O  O13  1  0.801108  0.456168  0.585712  1
  O  O14  1  0.198892  0.543832  0.414288  1
  O  O15  1  0.456168  0.585712  0.801108  1
  O  O16  1  0.933946  0.687506  0.084210  1
  O  O17  1  0.585712  0.801108  0.456168  1
  O  O18  1  0.084210  0.933946  0.687506  1
  O  O19  1  0.312494  0.915790  0.066054  1
