# generated using pymatgen
data_RbAs2RuRh
_symmetry_space_group_name_H-M   'P 1'
_cell_length_a   7.60466099
_cell_length_b   7.60466098
_cell_length_c   7.60466103
_cell_angle_alpha   148.81585695
_cell_angle_beta   148.81585842
_cell_angle_gamma   44.68242574
_symmetry_Int_Tables_number   1
_chemical_formula_structural   RbAs2RuRh
_chemical_formula_sum   'Rb1 As2 Ru1 Rh1'
_cell_volume   117.55104892
_cell_formula_units_Z   1
loop_
 _symmetry_equiv_pos_site_id
 _symmetry_equiv_pos_as_xyz
  1  'x, y, z'
loop_
 _atom_site_type_symbol
 _atom_site_label
 _atom_site_symmetry_multiplicity
 _atom_site_fract_x
 _atom_site_fract_y
 _atom_site_fract_z
 _atom_site_occupancy
  Rb  Rb0  1  0.000000  0.000000  0.000000  1
  As  As1  1  0.345186  0.345186  0.000000  1
  As  As2  1  0.654814  0.654814  0.000000  1
  Ru  Ru3  1  0.750000  0.250000  0.500000  1
  Rh  Rh4  1  0.250000  0.750000  0.500000  1
