# generated using pymatgen
data_SmHoCo6(SiB)2
_symmetry_space_group_name_H-M   'P 1'
_cell_length_a   5.14351000
_cell_length_b   5.14350972
_cell_length_c   6.43371800
_cell_angle_alpha   90.00000000
_cell_angle_beta   90.00000000
_cell_angle_gamma   120.00000181
_symmetry_Int_Tables_number   1
_chemical_formula_structural   SmHoCo6(SiB)2
_chemical_formula_sum   'Sm1 Ho1 Co6 Si2 B2'
_cell_volume   147.40485852
_cell_formula_units_Z   1
loop_
 _symmetry_equiv_pos_site_id
 _symmetry_equiv_pos_as_xyz
  1  'x, y, z'
loop_
 _atom_site_type_symbol
 _atom_site_label
 _atom_site_symmetry_multiplicity
 _atom_site_fract_x
 _atom_site_fract_y
 _atom_site_fract_z
 _atom_site_occupancy
  Sm  Sm0  1  0.000000  0.000000  0.500000  1
  Ho  Ho1  1  0.000000  0.000000  0.000000  1
  Co  Co2  1  0.500000  0.500000  0.784661  1
  Co  Co3  1  0.500000  0.000000  0.784661  1
  Co  Co4  1  0.000000  0.500000  0.784661  1
  Co  Co5  1  0.500000  0.500000  0.215339  1
  Co  Co6  1  0.500000  0.000000  0.215339  1
  Co  Co7  1  0.000000  0.500000  0.215339  1
  Si  Si8  1  0.666667  0.333333  0.500000  1
  Si  Si9  1  0.333333  0.666667  0.500000  1
  B  B10  1  0.666667  0.333333  0.000000  1
  B  B11  1  0.333333  0.666667  0.000000  1
