# generated using pymatgen
data_Y6Tm14Cd6RuRh
_symmetry_space_group_name_H-M   'P 1'
_cell_length_a   9.53959700
_cell_length_b   9.53959595
_cell_length_c   9.69735200
_cell_angle_alpha   90.00000000
_cell_angle_beta   90.00000000
_cell_angle_gamma   119.99999323
_symmetry_Int_Tables_number   1
_chemical_formula_structural   Y6Tm14Cd6RuRh
_chemical_formula_sum   'Y6 Tm14 Cd6 Ru1 Rh1'
_cell_volume   764.26475223
_cell_formula_units_Z   1
loop_
 _symmetry_equiv_pos_site_id
 _symmetry_equiv_pos_as_xyz
  1  'x, y, z'
loop_
 _atom_site_type_symbol
 _atom_site_label
 _atom_site_symmetry_multiplicity
 _atom_site_fract_x
 _atom_site_fract_y
 _atom_site_fract_z
 _atom_site_occupancy
  Y  Y0  1  0.541496  0.458504  0.250000  1
  Y  Y1  1  0.541496  0.082993  0.250000  1
  Y  Y2  1  0.917007  0.458504  0.250000  1
  Y  Y3  1  0.459350  0.540650  0.750000  1
  Y  Y4  1  0.459350  0.918701  0.750000  1
  Y  Y5  1  0.081299  0.540650  0.750000  1
  Tm  Tm6  1  0.000000  0.000000  0.499619  1
  Tm  Tm7  1  0.000000  0.000000  0.000381  1
  Tm  Tm8  1  0.209361  0.790639  0.440259  1
  Tm  Tm9  1  0.209361  0.418722  0.440259  1
  Tm  Tm10  1  0.581278  0.790639  0.440259  1
  Tm  Tm11  1  0.790256  0.209744  0.560205  1
  Tm  Tm12  1  0.790256  0.580509  0.560205  1
  Tm  Tm13  1  0.419491  0.209744  0.560205  1
  Tm  Tm14  1  0.790256  0.209744  0.939795  1
  Tm  Tm15  1  0.790256  0.580509  0.939795  1
  Tm  Tm16  1  0.419491  0.209744  0.939795  1
  Tm  Tm17  1  0.209361  0.790639  0.059741  1
  Tm  Tm18  1  0.209361  0.418722  0.059741  1
  Tm  Tm19  1  0.581278  0.790639  0.059741  1
  Cd  Cd20  1  0.885796  0.114204  0.250000  1
  Cd  Cd21  1  0.885796  0.771594  0.250000  1
  Cd  Cd22  1  0.228406  0.114204  0.250000  1
  Cd  Cd23  1  0.114288  0.885712  0.750000  1
  Cd  Cd24  1  0.114288  0.228574  0.750000  1
  Cd  Cd25  1  0.771426  0.885712  0.750000  1
  Ru  Ru26  1  0.666667  0.333333  0.750000  1
  Rh  Rh27  1  0.333333  0.666667  0.250000  1
