# generated using pymatgen
data_Tb6YbEr(B6Ru)4
_symmetry_space_group_name_H-M   'P 1'
_cell_length_a   3.67565400
_cell_length_b   9.16198812
_cell_length_c   11.54668302
_cell_angle_alpha   89.92255453
_cell_angle_beta   90.00000000
_cell_angle_gamma   90.00000000
_symmetry_Int_Tables_number   1
_chemical_formula_structural   Tb6YbEr(B6Ru)4
_chemical_formula_sum   'Tb6 Yb1 Er1 B24 Ru4'
_cell_volume   388.84918625
_cell_formula_units_Z   1
loop_
 _symmetry_equiv_pos_site_id
 _symmetry_equiv_pos_as_xyz
  1  'x, y, z'
loop_
 _atom_site_type_symbol
 _atom_site_label
 _atom_site_symmetry_multiplicity
 _atom_site_fract_x
 _atom_site_fract_y
 _atom_site_fract_z
 _atom_site_occupancy
  Tb  Tb0  1  0.000000  0.675489  0.585188  1
  Tb  Tb1  1  0.000000  0.822527  0.085979  1
  Tb  Tb2  1  0.000000  0.177941  0.914452  1
  Tb  Tb3  1  0.000000  0.943661  0.370767  1
  Tb  Tb4  1  0.000000  0.058704  0.628501  1
  Tb  Tb5  1  0.000000  0.442582  0.129729  1
  Yb  Yb6  1  0.000000  0.323716  0.413919  1
  Er  Er7  1  0.000000  0.556557  0.871599  1
  B  B8  1  0.500000  0.553668  0.432439  1
  B  B9  1  0.500000  0.445867  0.567688  1
  B  B10  1  0.500000  0.053378  0.066811  1
  B  B11  1  0.500000  0.945361  0.932150  1
  B  B12  1  0.500000  0.747438  0.418780  1
  B  B13  1  0.500000  0.253387  0.581171  1
  B  B14  1  0.500000  0.247025  0.080890  1
  B  B15  1  0.500000  0.751291  0.919061  1
  B  B16  1  0.500000  0.790182  0.266174  1
  B  B17  1  0.500000  0.211363  0.734120  1
  B  B18  1  0.500000  0.289018  0.233727  1
  B  B19  1  0.500000  0.709266  0.766600  1
  B  B20  1  0.500000  0.631528  0.186164  1
  B  B21  1  0.500000  0.369669  0.815202  1
  B  B22  1  0.500000  0.131358  0.313756  1
  B  B23  1  0.500000  0.868442  0.685661  1
  B  B24  1  0.500000  0.983986  0.211456  1
  B  B25  1  0.500000  0.015799  0.787686  1
  B  B26  1  0.500000  0.483999  0.288347  1
  B  B27  1  0.500000  0.516511  0.713061  1
  B  B28  1  0.500000  0.607372  0.029067  1
  B  B29  1  0.500000  0.393542  0.969985  1
  B  B30  1  0.500000  0.105539  0.470725  1
  B  B31  1  0.500000  0.893910  0.529389  1
  Ru  Ru32  1  0.000000  0.638621  0.320802  1
  Ru  Ru33  1  0.000000  0.363290  0.680373  1
  Ru  Ru34  1  0.000000  0.136563  0.177353  1
  Ru  Ru35  1  0.000000  0.861448  0.821228  1
