# generated using pymatgen
data_AcInAg5
_symmetry_space_group_name_H-M   'P 1'
_cell_length_a   5.93836889
_cell_length_b   5.93467624
_cell_length_c   5.93837020
_cell_angle_alpha   102.99995401
_cell_angle_beta   103.06625763
_cell_angle_gamma   123.32953392
_symmetry_Int_Tables_number   1
_chemical_formula_structural   AcInAg5
_chemical_formula_sum   'Ac1 In1 Ag5'
_cell_volume   153.86137947
_cell_formula_units_Z   1
loop_
 _symmetry_equiv_pos_site_id
 _symmetry_equiv_pos_as_xyz
  1  'x, y, z'
loop_
 _atom_site_type_symbol
 _atom_site_label
 _atom_site_symmetry_multiplicity
 _atom_site_fract_x
 _atom_site_fract_y
 _atom_site_fract_z
 _atom_site_occupancy
  Ac  Ac0  1  0.000089  0.000057  0.999968  1
  In  In1  1  0.249898  0.749845  0.499947  1
  Ag  Ag2  1  0.691833  0.308280  0.000053  1
  Ag  Ag3  1  0.308206  0.691790  0.999994  1
  Ag  Ag4  1  0.308227  0.308280  0.616448  1
  Ag  Ag5  1  0.691796  0.691790  0.383584  1
  Ag  Ag6  1  0.749952  0.249958  0.500006  1
