# generated using pymatgen
data_PuBRhN
_symmetry_space_group_name_H-M   'P 1'
_cell_length_a   3.76059100
_cell_length_b   3.76059100
_cell_length_c   7.44837000
_cell_angle_alpha   90.00000000
_cell_angle_beta   90.00000000
_cell_angle_gamma   90.00000000
_symmetry_Int_Tables_number   1
_chemical_formula_structural   PuBRhN
_chemical_formula_sum   'Pu2 B2 Rh2 N2'
_cell_volume   105.33518125
_cell_formula_units_Z   2
loop_
 _symmetry_equiv_pos_site_id
 _symmetry_equiv_pos_as_xyz
  1  'x, y, z'
loop_
 _atom_site_type_symbol
 _atom_site_label
 _atom_site_symmetry_multiplicity
 _atom_site_fract_x
 _atom_site_fract_y
 _atom_site_fract_z
 _atom_site_occupancy
  Pu  Pu0  1  0.500001  0.000000  0.164480  1
  Pu  Pu1  1  0.000000  0.500001  0.835521  1
  B  B2  1  0.000000  0.500001  0.345261  1
  B  B3  1  0.500001  0.000000  0.654740  1
  Rh  Rh4  1  0.000000  0.000000  0.500000  1
  Rh  Rh5  1  0.500001  0.500001  0.500000  1
  N  N6  1  0.000000  0.500001  0.145952  1
  N  N7  1  0.500001  0.000000  0.854049  1
