# generated using pymatgen
data_Zr(NF7)2
_symmetry_space_group_name_H-M   'P 1'
_cell_length_a   7.06142593
_cell_length_b   7.06142677
_cell_length_c   7.06142610
_cell_angle_alpha   118.94925062
_cell_angle_beta   118.94925165
_cell_angle_gamma   91.82978543
_symmetry_Int_Tables_number   1
_chemical_formula_structural   Zr(NF7)2
_chemical_formula_sum   'Zr1 N2 F14'
_cell_volume   252.79357961
_cell_formula_units_Z   1
loop_
 _symmetry_equiv_pos_site_id
 _symmetry_equiv_pos_as_xyz
  1  'x, y, z'
loop_
 _atom_site_type_symbol
 _atom_site_label
 _atom_site_symmetry_multiplicity
 _atom_site_fract_x
 _atom_site_fract_y
 _atom_site_fract_z
 _atom_site_occupancy
  Zr  Zr0  1  0.000000  0.000000  0.000000  1
  N  N1  1  0.750000  0.250000  0.500000  1
  N  N2  1  0.250000  0.750000  0.500000  1
  F  F3  1  0.399014  0.964034  0.706379  1
  F  F4  1  0.247738  0.143218  0.390955  1
  F  F5  1  0.143218  0.752262  0.895479  1
  F  F6  1  0.856782  0.247738  0.104521  1
  F  F7  1  0.752262  0.856782  0.609045  1
  F  F8  1  0.207298  0.207298  0.000000  1
  F  F9  1  0.792702  0.792702  0.000000  1
  F  F10  1  0.742345  0.307365  0.706379  1
  F  F11  1  0.307365  0.600986  0.565020  1
  F  F12  1  0.035966  0.742345  0.434980  1
  F  F13  1  0.600986  0.035966  0.293621  1
  F  F14  1  0.257655  0.692635  0.293621  1
  F  F15  1  0.692635  0.399014  0.434980  1
  F  F16  1  0.964034  0.257655  0.565020  1
