# generated using pymatgen
data_Er5Tl2PbCl
_symmetry_space_group_name_H-M   'P 1'
_cell_length_a   9.03037600
_cell_length_b   9.03037590
_cell_length_c   6.67282100
_cell_angle_alpha   90.00000000
_cell_angle_beta   90.00000000
_cell_angle_gamma   119.93530799
_symmetry_Int_Tables_number   1
_chemical_formula_structural   Er5Tl2PbCl
_chemical_formula_sum   'Er10 Tl4 Pb2 Cl2'
_cell_volume   471.55733850
_cell_formula_units_Z   2
loop_
 _symmetry_equiv_pos_site_id
 _symmetry_equiv_pos_as_xyz
  1  'x, y, z'
loop_
 _atom_site_type_symbol
 _atom_site_label
 _atom_site_symmetry_multiplicity
 _atom_site_fract_x
 _atom_site_fract_y
 _atom_site_fract_z
 _atom_site_occupancy
  Er  Er0  1  0.737690  0.741579  0.250000  1
  Er  Er1  1  0.997215  0.740270  0.750000  1
  Er  Er2  1  0.743677  0.001082  0.750000  1
  Er  Er3  1  0.335352  0.664648  0.500000  1
  Er  Er4  1  0.258421  0.262310  0.750000  1
  Er  Er5  1  0.998918  0.256323  0.250000  1
  Er  Er6  1  0.666813  0.333187  0.500000  1
  Er  Er7  1  0.259730  0.002785  0.250000  1
  Er  Er8  1  0.335352  0.664648  0.000000  1
  Er  Er9  1  0.666813  0.333187  0.000000  1
  Tl  Tl10  1  0.607807  0.000593  0.250000  1
  Tl  Tl11  1  0.999407  0.392193  0.750000  1
  Tl  Tl12  1  0.393222  0.393233  0.250000  1
  Tl  Tl13  1  0.606767  0.606778  0.750000  1
  Pb  Pb14  1  0.391014  0.999542  0.750000  1
  Pb  Pb15  1  0.000458  0.608986  0.250000  1
  Cl  Cl16  1  0.000671  0.999329  0.500000  1
  Cl  Cl17  1  0.000671  0.999329  0.000000  1
