# generated using pymatgen
data_TbNd7Y2(SiB4)4
_symmetry_space_group_name_H-M   'P 1'
_cell_length_a   7.37068301
_cell_length_b   7.37068191
_cell_length_c   8.39161700
_cell_angle_alpha   90.00231930
_cell_angle_beta   89.99768150
_cell_angle_gamma   90.03844762
_symmetry_Int_Tables_number   1
_chemical_formula_structural   TbNd7Y2(SiB4)4
_chemical_formula_sum   'Tb1 Nd7 Y2 Si4 B16'
_cell_volume   455.89093757
_cell_formula_units_Z   1
loop_
 _symmetry_equiv_pos_site_id
 _symmetry_equiv_pos_as_xyz
  1  'x, y, z'
loop_
 _atom_site_type_symbol
 _atom_site_label
 _atom_site_symmetry_multiplicity
 _atom_site_fract_x
 _atom_site_fract_y
 _atom_site_fract_z
 _atom_site_occupancy
  Tb  Tb0  1  0.179995  0.320005  0.220067  1
  Nd  Nd1  1  0.680352  0.180464  0.227553  1
  Nd  Nd2  1  0.320021  0.820174  0.772599  1
  Nd  Nd3  1  0.319536  0.819648  0.227553  1
  Nd  Nd4  1  0.820084  0.679916  0.227318  1
  Nd  Nd5  1  0.819967  0.680033  0.773027  1
  Nd  Nd6  1  0.679826  0.179979  0.772599  1
  Nd  Nd7  1  0.180054  0.319946  0.773316  1
  Y  Y8  1  0.000787  0.001049  0.498823  1
  Y  Y9  1  0.498951  0.499213  0.498823  1
  Si  Si10  1  0.115256  0.612182  0.497370  1
  Si  Si11  1  0.887818  0.384744  0.497370  1
  Si  Si12  1  0.384362  0.115638  0.497384  1
  Si  Si13  1  0.613271  0.886729  0.499504  1
  B  B14  1  0.172214  0.039959  0.000793  1
  B  B15  1  0.828801  0.961360  0.000907  1
  B  B16  1  0.961814  0.172236  0.001026  1
  B  B17  1  0.327764  0.538186  0.001026  1
  B  B18  1  0.039319  0.828884  0.001099  1
  B  B19  1  0.671116  0.460681  0.001099  1
  B  B20  1  0.538640  0.671199  0.000907  1
  B  B21  1  0.460041  0.327786  0.000793  1
  B  B22  1  0.091026  0.590342  0.001913  1
  B  B23  1  0.909658  0.408974  0.001913  1
  B  B24  1  0.408690  0.091310  0.000281  1
  B  B25  1  0.591264  0.908736  0.000628  1
  B  B26  1  0.001195  0.002057  0.155812  1
  B  B27  1  0.000398  0.000159  0.846343  1
  B  B28  1  0.499841  0.499602  0.846343  1
  B  B29  1  0.497943  0.498805  0.155812  1
