# generated using pymatgen
data_CaErFeIr3
_symmetry_space_group_name_H-M   'P 1'
_cell_length_a   5.14904365
_cell_length_b   5.14904360
_cell_length_c   5.14904367
_cell_angle_alpha   64.01197294
_cell_angle_beta   64.01196830
_cell_angle_gamma   64.01197652
_symmetry_Int_Tables_number   1
_chemical_formula_structural   CaErFeIr3
_chemical_formula_sum   'Ca1 Er1 Fe1 Ir3'
_cell_volume   105.05898394
_cell_formula_units_Z   1
loop_
 _symmetry_equiv_pos_site_id
 _symmetry_equiv_pos_as_xyz
  1  'x, y, z'
loop_
 _atom_site_type_symbol
 _atom_site_label
 _atom_site_symmetry_multiplicity
 _atom_site_fract_x
 _atom_site_fract_y
 _atom_site_fract_z
 _atom_site_occupancy
  Ca  Ca0  1  0.999627  0.999627  0.999627  1
  Er  Er1  1  0.251001  0.251001  0.251001  1
  Fe  Fe2  1  0.624657  0.624657  0.624657  1
  Ir  Ir3  1  0.625323  0.625323  0.124068  1
  Ir  Ir4  1  0.625323  0.124068  0.625323  1
  Ir  Ir5  1  0.124068  0.625323  0.625323  1
