# generated using pymatgen
data_La21Cr8Bi7C12
_symmetry_space_group_name_H-M   'P 1'
_cell_length_a   11.57083830
_cell_length_b   11.57083932
_cell_length_c   11.57083900
_cell_angle_alpha   60.00000376
_cell_angle_beta   60.00000086
_cell_angle_gamma   60.00000017
_symmetry_Int_Tables_number   1
_chemical_formula_structural   La21Cr8Bi7C12
_chemical_formula_sum   'La21 Cr8 Bi7 C12'
_cell_volume   1095.41719978
_cell_formula_units_Z   1
loop_
 _symmetry_equiv_pos_site_id
 _symmetry_equiv_pos_as_xyz
  1  'x, y, z'
loop_
 _atom_site_type_symbol
 _atom_site_label
 _atom_site_symmetry_multiplicity
 _atom_site_fract_x
 _atom_site_fract_y
 _atom_site_fract_z
 _atom_site_occupancy
  La  La0  1  0.365234  0.904298  0.365234  1
  La  La1  1  0.000000  0.661866  0.338134  1
  La  La2  1  0.365234  0.365234  0.365234  1
  La  La3  1  0.634766  0.095702  0.634766  1
  La  La4  1  0.904298  0.365234  0.365234  1
  La  La5  1  0.661866  0.338134  0.000000  1
  La  La6  1  0.000000  0.338134  0.000000  1
  La  La7  1  0.634766  0.634766  0.634766  1
  La  La8  1  0.000000  0.000000  0.338134  1
  La  La9  1  0.634766  0.634766  0.095702  1
  La  La10  1  0.365234  0.365234  0.904298  1
  La  La11  1  0.661866  0.000000  0.000000  1
  La  La12  1  0.000000  0.000000  0.661866  1
  La  La13  1  0.661866  0.000000  0.338134  1
  La  La14  1  0.095702  0.634766  0.634766  1
  La  La15  1  0.338134  0.000000  0.000000  1
  La  La16  1  0.000000  0.338134  0.661866  1
  La  La17  1  0.338134  0.000000  0.661866  1
  La  La18  1  0.500000  0.500000  0.500000  1
  La  La19  1  0.338134  0.661866  0.000000  1
  La  La20  1  0.000000  0.661866  0.000000  1
  Cr  Cr21  1  0.196930  0.409208  0.196930  1
  Cr  Cr22  1  0.196930  0.196930  0.409208  1
  Cr  Cr23  1  0.590792  0.803070  0.803070  1
  Cr  Cr24  1  0.196930  0.196930  0.196930  1
  Cr  Cr25  1  0.409208  0.196930  0.196930  1
  Cr  Cr26  1  0.803070  0.803070  0.803070  1
  Cr  Cr27  1  0.803070  0.803070  0.590792  1
  Cr  Cr28  1  0.803070  0.590792  0.803070  1
  Bi  Bi29  1  0.290466  0.709534  0.709534  1
  Bi  Bi30  1  0.709534  0.709534  0.290466  1
  Bi  Bi31  1  0.709534  0.290466  0.290466  1
  Bi  Bi32  1  0.709534  0.290466  0.709534  1
  Bi  Bi33  1  0.290466  0.709534  0.290466  1
  Bi  Bi34  1  0.000000  0.000000  0.000000  1
  Bi  Bi35  1  0.290466  0.290466  0.709534  1
  C  C36  1  0.104058  0.104058  0.395942  1
  C  C37  1  0.895942  0.895942  0.604058  1
  C  C38  1  0.104058  0.395942  0.395942  1
  C  C39  1  0.104058  0.395942  0.104058  1
  C  C40  1  0.604058  0.604058  0.895942  1
  C  C41  1  0.895942  0.604058  0.895942  1
  C  C42  1  0.395942  0.395942  0.104058  1
  C  C43  1  0.395942  0.104058  0.395942  1
  C  C44  1  0.895942  0.604058  0.604058  1
  C  C45  1  0.604058  0.895942  0.604058  1
  C  C46  1  0.395942  0.104058  0.104058  1
  C  C47  1  0.604058  0.895942  0.895942  1
