# generated using pymatgen
data_Ca5Yb5(Bi3Br)2
_symmetry_space_group_name_H-M   'P 1'
_cell_length_a   9.36911200
_cell_length_b   9.35681590
_cell_length_c   7.18922100
_cell_angle_alpha   90.00000000
_cell_angle_beta   90.00000000
_cell_angle_gamma   120.04348777
_symmetry_Int_Tables_number   1
_chemical_formula_structural   Ca5Yb5(Bi3Br)2
_chemical_formula_sum   'Ca5 Yb5 Bi6 Br2'
_cell_volume   545.56751299
_cell_formula_units_Z   1
loop_
 _symmetry_equiv_pos_site_id
 _symmetry_equiv_pos_as_xyz
  1  'x, y, z'
loop_
 _atom_site_type_symbol
 _atom_site_label
 _atom_site_symmetry_multiplicity
 _atom_site_fract_x
 _atom_site_fract_y
 _atom_site_fract_z
 _atom_site_occupancy
  Ca  Ca0  1  0.738422  0.000000  0.750000  1
  Ca  Ca1  1  0.333228  0.666525  0.499845  1
  Ca  Ca2  1  0.333228  0.666525  0.000155  1
  Ca  Ca3  1  0.666704  0.333475  0.499845  1
  Ca  Ca4  1  0.666704  0.333475  0.000155  1
  Yb  Yb5  1  0.000096  0.260008  0.250000  1
  Yb  Yb6  1  0.740089  0.739992  0.250000  1
  Yb  Yb7  1  0.260044  0.000000  0.250000  1
  Yb  Yb8  1  0.259960  0.259976  0.750000  1
  Yb  Yb9  1  0.999984  0.740024  0.750000  1
  Bi  Bi10  1  0.391038  0.000000  0.750000  1
  Bi  Bi11  1  0.608221  0.000000  0.250000  1
  Bi  Bi12  1  0.999991  0.608402  0.250000  1
  Bi  Bi13  1  0.608322  0.608199  0.750000  1
  Bi  Bi14  1  0.000123  0.391801  0.750000  1
  Bi  Bi15  1  0.391590  0.391598  0.250000  1
  Br  Br16  1  0.001128  0.000000  0.499120  1
  Br  Br17  1  0.001128  0.000000  0.000880  1
