# generated using pymatgen
data_La6P13PtRh19
_symmetry_space_group_name_H-M   'P 1'
_cell_length_a   13.54561300
_cell_length_b   13.54561191
_cell_length_c   4.01389600
_cell_angle_alpha   90.00000000
_cell_angle_beta   90.00000000
_cell_angle_gamma   120.00000022
_symmetry_Int_Tables_number   1
_chemical_formula_structural   La6P13PtRh19
_chemical_formula_sum   'La6 P13 Pt1 Rh19'
_cell_volume   637.81398682
_cell_formula_units_Z   1
loop_
 _symmetry_equiv_pos_site_id
 _symmetry_equiv_pos_as_xyz
  1  'x, y, z'
loop_
 _atom_site_type_symbol
 _atom_site_label
 _atom_site_symmetry_multiplicity
 _atom_site_fract_x
 _atom_site_fract_y
 _atom_site_fract_z
 _atom_site_occupancy
  La  La0  1  0.532225  0.719139  0.247037  1
  La  La1  1  0.280861  0.813086  0.247037  1
  La  La2  1  0.186914  0.467775  0.247037  1
  La  La3  1  0.470928  0.281978  0.753058  1
  La  La4  1  0.718022  0.188951  0.753058  1
  La  La5  1  0.811049  0.529072  0.753058  1
  P  P6  1  0.520239  0.133581  0.251142  1
  P  P7  1  0.866419  0.386659  0.251142  1
  P  P8  1  0.613341  0.479761  0.251142  1
  P  P9  1  0.948631  0.720800  0.255550  1
  P  P10  1  0.279200  0.227832  0.255550  1
  P  P11  1  0.772168  0.051369  0.255550  1
  P  P12  1  0.387996  0.519321  0.749388  1
  P  P13  1  0.480679  0.868673  0.749388  1
  P  P14  1  0.131327  0.612004  0.749388  1
  P  P15  1  0.721575  0.772427  0.744859  1
  P  P16  1  0.227573  0.949148  0.744859  1
  P  P17  1  0.050852  0.278425  0.744859  1
  P  P18  1  0.000000  0.000000  0.994111  1
  Pt  Pt19  1  0.333333  0.666667  0.748594  1
  Rh  Rh20  1  0.924022  0.248717  0.256940  1
  Rh  Rh21  1  0.751283  0.675305  0.256940  1
  Rh  Rh22  1  0.324695  0.075978  0.256940  1
  Rh  Rh23  1  0.437776  0.023640  0.752467  1
  Rh  Rh24  1  0.976360  0.414137  0.752467  1
  Rh  Rh25  1  0.585863  0.562224  0.752467  1
  Rh  Rh26  1  0.666667  0.333333  0.250181  1
  Rh  Rh27  1  0.092138  0.183734  0.245483  1
  Rh  Rh28  1  0.816266  0.908405  0.245483  1
  Rh  Rh29  1  0.091595  0.907862  0.245483  1
  Rh  Rh30  1  0.023229  0.585367  0.248238  1
  Rh  Rh31  1  0.414633  0.437861  0.248238  1
  Rh  Rh32  1  0.562139  0.976771  0.248238  1
  Rh  Rh33  1  0.675069  0.923779  0.742936  1
  Rh  Rh34  1  0.076221  0.751291  0.742936  1
  Rh  Rh35  1  0.248709  0.324931  0.742936  1
  Rh  Rh36  1  0.907529  0.814866  0.755276  1
  Rh  Rh37  1  0.185134  0.092663  0.755276  1
  Rh  Rh38  1  0.907337  0.092471  0.755276  1
