# generated using pymatgen
data_Na2CaNb12O24
_symmetry_space_group_name_H-M   'P 1'
_cell_length_a   7.16046676
_cell_length_b   7.16046686
_cell_length_c   9.80638300
_cell_angle_alpha   86.72310135
_cell_angle_beta   86.72310130
_cell_angle_gamma   93.55100270
_symmetry_Int_Tables_number   1
_chemical_formula_structural   Na2CaNb12O24
_chemical_formula_sum   'Na2 Ca1 Nb12 O24'
_cell_volume   500.07930859
_cell_formula_units_Z   1
loop_
 _symmetry_equiv_pos_site_id
 _symmetry_equiv_pos_as_xyz
  1  'x, y, z'
loop_
 _atom_site_type_symbol
 _atom_site_label
 _atom_site_symmetry_multiplicity
 _atom_site_fract_x
 _atom_site_fract_y
 _atom_site_fract_z
 _atom_site_occupancy
  Na  Na0  1  0.872907  0.872907  0.127885  1
  Na  Na1  1  0.147449  0.147449  0.853264  1
  Ca  Ca2  1  0.626410  0.626410  0.372042  1
  Nb  Nb3  1  0.149382  0.149382  0.351824  1
  Nb  Nb4  1  0.648105  0.648105  0.850775  1
  Nb  Nb5  1  0.848637  0.848637  0.652016  1
  Nb  Nb6  1  0.348265  0.348265  0.150929  1
  Nb  Nb7  1  0.851994  0.413860  0.637905  1
  Nb  Nb8  1  0.353623  0.917183  0.134145  1
  Nb  Nb9  1  0.917183  0.353623  0.134145  1
  Nb  Nb10  1  0.413860  0.851994  0.637905  1
  Nb  Nb11  1  0.084367  0.646862  0.863869  1
  Nb  Nb12  1  0.581114  0.143751  0.367137  1
  Nb  Nb13  1  0.143751  0.581114  0.367137  1
  Nb  Nb14  1  0.646862  0.084367  0.863869  1
  O  O15  1  0.344140  0.068330  0.481346  1
  O  O16  1  0.845623  0.576995  0.983995  1
  O  O17  1  0.848438  0.117359  0.708509  1
  O  O18  1  0.352943  0.616673  0.213809  1
  O  O19  1  0.916540  0.654124  0.514795  1
  O  O20  1  0.426903  0.156439  0.017752  1
  O  O21  1  0.881744  0.150783  0.288597  1
  O  O22  1  0.380608  0.655931  0.794723  1
  O  O23  1  0.654124  0.916540  0.514795  1
  O  O24  1  0.156439  0.426903  0.017752  1
  O  O25  1  0.150783  0.881744  0.288597  1
  O  O26  1  0.655931  0.380608  0.794723  1
  O  O27  1  0.068330  0.344140  0.481346  1
  O  O28  1  0.576995  0.845623  0.983995  1
  O  O29  1  0.117359  0.848438  0.708509  1
  O  O30  1  0.616673  0.352943  0.213809  1
  O  O31  1  0.333996  0.670335  0.495710  1
  O  O32  1  0.835662  0.168251  0.000365  1
  O  O33  1  0.670335  0.333996  0.495710  1
  O  O34  1  0.168251  0.835662  0.000365  1
  O  O35  1  0.071231  0.427792  0.751055  1
  O  O36  1  0.577910  0.918340  0.251420  1
  O  O37  1  0.918340  0.577910  0.251420  1
  O  O38  1  0.427792  0.071231  0.751055  1
