# generated using pymatgen
data_TbDy3(NbIr3)2
_symmetry_space_group_name_H-M   'P 1'
_cell_length_a   9.80183837
_cell_length_b   9.63103328
_cell_length_c   9.63103460
_cell_angle_alpha   34.14046869
_cell_angle_beta   31.38365383
_cell_angle_gamma   31.38365848
_symmetry_Int_Tables_number   1
_chemical_formula_structural   TbDy3(NbIr3)2
_chemical_formula_sum   'Tb1 Dy3 Nb2 Ir6'
_cell_volume   229.60249261
_cell_formula_units_Z   1
loop_
 _symmetry_equiv_pos_site_id
 _symmetry_equiv_pos_as_xyz
  1  'x, y, z'
loop_
 _atom_site_type_symbol
 _atom_site_label
 _atom_site_symmetry_multiplicity
 _atom_site_fract_x
 _atom_site_fract_y
 _atom_site_fract_z
 _atom_site_occupancy
  Tb  Tb0  1  0.816137  0.810288  0.810288  1
  Dy  Dy1  1  0.317140  0.309661  0.309661  1
  Dy  Dy2  1  0.682675  0.690353  0.690353  1
  Dy  Dy3  1  0.182733  0.190486  0.190486  1
  Nb  Nb4  1  0.749865  0.249949  0.249949  1
  Nb  Nb5  1  0.250327  0.749922  0.749922  1
  Ir  Ir6  1  0.500398  0.499812  0.499812  1
  Ir  Ir7  1  0.000028  0.999969  0.999969  1
  Ir  Ir8  1  0.250166  0.249742  0.749670  1
  Ir  Ir9  1  0.750183  0.750002  0.250147  1
  Ir  Ir10  1  0.250166  0.749670  0.249742  1
  Ir  Ir11  1  0.750183  0.250147  0.750002  1
