# generated using pymatgen
data_Lu8Ti7Si16Tc5
_symmetry_space_group_name_H-M   'P 1'
_cell_length_a   6.86420556
_cell_length_b   6.87232711
_cell_length_c   12.63162543
_cell_angle_alpha   90.18545648
_cell_angle_beta   89.89899970
_cell_angle_gamma   90.05321706
_symmetry_Int_Tables_number   1
_chemical_formula_structural   Lu8Ti7Si16Tc5
_chemical_formula_sum   'Lu8 Ti7 Si16 Tc5'
_cell_volume   595.86819774
_cell_formula_units_Z   1
loop_
 _symmetry_equiv_pos_site_id
 _symmetry_equiv_pos_as_xyz
  1  'x, y, z'
loop_
 _atom_site_type_symbol
 _atom_site_label
 _atom_site_symmetry_multiplicity
 _atom_site_fract_x
 _atom_site_fract_y
 _atom_site_fract_z
 _atom_site_occupancy
  Lu  Lu0  1  0.000983  0.659633  0.031016  1
  Lu  Lu1  1  0.001352  0.339753  0.530002  1
  Lu  Lu2  1  0.661081  0.998950  0.970399  1
  Lu  Lu3  1  0.160358  0.500205  0.779543  1
  Lu  Lu4  1  0.840505  0.499777  0.281213  1
  Lu  Lu5  1  0.501674  0.158002  0.221447  1
  Lu  Lu6  1  0.500104  0.840800  0.719201  1
  Lu  Lu7  1  0.339914  0.998883  0.468406  1
  Ti  Ti8  1  0.843588  0.997368  0.376087  1
  Ti  Ti9  1  0.004923  0.156899  0.123639  1
  Ti  Ti10  1  0.999637  0.846815  0.621848  1
  Ti  Ti11  1  0.503312  0.347443  0.626621  1
  Ti  Ti12  1  0.153509  0.004511  0.876109  1
  Ti  Ti13  1  0.496556  0.655018  0.122996  1
  Ti  Ti14  1  0.653395  0.498447  0.874149  1
  Si  Si15  1  0.052642  0.708858  0.430830  1
  Si  Si16  1  0.953861  0.293123  0.932409  1
  Si  Si17  1  0.708194  0.047643  0.567184  1
  Si  Si18  1  0.208070  0.459015  0.187619  1
  Si  Si19  1  0.792744  0.546096  0.682800  1
  Si  Si20  1  0.454955  0.208814  0.818428  1
  Si  Si21  1  0.537039  0.780671  0.318216  1
  Si  Si22  1  0.292327  0.954672  0.067261  1
  Si  Si23  1  0.797457  0.869862  0.182730  1
  Si  Si24  1  0.302265  0.629567  0.564293  1
  Si  Si25  1  0.701414  0.369466  0.068211  1
  Si  Si26  1  0.626592  0.304272  0.432993  1
  Si  Si27  1  0.369340  0.702991  0.930931  1
  Si  Si28  1  0.124821  0.202357  0.317255  1
  Si  Si29  1  0.201675  0.131100  0.682419  1
  Si  Si30  1  0.870908  0.798669  0.817113  1
  Tc  Tc31  1  0.339079  0.487177  0.373882  1
  Tc  Tc32  1  0.674117  0.670099  0.501512  1
  Tc  Tc33  1  0.830442  0.169938  0.749411  1
  Tc  Tc34  1  0.170772  0.831883  0.249102  1
  Tc  Tc35  1  0.330395  0.331222  0.002726  1
