# generated using pymatgen
data_Y3Si6(Pd9Pt)2
_symmetry_space_group_name_H-M   'P 1'
_cell_length_a   8.73764663
_cell_length_b   8.73764674
_cell_length_c   8.73764699
_cell_angle_alpha   59.72850553
_cell_angle_beta   59.72850605
_cell_angle_gamma   59.72850453
_symmetry_Int_Tables_number   1
_chemical_formula_structural   Y3Si6(Pd9Pt)2
_chemical_formula_sum   'Y3 Si6 Pd18 Pt2'
_cell_volume   468.79433512
_cell_formula_units_Z   1
loop_
 _symmetry_equiv_pos_site_id
 _symmetry_equiv_pos_as_xyz
  1  'x, y, z'
loop_
 _atom_site_type_symbol
 _atom_site_label
 _atom_site_symmetry_multiplicity
 _atom_site_fract_x
 _atom_site_fract_y
 _atom_site_fract_z
 _atom_site_occupancy
  Y  Y0  1  0.250602  0.250602  0.250602  1
  Y  Y1  1  0.749398  0.749398  0.749398  1
  Y  Y2  1  0.000000  0.000000  0.000000  1
  Si  Si3  1  0.730787  0.267822  0.267822  1
  Si  Si4  1  0.269213  0.732178  0.732178  1
  Si  Si5  1  0.267822  0.730787  0.267822  1
  Si  Si6  1  0.732178  0.269213  0.732178  1
  Si  Si7  1  0.267822  0.267822  0.730787  1
  Si  Si8  1  0.732178  0.732178  0.269213  1
  Pd  Pd9  1  0.382153  0.382153  0.849909  1
  Pd  Pd10  1  0.382153  0.849909  0.382153  1
  Pd  Pd11  1  0.617847  0.617847  0.150091  1
  Pd  Pd12  1  0.617847  0.150091  0.617847  1
  Pd  Pd13  1  0.849909  0.382153  0.382153  1
  Pd  Pd14  1  0.150091  0.617847  0.617847  1
  Pd  Pd15  1  0.345082  0.000204  0.000204  1
  Pd  Pd16  1  0.654918  0.999796  0.999796  1
  Pd  Pd17  1  0.000000  0.345153  0.654847  1
  Pd  Pd18  1  0.000000  0.654847  0.345153  1
  Pd  Pd19  1  0.000204  0.345082  0.000204  1
  Pd  Pd20  1  0.654847  0.000000  0.345153  1
  Pd  Pd21  1  0.999796  0.654918  0.999796  1
  Pd  Pd22  1  0.345153  0.000000  0.654847  1
  Pd  Pd23  1  0.000204  0.000204  0.345082  1
  Pd  Pd24  1  0.999796  0.999796  0.654918  1
  Pd  Pd25  1  0.654847  0.345153  0.000000  1
  Pd  Pd26  1  0.345153  0.654847  0.000000  1
  Pt  Pt27  1  0.384675  0.384675  0.384675  1
  Pt  Pt28  1  0.615325  0.615325  0.615325  1
