# generated using pymatgen
data_RbS4BrO14
_symmetry_space_group_name_H-M   'P 1'
_cell_length_a   6.09344038
_cell_length_b   7.33994570
_cell_length_c   9.43428200
_cell_angle_alpha   106.37679473
_cell_angle_beta   96.76386089
_cell_angle_gamma   99.95386367
_symmetry_Int_Tables_number   1
_chemical_formula_structural   RbS4BrO14
_chemical_formula_sum   'Rb1 S4 Br1 O14'
_cell_volume   392.50080439
_cell_formula_units_Z   1
loop_
 _symmetry_equiv_pos_site_id
 _symmetry_equiv_pos_as_xyz
  1  'x, y, z'
loop_
 _atom_site_type_symbol
 _atom_site_label
 _atom_site_symmetry_multiplicity
 _atom_site_fract_x
 _atom_site_fract_y
 _atom_site_fract_z
 _atom_site_occupancy
  Rb  Rb0  1  0.500000  0.000000  0.000000  1
  S  S1  1  0.935339  0.707369  0.734507  1
  S  S2  1  0.064661  0.292631  0.265493  1
  S  S3  1  0.680717  0.335422  0.745217  1
  S  S4  1  0.319283  0.664578  0.254783  1
  Br  Br5  1  0.500000  0.500000  0.500000  1
  O  O6  1  0.839734  0.630064  0.565181  1
  O  O7  1  0.160266  0.369936  0.434819  1
  O  O8  1  0.494158  0.437403  0.698693  1
  O  O9  1  0.505842  0.562597  0.301307  1
  O  O10  1  0.174590  0.775258  0.750426  1
  O  O11  1  0.825410  0.224742  0.249574  1
  O  O12  1  0.804296  0.828391  0.819012  1
  O  O13  1  0.195704  0.171609  0.180988  1
  O  O14  1  0.648767  0.311373  0.887486  1
  O  O15  1  0.351233  0.688627  0.112514  1
  O  O16  1  0.916075  0.510257  0.786502  1
  O  O17  1  0.083925  0.489743  0.213498  1
  O  O18  1  0.714601  0.179642  0.625464  1
  O  O19  1  0.285399  0.820358  0.374536  1
