# generated using pymatgen
data_LiCu5PbO8
_symmetry_space_group_name_H-M   'P 1'
_cell_length_a   6.58021536
_cell_length_b   6.57883120
_cell_length_c   6.57786081
_cell_angle_alpha   60.70051400
_cell_angle_beta   59.94474028
_cell_angle_gamma   59.96352815
_symmetry_Int_Tables_number   1
_chemical_formula_structural   LiCu5PbO8
_chemical_formula_sum   'Li1 Cu5 Pb1 O8'
_cell_volume   202.25553710
_cell_formula_units_Z   1
loop_
 _symmetry_equiv_pos_site_id
 _symmetry_equiv_pos_as_xyz
  1  'x, y, z'
loop_
 _atom_site_type_symbol
 _atom_site_label
 _atom_site_symmetry_multiplicity
 _atom_site_fract_x
 _atom_site_fract_y
 _atom_site_fract_z
 _atom_site_occupancy
  Li  Li0  1  0.500000  0.000000  0.000000  1
  Cu  Cu1  1  0.500000  0.000000  0.500000  1
  Cu  Cu2  1  0.000000  0.000000  0.500000  1
  Cu  Cu3  1  0.000000  0.500000  0.000000  1
  Cu  Cu4  1  0.000000  0.500000  0.500000  1
  Cu  Cu5  1  0.500000  0.500000  0.000000  1
  Pb  Pb6  1  0.000000  0.000000  0.000000  1
  O  O7  1  0.856638  0.438256  0.849184  1
  O  O8  1  0.122329  0.149955  0.149804  1
  O  O9  1  0.877671  0.850045  0.850196  1
  O  O10  1  0.578323  0.149422  0.149460  1
  O  O11  1  0.856545  0.849143  0.438275  1
  O  O12  1  0.421677  0.850578  0.850540  1
  O  O13  1  0.143455  0.150857  0.561725  1
  O  O14  1  0.143362  0.561744  0.150816  1
