# generated using pymatgen
data_TbSc(SbO4)2
_symmetry_space_group_name_H-M   'P 1'
_cell_length_a   5.33121725
_cell_length_b   7.48266024
_cell_length_c   7.58025252
_cell_angle_alpha   80.89028011
_cell_angle_beta   86.86155376
_cell_angle_gamma   91.03230873
_symmetry_Int_Tables_number   1
_chemical_formula_structural   TbSc(SbO4)2
_chemical_formula_sum   'Tb2 Sc2 Sb4 O16'
_cell_volume   298.01798571
_cell_formula_units_Z   2
loop_
 _symmetry_equiv_pos_site_id
 _symmetry_equiv_pos_as_xyz
  1  'x, y, z'
loop_
 _atom_site_type_symbol
 _atom_site_label
 _atom_site_symmetry_multiplicity
 _atom_site_fract_x
 _atom_site_fract_y
 _atom_site_fract_z
 _atom_site_occupancy
  Tb  Tb0  1  0.750160  0.878322  0.371885  1
  Tb  Tb1  1  0.249840  0.121678  0.628115  1
  Sc  Sc2  1  0.717265  0.371267  0.335190  1
  Sc  Sc3  1  0.282735  0.628733  0.664810  1
  Sb  Sb4  1  0.776012  0.808258  0.839141  1
  Sb  Sb5  1  0.223988  0.191742  0.160859  1
  Sb  Sb6  1  0.249052  0.686522  0.170392  1
  Sb  Sb7  1  0.750948  0.313478  0.829608  1
  O  O8  1  0.899465  0.306039  0.069892  1
  O  O9  1  0.100535  0.693961  0.930108  1
  O  O10  1  0.386342  0.437114  0.176136  1
  O  O11  1  0.613658  0.562886  0.823864  1
  O  O12  1  0.102076  0.935030  0.176257  1
  O  O13  1  0.897924  0.064970  0.823743  1
  O  O14  1  0.581869  0.811412  0.070906  1
  O  O15  1  0.418131  0.188588  0.929094  1
  O  O16  1  0.999838  0.817225  0.611890  1
  O  O17  1  0.000162  0.182775  0.388110  1
  O  O18  1  0.416917  0.678795  0.401480  1
  O  O19  1  0.583083  0.321205  0.598520  1
  O  O20  1  0.488383  0.118789  0.331326  1
  O  O21  1  0.511617  0.881211  0.668674  1
  O  O22  1  0.929609  0.604048  0.302914  1
  O  O23  1  0.070391  0.395952  0.697086  1
