# generated using pymatgen
data_K2Ta(WO4)3
_symmetry_space_group_name_H-M   'P 1'
_cell_length_a   7.41705023
_cell_length_b   7.41705043
_cell_length_c   7.38693557
_cell_angle_alpha   60.12671789
_cell_angle_beta   60.12672037
_cell_angle_gamma   60.50946743
_symmetry_Int_Tables_number   1
_chemical_formula_structural   K2Ta(WO4)3
_chemical_formula_sum   'K2 Ta1 W3 O12'
_cell_volume   288.99590666
_cell_formula_units_Z   1
loop_
 _symmetry_equiv_pos_site_id
 _symmetry_equiv_pos_as_xyz
  1  'x, y, z'
loop_
 _atom_site_type_symbol
 _atom_site_label
 _atom_site_symmetry_multiplicity
 _atom_site_fract_x
 _atom_site_fract_y
 _atom_site_fract_z
 _atom_site_occupancy
  K  K0  1  0.792276  0.939686  0.396809  1
  K  K1  1  0.060314  0.207724  0.603191  1
  Ta  Ta2  1  0.498039  0.501961  0.000000  1
  W  W3  1  0.993194  0.512572  0.993213  1
  W  W4  1  0.487428  0.006806  0.006787  1
  W  W5  1  0.506350  0.493650  0.500000  1
  O  O6  1  0.191380  0.185190  0.061377  1
  O  O7  1  0.576019  0.553092  0.681570  1
  O  O8  1  0.191496  0.555307  0.059462  1
  O  O9  1  0.575275  0.170720  0.693555  1
  O  O10  1  0.565412  0.180835  0.063828  1
  O  O11  1  0.187929  0.555968  0.693061  1
  O  O12  1  0.814810  0.808620  0.938623  1
  O  O13  1  0.446908  0.423981  0.318430  1
  O  O14  1  0.819165  0.434588  0.936172  1
  O  O15  1  0.444032  0.812071  0.306939  1
  O  O16  1  0.444693  0.808504  0.940538  1
  O  O17  1  0.829280  0.424725  0.306445  1
