# generated using pymatgen
data_Ho4HfAl3Ir4
_symmetry_space_group_name_H-M   'P 1'
_cell_length_a   4.34434400
_cell_length_b   6.88829804
_cell_length_c   7.95836672
_cell_angle_alpha   89.22033910
_cell_angle_beta   90.00000000
_cell_angle_gamma   90.00000000
_symmetry_Int_Tables_number   1
_chemical_formula_structural   Ho4HfAl3Ir4
_chemical_formula_sum   'Ho4 Hf1 Al3 Ir4'
_cell_volume   238.13315946
_cell_formula_units_Z   1
loop_
 _symmetry_equiv_pos_site_id
 _symmetry_equiv_pos_as_xyz
  1  'x, y, z'
loop_
 _atom_site_type_symbol
 _atom_site_label
 _atom_site_symmetry_multiplicity
 _atom_site_fract_x
 _atom_site_fract_y
 _atom_site_fract_z
 _atom_site_occupancy
  Ho  Ho0  1  0.250000  0.961944  0.313695  1
  Ho  Ho1  1  0.250000  0.478448  0.173920  1
  Ho  Ho2  1  0.750000  0.016275  0.684895  1
  Ho  Ho3  1  0.750000  0.536827  0.829962  1
  Hf  Hf4  1  0.250000  0.363142  0.566481  1
  Al  Al5  1  0.250000  0.856945  0.934097  1
  Al  Al6  1  0.750000  0.642536  0.436166  1
  Al  Al7  1  0.750000  0.143357  0.059595  1
  Ir  Ir8  1  0.250000  0.231082  0.885700  1
  Ir  Ir9  1  0.250000  0.734431  0.617926  1
  Ir  Ir10  1  0.750000  0.773760  0.116171  1
  Ir  Ir11  1  0.750000  0.261255  0.381392  1
