# generated using pymatgen
data_CsRb3Br16
_symmetry_space_group_name_H-M   'P 1'
_cell_length_a   8.23126679
_cell_length_b   9.74875135
_cell_length_c   10.66588373
_cell_angle_alpha   68.14176985
_cell_angle_beta   90.40945808
_cell_angle_gamma   89.51992420
_symmetry_Int_Tables_number   1
_chemical_formula_structural   CsRb3Br16
_chemical_formula_sum   'Cs1 Rb3 Br16'
_cell_volume   794.27186880
_cell_formula_units_Z   1
loop_
 _symmetry_equiv_pos_site_id
 _symmetry_equiv_pos_as_xyz
  1  'x, y, z'
loop_
 _atom_site_type_symbol
 _atom_site_label
 _atom_site_symmetry_multiplicity
 _atom_site_fract_x
 _atom_site_fract_y
 _atom_site_fract_z
 _atom_site_occupancy
  Cs  Cs0  1  0.872687  0.730511  0.197120  1
  Rb  Rb1  1  0.622433  0.731952  0.699887  1
  Rb  Rb2  1  0.124162  0.266639  0.800895  1
  Rb  Rb3  1  0.376776  0.269689  0.301204  1
  Br  Br4  1  0.362386  0.541866  0.518659  1
  Br  Br5  1  0.863921  0.454515  0.984219  1
  Br  Br6  1  0.634568  0.452934  0.490037  1
  Br  Br7  1  0.136582  0.541910  0.011528  1
  Br  Br8  1  0.041318  0.661776  0.563372  1
  Br  Br9  1  0.541302  0.334834  0.944999  1
  Br  Br10  1  0.962004  0.331363  0.446603  1
  Br  Br11  1  0.457416  0.663819  0.053294  1
  Br  Br12  1  0.206093  0.869009  0.613372  1
  Br  Br13  1  0.706770  0.132191  0.885697  1
  Br  Br14  1  0.792888  0.129684  0.392961  1
  Br  Br15  1  0.297440  0.872196  0.107305  1
  Br  Br16  1  0.378913  0.058464  0.657980  1
  Br  Br17  1  0.880076  0.949003  0.829106  1
  Br  Br18  1  0.614339  0.944622  0.345510  1
  Br  Br19  1  0.127922  0.063019  0.156251  1
