# generated using pymatgen
data_Dy11Tm9(Bi2Rh)4
_symmetry_space_group_name_H-M   'P 1'
_cell_length_a   7.93785689
_cell_length_b   8.99337800
_cell_length_c   12.42638136
_cell_angle_alpha   90.00000000
_cell_angle_beta   89.94599894
_cell_angle_gamma   90.00000000
_symmetry_Int_Tables_number   1
_chemical_formula_structural   Dy11Tm9(Bi2Rh)4
_chemical_formula_sum   'Dy11 Tm9 Bi8 Rh4'
_cell_volume   887.09595214
_cell_formula_units_Z   1
loop_
 _symmetry_equiv_pos_site_id
 _symmetry_equiv_pos_as_xyz
  1  'x, y, z'
loop_
 _atom_site_type_symbol
 _atom_site_label
 _atom_site_symmetry_multiplicity
 _atom_site_fract_x
 _atom_site_fract_y
 _atom_site_fract_z
 _atom_site_occupancy
  Dy  Dy0  1  0.157802  0.250000  0.206314  1
  Dy  Dy1  1  0.342033  0.250000  0.706405  1
  Dy  Dy2  1  0.658060  0.750000  0.293643  1
  Dy  Dy3  1  0.375912  0.750000  0.692771  1
  Dy  Dy4  1  0.624601  0.250000  0.307260  1
  Dy  Dy5  1  0.875418  0.250000  0.807253  1
  Dy  Dy6  1  0.124684  0.750000  0.192722  1
  Dy  Dy7  1  0.952098  0.750000  0.501829  1
  Dy  Dy8  1  0.047564  0.250000  0.498632  1
  Dy  Dy9  1  0.452558  0.250000  0.998388  1
  Dy  Dy10  1  0.548519  0.750000  0.001167  1
  Tm  Tm11  1  0.842486  0.750000  0.794675  1
  Tm  Tm12  1  0.675249  0.041505  0.565478  1
  Tm  Tm13  1  0.324828  0.958392  0.434717  1
  Tm  Tm14  1  0.174814  0.957901  0.934375  1
  Tm  Tm15  1  0.324828  0.541608  0.434717  1
  Tm  Tm16  1  0.824818  0.041464  0.065208  1
  Tm  Tm17  1  0.675249  0.458495  0.565478  1
  Tm  Tm18  1  0.824818  0.458536  0.065208  1
  Tm  Tm19  1  0.174814  0.542099  0.934375  1
  Bi  Bi20  1  0.569054  0.492045  0.826334  1
  Bi  Bi21  1  0.431681  0.508531  0.173429  1
  Bi  Bi22  1  0.067490  0.509211  0.673875  1
  Bi  Bi23  1  0.431681  0.991469  0.173429  1
  Bi  Bi24  1  0.931743  0.491566  0.326618  1
  Bi  Bi25  1  0.569054  0.007955  0.826334  1
  Bi  Bi26  1  0.931743  0.008434  0.326618  1
  Bi  Bi27  1  0.067490  0.990789  0.673875  1
  Rh  Rh28  1  0.569857  0.750000  0.509480  1
  Rh  Rh29  1  0.429789  0.250000  0.490422  1
  Rh  Rh30  1  0.069939  0.250000  0.990393  1
  Rh  Rh31  1  0.929327  0.750000  0.008580  1
