# generated using pymatgen
data_DyPuCo6(SiB)2
_symmetry_space_group_name_H-M   'P 1'
_cell_length_a   5.12191300
_cell_length_b   5.12202640
_cell_length_c   6.48042200
_cell_angle_alpha   90.00000000
_cell_angle_beta   90.00000000
_cell_angle_gamma   119.99926120
_symmetry_Int_Tables_number   1
_chemical_formula_structural   DyPuCo6(SiB)2
_chemical_formula_sum   'Dy1 Pu1 Co6 Si2 B2'
_cell_volume   147.23503437
_cell_formula_units_Z   1
loop_
 _symmetry_equiv_pos_site_id
 _symmetry_equiv_pos_as_xyz
  1  'x, y, z'
loop_
 _atom_site_type_symbol
 _atom_site_label
 _atom_site_symmetry_multiplicity
 _atom_site_fract_x
 _atom_site_fract_y
 _atom_site_fract_z
 _atom_site_occupancy
  Dy  Dy0  1  0.999988  0.000000  0.500000  1
  Pu  Pu1  1  0.999976  0.000000  0.000000  1
  Co  Co2  1  0.499984  0.000000  0.283269  1
  Co  Co3  1  0.499983  0.500001  0.283287  1
  Co  Co4  1  0.999982  0.499999  0.283287  1
  Co  Co5  1  0.499984  0.000000  0.716731  1
  Co  Co6  1  0.499983  0.500001  0.716713  1
  Co  Co7  1  0.999982  0.499999  0.716713  1
  Si  Si8  1  0.333302  0.666640  0.000000  1
  Si  Si9  1  0.666662  0.333360  0.000000  1
  B  B10  1  0.333331  0.666691  0.500000  1
  B  B11  1  0.666639  0.333309  0.500000  1
