# generated using pymatgen
data_Tb7YRe2(TcB12)2
_symmetry_space_group_name_H-M   'P 1'
_cell_length_a   3.70283600
_cell_length_b   9.19265081
_cell_length_c   11.58250406
_cell_angle_alpha   89.94191916
_cell_angle_beta   90.00000000
_cell_angle_gamma   90.00000000
_symmetry_Int_Tables_number   1
_chemical_formula_structural   Tb7YRe2(TcB12)2
_chemical_formula_sum   'Tb7 Y1 Re2 Tc2 B24'
_cell_volume   394.25524415
_cell_formula_units_Z   1
loop_
 _symmetry_equiv_pos_site_id
 _symmetry_equiv_pos_as_xyz
  1  'x, y, z'
loop_
 _atom_site_type_symbol
 _atom_site_label
 _atom_site_symmetry_multiplicity
 _atom_site_fract_x
 _atom_site_fract_y
 _atom_site_fract_z
 _atom_site_occupancy
  Tb  Tb0  1  0.000000  0.823879  0.085943  1
  Tb  Tb1  1  0.000000  0.176060  0.913965  1
  Tb  Tb2  1  0.000000  0.323564  0.414100  1
  Tb  Tb3  1  0.000000  0.676427  0.585921  1
  Tb  Tb4  1  0.000000  0.441727  0.130388  1
  Tb  Tb5  1  0.000000  0.558364  0.869612  1
  Tb  Tb6  1  0.000000  0.943198  0.369319  1
  Y  Y7  1  0.000000  0.056785  0.630725  1
  Re  Re8  1  0.000000  0.638484  0.320745  1
  Re  Re9  1  0.000000  0.361383  0.679316  1
  Tc  Tc10  1  0.000000  0.138291  0.179319  1
  Tc  Tc11  1  0.000000  0.861837  0.820683  1
  B  B12  1  0.500000  0.053329  0.067389  1
  B  B13  1  0.500000  0.946679  0.932533  1
  B  B14  1  0.500000  0.553238  0.432733  1
  B  B15  1  0.500000  0.446664  0.567285  1
  B  B16  1  0.500000  0.247772  0.081923  1
  B  B17  1  0.500000  0.752269  0.918024  1
  B  B18  1  0.500000  0.748226  0.418039  1
  B  B19  1  0.500000  0.251466  0.581823  1
  B  B20  1  0.500000  0.290909  0.234397  1
  B  B21  1  0.500000  0.709222  0.765583  1
  B  B22  1  0.500000  0.791195  0.265510  1
  B  B23  1  0.500000  0.208523  0.734559  1
  B  B24  1  0.500000  0.130823  0.313775  1
  B  B25  1  0.500000  0.869307  0.686020  1
  B  B26  1  0.500000  0.630536  0.185958  1
  B  B27  1  0.500000  0.369378  0.814000  1
  B  B28  1  0.500000  0.482460  0.288312  1
  B  B29  1  0.500000  0.517535  0.711669  1
  B  B30  1  0.500000  0.982747  0.211579  1
  B  B31  1  0.500000  0.017472  0.788338  1
  B  B32  1  0.500000  0.100589  0.472173  1
  B  B33  1  0.500000  0.899664  0.528325  1
  B  B34  1  0.500000  0.600484  0.028348  1
  B  B35  1  0.500000  0.399510  0.971668  1
