# generated using pymatgen
data_HoEr3FeSi4Ir
_symmetry_space_group_name_H-M   'P 1'
_cell_length_a   5.62344791
_cell_length_b   5.62344857
_cell_length_c   9.95217080
_cell_angle_alpha   63.18046847
_cell_angle_beta   63.18046568
_cell_angle_gamma   43.41453793
_symmetry_Int_Tables_number   1
_chemical_formula_structural   HoEr3FeSi4Ir
_chemical_formula_sum   'Ho1 Er3 Fe1 Si4 Ir1'
_cell_volume   189.08100955
_cell_formula_units_Z   1
loop_
 _symmetry_equiv_pos_site_id
 _symmetry_equiv_pos_as_xyz
  1  'x, y, z'
loop_
 _atom_site_type_symbol
 _atom_site_label
 _atom_site_symmetry_multiplicity
 _atom_site_fract_x
 _atom_site_fract_y
 _atom_site_fract_z
 _atom_site_occupancy
  Ho  Ho0  1  0.185885  0.185885  0.890140  1
  Er  Er1  1  0.004869  0.004869  0.323217  1
  Er  Er2  1  0.997919  0.997919  0.673379  1
  Er  Er3  1  0.813638  0.813638  0.108102  1
  Fe  Fe4  1  0.272358  0.272358  0.378309  1
  Si  Si5  1  0.651086  0.651086  0.430876  1
  Si  Si6  1  0.360360  0.360360  0.557802  1
  Si  Si7  1  0.499799  0.499799  0.129181  1
  Si  Si8  1  0.486696  0.486696  0.880068  1
  Ir  Ir9  1  0.727390  0.727390  0.628926  1
