# generated using pymatgen
data_SrZnAg4
_symmetry_space_group_name_H-M   'P 1'
_cell_length_a   5.90043900
_cell_length_b   5.66296024
_cell_length_c   4.61740100
_cell_angle_alpha   90.00000000
_cell_angle_beta   90.00000000
_cell_angle_gamma   121.39716906
_symmetry_Int_Tables_number   1
_chemical_formula_structural   SrZnAg4
_chemical_formula_sum   'Sr1 Zn1 Ag4'
_cell_volume   131.69457939
_cell_formula_units_Z   1
loop_
 _symmetry_equiv_pos_site_id
 _symmetry_equiv_pos_as_xyz
  1  'x, y, z'
loop_
 _atom_site_type_symbol
 _atom_site_label
 _atom_site_symmetry_multiplicity
 _atom_site_fract_x
 _atom_site_fract_y
 _atom_site_fract_z
 _atom_site_occupancy
  Sr  Sr0  1  0.000000  0.000000  0.000000  1
  Zn  Zn1  1  0.500000  0.000000  0.500000  1
  Ag  Ag2  1  0.653270  0.306539  0.000000  1
  Ag  Ag3  1  0.500000  0.500000  0.500000  1
  Ag  Ag4  1  0.000000  0.500000  0.500000  1
  Ag  Ag5  1  0.346730  0.693461  0.000000  1
