# generated using pymatgen
data_La3Nd(Sn2Pt)4
_symmetry_space_group_name_H-M   'P 1'
_cell_length_a   4.68028222
_cell_length_b   9.58535400
_cell_length_c   9.23333177
_cell_angle_alpha   90.00000000
_cell_angle_beta   104.37357971
_cell_angle_gamma   90.00000000
_symmetry_Int_Tables_number   1
_chemical_formula_structural   La3Nd(Sn2Pt)4
_chemical_formula_sum   'La3 Nd1 Sn8 Pt4'
_cell_volume   401.26097433
_cell_formula_units_Z   1
loop_
 _symmetry_equiv_pos_site_id
 _symmetry_equiv_pos_as_xyz
  1  'x, y, z'
loop_
 _atom_site_type_symbol
 _atom_site_label
 _atom_site_symmetry_multiplicity
 _atom_site_fract_x
 _atom_site_fract_y
 _atom_site_fract_z
 _atom_site_occupancy
  La  La0  1  0.000156  0.999889  0.000209  1
  La  La1  1  0.000156  0.500111  0.000209  1
  La  La2  1  0.795357  0.250000  0.595574  1
  Nd  Nd3  1  0.204245  0.750000  0.403565  1
  Sn  Sn4  1  0.577132  0.750000  0.147962  1
  Sn  Sn5  1  0.584440  0.250000  0.169736  1
  Sn  Sn6  1  0.197512  0.092156  0.396180  1
  Sn  Sn7  1  0.197512  0.407844  0.396180  1
  Sn  Sn8  1  0.802016  0.594047  0.602951  1
  Sn  Sn9  1  0.802016  0.905954  0.602951  1
  Sn  Sn10  1  0.415752  0.750000  0.830667  1
  Sn  Sn11  1  0.423765  0.250000  0.853817  1
  Pt  Pt12  1  0.649528  0.506741  0.298175  1
  Pt  Pt13  1  0.649528  0.993259  0.298175  1
  Pt  Pt14  1  0.350441  0.005984  0.701824  1
  Pt  Pt15  1  0.350441  0.494016  0.701824  1
