# generated using pymatgen
data_RuPb3Cl2O5
_symmetry_space_group_name_H-M   'P 1'
_cell_length_a   7.38710035
_cell_length_b   7.38710057
_cell_length_c   11.01965500
_cell_angle_alpha   90.00000000
_cell_angle_beta   90.00000000
_cell_angle_gamma   135.18513202
_symmetry_Int_Tables_number   1
_chemical_formula_structural   RuPb3Cl2O5
_chemical_formula_sum   'Ru2 Pb6 Cl4 O10'
_cell_volume   423.83146022
_cell_formula_units_Z   2
loop_
 _symmetry_equiv_pos_site_id
 _symmetry_equiv_pos_as_xyz
  1  'x, y, z'
loop_
 _atom_site_type_symbol
 _atom_site_label
 _atom_site_symmetry_multiplicity
 _atom_site_fract_x
 _atom_site_fract_y
 _atom_site_fract_z
 _atom_site_occupancy
  Ru  Ru0  1  0.774096  0.225904  0.250000  1
  Ru  Ru1  1  0.225904  0.774096  0.750000  1
  Pb  Pb2  1  0.650202  0.349798  0.526661  1
  Pb  Pb3  1  0.349798  0.650202  0.026661  1
  Pb  Pb4  1  0.650202  0.349798  0.973339  1
  Pb  Pb5  1  0.886796  0.113204  0.750000  1
  Pb  Pb6  1  0.349798  0.650202  0.473339  1
  Pb  Pb7  1  0.113204  0.886796  0.250000  1
  Cl  Cl8  1  0.520064  0.479936  0.250000  1
  Cl  Cl9  1  0.000000  0.000000  0.500000  1
  Cl  Cl10  1  0.479936  0.520064  0.750000  1
  Cl  Cl11  1  0.000000  0.000000  0.000000  1
  O  O12  1  0.500144  0.041961  0.368926  1
  O  O13  1  0.041961  0.500144  0.631074  1
  O  O14  1  0.499856  0.958039  0.868926  1
  O  O15  1  0.499856  0.958039  0.631074  1
  O  O16  1  0.103062  0.896938  0.750000  1
  O  O17  1  0.041961  0.500144  0.868926  1
  O  O18  1  0.500144  0.041961  0.131074  1
  O  O19  1  0.958039  0.499856  0.368926  1
  O  O20  1  0.896938  0.103062  0.250000  1
  O  O21  1  0.958039  0.499856  0.131074  1
