# generated using pymatgen
data_CeNdPt2Pb
_symmetry_space_group_name_H-M   'P 1'
_cell_length_a   8.10167900
_cell_length_b   8.08312200
_cell_length_c   3.70331900
_cell_angle_alpha   90.00000000
_cell_angle_beta   90.00000000
_cell_angle_gamma   90.00000000
_symmetry_Int_Tables_number   1
_chemical_formula_structural   CeNdPt2Pb
_chemical_formula_sum   'Ce2 Nd2 Pt4 Pb2'
_cell_volume   242.51873201
_cell_formula_units_Z   2
loop_
 _symmetry_equiv_pos_site_id
 _symmetry_equiv_pos_as_xyz
  1  'x, y, z'
loop_
 _atom_site_type_symbol
 _atom_site_label
 _atom_site_symmetry_multiplicity
 _atom_site_fract_x
 _atom_site_fract_y
 _atom_site_fract_z
 _atom_site_occupancy
  Ce  Ce0  1  0.328354  0.169995  0.499999  1
  Ce  Ce1  1  0.828354  0.330006  0.499999  1
  Nd  Nd2  1  0.171692  0.672561  0.499999  1
  Nd  Nd3  1  0.671692  0.827440  0.499999  1
  Pt  Pt4  1  0.627478  0.138407  0.000000  1
  Pt  Pt5  1  0.127478  0.361593  0.000000  1
  Pt  Pt6  1  0.873194  0.613950  0.000000  1
  Pt  Pt7  1  0.373194  0.886050  0.000000  1
  Pb  Pb8  1  0.999283  0.999196  0.000000  1
  Pb  Pb9  1  0.499283  0.500804  0.000000  1
