# generated using pymatgen
data_Sm8Sc12Sn15Sb
_symmetry_space_group_name_H-M   'P 1'
_cell_length_a   7.80186381
_cell_length_b   7.98314419
_cell_length_c   14.93948489
_cell_angle_alpha   90.05424723
_cell_angle_beta   89.43741824
_cell_angle_gamma   90.17087662
_symmetry_Int_Tables_number   1
_chemical_formula_structural   Sm8Sc12Sn15Sb
_chemical_formula_sum   'Sm8 Sc12 Sn15 Sb1'
_cell_volume   930.43258586
_cell_formula_units_Z   1
loop_
 _symmetry_equiv_pos_site_id
 _symmetry_equiv_pos_as_xyz
  1  'x, y, z'
loop_
 _atom_site_type_symbol
 _atom_site_label
 _atom_site_symmetry_multiplicity
 _atom_site_fract_x
 _atom_site_fract_y
 _atom_site_fract_z
 _atom_site_occupancy
  Sm  Sm0  1  0.995714  0.174710  0.094891  1
  Sm  Sm1  1  0.004067  0.826068  0.905221  1
  Sm  Sm2  1  0.503870  0.674610  0.905275  1
  Sm  Sm3  1  0.006034  0.822413  0.594054  1
  Sm  Sm4  1  0.496396  0.325996  0.094895  1
  Sm  Sm5  1  0.994539  0.177231  0.405444  1
  Sm  Sm6  1  0.493075  0.324278  0.404434  1
  Sm  Sm7  1  0.509002  0.674459  0.596106  1
  Sc  Sc8  1  0.166899  0.495571  0.748957  1
  Sc  Sc9  1  0.833166  0.504058  0.251997  1
  Sc  Sc10  1  0.333712  0.995533  0.250778  1
  Sc  Sc11  1  0.666085  0.004348  0.749666  1
  Sc  Sc12  1  0.340953  0.162136  0.627742  1
  Sc  Sc13  1  0.660428  0.838029  0.372270  1
  Sc  Sc14  1  0.158297  0.661306  0.374745  1
  Sc  Sc15  1  0.663883  0.837080  0.127202  1
  Sc  Sc16  1  0.839518  0.339927  0.625018  1
  Sc  Sc17  1  0.334607  0.162463  0.872520  1
  Sc  Sc18  1  0.836418  0.336605  0.873070  1
  Sc  Sc19  1  0.164980  0.663137  0.126491  1
  Sn  Sn20  1  0.028431  0.128665  0.748490  1
  Sn  Sn21  1  0.971004  0.871258  0.250019  1
  Sn  Sn22  1  0.468552  0.628242  0.249393  1
  Sn  Sn23  1  0.531269  0.371757  0.751206  1
  Sn  Sn24  1  0.307452  0.854347  0.750316  1
  Sn  Sn25  1  0.692453  0.144943  0.249347  1
  Sn  Sn26  1  0.191681  0.355827  0.249543  1
  Sn  Sn27  1  0.809330  0.644791  0.750596  1
  Sn  Sn28  1  0.810725  0.544884  0.456006  1
  Sn  Sn29  1  0.320530  0.956768  0.457665  1
  Sn  Sn30  1  0.824738  0.542546  0.043376  1
  Sn  Sn31  1  0.680204  0.042645  0.542954  1
  Sn  Sn32  1  0.175195  0.457781  0.956516  1
  Sn  Sn33  1  0.675000  0.042211  0.956704  1
  Sn  Sn34  1  0.324359  0.958703  0.043297  1
  Sb  Sb35  1  0.187433  0.454676  0.543797  1
