# generated using pymatgen
data_Na4UInSe6
_symmetry_space_group_name_H-M   'P 1'
_cell_length_a   7.12656875
_cell_length_b   7.12657049
_cell_length_c   7.39674882
_cell_angle_alpha   80.70766108
_cell_angle_beta   80.70765588
_cell_angle_gamma   120.09777171
_symmetry_Int_Tables_number   1
_chemical_formula_structural   Na4UInSe6
_chemical_formula_sum   'Na4 U1 In1 Se6'
_cell_volume   307.54734193
_cell_formula_units_Z   1
loop_
 _symmetry_equiv_pos_site_id
 _symmetry_equiv_pos_as_xyz
  1  'x, y, z'
loop_
 _atom_site_type_symbol
 _atom_site_label
 _atom_site_symmetry_multiplicity
 _atom_site_fract_x
 _atom_site_fract_y
 _atom_site_fract_z
 _atom_site_occupancy
  Na  Na0  1  0.000066  0.999934  0.000000  1
  Na  Na1  1  0.502040  0.497960  0.500000  1
  Na  Na2  1  0.838474  0.161526  0.500000  1
  Na  Na3  1  0.159709  0.840291  0.500000  1
  U  U4  1  0.332577  0.667423  0.000000  1
  In  In5  1  0.667769  0.332231  0.000000  1
  Se  Se6  1  0.275688  0.279325  0.229940  1
  Se  Se7  1  0.429810  0.073621  0.770368  1
  Se  Se8  1  0.080903  0.434090  0.770978  1
  Se  Se9  1  0.720675  0.724312  0.770060  1
  Se  Se10  1  0.565910  0.919097  0.229022  1
  Se  Se11  1  0.926379  0.570190  0.229632  1
