# generated using pymatgen
data_YNb8VSe16
_symmetry_space_group_name_H-M   'P 1'
_cell_length_a   7.00772900
_cell_length_b   7.00773119
_cell_length_c   13.63981200
_cell_angle_alpha   90.00000000
_cell_angle_beta   90.00000000
_cell_angle_gamma   120.00000382
_symmetry_Int_Tables_number   1
_chemical_formula_structural   YNb8VSe16
_chemical_formula_sum   'Y1 Nb8 V1 Se16'
_cell_volume   580.08780078
_cell_formula_units_Z   1
loop_
 _symmetry_equiv_pos_site_id
 _symmetry_equiv_pos_as_xyz
  1  'x, y, z'
loop_
 _atom_site_type_symbol
 _atom_site_label
 _atom_site_symmetry_multiplicity
 _atom_site_fract_x
 _atom_site_fract_y
 _atom_site_fract_z
 _atom_site_occupancy
  Y  Y0  1  0.000000  0.000000  0.000000  1
  Nb  Nb1  1  0.000000  0.000000  0.261880  1
  Nb  Nb2  1  0.000000  0.000000  0.738120  1
  Nb  Nb3  1  0.506795  0.013589  0.263644  1
  Nb  Nb4  1  0.493205  0.986411  0.736356  1
  Nb  Nb5  1  0.986411  0.493205  0.263644  1
  Nb  Nb6  1  0.013589  0.506795  0.736356  1
  Nb  Nb7  1  0.506795  0.493205  0.263644  1
  Nb  Nb8  1  0.493205  0.506795  0.736356  1
  V  V9  1  0.000000  0.000000  0.500000  1
  Se  Se10  1  0.333333  0.666667  0.610528  1
  Se  Se11  1  0.666667  0.333333  0.389472  1
  Se  Se12  1  0.666667  0.333333  0.136454  1
  Se  Se13  1  0.333333  0.666667  0.863546  1
  Se  Se14  1  0.170518  0.341035  0.140808  1
  Se  Se15  1  0.829482  0.658965  0.859192  1
  Se  Se16  1  0.658965  0.829482  0.140808  1
  Se  Se17  1  0.833336  0.666673  0.615373  1
  Se  Se18  1  0.341035  0.170518  0.859192  1
  Se  Se19  1  0.166664  0.333327  0.384627  1
  Se  Se20  1  0.170518  0.829482  0.140808  1
  Se  Se21  1  0.333327  0.166664  0.615373  1
  Se  Se22  1  0.829482  0.170518  0.859192  1
  Se  Se23  1  0.666673  0.833336  0.384627  1
  Se  Se24  1  0.833336  0.166664  0.615373  1
  Se  Se25  1  0.166664  0.833336  0.384627  1
