# generated using pymatgen
data_Tm3Lu7(GaCo5)2
_symmetry_space_group_name_H-M   'P 1'
_cell_length_a   5.33539181
_cell_length_b   5.33539167
_cell_length_c   20.22217933
_cell_angle_alpha   90.04458869
_cell_angle_beta   89.95541095
_cell_angle_gamma   136.26351673
_symmetry_Int_Tables_number   1
_chemical_formula_structural   Tm3Lu7(GaCo5)2
_chemical_formula_sum   'Tm3 Lu7 Ga2 Co10'
_cell_volume   397.97314007
_cell_formula_units_Z   1
loop_
 _symmetry_equiv_pos_site_id
 _symmetry_equiv_pos_as_xyz
  1  'x, y, z'
loop_
 _atom_site_type_symbol
 _atom_site_label
 _atom_site_symmetry_multiplicity
 _atom_site_fract_x
 _atom_site_fract_y
 _atom_site_fract_z
 _atom_site_occupancy
  Tm  Tm0  1  0.294049  0.705951  0.066403  1
  Tm  Tm1  1  0.995497  0.004503  0.842144  1
  Tm  Tm2  1  0.705892  0.294108  0.565764  1
  Lu  Lu3  1  0.293823  0.706177  0.250403  1
  Lu  Lu4  1  0.706577  0.293423  0.749539  1
  Lu  Lu5  1  0.005346  0.994654  0.342435  1
  Lu  Lu6  1  0.994374  0.005626  0.657590  1
  Lu  Lu7  1  0.706691  0.293309  0.933929  1
  Lu  Lu8  1  0.005777  0.994223  0.158347  1
  Lu  Lu9  1  0.293762  0.706238  0.433402  1
  Ga  Ga10  1  0.999157  0.000843  0.499770  1
  Ga  Ga11  1  0.000346  0.999654  0.999920  1
  Co  Co12  1  0.288505  0.711495  0.654759  1
  Co  Co13  1  0.584126  0.415874  0.440832  1
  Co  Co14  1  0.410790  0.589210  0.749606  1
  Co  Co15  1  0.415460  0.584540  0.941300  1
  Co  Co16  1  0.588856  0.411144  0.250396  1
  Co  Co17  1  0.415122  0.584878  0.558412  1
  Co  Co18  1  0.711395  0.288605  0.345447  1
  Co  Co19  1  0.710839  0.289161  0.155403  1
  Co  Co20  1  0.584853  0.415147  0.058984  1
  Co  Co21  1  0.288761  0.711239  0.845216  1
