# generated using pymatgen
data_Ho6Er2Re(B8Ir)3
_symmetry_space_group_name_H-M   'P 1'
_cell_length_a   3.64947800
_cell_length_b   9.16076631
_cell_length_c   11.49140319
_cell_angle_alpha   90.15038445
_cell_angle_beta   90.00000000
_cell_angle_gamma   90.00000000
_symmetry_Int_Tables_number   1
_chemical_formula_structural   Ho6Er2Re(B8Ir)3
_chemical_formula_sum   'Ho6 Er2 Re1 B24 Ir3'
_cell_volume   384.17944169
_cell_formula_units_Z   1
loop_
 _symmetry_equiv_pos_site_id
 _symmetry_equiv_pos_as_xyz
  1  'x, y, z'
loop_
 _atom_site_type_symbol
 _atom_site_label
 _atom_site_symmetry_multiplicity
 _atom_site_fract_x
 _atom_site_fract_y
 _atom_site_fract_z
 _atom_site_occupancy
  Ho  Ho0  1  0.000000  0.321089  0.413515  1
  Ho  Ho1  1  0.000000  0.682899  0.590764  1
  Ho  Ho2  1  0.000000  0.820799  0.082810  1
  Ho  Ho3  1  0.000000  0.175861  0.912217  1
  Ho  Ho4  1  0.000000  0.943691  0.373009  1
  Ho  Ho5  1  0.000000  0.053882  0.626267  1
  Er  Er6  1  0.000000  0.443617  0.125945  1
  Er  Er7  1  0.000000  0.557283  0.875179  1
  Re  Re8  1  0.000000  0.862153  0.821443  1
  B  B9  1  0.500000  0.553443  0.434244  1
  B  B10  1  0.500000  0.447758  0.566681  1
  B  B11  1  0.500000  0.053267  0.066353  1
  B  B12  1  0.500000  0.946759  0.933263  1
  B  B13  1  0.500000  0.749773  0.420710  1
  B  B14  1  0.500000  0.251046  0.579000  1
  B  B15  1  0.500000  0.249035  0.078913  1
  B  B16  1  0.500000  0.751880  0.920113  1
  B  B17  1  0.500000  0.791768  0.265080  1
  B  B18  1  0.500000  0.208097  0.733360  1
  B  B19  1  0.500000  0.293052  0.234660  1
  B  B20  1  0.500000  0.707836  0.766427  1
  B  B21  1  0.500000  0.630987  0.184427  1
  B  B22  1  0.500000  0.368453  0.815763  1
  B  B23  1  0.500000  0.132253  0.315229  1
  B  B24  1  0.500000  0.868651  0.685775  1
  B  B25  1  0.500000  0.981772  0.212683  1
  B  B26  1  0.500000  0.017259  0.786694  1
  B  B27  1  0.500000  0.481092  0.287304  1
  B  B28  1  0.500000  0.518211  0.714231  1
  B  B29  1  0.500000  0.608333  0.031236  1
  B  B30  1  0.500000  0.389264  0.970084  1
  B  B31  1  0.500000  0.110396  0.468978  1
  B  B32  1  0.500000  0.890642  0.528986  1
  Ir  Ir33  1  0.000000  0.636757  0.322368  1
  Ir  Ir34  1  0.000000  0.363038  0.678211  1
  Ir  Ir35  1  0.000000  0.137901  0.178082  1
