# generated using pymatgen
data_Nb3PbSe6
_symmetry_space_group_name_H-M   'P 1'
_cell_length_a   6.11957100
_cell_length_b   6.11957130
_cell_length_c   15.56116100
_cell_angle_alpha   90.00000000
_cell_angle_beta   90.00000000
_cell_angle_gamma   120.00000380
_symmetry_Int_Tables_number   1
_chemical_formula_structural   Nb3PbSe6
_chemical_formula_sum   'Nb6 Pb2 Se12'
_cell_volume   504.67824941
_cell_formula_units_Z   2
loop_
 _symmetry_equiv_pos_site_id
 _symmetry_equiv_pos_as_xyz
  1  'x, y, z'
loop_
 _atom_site_type_symbol
 _atom_site_label
 _atom_site_symmetry_multiplicity
 _atom_site_fract_x
 _atom_site_fract_y
 _atom_site_fract_z
 _atom_site_occupancy
  Nb  Nb0  1  0.333333  0.666667  0.000930  1
  Nb  Nb1  1  0.000000  0.000000  0.000000  1
  Nb  Nb2  1  0.666667  0.333333  0.999070  1
  Nb  Nb3  1  0.333333  0.666667  0.499070  1
  Nb  Nb4  1  0.000000  0.000000  0.500000  1
  Nb  Nb5  1  0.666667  0.333333  0.500930  1
  Pb  Pb6  1  0.333333  0.666667  0.250000  1
  Pb  Pb7  1  0.666667  0.333333  0.750000  1
  Se  Se8  1  0.670808  0.666177  0.393717  1
  Se  Se9  1  0.666177  0.670808  0.606283  1
  Se  Se10  1  0.004632  0.670808  0.893717  1
  Se  Se11  1  0.666177  0.995368  0.893717  1
  Se  Se12  1  0.670808  0.004632  0.106283  1
  Se  Se13  1  0.333823  0.004632  0.393717  1
  Se  Se14  1  0.004632  0.333823  0.606283  1
  Se  Se15  1  0.329192  0.995368  0.606283  1
  Se  Se16  1  0.995368  0.666177  0.106283  1
  Se  Se17  1  0.329192  0.333823  0.893717  1
  Se  Se18  1  0.995368  0.329192  0.393717  1
  Se  Se19  1  0.333823  0.329192  0.106283  1
