# generated using pymatgen
data_AcErP7Ru12
_symmetry_space_group_name_H-M   'P 1'
_cell_length_a   9.52325400
_cell_length_b   9.52325309
_cell_length_c   3.97904200
_cell_angle_alpha   90.00000000
_cell_angle_beta   90.00000000
_cell_angle_gamma   119.99999527
_symmetry_Int_Tables_number   1
_chemical_formula_structural   AcErP7Ru12
_chemical_formula_sum   'Ac1 Er1 P7 Ru12'
_cell_volume   312.52147832
_cell_formula_units_Z   1
loop_
 _symmetry_equiv_pos_site_id
 _symmetry_equiv_pos_as_xyz
  1  'x, y, z'
loop_
 _atom_site_type_symbol
 _atom_site_label
 _atom_site_symmetry_multiplicity
 _atom_site_fract_x
 _atom_site_fract_y
 _atom_site_fract_z
 _atom_site_occupancy
  Ac  Ac0  1  0.333333  0.666667  0.000000  1
  Er  Er1  1  0.666667  0.333333  0.500000  1
  P  P2  1  0.611326  0.718136  0.500000  1
  P  P3  1  0.000000  0.000000  0.000000  1
  P  P4  1  0.281864  0.893190  0.500000  1
  P  P5  1  0.106810  0.388674  0.500000  1
  P  P6  1  0.888225  0.570195  0.000000  1
  P  P7  1  0.429805  0.318031  0.000000  1
  P  P8  1  0.681969  0.111775  0.000000  1
  Ru  Ru9  1  0.562100  0.960744  0.500000  1
  Ru  Ru10  1  0.398645  0.437900  0.500000  1
  Ru  Ru11  1  0.914625  0.117536  0.500000  1
  Ru  Ru12  1  0.202911  0.085375  0.500000  1
  Ru  Ru13  1  0.882464  0.797089  0.500000  1
  Ru  Ru14  1  0.729845  0.893184  0.000000  1
  Ru  Ru15  1  0.106816  0.836661  0.000000  1
  Ru  Ru16  1  0.163339  0.270155  0.000000  1
  Ru  Ru17  1  0.421016  0.072522  0.000000  1
  Ru  Ru18  1  0.927478  0.348495  0.000000  1
  Ru  Ru19  1  0.651505  0.578984  0.000000  1
  Ru  Ru20  1  0.039256  0.601355  0.500000  1
