# generated using pymatgen
data_Nb12Co8Os3WC4
_symmetry_space_group_name_H-M   'P 1'
_cell_length_a   8.18839759
_cell_length_b   8.16386245
_cell_length_c   8.18683201
_cell_angle_alpha   59.91191401
_cell_angle_beta   60.01099674
_cell_angle_gamma   59.91425183
_symmetry_Int_Tables_number   1
_chemical_formula_structural   Nb12Co8Os3WC4
_chemical_formula_sum   'Nb12 Co8 Os3 W1 C4'
_cell_volume   386.50904421
_cell_formula_units_Z   1
loop_
 _symmetry_equiv_pos_site_id
 _symmetry_equiv_pos_as_xyz
  1  'x, y, z'
loop_
 _atom_site_type_symbol
 _atom_site_label
 _atom_site_symmetry_multiplicity
 _atom_site_fract_x
 _atom_site_fract_y
 _atom_site_fract_z
 _atom_site_occupancy
  Nb  Nb0  1  0.805097  0.804328  0.195258  1
  Nb  Nb1  1  0.189146  0.194679  0.808071  1
  Nb  Nb2  1  0.808089  0.194724  0.808048  1
  Nb  Nb3  1  0.195327  0.804357  0.195203  1
  Nb  Nb4  1  0.195272  0.804397  0.805122  1
  Nb  Nb5  1  0.808057  0.194763  0.189133  1
  Nb  Nb6  1  0.444903  0.445672  0.054742  1
  Nb  Nb7  1  0.060854  0.055321  0.441929  1
  Nb  Nb8  1  0.441911  0.055276  0.441952  1
  Nb  Nb9  1  0.054673  0.445643  0.054797  1
  Nb  Nb10  1  0.054728  0.445603  0.444878  1
  Nb  Nb11  1  0.441943  0.055237  0.060867  1
  Co  Co12  1  0.729019  0.423792  0.423590  1
  Co  Co13  1  0.424790  0.725707  0.424743  1
  Co  Co14  1  0.423638  0.423838  0.728903  1
  Co  Co15  1  0.423630  0.423828  0.423601  1
  Co  Co16  1  0.520981  0.826208  0.826410  1
  Co  Co17  1  0.825210  0.524293  0.825257  1
  Co  Co18  1  0.826362  0.826162  0.521097  1
  Co  Co19  1  0.826370  0.826172  0.826399  1
  Os  Os20  1  0.125000  0.625000  0.625000  1
  Os  Os21  1  0.625000  0.625000  0.125000  1
  Os  Os22  1  0.625000  0.625000  0.625000  1
  W  W23  1  0.625000  0.125000  0.625000  1
  C  C24  1  0.625000  0.125000  0.125000  1
  C  C25  1  0.125000  0.625000  0.125000  1
  C  C26  1  0.125000  0.125000  0.625000  1
  C  C27  1  0.125000  0.125000  0.125000  1
