# generated using pymatgen
data_Er4Co3ReOs4
_symmetry_space_group_name_H-M   'P 1'
_cell_length_a   5.26498700
_cell_length_b   5.20283712
_cell_length_c   8.66614000
_cell_angle_alpha   90.00000000
_cell_angle_beta   90.00000000
_cell_angle_gamma   121.50427611
_symmetry_Int_Tables_number   1
_chemical_formula_structural   Er4Co3ReOs4
_chemical_formula_sum   'Er4 Co3 Re1 Os4'
_cell_volume   202.39937017
_cell_formula_units_Z   1
loop_
 _symmetry_equiv_pos_site_id
 _symmetry_equiv_pos_as_xyz
  1  'x, y, z'
loop_
 _atom_site_type_symbol
 _atom_site_label
 _atom_site_symmetry_multiplicity
 _atom_site_fract_x
 _atom_site_fract_y
 _atom_site_fract_z
 _atom_site_occupancy
  Er  Er0  1  0.672216  0.341273  0.560405  1
  Er  Er1  1  0.337701  0.672408  0.432776  1
  Er  Er2  1  0.337701  0.672408  0.067224  1
  Er  Er3  1  0.672216  0.341273  0.939595  1
  Co  Co4  1  0.171726  0.820294  0.750000  1
  Co  Co5  1  0.816215  0.650916  0.250000  1
  Co  Co6  1  0.821370  0.161623  0.250000  1
  Re  Re7  1  0.165907  0.324407  0.750000  1
  Os  Os8  1  0.011243  0.015389  0.495541  1
  Os  Os9  1  0.011243  0.015389  0.004459  1
  Os  Os10  1  0.649420  0.816743  0.750000  1
  Os  Os11  1  0.333042  0.167877  0.250000  1
