# generated using pymatgen
data_DySiPRu2
_symmetry_space_group_name_H-M   'P 1'
_cell_length_a   5.59538830
_cell_length_b   5.59538879
_cell_length_c   5.59538827
_cell_angle_alpha   136.76627439
_cell_angle_beta   136.76628566
_cell_angle_gamma   62.79785330
_symmetry_Int_Tables_number   1
_chemical_formula_structural   DySiPRu2
_chemical_formula_sum   'Dy1 Si1 P1 Ru2'
_cell_volume   81.17455228
_cell_formula_units_Z   1
loop_
 _symmetry_equiv_pos_site_id
 _symmetry_equiv_pos_as_xyz
  1  'x, y, z'
loop_
 _atom_site_type_symbol
 _atom_site_label
 _atom_site_symmetry_multiplicity
 _atom_site_fract_x
 _atom_site_fract_y
 _atom_site_fract_z
 _atom_site_occupancy
  Dy  Dy0  1  0.001208  0.001208  0.000000  1
  Si  Si1  1  0.373959  0.373959  0.000000  1
  P  P2  1  0.629779  0.629779  0.000000  1
  Ru  Ru3  1  0.247527  0.747527  0.500000  1
  Ru  Ru4  1  0.747527  0.247527  0.500000  1
