# generated using pymatgen
data_SmPaTeN2
_symmetry_space_group_name_H-M   'P 1'
_cell_length_a   6.97708182
_cell_length_b   6.97708186
_cell_length_c   6.97708170
_cell_angle_alpha   146.60166359
_cell_angle_beta   146.60167082
_cell_angle_gamma   47.95394057
_symmetry_Int_Tables_number   1
_chemical_formula_structural   SmPaTeN2
_chemical_formula_sum   'Sm1 Pa1 Te1 N2'
_cell_volume   102.49468694
_cell_formula_units_Z   1
loop_
 _symmetry_equiv_pos_site_id
 _symmetry_equiv_pos_as_xyz
  1  'x, y, z'
loop_
 _atom_site_type_symbol
 _atom_site_label
 _atom_site_symmetry_multiplicity
 _atom_site_fract_x
 _atom_site_fract_y
 _atom_site_fract_z
 _atom_site_occupancy
  Sm  Sm0  1  0.341582  0.341582  0.000000  1
  Pa  Pa1  1  0.669627  0.669627  0.000000  1
  Te  Te2  1  0.004497  0.004497  0.000000  1
  N  N3  1  0.742147  0.242147  0.500000  1
  N  N4  1  0.242147  0.742147  0.500000  1
