# generated using pymatgen
data_Tm8Cd3Cu8Sn
_symmetry_space_group_name_H-M   'P 1'
_cell_length_a   7.56061800
_cell_length_b   7.56061800
_cell_length_c   7.29848900
_cell_angle_alpha   90.00000000
_cell_angle_beta   90.00000000
_cell_angle_gamma   90.00000000
_symmetry_Int_Tables_number   1
_chemical_formula_structural   Tm8Cd3Cu8Sn
_chemical_formula_sum   'Tm8 Cd3 Cu8 Sn1'
_cell_volume   417.20312195
_cell_formula_units_Z   1
loop_
 _symmetry_equiv_pos_site_id
 _symmetry_equiv_pos_as_xyz
  1  'x, y, z'
loop_
 _atom_site_type_symbol
 _atom_site_label
 _atom_site_symmetry_multiplicity
 _atom_site_fract_x
 _atom_site_fract_y
 _atom_site_fract_z
 _atom_site_occupancy
  Tm  Tm0  1  0.831830  0.171644  0.499822  1
  Tm  Tm1  1  0.168170  0.828356  0.499822  1
  Tm  Tm2  1  0.328356  0.331830  0.000178  1
  Tm  Tm3  1  0.671644  0.668170  0.000178  1
  Tm  Tm4  1  0.679869  0.676942  0.500062  1
  Tm  Tm5  1  0.320131  0.323058  0.500062  1
  Tm  Tm6  1  0.176942  0.820131  0.999938  1
  Tm  Tm7  1  0.823058  0.179869  0.999938  1
  Cd  Cd8  1  0.500000  0.000000  0.250000  1
  Cd  Cd9  1  0.000000  0.500000  0.750000  1
  Cd  Cd10  1  0.500000  0.000000  0.750000  1
  Cu  Cu11  1  0.615843  0.377851  0.259547  1
  Cu  Cu12  1  0.384157  0.622149  0.259547  1
  Cu  Cu13  1  0.120562  0.117273  0.758983  1
  Cu  Cu14  1  0.879438  0.882727  0.758983  1
  Cu  Cu15  1  0.382727  0.620562  0.741017  1
  Cu  Cu16  1  0.617273  0.379438  0.741017  1
  Cu  Cu17  1  0.877851  0.884157  0.240453  1
  Cu  Cu18  1  0.122149  0.115843  0.240453  1
  Sn  Sn19  1  0.000000  0.500000  0.250000  1
