# generated using pymatgen
data_Y12HoTh3(CdIr)4
_symmetry_space_group_name_H-M   'P 1'
_cell_length_a   9.75007762
_cell_length_b   9.75249711
_cell_length_c   9.75249800
_cell_angle_alpha   59.99999698
_cell_angle_beta   59.99178788
_cell_angle_gamma   59.99179149
_symmetry_Int_Tables_number   1
_chemical_formula_structural   Y12HoTh3(CdIr)4
_chemical_formula_sum   'Y12 Ho1 Th3 Cd4 Ir4'
_cell_volume   655.64817858
_cell_formula_units_Z   1
loop_
 _symmetry_equiv_pos_site_id
 _symmetry_equiv_pos_as_xyz
  1  'x, y, z'
loop_
 _atom_site_type_symbol
 _atom_site_label
 _atom_site_symmetry_multiplicity
 _atom_site_fract_x
 _atom_site_fract_y
 _atom_site_fract_z
 _atom_site_occupancy
  Y  Y0  1  0.811190  0.189905  0.189905  1
  Y  Y1  1  0.188752  0.811619  0.811619  1
  Y  Y2  1  0.188752  0.811619  0.188010  1
  Y  Y3  1  0.811190  0.189905  0.809000  1
  Y  Y4  1  0.188752  0.188010  0.811619  1
  Y  Y5  1  0.811190  0.809000  0.189905  1
  Y  Y6  1  0.936613  0.563396  0.563396  1
  Y  Y7  1  0.564103  0.935722  0.935722  1
  Y  Y8  1  0.564103  0.935722  0.564452  1
  Y  Y9  1  0.936613  0.563396  0.936594  1
  Y  Y10  1  0.564103  0.564452  0.935722  1
  Y  Y11  1  0.936613  0.936594  0.563396  1
  Ho  Ho12  1  0.949096  0.350302  0.350302  1
  Th  Th13  1  0.347208  0.349621  0.349621  1
  Th  Th14  1  0.347208  0.349621  0.953550  1
  Th  Th15  1  0.347208  0.953550  0.349621  1
  Cd  Cd16  1  0.584006  0.581139  0.581139  1
  Cd  Cd17  1  0.584006  0.581139  0.253717  1
  Cd  Cd18  1  0.584006  0.253717  0.581139  1
  Cd  Cd19  1  0.251587  0.582805  0.582805  1
  Ir  Ir20  1  0.144590  0.142226  0.142226  1
  Ir  Ir21  1  0.144590  0.142226  0.570959  1
  Ir  Ir22  1  0.144590  0.570959  0.142226  1
  Ir  Ir23  1  0.569937  0.143354  0.143354  1
