# generated using pymatgen
data_NdDy(AsPt)2
_symmetry_space_group_name_H-M   'P 1'
_cell_length_a   4.30682700
_cell_length_b   4.30682624
_cell_length_c   15.90983300
_cell_angle_alpha   90.00000000
_cell_angle_beta   90.00000000
_cell_angle_gamma   119.99999818
_symmetry_Int_Tables_number   1
_chemical_formula_structural   NdDy(AsPt)2
_chemical_formula_sum   'Nd2 Dy2 As4 Pt4'
_cell_volume   255.57068553
_cell_formula_units_Z   2
loop_
 _symmetry_equiv_pos_site_id
 _symmetry_equiv_pos_as_xyz
  1  'x, y, z'
loop_
 _atom_site_type_symbol
 _atom_site_label
 _atom_site_symmetry_multiplicity
 _atom_site_fract_x
 _atom_site_fract_y
 _atom_site_fract_z
 _atom_site_occupancy
  Nd  Nd0  1  0.000000  0.000000  0.500000  1
  Nd  Nd1  1  0.000000  0.000000  0.000000  1
  Dy  Dy2  1  0.000000  0.000000  0.250000  1
  Dy  Dy3  1  0.000000  0.000000  0.750000  1
  As  As4  1  0.333333  0.666667  0.880328  1
  As  As5  1  0.666667  0.333333  0.119672  1
  As  As6  1  0.666667  0.333333  0.380328  1
  As  As7  1  0.333333  0.666667  0.619672  1
  Pt  Pt8  1  0.333333  0.666667  0.360294  1
  Pt  Pt9  1  0.666667  0.333333  0.639706  1
  Pt  Pt10  1  0.666667  0.333333  0.860294  1
  Pt  Pt11  1  0.333333  0.666667  0.139706  1
