# generated using pymatgen
data_Ti3AlGaO
_symmetry_space_group_name_H-M   'P 1'
_cell_length_a   6.89769600
_cell_length_b   6.89769600
_cell_length_c   6.89769600
_cell_angle_alpha   90.00000000
_cell_angle_beta   90.00000000
_cell_angle_gamma   90.00000000
_symmetry_Int_Tables_number   1
_chemical_formula_structural   Ti3AlGaO
_chemical_formula_sum   'Ti12 Al4 Ga4 O4'
_cell_volume   328.18002955
_cell_formula_units_Z   4
loop_
 _symmetry_equiv_pos_site_id
 _symmetry_equiv_pos_as_xyz
  1  'x, y, z'
loop_
 _atom_site_type_symbol
 _atom_site_label
 _atom_site_symmetry_multiplicity
 _atom_site_fract_x
 _atom_site_fract_y
 _atom_site_fract_z
 _atom_site_occupancy
  Ti  Ti0  1  0.793276  0.959282  0.375381  1
  Ti  Ti1  1  0.706724  0.040718  0.875381  1
  Ti  Ti2  1  0.206724  0.459282  0.124619  1
  Ti  Ti3  1  0.293276  0.540718  0.624619  1
  Ti  Ti4  1  0.959282  0.375381  0.793276  1
  Ti  Ti5  1  0.040718  0.875381  0.706724  1
  Ti  Ti6  1  0.459282  0.124619  0.206724  1
  Ti  Ti7  1  0.540718  0.624619  0.293276  1
  Ti  Ti8  1  0.375381  0.793276  0.959282  1
  Ti  Ti9  1  0.875381  0.706724  0.040718  1
  Ti  Ti10  1  0.124619  0.206724  0.459282  1
  Ti  Ti11  1  0.624619  0.293276  0.540718  1
  Al  Al12  1  0.178864  0.821136  0.321136  1
  Al  Al13  1  0.321136  0.178864  0.821136  1
  Al  Al14  1  0.821136  0.321136  0.178864  1
  Al  Al15  1  0.678864  0.678864  0.678864  1
  Ga  Ga16  1  0.570366  0.429634  0.929634  1
  Ga  Ga17  1  0.429634  0.929634  0.570366  1
  Ga  Ga18  1  0.929634  0.570366  0.429634  1
  Ga  Ga19  1  0.070366  0.070366  0.070366  1
  O  O20  1  0.873821  0.126179  0.626179  1
  O  O21  1  0.626179  0.873821  0.126179  1
  O  O22  1  0.126179  0.626179  0.873821  1
  O  O23  1  0.373821  0.373821  0.373821  1
