# generated using pymatgen
data_AcLa2(AgPd)3
_symmetry_space_group_name_H-M   'P 1'
_cell_length_a   7.75756300
_cell_length_b   7.75756281
_cell_length_c   4.16262800
_cell_angle_alpha   90.00000000
_cell_angle_beta   90.00000000
_cell_angle_gamma   119.65386811
_symmetry_Int_Tables_number   1
_chemical_formula_structural   AcLa2(AgPd)3
_chemical_formula_sum   'Ac1 La2 Ag3 Pd3'
_cell_volume   217.69730808
_cell_formula_units_Z   1
loop_
 _symmetry_equiv_pos_site_id
 _symmetry_equiv_pos_as_xyz
  1  'x, y, z'
loop_
 _atom_site_type_symbol
 _atom_site_label
 _atom_site_symmetry_multiplicity
 _atom_site_fract_x
 _atom_site_fract_y
 _atom_site_fract_z
 _atom_site_occupancy
  Ac  Ac0  1  0.403127  0.403127  0.500000  1
  La  La1  1  0.598092  0.000539  0.500000  1
  La  La2  1  0.000539  0.598092  0.500000  1
  Ag  Ag3  1  0.755751  0.755751  0.000000  1
  Ag  Ag4  1  0.246605  0.995783  0.000000  1
  Ag  Ag5  1  0.995783  0.246605  0.000000  1
  Pd  Pd6  1  0.670057  0.332318  0.000000  1
  Pd  Pd7  1  0.332318  0.670057  0.000000  1
  Pd  Pd8  1  0.997726  0.997726  0.500000  1
