# generated using pymatgen
data_Zn10Ag2Rh
_symmetry_space_group_name_H-M   'P 1'
_cell_length_a   8.02260162
_cell_length_b   8.02260324
_cell_length_c   7.99232963
_cell_angle_alpha   70.83916659
_cell_angle_beta   70.83917709
_cell_angle_gamma   109.57644817
_symmetry_Int_Tables_number   1
_chemical_formula_structural   Zn10Ag2Rh
_chemical_formula_sum   'Zn20 Ag4 Rh2'
_cell_volume   398.48237807
_cell_formula_units_Z   2
loop_
 _symmetry_equiv_pos_site_id
 _symmetry_equiv_pos_as_xyz
  1  'x, y, z'
loop_
 _atom_site_type_symbol
 _atom_site_label
 _atom_site_symmetry_multiplicity
 _atom_site_fract_x
 _atom_site_fract_y
 _atom_site_fract_z
 _atom_site_occupancy
  Zn  Zn0  1  0.990810  0.990810  0.798962  1
  Zn  Zn1  1  0.771055  0.771055  0.218446  1
  Zn  Zn2  1  0.214195  0.992155  0.000622  1
  Zn  Zn3  1  0.992155  0.214195  0.000622  1
  Zn  Zn4  1  0.285325  0.285325  0.369464  1
  Zn  Zn5  1  0.007061  0.725496  0.652304  1
  Zn  Zn6  1  0.725496  0.007061  0.652304  1
  Zn  Zn7  1  0.654152  0.654152  0.636096  1
  Zn  Zn8  1  0.375094  0.658219  0.344311  1
  Zn  Zn9  1  0.658219  0.375094  0.344311  1
  Zn  Zn10  1  0.351907  0.737846  0.992449  1
  Zn  Zn11  1  0.616474  0.261802  0.740983  1
  Zn  Zn12  1  0.360288  0.010243  0.263878  1
  Zn  Zn13  1  0.737846  0.351907  0.992449  1
  Zn  Zn14  1  0.010243  0.360288  0.263878  1
  Zn  Zn15  1  0.261802  0.616474  0.740983  1
  Zn  Zn16  1  0.642559  0.642559  0.994284  1
  Zn  Zn17  1  0.981023  0.640530  0.361858  1
  Zn  Zn18  1  0.640530  0.981023  0.361858  1
  Zn  Zn19  1  0.356146  0.356146  0.002189  1
  Ag  Ag20  1  0.004469  0.357982  0.625633  1
  Ag  Ag21  1  0.357982  0.004469  0.625633  1
  Ag  Ag22  1  0.002999  0.002999  0.349084  1
  Ag  Ag23  1  0.360885  0.360885  0.649309  1
  Rh  Rh24  1  0.648471  0.992813  0.009046  1
  Rh  Rh25  1  0.992813  0.648471  0.009046  1
