# generated using pymatgen
data_Ta2Ni20SnB6
_symmetry_space_group_name_H-M   'P 1'
_cell_length_a   7.50600164
_cell_length_b   7.50600199
_cell_length_c   7.50600100
_cell_angle_alpha   59.99999993
_cell_angle_beta   59.99999842
_cell_angle_gamma   60.00000046
_symmetry_Int_Tables_number   1
_chemical_formula_structural   Ta2Ni20SnB6
_chemical_formula_sum   'Ta2 Ni20 Sn1 B6'
_cell_volume   299.02737353
_cell_formula_units_Z   1
loop_
 _symmetry_equiv_pos_site_id
 _symmetry_equiv_pos_as_xyz
  1  'x, y, z'
loop_
 _atom_site_type_symbol
 _atom_site_label
 _atom_site_symmetry_multiplicity
 _atom_site_fract_x
 _atom_site_fract_y
 _atom_site_fract_z
 _atom_site_occupancy
  Ta  Ta0  1  0.000000  0.000000  0.000000  1
  Ta  Ta1  1  0.250000  0.250000  0.250000  1
  Ni  Ni2  1  0.614240  0.614240  0.157281  1
  Ni  Ni3  1  0.614240  0.157281  0.614240  1
  Ni  Ni4  1  0.157281  0.614240  0.614240  1
  Ni  Ni5  1  0.614240  0.614240  0.614240  1
  Ni  Ni6  1  0.384252  0.384252  0.847245  1
  Ni  Ni7  1  0.384252  0.847245  0.384252  1
  Ni  Ni8  1  0.847245  0.384252  0.384252  1
  Ni  Ni9  1  0.384252  0.384252  0.384252  1
  Ni  Ni10  1  0.002801  0.002801  0.338844  1
  Ni  Ni11  1  0.655554  0.002801  0.338844  1
  Ni  Ni12  1  0.002801  0.655554  0.338844  1
  Ni  Ni13  1  0.655554  0.338844  0.002801  1
  Ni  Ni14  1  0.002801  0.338844  0.002801  1
  Ni  Ni15  1  0.002801  0.338844  0.655554  1
  Ni  Ni16  1  0.338844  0.655554  0.002801  1
  Ni  Ni17  1  0.338844  0.002801  0.655554  1
  Ni  Ni18  1  0.338844  0.002801  0.002801  1
  Ni  Ni19  1  0.002801  0.002801  0.655554  1
  Ni  Ni20  1  0.002801  0.655554  0.002801  1
  Ni  Ni21  1  0.655554  0.002801  0.002801  1
  Sn  Sn22  1  0.750000  0.750000  0.750000  1
  B  B23  1  0.731006  0.731006  0.268994  1
  B  B24  1  0.268994  0.731006  0.268994  1
  B  B25  1  0.731006  0.268994  0.268994  1
  B  B26  1  0.268994  0.268994  0.731006  1
  B  B27  1  0.731006  0.268994  0.731006  1
  B  B28  1  0.268994  0.731006  0.731006  1
