# generated using pymatgen
data_HoTm2Zn3CuSi2
_symmetry_space_group_name_H-M   'P 1'
_cell_length_a   6.72236500
_cell_length_b   6.73599081
_cell_length_c   4.21988900
_cell_angle_alpha   90.00000000
_cell_angle_beta   90.00000000
_cell_angle_gamma   119.93311256
_symmetry_Int_Tables_number   1
_chemical_formula_structural   HoTm2Zn3CuSi2
_chemical_formula_sum   'Ho1 Tm2 Zn3 Cu1 Si2'
_cell_volume   165.59512803
_cell_formula_units_Z   1
loop_
 _symmetry_equiv_pos_site_id
 _symmetry_equiv_pos_as_xyz
  1  'x, y, z'
loop_
 _atom_site_type_symbol
 _atom_site_label
 _atom_site_symmetry_multiplicity
 _atom_site_fract_x
 _atom_site_fract_y
 _atom_site_fract_z
 _atom_site_occupancy
  Ho  Ho0  1  0.583657  0.000000  0.000000  1
  Tm  Tm1  1  0.999673  0.583653  0.000000  1
  Tm  Tm2  1  0.416019  0.416347  0.000000  1
  Zn  Zn3  1  0.238073  0.000000  0.500000  1
  Zn  Zn4  1  0.000303  0.239192  0.500000  1
  Zn  Zn5  1  0.761111  0.760808  0.500000  1
  Cu  Cu6  1  0.001651  0.000000  0.000000  1
  Si  Si7  1  0.332276  0.665041  0.500000  1
  Si  Si8  1  0.667236  0.334959  0.500000  1
