# generated using pymatgen
data_Tb8NiAg2Ir
_symmetry_space_group_name_H-M   'P 1'
_cell_length_a   9.52655715
_cell_length_b   9.52655620
_cell_length_c   9.41537800
_cell_angle_alpha   60.38531376
_cell_angle_beta   60.38531698
_cell_angle_gamma   60.92911755
_symmetry_Int_Tables_number   1
_chemical_formula_structural   Tb8NiAg2Ir
_chemical_formula_sum   'Tb16 Ni2 Ag4 Ir2'
_cell_volume   611.91663202
_cell_formula_units_Z   2
loop_
 _symmetry_equiv_pos_site_id
 _symmetry_equiv_pos_as_xyz
  1  'x, y, z'
loop_
 _atom_site_type_symbol
 _atom_site_label
 _atom_site_symmetry_multiplicity
 _atom_site_fract_x
 _atom_site_fract_y
 _atom_site_fract_z
 _atom_site_occupancy
  Tb  Tb0  1  0.098869  0.694180  0.103475  1
  Tb  Tb1  1  0.938210  0.938210  0.561790  1
  Tb  Tb2  1  0.939629  0.563443  0.938566  1
  Tb  Tb3  1  0.315912  0.685740  0.310735  1
  Tb  Tb4  1  0.939629  0.563443  0.558362  1
  Tb  Tb5  1  0.311918  0.311918  0.688082  1
  Tb  Tb6  1  0.099403  0.099403  0.106820  1
  Tb  Tb7  1  0.562096  0.562096  0.937904  1
  Tb  Tb8  1  0.099403  0.099403  0.694374  1
  Tb  Tb9  1  0.685740  0.315912  0.687613  1
  Tb  Tb10  1  0.685138  0.685138  0.314862  1
  Tb  Tb11  1  0.685740  0.315912  0.310735  1
  Tb  Tb12  1  0.315912  0.685740  0.687613  1
  Tb  Tb13  1  0.563443  0.939629  0.558362  1
  Tb  Tb14  1  0.694180  0.098869  0.103475  1
  Tb  Tb15  1  0.563443  0.939629  0.938566  1
  Ni  Ni16  1  0.892484  0.892484  0.891533  1
  Ni  Ni17  1  0.892484  0.892484  0.323499  1
  Ag  Ag18  1  0.332704  0.332704  0.330411  1
  Ag  Ag19  1  0.004687  0.333090  0.331110  1
  Ag  Ag20  1  0.333090  0.004687  0.331110  1
  Ag  Ag21  1  0.332704  0.332704  0.004180  1
  Ir  Ir22  1  0.320889  0.892287  0.893411  1
  Ir  Ir23  1  0.892287  0.320889  0.893411  1
