# generated using pymatgen
data_Sc11Os3Pd
_symmetry_space_group_name_H-M   'P 1'
_cell_length_a   9.51725702
_cell_length_b   9.50581052
_cell_length_c   9.51725688
_cell_angle_alpha   60.03978185
_cell_angle_beta   59.92044250
_cell_angle_gamma   60.03978213
_symmetry_Int_Tables_number   1
_chemical_formula_structural   Sc11Os3Pd
_chemical_formula_sum   'Sc22 Os6 Pd2'
_cell_volume   608.83065475
_cell_formula_units_Z   2
loop_
 _symmetry_equiv_pos_site_id
 _symmetry_equiv_pos_as_xyz
  1  'x, y, z'
loop_
 _atom_site_type_symbol
 _atom_site_label
 _atom_site_symmetry_multiplicity
 _atom_site_fract_x
 _atom_site_fract_y
 _atom_site_fract_z
 _atom_site_occupancy
  Sc  Sc0  1  0.840547  0.849883  0.840547  1
  Sc  Sc1  1  0.530976  0.159453  0.150117  1
  Sc  Sc2  1  0.150117  0.159453  0.530976  1
  Sc  Sc3  1  0.159453  0.530976  0.159453  1
  Sc  Sc4  1  0.849883  0.840547  0.469024  1
  Sc  Sc5  1  0.840547  0.469024  0.840547  1
  Sc  Sc6  1  0.469024  0.840547  0.849883  1
  Sc  Sc7  1  0.159453  0.150117  0.159453  1
  Sc  Sc8  1  0.197311  0.802689  0.197311  1
  Sc  Sc9  1  0.196909  0.803091  0.803091  1
  Sc  Sc10  1  0.803091  0.196909  0.196909  1
  Sc  Sc11  1  0.803091  0.803091  0.196909  1
  Sc  Sc12  1  0.196909  0.196909  0.803091  1
  Sc  Sc13  1  0.802689  0.197311  0.802689  1
  Sc  Sc14  1  0.380458  0.389599  0.380458  1
  Sc  Sc15  1  0.150516  0.619542  0.610401  1
  Sc  Sc16  1  0.619542  0.150516  0.619542  1
  Sc  Sc17  1  0.610401  0.619542  0.150516  1
  Sc  Sc18  1  0.380458  0.849484  0.380458  1
  Sc  Sc19  1  0.389599  0.380458  0.849484  1
  Sc  Sc20  1  0.849484  0.380458  0.389599  1
  Sc  Sc21  1  0.619542  0.610401  0.619542  1
  Os  Os22  1  0.500000  0.500000  0.000000  1
  Os  Os23  1  0.000000  0.000000  0.500000  1
  Os  Os24  1  0.000000  0.500000  0.500000  1
  Os  Os25  1  0.500000  0.000000  0.000000  1
  Os  Os26  1  0.500000  0.500000  0.500000  1
  Os  Os27  1  0.000000  0.000000  0.000000  1
  Pd  Pd28  1  0.500000  0.000000  0.500000  1
  Pd  Pd29  1  0.000000  0.500000  0.000000  1
