# generated using pymatgen
data_DyY2HoAu2
_symmetry_space_group_name_H-M   'P 1'
_cell_length_a   4.95119800
_cell_length_b   7.17322247
_cell_length_c   8.97492900
_cell_angle_alpha   90.15268834
_cell_angle_beta   90.00000000
_cell_angle_gamma   90.00000000
_symmetry_Int_Tables_number   1
_chemical_formula_structural   DyY2HoAu2
_chemical_formula_sum   'Dy2 Y4 Ho2 Au4'
_cell_volume   318.75284816
_cell_formula_units_Z   2
loop_
 _symmetry_equiv_pos_site_id
 _symmetry_equiv_pos_as_xyz
  1  'x, y, z'
loop_
 _atom_site_type_symbol
 _atom_site_label
 _atom_site_symmetry_multiplicity
 _atom_site_fract_x
 _atom_site_fract_y
 _atom_site_fract_z
 _atom_site_occupancy
  Dy  Dy0  1  0.750000  0.648082  0.418692  1
  Dy  Dy1  1  0.250000  0.351918  0.581308  1
  Y  Y2  1  0.250000  0.486954  0.176035  1
  Y  Y3  1  0.750000  0.513046  0.823965  1
  Y  Y4  1  0.250000  0.987577  0.322997  1
  Y  Y5  1  0.750000  0.012423  0.677003  1
  Ho  Ho6  1  0.750000  0.148738  0.079682  1
  Ho  Ho7  1  0.250000  0.851262  0.920318  1
  Au  Au8  1  0.250000  0.253383  0.901492  1
  Au  Au9  1  0.750000  0.746617  0.098508  1
  Au  Au10  1  0.250000  0.756006  0.600780  1
  Au  Au11  1  0.750000  0.243994  0.399220  1
