# generated using pymatgen
data_LiScCo2Ni2P3
_symmetry_space_group_name_H-M   'P 1'
_cell_length_a   3.64616400
_cell_length_b   10.18423700
_cell_length_c   11.83970900
_cell_angle_alpha   90.00000000
_cell_angle_beta   90.00000000
_cell_angle_gamma   90.00000000
_symmetry_Int_Tables_number   1
_chemical_formula_structural   LiScCo2Ni2P3
_chemical_formula_sum   'Li4 Sc4 Co8 Ni8 P12'
_cell_volume   439.64863025
_cell_formula_units_Z   4
loop_
 _symmetry_equiv_pos_site_id
 _symmetry_equiv_pos_as_xyz
  1  'x, y, z'
loop_
 _atom_site_type_symbol
 _atom_site_label
 _atom_site_symmetry_multiplicity
 _atom_site_fract_x
 _atom_site_fract_y
 _atom_site_fract_z
 _atom_site_occupancy
  Li  Li0  1  0.250000  0.704219  0.991243  1
  Li  Li1  1  0.250000  0.795781  0.491243  1
  Li  Li2  1  0.750000  0.295781  0.008757  1
  Li  Li3  1  0.750000  0.204219  0.508757  1
  Sc  Sc4  1  0.250000  0.578248  0.708073  1
  Sc  Sc5  1  0.250000  0.921752  0.208073  1
  Sc  Sc6  1  0.750000  0.421752  0.291927  1
  Sc  Sc7  1  0.750000  0.078248  0.791927  1
  Co  Co8  1  0.250000  0.877385  0.700864  1
  Co  Co9  1  0.250000  0.622615  0.200864  1
  Co  Co10  1  0.750000  0.122615  0.299136  1
  Co  Co11  1  0.750000  0.377385  0.799136  1
  Co  Co12  1  0.250000  0.464694  0.931549  1
  Co  Co13  1  0.250000  0.035306  0.431549  1
  Co  Co14  1  0.750000  0.535306  0.068451  1
  Co  Co15  1  0.750000  0.964694  0.568451  1
  Ni  Ni16  1  0.250000  0.406507  0.485314  1
  Ni  Ni17  1  0.250000  0.093493  0.985314  1
  Ni  Ni18  1  0.750000  0.593493  0.514686  1
  Ni  Ni19  1  0.750000  0.906507  0.014686  1
  Ni  Ni20  1  0.250000  0.222465  0.173913  1
  Ni  Ni21  1  0.250000  0.277536  0.673913  1
  Ni  Ni22  1  0.750000  0.777536  0.826087  1
  Ni  Ni23  1  0.750000  0.722464  0.326087  1
  P  P24  1  0.250000  0.427817  0.116440  1
  P  P25  1  0.250000  0.072183  0.616440  1
  P  P26  1  0.750000  0.572183  0.883560  1
  P  P27  1  0.750000  0.927817  0.383560  1
  P  P28  1  0.250000  0.266239  0.860829  1
  P  P29  1  0.250000  0.233761  0.360829  1
  P  P30  1  0.750000  0.733761  0.139171  1
  P  P31  1  0.750000  0.766239  0.639171  1
  P  P32  1  0.250000  0.596519  0.387701  1
  P  P33  1  0.250000  0.903481  0.887701  1
  P  P34  1  0.750000  0.403481  0.612299  1
  P  P35  1  0.750000  0.096519  0.112299  1
