# generated using pymatgen
data_Er4Tm4Re3B24Ru
_symmetry_space_group_name_H-M   'P 1'
_cell_length_a   3.64285100
_cell_length_b   9.10501927
_cell_length_c   11.48136212
_cell_angle_alpha   89.90295916
_cell_angle_beta   90.00000000
_cell_angle_gamma   90.00000000
_symmetry_Int_Tables_number   1
_chemical_formula_structural   Er4Tm4Re3B24Ru
_chemical_formula_sum   'Er4 Tm4 Re3 B24 Ru1'
_cell_volume   380.81589637
_cell_formula_units_Z   1
loop_
 _symmetry_equiv_pos_site_id
 _symmetry_equiv_pos_as_xyz
  1  'x, y, z'
loop_
 _atom_site_type_symbol
 _atom_site_label
 _atom_site_symmetry_multiplicity
 _atom_site_fract_x
 _atom_site_fract_y
 _atom_site_fract_z
 _atom_site_occupancy
  Er  Er0  1  0.000000  0.323324  0.413560  1
  Er  Er1  1  0.000000  0.675509  0.584397  1
  Er  Er2  1  0.000000  0.822449  0.087726  1
  Er  Er3  1  0.000000  0.178104  0.914102  1
  Tm  Tm4  1  0.000000  0.943304  0.371321  1
  Tm  Tm5  1  0.000000  0.056752  0.629946  1
  Tm  Tm6  1  0.000000  0.443769  0.128938  1
  Tm  Tm7  1  0.000000  0.557932  0.870239  1
  Re  Re8  1  0.000000  0.638335  0.320636  1
  Re  Re9  1  0.000000  0.361501  0.680167  1
  Re  Re10  1  0.000000  0.137910  0.178267  1
  B  B11  1  0.500000  0.552773  0.433145  1
  B  B12  1  0.500000  0.447091  0.566747  1
  B  B13  1  0.500000  0.052535  0.066463  1
  B  B14  1  0.500000  0.946286  0.932756  1
  B  B15  1  0.500000  0.749339  0.419317  1
  B  B16  1  0.500000  0.250056  0.580883  1
  B  B17  1  0.500000  0.249949  0.080587  1
  B  B18  1  0.500000  0.751030  0.918910  1
  B  B19  1  0.500000  0.792780  0.265813  1
  B  B20  1  0.500000  0.207378  0.735034  1
  B  B21  1  0.500000  0.292710  0.234305  1
  B  B22  1  0.500000  0.708486  0.765404  1
  B  B23  1  0.500000  0.631113  0.184920  1
  B  B24  1  0.500000  0.369090  0.815629  1
  B  B25  1  0.500000  0.130500  0.314730  1
  B  B26  1  0.500000  0.868688  0.685154  1
  B  B27  1  0.500000  0.981077  0.212363  1
  B  B28  1  0.500000  0.017103  0.787788  1
  B  B29  1  0.500000  0.481596  0.287359  1
  B  B30  1  0.500000  0.518531  0.712351  1
  B  B31  1  0.500000  0.602327  0.028008  1
  B  B32  1  0.500000  0.399721  0.971655  1
  B  B33  1  0.500000  0.101212  0.472224  1
  B  B34  1  0.500000  0.898463  0.528762  1
  Ru  Ru35  1  0.000000  0.861278  0.820395  1
