# generated using pymatgen
data_SrTmTh2(PPt)4
_symmetry_space_group_name_H-M   'P 1'
_cell_length_a   4.23737700
_cell_length_b   4.23737677
_cell_length_c   16.16651800
_cell_angle_alpha   90.00000000
_cell_angle_beta   90.00000000
_cell_angle_gamma   120.00002519
_symmetry_Int_Tables_number   1
_chemical_formula_structural   SrTmTh2(PPt)4
_chemical_formula_sum   'Sr1 Tm1 Th2 P4 Pt4'
_cell_volume   251.38606408
_cell_formula_units_Z   1
loop_
 _symmetry_equiv_pos_site_id
 _symmetry_equiv_pos_as_xyz
  1  'x, y, z'
loop_
 _atom_site_type_symbol
 _atom_site_label
 _atom_site_symmetry_multiplicity
 _atom_site_fract_x
 _atom_site_fract_y
 _atom_site_fract_z
 _atom_site_occupancy
  Sr  Sr0  1  0.000000  0.000000  0.250000  1
  Tm  Tm1  1  0.000000  0.000000  0.750000  1
  Th  Th2  1  0.000000  0.000000  0.511449  1
  Th  Th3  1  0.000000  0.000000  0.988551  1
  P  P4  1  0.333333  0.666667  0.874362  1
  P  P5  1  0.666667  0.333333  0.109925  1
  P  P6  1  0.666667  0.333333  0.390075  1
  P  P7  1  0.333333  0.666667  0.625638  1
  Pt  Pt8  1  0.333333  0.666667  0.391585  1
  Pt  Pt9  1  0.666667  0.333333  0.647717  1
  Pt  Pt10  1  0.666667  0.333333  0.852283  1
  Pt  Pt11  1  0.333333  0.666667  0.108415  1
