# generated using pymatgen
data_ZnAgAsO4
_symmetry_space_group_name_H-M   'P 1'
_cell_length_a   10.92398600
_cell_length_b   5.41657343
_cell_length_c   9.31632814
_cell_angle_alpha   54.91117903
_cell_angle_beta   90.00000000
_cell_angle_gamma   90.00000000
_symmetry_Int_Tables_number   1
_chemical_formula_structural   ZnAgAsO4
_chemical_formula_sum   'Zn4 Ag4 As4 O16'
_cell_volume   451.06888700
_cell_formula_units_Z   4
loop_
 _symmetry_equiv_pos_site_id
 _symmetry_equiv_pos_as_xyz
  1  'x, y, z'
loop_
 _atom_site_type_symbol
 _atom_site_label
 _atom_site_symmetry_multiplicity
 _atom_site_fract_x
 _atom_site_fract_y
 _atom_site_fract_z
 _atom_site_occupancy
  Zn  Zn0  1  0.339616  0.334749  0.974236  1
  Zn  Zn1  1  0.160384  0.334749  0.474236  1
  Zn  Zn2  1  0.660384  0.665251  0.025764  1
  Zn  Zn3  1  0.839616  0.665251  0.525764  1
  Ag  Ag4  1  0.390847  0.822246  0.478951  1
  Ag  Ag5  1  0.109153  0.822246  0.978951  1
  Ag  Ag6  1  0.609153  0.177754  0.521049  1
  Ag  Ag7  1  0.890847  0.177754  0.021049  1
  As  As8  1  0.395326  0.601517  0.207746  1
  As  As9  1  0.104674  0.601517  0.707746  1
  As  As10  1  0.604674  0.398483  0.792254  1
  As  As11  1  0.895326  0.398483  0.292254  1
  O  O12  1  0.378080  0.935247  0.190434  1
  O  O13  1  0.121920  0.935247  0.690434  1
  O  O14  1  0.621920  0.064753  0.809566  1
  O  O15  1  0.878080  0.064753  0.309566  1
  O  O16  1  0.548643  0.504776  0.228765  1
  O  O17  1  0.951357  0.504776  0.728765  1
  O  O18  1  0.451357  0.495224  0.771235  1
  O  O19  1  0.048643  0.495224  0.271235  1
  O  O20  1  0.330077  0.639083  0.028639  1
  O  O21  1  0.169923  0.639083  0.528639  1
  O  O22  1  0.669923  0.360917  0.971361  1
  O  O23  1  0.830077  0.360917  0.471361  1
  O  O24  1  0.329545  0.315898  0.403424  1
  O  O25  1  0.170455  0.315898  0.903424  1
  O  O26  1  0.670455  0.684102  0.596576  1
  O  O27  1  0.829545  0.684102  0.096576  1
