# generated using pymatgen
data_Er3Lu13In4(IrRu)2
_symmetry_space_group_name_H-M   'P 1'
_cell_length_a   9.47791771
_cell_length_b   9.47806256
_cell_length_c   9.48527123
_cell_angle_alpha   60.01987552
_cell_angle_beta   60.02564192
_cell_angle_gamma   60.00050544
_symmetry_Int_Tables_number   1
_chemical_formula_structural   Er3Lu13In4(IrRu)2
_chemical_formula_sum   'Er3 Lu13 In4 Ir2 Ru2'
_cell_volume   602.72364505
_cell_formula_units_Z   1
loop_
 _symmetry_equiv_pos_site_id
 _symmetry_equiv_pos_as_xyz
  1  'x, y, z'
loop_
 _atom_site_type_symbol
 _atom_site_label
 _atom_site_symmetry_multiplicity
 _atom_site_fract_x
 _atom_site_fract_y
 _atom_site_fract_z
 _atom_site_occupancy
  Er  Er0  1  0.059564  0.440007  0.440866  1
  Er  Er1  1  0.440597  0.442004  0.059031  1
  Er  Er2  1  0.058369  0.442004  0.059031  1
  Lu  Lu3  1  0.058686  0.058005  0.442748  1
  Lu  Lu4  1  0.651659  0.044315  0.652367  1
  Lu  Lu5  1  0.193063  0.808915  0.190504  1
  Lu  Lu6  1  0.440561  0.058005  0.442748  1
  Lu  Lu7  1  0.193203  0.190348  0.808559  1
  Lu  Lu8  1  0.650666  0.652088  0.651523  1
  Lu  Lu9  1  0.045725  0.652088  0.651523  1
  Lu  Lu10  1  0.442496  0.056899  0.058110  1
  Lu  Lu11  1  0.651510  0.652704  0.044276  1
  Lu  Lu12  1  0.191282  0.809234  0.808202  1
  Lu  Lu13  1  0.807891  0.190348  0.808559  1
  Lu  Lu14  1  0.807516  0.192373  0.192595  1
  Lu  Lu15  1  0.807519  0.808915  0.190504  1
  In  In16  1  0.748422  0.416997  0.417252  1
  In  In17  1  0.416880  0.416825  0.749413  1
  In  In18  1  0.416343  0.750740  0.416573  1
  In  In19  1  0.417328  0.416997  0.417252  1
  Ir  Ir20  1  0.859879  0.859383  0.420859  1
  Ir  Ir21  1  0.860054  0.420981  0.858911  1
  Ru  Ru22  1  0.860960  0.859912  0.859298  1
  Ru  Ru23  1  0.419832  0.859912  0.859298  1
