# generated using pymatgen
data_EuTh2(InPt)3
_symmetry_space_group_name_H-M   'P 1'
_cell_length_a   7.68669500
_cell_length_b   7.74725704
_cell_length_c   4.15564300
_cell_angle_alpha   90.00000000
_cell_angle_beta   90.00000000
_cell_angle_gamma   119.74174775
_symmetry_Int_Tables_number   1
_chemical_formula_structural   EuTh2(InPt)3
_chemical_formula_sum   'Eu1 Th2 In3 Pt3'
_cell_volume   214.87247145
_cell_formula_units_Z   1
loop_
 _symmetry_equiv_pos_site_id
 _symmetry_equiv_pos_as_xyz
  1  'x, y, z'
loop_
 _atom_site_type_symbol
 _atom_site_label
 _atom_site_symmetry_multiplicity
 _atom_site_fract_x
 _atom_site_fract_y
 _atom_site_fract_z
 _atom_site_occupancy
  Eu  Eu0  1  0.589160  0.000000  0.500000  1
  Th  Th1  1  0.412196  0.412741  0.500000  1
  Th  Th2  1  0.999456  0.587259  0.500000  1
  In  In3  1  0.749766  0.760595  0.000000  1
  In  In4  1  0.259825  0.000000  0.000000  1
  In  In5  1  0.989170  0.239405  0.000000  1
  Pt  Pt6  1  0.669642  0.354120  0.000000  1
  Pt  Pt7  1  0.315521  0.645880  0.000000  1
  Pt  Pt8  1  0.015264  0.000000  0.500000  1
