# generated using pymatgen
data_K4Si13P11
_symmetry_space_group_name_H-M   'P 1'
_cell_length_a   3.57353600
_cell_length_b   10.03685838
_cell_length_c   19.08099944
_cell_angle_alpha   89.80208145
_cell_angle_beta   90.00000000
_cell_angle_gamma   90.00000000
_symmetry_Int_Tables_number   1
_chemical_formula_structural   K4Si13P11
_chemical_formula_sum   'K4 Si13 P11'
_cell_volume   684.37555003
_cell_formula_units_Z   1
loop_
 _symmetry_equiv_pos_site_id
 _symmetry_equiv_pos_as_xyz
  1  'x, y, z'
loop_
 _atom_site_type_symbol
 _atom_site_label
 _atom_site_symmetry_multiplicity
 _atom_site_fract_x
 _atom_site_fract_y
 _atom_site_fract_z
 _atom_site_occupancy
  K  K0  1  0.000000  0.319462  0.303130  1
  K  K1  1  0.000000  0.677930  0.696544  1
  K  K2  1  0.000000  0.184690  0.806827  1
  K  K3  1  0.000000  0.823056  0.196650  1
  Si  Si4  1  0.500000  0.403663  0.032887  1
  Si  Si5  1  0.500000  0.595643  0.962611  1
  Si  Si6  1  0.500000  0.096524  0.535358  1
  Si  Si7  1  0.500000  0.902550  0.465421  1
  Si  Si8  1  0.000000  0.117088  0.012355  1
  Si  Si9  1  0.000000  0.891618  0.988009  1
  Si  Si10  1  0.000000  0.385184  0.515083  1
  Si  Si11  1  0.000000  0.613637  0.486226  1
  Si  Si12  1  0.000000  0.183654  0.130769  1
  Si  Si13  1  0.000000  0.810727  0.869118  1
  Si  Si14  1  0.000000  0.317906  0.633085  1
  Si  Si15  1  0.000000  0.680167  0.367977  1
  Si  Si16  1  0.500000  0.783382  0.036635  1
  P  P17  1  0.500000  0.118323  0.193362  1
  P  P18  1  0.500000  0.884153  0.809407  1
  P  P19  1  0.500000  0.383036  0.695476  1
  P  P20  1  0.500000  0.615656  0.305475  1
  P  P21  1  0.500000  0.282627  0.462298  1
  P  P22  1  0.500000  0.716669  0.538797  1
  P  P23  1  0.500000  0.220245  0.960630  1
  P  P24  1  0.000000  0.409791  0.107539  1
  P  P25  1  0.000000  0.584456  0.887499  1
  P  P26  1  0.000000  0.091137  0.609891  1
  P  P27  1  0.000000  0.907025  0.390942  1
