# generated using pymatgen
data_Nb5Ga2GeB
_symmetry_space_group_name_H-M   'P 1'
_cell_length_a   7.81932114
_cell_length_b   7.81932117
_cell_length_c   5.35747900
_cell_angle_alpha   90.00000000
_cell_angle_beta   90.00000000
_cell_angle_gamma   120.02485402
_symmetry_Int_Tables_number   1
_chemical_formula_structural   Nb5Ga2GeB
_chemical_formula_sum   'Nb10 Ga4 Ge2 B2'
_cell_volume   283.60924858
_cell_formula_units_Z   2
loop_
 _symmetry_equiv_pos_site_id
 _symmetry_equiv_pos_as_xyz
  1  'x, y, z'
loop_
 _atom_site_type_symbol
 _atom_site_label
 _atom_site_symmetry_multiplicity
 _atom_site_fract_x
 _atom_site_fract_y
 _atom_site_fract_z
 _atom_site_occupancy
  Nb  Nb0  1  0.666744  0.332586  0.498767  1
  Nb  Nb1  1  0.332586  0.666744  0.498767  1
  Nb  Nb2  1  0.332586  0.666744  0.001233  1
  Nb  Nb3  1  0.666744  0.332586  0.001233  1
  Nb  Nb4  1  0.756607  0.756607  0.250000  1
  Nb  Nb5  1  0.243299  0.999623  0.250000  1
  Nb  Nb6  1  0.999623  0.243299  0.250000  1
  Nb  Nb7  1  0.242042  0.242042  0.750000  1
  Nb  Nb8  1  0.758246  0.001131  0.750000  1
  Nb  Nb9  1  0.001131  0.758246  0.750000  1
  Ga  Ga10  1  0.400732  0.400732  0.250000  1
  Ga  Ga11  1  0.600277  0.999225  0.250000  1
  Ga  Ga12  1  0.999225  0.600277  0.250000  1
  Ga  Ga13  1  0.599247  0.599247  0.750000  1
  Ge  Ge14  1  0.402108  0.000070  0.750000  1
  Ge  Ge15  1  0.000070  0.402108  0.750000  1
  B  B16  1  0.999366  0.999366  0.499429  1
  B  B17  1  0.999366  0.999366  0.000571  1
