# generated using pymatgen
data_Nd16Cd4CuOs2Pd
_symmetry_space_group_name_H-M   'P 1'
_cell_length_a   9.97529595
_cell_length_b   9.96217326
_cell_length_c   10.05577533
_cell_angle_alpha   59.67172366
_cell_angle_beta   59.74966221
_cell_angle_gamma   59.59833238
_symmetry_Int_Tables_number   1
_chemical_formula_structural   Nd16Cd4CuOs2Pd
_chemical_formula_sum   'Nd16 Cd4 Cu1 Os2 Pd1'
_cell_volume   701.36304365
_cell_formula_units_Z   1
loop_
 _symmetry_equiv_pos_site_id
 _symmetry_equiv_pos_as_xyz
  1  'x, y, z'
loop_
 _atom_site_type_symbol
 _atom_site_label
 _atom_site_symmetry_multiplicity
 _atom_site_fract_x
 _atom_site_fract_y
 _atom_site_fract_z
 _atom_site_occupancy
  Nd  Nd0  1  0.346687  0.349379  0.355218  1
  Nd  Nd1  1  0.347999  0.350279  0.946888  1
  Nd  Nd2  1  0.344294  0.955924  0.349886  1
  Nd  Nd3  1  0.955955  0.345403  0.349591  1
  Nd  Nd4  1  0.815878  0.189191  0.190525  1
  Nd  Nd5  1  0.188005  0.815598  0.803504  1
  Nd  Nd6  1  0.189439  0.815849  0.190564  1
  Nd  Nd7  1  0.815915  0.186465  0.804296  1
  Nd  Nd8  1  0.189290  0.188656  0.810821  1
  Nd  Nd9  1  0.806567  0.806439  0.192959  1
  Nd  Nd10  1  0.937302  0.556876  0.567769  1
  Nd  Nd11  1  0.556468  0.937516  0.940028  1
  Nd  Nd12  1  0.557975  0.937365  0.567149  1
  Nd  Nd13  1  0.937855  0.555537  0.939630  1
  Nd  Nd14  1  0.564398  0.562641  0.937653  1
  Nd  Nd15  1  0.939226  0.939382  0.559293  1
  Cd  Cd16  1  0.579794  0.579177  0.580186  1
  Cd  Cd17  1  0.579347  0.579956  0.259833  1
  Cd  Cd18  1  0.580550  0.258379  0.579907  1
  Cd  Cd19  1  0.258464  0.580712  0.579767  1
  Cu  Cu20  1  0.146776  0.572911  0.140596  1
  Os  Os21  1  0.143509  0.144753  0.138400  1
  Os  Os22  1  0.144457  0.145130  0.574880  1
  Pd  Pd23  1  0.573849  0.146481  0.140656  1
