# generated using pymatgen
data_PrNd5(PtCl3)2
_symmetry_space_group_name_H-M   'P 1'
_cell_length_a   10.33822716
_cell_length_b   10.34272375
_cell_length_c   10.34272336
_cell_angle_alpha   109.49765343
_cell_angle_beta   109.47936589
_cell_angle_gamma   109.45425074
_symmetry_Int_Tables_number   1
_chemical_formula_structural   PrNd5(PtCl3)2
_chemical_formula_sum   'Pr2 Nd10 Pt4 Cl12'
_cell_volume   851.13716569
_cell_formula_units_Z   2
loop_
 _symmetry_equiv_pos_site_id
 _symmetry_equiv_pos_as_xyz
  1  'x, y, z'
loop_
 _atom_site_type_symbol
 _atom_site_label
 _atom_site_symmetry_multiplicity
 _atom_site_fract_x
 _atom_site_fract_y
 _atom_site_fract_z
 _atom_site_occupancy
  Pr  Pr0  1  0.260534  0.010478  0.021125  1
  Pr  Pr1  1  0.239466  0.260591  0.749944  1
  Nd  Nd2  1  0.477485  0.489063  0.239002  1
  Nd  Nd3  1  0.750260  0.238921  0.261420  1
  Nd  Nd4  1  0.749740  0.011160  0.488661  1
  Nd  Nd5  1  0.238770  0.477652  0.488621  1
  Nd  Nd6  1  0.261230  0.749851  0.238882  1
  Nd  Nd7  1  0.022515  0.261517  0.011578  1
  Nd  Nd8  1  0.011114  0.022653  0.261264  1
  Nd  Nd9  1  0.488886  0.750150  0.011539  1
  Nd  Nd10  1  0.488819  0.238784  0.477474  1
  Nd  Nd11  1  0.011181  0.488655  0.749965  1
  Pt  Pt12  1  0.250060  0.250668  0.250682  1
  Pt  Pt13  1  0.500598  0.000039  0.250685  1
  Pt  Pt14  1  0.999402  0.250088  0.499442  1
  Pt  Pt15  1  0.249940  0.500622  0.000608  1
  Cl  Cl16  1  0.250051  0.748334  0.750186  1
  Cl  Cl17  1  0.498931  0.500059  0.749092  1
  Cl  Cl18  1  0.001069  0.750161  0.001128  1
  Cl  Cl19  1  0.750925  0.250026  0.749099  1
  Cl  Cl20  1  0.999145  0.001089  0.750184  1
  Cl  Cl21  1  0.249949  0.000134  0.498282  1
  Cl  Cl22  1  0.749075  0.498174  0.499100  1
  Cl  Cl23  1  0.500855  0.251039  0.001944  1
  Cl  Cl24  1  0.749081  0.750942  0.249994  1
  Cl  Cl25  1  0.750919  0.000913  0.001861  1
  Cl  Cl26  1  0.000867  0.499106  0.249997  1
  Cl  Cl27  1  0.499133  0.749130  0.498239  1
