# generated using pymatgen
data_Sc3Sb4PtAu3
_symmetry_space_group_name_H-M   'P 1'
_cell_length_a   7.84285647
_cell_length_b   7.93729792
_cell_length_c   7.87229814
_cell_angle_alpha   131.61849503
_cell_angle_beta   131.30721211
_cell_angle_gamma   71.25966209
_symmetry_Int_Tables_number   1
_chemical_formula_structural   Sc3Sb4PtAu3
_chemical_formula_sum   'Sc3 Sb4 Pt1 Au3'
_cell_volume   269.14962177
_cell_formula_units_Z   1
loop_
 _symmetry_equiv_pos_site_id
 _symmetry_equiv_pos_as_xyz
  1  'x, y, z'
loop_
 _atom_site_type_symbol
 _atom_site_label
 _atom_site_symmetry_multiplicity
 _atom_site_fract_x
 _atom_site_fract_y
 _atom_site_fract_z
 _atom_site_occupancy
  Sc  Sc0  1  0.996588  0.000235  0.000000  1
  Sc  Sc1  1  0.749476  0.248610  0.495907  1
  Sc  Sc2  1  0.253570  0.752705  0.504095  1
  Sb  Sb3  1  0.265233  0.257411  0.000000  1
  Sb  Sb4  1  0.743598  0.746513  0.000000  1
  Sb  Sb5  1  0.502179  0.011416  0.516665  1
  Sb  Sb6  1  0.985514  0.494753  0.483337  1
  Pt  Pt7  1  0.632225  0.105152  0.000000  1
  Au  Au8  1  0.126381  0.629429  0.000000  1
  Au  Au9  1  0.875258  0.879527  0.505279  1
  Au  Au10  1  0.369980  0.374250  0.494722  1
