# generated using pymatgen
data_Hf12Zn9Pd3CN3
_symmetry_space_group_name_H-M   'P 1'
_cell_length_a   8.54549622
_cell_length_b   8.54549613
_cell_length_c   8.54549728
_cell_angle_alpha   59.94031174
_cell_angle_beta   59.94031239
_cell_angle_gamma   59.94031390
_symmetry_Int_Tables_number   1
_chemical_formula_structural   Hf12Zn9Pd3CN3
_chemical_formula_sum   'Hf12 Zn9 Pd3 C1 N3'
_cell_volume   440.66502108
_cell_formula_units_Z   1
loop_
 _symmetry_equiv_pos_site_id
 _symmetry_equiv_pos_as_xyz
  1  'x, y, z'
loop_
 _atom_site_type_symbol
 _atom_site_label
 _atom_site_symmetry_multiplicity
 _atom_site_fract_x
 _atom_site_fract_y
 _atom_site_fract_z
 _atom_site_occupancy
  Hf  Hf0  1  0.811954  0.187455  0.187455  1
  Hf  Hf1  1  0.187455  0.811954  0.187455  1
  Hf  Hf2  1  0.814039  0.814039  0.184160  1
  Hf  Hf3  1  0.184160  0.814039  0.814039  1
  Hf  Hf4  1  0.814039  0.184160  0.814039  1
  Hf  Hf5  1  0.187455  0.187455  0.811954  1
  Hf  Hf6  1  0.438046  0.062545  0.062545  1
  Hf  Hf7  1  0.062545  0.438046  0.062545  1
  Hf  Hf8  1  0.435961  0.435961  0.065840  1
  Hf  Hf9  1  0.065840  0.435961  0.435961  1
  Hf  Hf10  1  0.435961  0.065840  0.435961  1
  Hf  Hf11  1  0.062545  0.062545  0.438046  1
  Zn  Zn12  1  0.418279  0.418279  0.749044  1
  Zn  Zn13  1  0.417799  0.417799  0.417799  1
  Zn  Zn14  1  0.749044  0.418279  0.418279  1
  Zn  Zn15  1  0.418279  0.749044  0.418279  1
  Zn  Zn16  1  0.831721  0.831721  0.500956  1
  Zn  Zn17  1  0.832201  0.832201  0.832201  1
  Zn  Zn18  1  0.500956  0.831721  0.831721  1
  Zn  Zn19  1  0.831721  0.500956  0.831721  1
  Zn  Zn20  1  0.625000  0.625000  0.625000  1
  Pd  Pd21  1  0.625000  0.625000  0.125000  1
  Pd  Pd22  1  0.125000  0.625000  0.625000  1
  Pd  Pd23  1  0.625000  0.125000  0.625000  1
  C  C24  1  0.125000  0.125000  0.125000  1
  N  N25  1  0.125000  0.125000  0.625000  1
  N  N26  1  0.625000  0.125000  0.125000  1
  N  N27  1  0.125000  0.625000  0.125000  1
