# generated using pymatgen
data_Zr4TiNb(Ge2Mo)2
_symmetry_space_group_name_H-M   'P 1'
_cell_length_a   3.63525900
_cell_length_b   7.04465137
_cell_length_c   8.48760640
_cell_angle_alpha   90.29578554
_cell_angle_beta   90.00000000
_cell_angle_gamma   90.00000000
_symmetry_Int_Tables_number   1
_chemical_formula_structural   Zr4TiNb(Ge2Mo)2
_chemical_formula_sum   'Zr4 Ti1 Nb1 Ge4 Mo2'
_cell_volume   217.35733860
_cell_formula_units_Z   1
loop_
 _symmetry_equiv_pos_site_id
 _symmetry_equiv_pos_as_xyz
  1  'x, y, z'
loop_
 _atom_site_type_symbol
 _atom_site_label
 _atom_site_symmetry_multiplicity
 _atom_site_fract_x
 _atom_site_fract_y
 _atom_site_fract_z
 _atom_site_occupancy
  Zr  Zr0  1  0.250000  0.553299  0.837358  1
  Zr  Zr1  1  0.250000  0.053966  0.665759  1
  Zr  Zr2  1  0.750000  0.454901  0.166255  1
  Zr  Zr3  1  0.750000  0.952665  0.334150  1
  Ti  Ti4  1  0.250000  0.120331  0.054881  1
  Nb  Nb5  1  0.250000  0.623700  0.442621  1
  Ge  Ge6  1  0.250000  0.752252  0.139677  1
  Ge  Ge7  1  0.250000  0.248512  0.355609  1
  Ge  Ge8  1  0.750000  0.250368  0.860880  1
  Ge  Ge9  1  0.750000  0.751150  0.642665  1
  Mo  Mo10  1  0.750000  0.367741  0.558292  1
  Mo  Mo11  1  0.750000  0.871116  0.941853  1
