# generated using pymatgen
data_TmLu9(ThCo2)2
_symmetry_space_group_name_H-M   'P 1'
_cell_length_a   6.13117846
_cell_length_b   6.79615668
_cell_length_c   9.27557300
_cell_angle_alpha   90.00000000
_cell_angle_beta   90.00000000
_cell_angle_gamma   90.04305450
_symmetry_Int_Tables_number   1
_chemical_formula_structural   TmLu9(ThCo2)2
_chemical_formula_sum   'Tm1 Lu9 Th2 Co4'
_cell_volume   386.49863534
_cell_formula_units_Z   1
loop_
 _symmetry_equiv_pos_site_id
 _symmetry_equiv_pos_as_xyz
  1  'x, y, z'
loop_
 _atom_site_type_symbol
 _atom_site_label
 _atom_site_symmetry_multiplicity
 _atom_site_fract_x
 _atom_site_fract_y
 _atom_site_fract_z
 _atom_site_occupancy
  Tm  Tm0  1  0.858810  0.539191  0.250000  1
  Lu  Lu1  1  0.325622  0.675253  0.068825  1
  Lu  Lu2  1  0.173258  0.170879  0.433062  1
  Lu  Lu3  1  0.673037  0.328198  0.567843  1
  Lu  Lu4  1  0.824336  0.824989  0.930596  1
  Lu  Lu5  1  0.673037  0.328198  0.932157  1
  Lu  Lu6  1  0.824336  0.824989  0.569404  1
  Lu  Lu7  1  0.325622  0.675253  0.431175  1
  Lu  Lu8  1  0.173258  0.170879  0.066938  1
  Lu  Lu9  1  0.358556  0.960597  0.750000  1
  Th  Th10  1  0.651679  0.049645  0.250000  1
  Th  Th11  1  0.150715  0.452240  0.750000  1
  Co  Co12  1  0.037065  0.885128  0.250000  1
  Co  Co13  1  0.456758  0.371846  0.250000  1
  Co  Co14  1  0.958719  0.127812  0.750000  1
  Co  Co15  1  0.535196  0.614904  0.750000  1
