# generated using pymatgen
data_SrCaLaMoO6
_symmetry_space_group_name_H-M   'P 1'
_cell_length_a   5.77037274
_cell_length_b   5.98447900
_cell_length_c   8.34592551
_cell_angle_alpha   90.00009750
_cell_angle_beta   89.38347747
_cell_angle_gamma   90.00012155
_symmetry_Int_Tables_number   1
_chemical_formula_structural   SrCaLaMoO6
_chemical_formula_sum   'Sr2 Ca2 La2 Mo2 O12'
_cell_volume   288.19044413
_cell_formula_units_Z   2
loop_
 _symmetry_equiv_pos_site_id
 _symmetry_equiv_pos_as_xyz
  1  'x, y, z'
loop_
 _atom_site_type_symbol
 _atom_site_label
 _atom_site_symmetry_multiplicity
 _atom_site_fract_x
 _atom_site_fract_y
 _atom_site_fract_z
 _atom_site_occupancy
  Sr  Sr0  1  0.991256  0.046227  0.245988  1
  Sr  Sr1  1  0.491252  0.453773  0.745992  1
  Ca  Ca2  1  0.001093  0.494056  0.498697  1
  Ca  Ca3  1  0.501087  0.005943  0.998697  1
  La  La4  1  0.510752  0.557202  0.246847  1
  La  La5  1  0.010759  0.942797  0.746845  1
  Mo  Mo6  1  0.000930  0.497288  0.999401  1
  Mo  Mo7  1  0.500924  0.002714  0.499403  1
  O  O8  1  0.117703  0.458265  0.231562  1
  O  O9  1  0.617705  0.041736  0.731565  1
  O  O10  1  0.222511  0.177611  0.551898  1
  O  O11  1  0.722504  0.322388  0.051899  1
  O  O12  1  0.170437  0.206615  0.937452  1
  O  O13  1  0.670443  0.293384  0.437447  1
  O  O14  1  0.305203  0.729838  0.561416  1
  O  O15  1  0.805194  0.770162  0.061421  1
  O  O16  1  0.272182  0.682270  0.958724  1
  O  O17  1  0.772192  0.817730  0.458727  1
  O  O18  1  0.407939  0.952118  0.268011  1
  O  O19  1  0.907934  0.547883  0.768011  1
