# generated using pymatgen
data_TbPrAlZnPt2
_symmetry_space_group_name_H-M   'P 1'
_cell_length_a   4.38648500
_cell_length_b   7.02100800
_cell_length_c   8.03264300
_cell_angle_alpha   90.00000000
_cell_angle_beta   90.00000000
_cell_angle_gamma   90.00000000
_symmetry_Int_Tables_number   1
_chemical_formula_structural   TbPrAlZnPt2
_chemical_formula_sum   'Tb2 Pr2 Al2 Zn2 Pt4'
_cell_volume   247.38569452
_cell_formula_units_Z   2
loop_
 _symmetry_equiv_pos_site_id
 _symmetry_equiv_pos_as_xyz
  1  'x, y, z'
loop_
 _atom_site_type_symbol
 _atom_site_label
 _atom_site_symmetry_multiplicity
 _atom_site_fract_x
 _atom_site_fract_y
 _atom_site_fract_z
 _atom_site_occupancy
  Tb  Tb0  1  0.250000  0.027789  0.691379  1
  Tb  Tb1  1  0.250000  0.527789  0.808621  1
  Pr  Pr2  1  0.750000  0.969734  0.318717  1
  Pr  Pr3  1  0.750000  0.469734  0.181283  1
  Al  Al4  1  0.750000  0.857384  0.934061  1
  Al  Al5  1  0.750000  0.357384  0.565939  1
  Zn  Zn6  1  0.250000  0.151594  0.065152  1
  Zn  Zn7  1  0.250000  0.651594  0.434848  1
  Pt  Pt8  1  0.250000  0.266926  0.403499  1
  Pt  Pt9  1  0.250000  0.766926  0.096501  1
  Pt  Pt10  1  0.750000  0.726573  0.628402  1
  Pt  Pt11  1  0.750000  0.226573  0.871598  1
