# generated using pymatgen
data_Sr6Pr2Co4O15
_symmetry_space_group_name_H-M   'P 1'
_cell_length_a   11.57168473
_cell_length_b   11.57168491
_cell_length_c   6.79262882
_cell_angle_alpha   89.98031307
_cell_angle_beta   89.98031355
_cell_angle_gamma   119.87511366
_symmetry_Int_Tables_number   1
_chemical_formula_structural   Sr6Pr2Co4O15
_chemical_formula_sum   'Sr12 Pr4 Co8 O30'
_cell_volume   788.69077874
_cell_formula_units_Z   2
loop_
 _symmetry_equiv_pos_site_id
 _symmetry_equiv_pos_as_xyz
  1  'x, y, z'
loop_
 _atom_site_type_symbol
 _atom_site_label
 _atom_site_symmetry_multiplicity
 _atom_site_fract_x
 _atom_site_fract_y
 _atom_site_fract_z
 _atom_site_occupancy
  Sr  Sr0  1  0.667386  0.335404  0.967470  1
  Sr  Sr1  1  0.335404  0.667386  0.467470  1
  Sr  Sr2  1  0.367476  0.167095  0.665742  1
  Sr  Sr3  1  0.805317  0.634619  0.659724  1
  Sr  Sr4  1  0.831963  0.201084  0.665991  1
  Sr  Sr5  1  0.634619  0.805317  0.159724  1
  Sr  Sr6  1  0.167095  0.367476  0.165742  1
  Sr  Sr7  1  0.201084  0.831963  0.165991  1
  Sr  Sr8  1  0.999453  0.999973  0.485465  1
  Sr  Sr9  1  0.999973  0.999453  0.985465  1
  Sr  Sr10  1  0.950064  0.487906  0.323131  1
  Sr  Sr11  1  0.487906  0.950064  0.823131  1
  Pr  Pr12  1  0.535697  0.048556  0.324282  1
  Pr  Pr13  1  0.514343  0.464702  0.322726  1
  Pr  Pr14  1  0.048556  0.535697  0.824282  1
  Pr  Pr15  1  0.464702  0.514343  0.822726  1
  Co  Co16  1  0.340193  0.162356  0.159934  1
  Co  Co17  1  0.823070  0.659833  0.154893  1
  Co  Co18  1  0.838470  0.179267  0.161023  1
  Co  Co19  1  0.659833  0.823070  0.654893  1
  Co  Co20  1  0.162356  0.340193  0.659934  1
  Co  Co21  1  0.179267  0.838470  0.661023  1
  Co  Co22  1  0.667052  0.335077  0.507734  1
  Co  Co23  1  0.335077  0.667052  0.007734  1
  O  O24  1  0.581381  0.654817  0.518629  1
  O  O25  1  0.068264  0.412723  0.533155  1
  O  O26  1  0.340183  0.928143  0.511267  1
  O  O27  1  0.313108  0.364734  0.533725  1
  O  O28  1  0.643905  0.948658  0.518875  1
  O  O29  1  0.048703  0.690672  0.541785  1
  O  O30  1  0.364734  0.313108  0.033725  1
  O  O31  1  0.948658  0.643905  0.018875  1
  O  O32  1  0.690672  0.048703  0.041785  1
  O  O33  1  0.654817  0.581381  0.018629  1
  O  O34  1  0.412723  0.068264  0.033155  1
  O  O35  1  0.928143  0.340183  0.011267  1
  O  O36  1  0.821692  0.420734  0.675541  1
  O  O37  1  0.594175  0.177577  0.665668  1
  O  O38  1  0.577890  0.407115  0.664520  1
  O  O39  1  0.177577  0.594175  0.165668  1
  O  O40  1  0.420734  0.821692  0.175541  1
  O  O41  1  0.407115  0.577890  0.164520  1
  O  O42  1  0.498262  0.244902  0.337019  1
  O  O43  1  0.740198  0.501393  0.333084  1
  O  O44  1  0.751399  0.251635  0.336074  1
  O  O45  1  0.501393  0.740198  0.833084  1
  O  O46  1  0.244902  0.498262  0.837019  1
  O  O47  1  0.251635  0.751399  0.836074  1
  O  O48  1  0.819304  0.858330  0.748454  1
  O  O49  1  0.039944  0.175992  0.741525  1
  O  O50  1  0.142190  0.964446  0.744354  1
  O  O51  1  0.175992  0.039944  0.241525  1
  O  O52  1  0.858330  0.819304  0.248454  1
  O  O53  1  0.964446  0.142190  0.244354  1
