# generated using pymatgen
data_La2NdDy(Sn5Rh3)2
_symmetry_space_group_name_H-M   'P 1'
_cell_length_a   13.66832675
_cell_length_b   13.66832580
_cell_length_c   7.32267429
_cell_angle_alpha   90.01269288
_cell_angle_beta   89.98730664
_cell_angle_gamma   161.02787948
_symmetry_Int_Tables_number   1
_chemical_formula_structural   La2NdDy(Sn5Rh3)2
_chemical_formula_sum   'La2 Nd1 Dy1 Sn10 Rh6'
_cell_volume   444.76242271
_cell_formula_units_Z   1
loop_
 _symmetry_equiv_pos_site_id
 _symmetry_equiv_pos_as_xyz
  1  'x, y, z'
loop_
 _atom_site_type_symbol
 _atom_site_label
 _atom_site_symmetry_multiplicity
 _atom_site_fract_x
 _atom_site_fract_y
 _atom_site_fract_z
 _atom_site_occupancy
  La  La0  1  0.172053  0.827947  0.753155  1
  La  La1  1  0.828078  0.171922  0.252980  1
  Nd  Nd2  1  0.475938  0.524062  0.737367  1
  Dy  Dy3  1  0.525206  0.474794  0.238932  1
  Sn  Sn4  1  0.880146  0.119854  0.733083  1
  Sn  Sn5  1  0.119204  0.880796  0.233737  1
  Sn  Sn6  1  0.704444  0.295556  0.051204  1
  Sn  Sn7  1  0.294674  0.705326  0.551062  1
  Sn  Sn8  1  0.594669  0.405331  0.614089  1
  Sn  Sn9  1  0.406305  0.593695  0.115822  1
  Sn  Sn10  1  0.952878  0.047122  0.397039  1
  Sn  Sn11  1  0.048272  0.951728  0.900934  1
  Sn  Sn12  1  0.289422  0.710578  0.972819  1
  Sn  Sn13  1  0.710206  0.289794  0.472203  1
  Rh  Rh14  1  0.050142  0.949858  0.516458  1
  Rh  Rh15  1  0.950547  0.049453  0.021024  1
  Rh  Rh16  1  0.777829  0.222171  0.761726  1
  Rh  Rh17  1  0.221371  0.778629  0.261628  1
  Rh  Rh18  1  0.393979  0.606021  0.483642  1
  Rh  Rh19  1  0.604636  0.395364  0.987097  1
