# generated using pymatgen
data_HoTm5Co4(P6Ir7)2
_symmetry_space_group_name_H-M   'P 1'
_cell_length_a   3.86555600
_cell_length_b   11.00832300
_cell_length_c   12.67794100
_cell_angle_alpha   90.00000000
_cell_angle_beta   90.00000000
_cell_angle_gamma   90.00000000
_symmetry_Int_Tables_number   1
_chemical_formula_structural   HoTm5Co4(P6Ir7)2
_chemical_formula_sum   'Ho1 Tm5 Co4 P12 Ir14'
_cell_volume   539.48808758
_cell_formula_units_Z   1
loop_
 _symmetry_equiv_pos_site_id
 _symmetry_equiv_pos_as_xyz
  1  'x, y, z'
loop_
 _atom_site_type_symbol
 _atom_site_label
 _atom_site_symmetry_multiplicity
 _atom_site_fract_x
 _atom_site_fract_y
 _atom_site_fract_z
 _atom_site_occupancy
  Ho  Ho0  1  0.000000  0.500000  0.523187  1
  Tm  Tm1  1  0.500000  0.000000  0.477034  1
  Tm  Tm2  1  0.500000  0.821458  0.199114  1
  Tm  Tm3  1  0.500000  0.178542  0.199114  1
  Tm  Tm4  1  0.000000  0.684783  0.801082  1
  Tm  Tm5  1  0.000000  0.315217  0.801082  1
  Co  Co6  1  0.000000  0.500000  0.987300  1
  Co  Co7  1  0.500000  0.000000  0.016527  1
  Co  Co8  1  0.000000  0.158978  0.003592  1
  Co  Co9  1  0.000000  0.841022  0.003592  1
  P  P10  1  0.500000  0.316577  0.620683  1
  P  P11  1  0.500000  0.683423  0.620683  1
  P  P12  1  0.000000  0.182727  0.379436  1
  P  P13  1  0.000000  0.817273  0.379436  1
  P  P14  1  0.500000  0.500000  0.883401  1
  P  P15  1  0.000000  0.000000  0.111943  1
  P  P16  1  0.500000  0.851017  0.899931  1
  P  P17  1  0.500000  0.148983  0.899931  1
  P  P18  1  0.000000  0.661588  0.102033  1
  P  P19  1  0.000000  0.338412  0.102033  1
  P  P20  1  0.500000  0.500000  0.354605  1
  P  P21  1  0.000000  0.000000  0.644785  1
  Ir  Ir22  1  0.500000  0.294704  0.429015  1
  Ir  Ir23  1  0.500000  0.705296  0.429015  1
  Ir  Ir24  1  0.000000  0.202487  0.569835  1
  Ir  Ir25  1  0.000000  0.797513  0.569835  1
  Ir  Ir26  1  0.500000  0.870293  0.716992  1
  Ir  Ir27  1  0.500000  0.129707  0.716992  1
  Ir  Ir28  1  0.000000  0.630770  0.282624  1
  Ir  Ir29  1  0.000000  0.369230  0.282624  1
  Ir  Ir30  1  0.500000  0.332174  0.995643  1
  Ir  Ir31  1  0.500000  0.667826  0.995643  1
  Ir  Ir32  1  0.500000  0.500000  0.171041  1
  Ir  Ir33  1  0.000000  0.000000  0.830721  1
  Ir  Ir34  1  0.500000  0.500000  0.705678  1
  Ir  Ir35  1  0.000000  0.000000  0.293822  1
