# generated using pymatgen
data_Hf9TaMn3Co
_symmetry_space_group_name_H-M   'P 1'
_cell_length_a   8.61221300
_cell_length_b   8.61221304
_cell_length_c   8.14683700
_cell_angle_alpha   90.00000000
_cell_angle_beta   90.00000000
_cell_angle_gamma   120.00000368
_symmetry_Int_Tables_number   1
_chemical_formula_structural   Hf9TaMn3Co
_chemical_formula_sum   'Hf18 Ta2 Mn6 Co2'
_cell_volume   523.29811410
_cell_formula_units_Z   2
loop_
 _symmetry_equiv_pos_site_id
 _symmetry_equiv_pos_as_xyz
  1  'x, y, z'
loop_
 _atom_site_type_symbol
 _atom_site_label
 _atom_site_symmetry_multiplicity
 _atom_site_fract_x
 _atom_site_fract_y
 _atom_site_fract_z
 _atom_site_occupancy
  Hf  Hf0  1  0.199015  0.800985  0.441994  1
  Hf  Hf1  1  0.199015  0.398032  0.441994  1
  Hf  Hf2  1  0.601968  0.800985  0.441994  1
  Hf  Hf3  1  0.800985  0.199015  0.558006  1
  Hf  Hf4  1  0.800985  0.601968  0.558006  1
  Hf  Hf5  1  0.398032  0.199015  0.558006  1
  Hf  Hf6  1  0.800985  0.199015  0.941994  1
  Hf  Hf7  1  0.800985  0.601968  0.941994  1
  Hf  Hf8  1  0.398032  0.199015  0.941994  1
  Hf  Hf9  1  0.199015  0.800985  0.058006  1
  Hf  Hf10  1  0.199015  0.398032  0.058006  1
  Hf  Hf11  1  0.601968  0.800985  0.058006  1
  Hf  Hf12  1  0.542051  0.457949  0.250000  1
  Hf  Hf13  1  0.542051  0.084101  0.250000  1
  Hf  Hf14  1  0.915899  0.457949  0.250000  1
  Hf  Hf15  1  0.457949  0.542051  0.750000  1
  Hf  Hf16  1  0.457949  0.915899  0.750000  1
  Hf  Hf17  1  0.084101  0.542051  0.750000  1
  Ta  Ta18  1  0.000000  0.000000  0.500000  1
  Ta  Ta19  1  0.000000  0.000000  0.000000  1
  Mn  Mn20  1  0.886595  0.113405  0.250000  1
  Mn  Mn21  1  0.886595  0.773190  0.250000  1
  Mn  Mn22  1  0.226810  0.113405  0.250000  1
  Mn  Mn23  1  0.113405  0.886595  0.750000  1
  Mn  Mn24  1  0.113405  0.226810  0.750000  1
  Mn  Mn25  1  0.773190  0.886595  0.750000  1
  Co  Co26  1  0.333333  0.666667  0.250000  1
  Co  Co27  1  0.666667  0.333333  0.750000  1
