# generated using pymatgen
data_La8Cd2NiIr
_symmetry_space_group_name_H-M   'P 1'
_cell_length_a   10.09392923
_cell_length_b   10.09392997
_cell_length_c   10.14217300
_cell_angle_alpha   59.84176877
_cell_angle_beta   59.84176631
_cell_angle_gamma   59.56383636
_symmetry_Int_Tables_number   1
_chemical_formula_structural   La8Cd2NiIr
_chemical_formula_sum   'La16 Cd4 Ni2 Ir2'
_cell_volume   726.52155020
_cell_formula_units_Z   2
loop_
 _symmetry_equiv_pos_site_id
 _symmetry_equiv_pos_as_xyz
  1  'x, y, z'
loop_
 _atom_site_type_symbol
 _atom_site_label
 _atom_site_symmetry_multiplicity
 _atom_site_fract_x
 _atom_site_fract_y
 _atom_site_fract_z
 _atom_site_occupancy
  La  La0  1  0.599043  0.599043  0.593608  1
  La  La1  1  0.599043  0.599043  0.208308  1
  La  La2  1  0.600039  0.209416  0.595273  1
  La  La3  1  0.209416  0.600039  0.595273  1
  La  La4  1  0.057965  0.436979  0.443321  1
  La  La5  1  0.436979  0.057965  0.061735  1
  La  La6  1  0.436979  0.057965  0.443321  1
  La  La7  1  0.057965  0.436979  0.061735  1
  La  La8  1  0.438346  0.438346  0.061654  1
  La  La9  1  0.055218  0.055218  0.444782  1
  La  La10  1  0.190923  0.806531  0.815747  1
  La  La11  1  0.806531  0.190923  0.186799  1
  La  La12  1  0.806531  0.190923  0.815747  1
  La  La13  1  0.190923  0.806531  0.186799  1
  La  La14  1  0.815128  0.815128  0.184872  1
  La  La15  1  0.190902  0.190902  0.809098  1
  Cd  Cd16  1  0.829301  0.829301  0.830077  1
  Cd  Cd17  1  0.829301  0.829301  0.511322  1
  Cd  Cd18  1  0.829832  0.512646  0.828761  1
  Cd  Cd19  1  0.512646  0.829832  0.828761  1
  Ni  Ni20  1  0.393997  0.826529  0.389738  1
  Ni  Ni21  1  0.826529  0.393997  0.389738  1
  Ir  Ir22  1  0.393234  0.393234  0.388420  1
  Ir  Ir23  1  0.393234  0.393234  0.825113  1
