# generated using pymatgen
data_La2PrIn3O9
_symmetry_space_group_name_H-M   'P 1'
_cell_length_a   6.63985400
_cell_length_b   6.63985416
_cell_length_c   12.52614200
_cell_angle_alpha   90.00000000
_cell_angle_beta   90.00000000
_cell_angle_gamma   119.99998925
_symmetry_Int_Tables_number   1
_chemical_formula_structural   La2PrIn3O9
_chemical_formula_sum   'La4 Pr2 In6 O18'
_cell_volume   478.26112347
_cell_formula_units_Z   2
loop_
 _symmetry_equiv_pos_site_id
 _symmetry_equiv_pos_as_xyz
  1  'x, y, z'
loop_
 _atom_site_type_symbol
 _atom_site_label
 _atom_site_symmetry_multiplicity
 _atom_site_fract_x
 _atom_site_fract_y
 _atom_site_fract_z
 _atom_site_occupancy
  La  La0  1  0.666667  0.333333  0.965391  1
  La  La1  1  0.333333  0.666667  0.465391  1
  La  La2  1  0.666667  0.333333  0.465391  1
  La  La3  1  0.333333  0.666667  0.965391  1
  Pr  Pr4  1  0.000000  0.000000  0.996726  1
  Pr  Pr5  1  0.000000  0.000000  0.496726  1
  In  In6  1  0.666562  0.666562  0.727333  1
  In  In7  1  0.000000  0.333438  0.727333  1
  In  In8  1  0.333438  0.333438  0.227333  1
  In  In9  1  0.000000  0.666562  0.227333  1
  In  In10  1  0.333438  0.000000  0.727333  1
  In  In11  1  0.666562  0.000000  0.227333  1
  O  O12  1  0.688187  0.688187  0.895391  1
  O  O13  1  0.000000  0.311813  0.895391  1
  O  O14  1  0.311813  0.311813  0.395391  1
  O  O15  1  0.000000  0.688187  0.395391  1
  O  O16  1  0.311813  0.000000  0.895391  1
  O  O17  1  0.688187  0.000000  0.395391  1
  O  O18  1  0.648817  0.648817  0.559469  1
  O  O19  1  0.000000  0.351183  0.559469  1
  O  O20  1  0.351183  0.351183  0.059469  1
  O  O21  1  0.000000  0.648817  0.059469  1
  O  O22  1  0.351183  0.000000  0.559469  1
  O  O23  1  0.648817  0.000000  0.059469  1
  O  O24  1  0.000000  0.000000  0.702719  1
  O  O25  1  0.000000  0.000000  0.202719  1
  O  O26  1  0.666667  0.333333  0.744539  1
  O  O27  1  0.333333  0.666667  0.244539  1
  O  O28  1  0.666667  0.333333  0.244539  1
  O  O29  1  0.333333  0.666667  0.744539  1
