# generated using pymatgen
data_Rb2UI6
_symmetry_space_group_name_H-M   'P 1'
_cell_length_a   8.31455500
_cell_length_b   8.31455500
_cell_length_c   12.56997000
_cell_angle_alpha   90.00000000
_cell_angle_beta   90.00000000
_cell_angle_gamma   90.00000000
_symmetry_Int_Tables_number   1
_chemical_formula_structural   Rb2UI6
_chemical_formula_sum   'Rb4 U2 I12'
_cell_volume   868.98496438
_cell_formula_units_Z   2
loop_
 _symmetry_equiv_pos_site_id
 _symmetry_equiv_pos_as_xyz
  1  'x, y, z'
loop_
 _atom_site_type_symbol
 _atom_site_label
 _atom_site_symmetry_multiplicity
 _atom_site_fract_x
 _atom_site_fract_y
 _atom_site_fract_z
 _atom_site_occupancy
  Rb  Rb0  1  0.000000  0.500000  0.250000  1
  Rb  Rb1  1  0.500000  0.000000  0.250000  1
  Rb  Rb2  1  0.000000  0.500000  0.750000  1
  Rb  Rb3  1  0.500000  0.000000  0.750000  1
  U  U4  1  0.000000  0.000000  0.000000  1
  U  U5  1  0.500000  0.500000  0.500000  1
  I  I6  1  0.000000  0.000000  0.242158  1
  I  I7  1  0.500000  0.500000  0.257841  1
  I  I8  1  0.000000  0.000000  0.757841  1
  I  I9  1  0.500000  0.500000  0.742159  1
  I  I10  1  0.202005  0.300267  0.000000  1
  I  I11  1  0.699733  0.202005  0.000000  1
  I  I12  1  0.300267  0.797995  0.000000  1
  I  I13  1  0.702005  0.199733  0.500000  1
  I  I14  1  0.297995  0.800267  0.500000  1
  I  I15  1  0.797995  0.699733  0.000000  1
  I  I16  1  0.800267  0.702005  0.500000  1
  I  I17  1  0.199733  0.297995  0.500000  1
