# generated using pymatgen
data_KRb2Er(AsSe2)6
_symmetry_space_group_name_H-M   'P 1'
_cell_length_a   9.91630100
_cell_length_b   9.91630062
_cell_length_c   8.13512800
_cell_angle_alpha   90.00000000
_cell_angle_beta   90.00000000
_cell_angle_gamma   119.99999705
_symmetry_Int_Tables_number   1
_chemical_formula_structural   KRb2Er(AsSe2)6
_chemical_formula_sum   'K1 Rb2 Er1 As6 Se12'
_cell_volume   692.77853040
_cell_formula_units_Z   1
loop_
 _symmetry_equiv_pos_site_id
 _symmetry_equiv_pos_as_xyz
  1  'x, y, z'
loop_
 _atom_site_type_symbol
 _atom_site_label
 _atom_site_symmetry_multiplicity
 _atom_site_fract_x
 _atom_site_fract_y
 _atom_site_fract_z
 _atom_site_occupancy
  K  K0  1  0.000000  0.000000  0.000000  1
  Rb  Rb1  1  0.333333  0.666667  0.843496  1
  Rb  Rb2  1  0.666667  0.333333  0.156504  1
  Er  Er3  1  0.000000  0.000000  0.500000  1
  As  As4  1  0.288113  0.837330  0.380092  1
  As  As5  1  0.162670  0.450783  0.380092  1
  As  As6  1  0.549217  0.711887  0.380092  1
  As  As7  1  0.711887  0.162670  0.619908  1
  As  As8  1  0.837330  0.549217  0.619908  1
  As  As9  1  0.450783  0.288113  0.619908  1
  Se  Se10  1  0.258828  0.052427  0.296898  1
  Se  Se11  1  0.947573  0.206402  0.296898  1
  Se  Se12  1  0.793598  0.741172  0.296898  1
  Se  Se13  1  0.741172  0.947573  0.703102  1
  Se  Se14  1  0.052427  0.793598  0.703102  1
  Se  Se15  1  0.206402  0.258828  0.703102  1
  Se  Se16  1  0.525566  0.906921  0.214630  1
  Se  Se17  1  0.093079  0.618644  0.214630  1
  Se  Se18  1  0.381356  0.474434  0.214630  1
  Se  Se19  1  0.474434  0.093079  0.785370  1
  Se  Se20  1  0.906921  0.381356  0.785370  1
  Se  Se21  1  0.618644  0.525566  0.785370  1
