# generated using pymatgen
data_Hf3Ga3IrPdPt
_symmetry_space_group_name_H-M   'P 1'
_cell_length_a   7.26448700
_cell_length_b   7.26448514
_cell_length_c   6.83412500
_cell_angle_alpha   90.00000000
_cell_angle_beta   90.00000000
_cell_angle_gamma   119.99999483
_symmetry_Int_Tables_number   1
_chemical_formula_structural   Hf3Ga3IrPdPt
_chemical_formula_sum   'Hf6 Ga6 Ir2 Pd2 Pt2'
_cell_volume   312.33694830
_cell_formula_units_Z   2
loop_
 _symmetry_equiv_pos_site_id
 _symmetry_equiv_pos_as_xyz
  1  'x, y, z'
loop_
 _atom_site_type_symbol
 _atom_site_label
 _atom_site_symmetry_multiplicity
 _atom_site_fract_x
 _atom_site_fract_y
 _atom_site_fract_z
 _atom_site_occupancy
  Hf  Hf0  1  0.604341  0.596126  0.250000  1
  Hf  Hf1  1  0.024141  0.408452  0.750000  1
  Hf  Hf2  1  0.403874  0.008216  0.250000  1
  Hf  Hf3  1  0.991784  0.395659  0.250000  1
  Hf  Hf4  1  0.384311  0.975859  0.750000  1
  Hf  Hf5  1  0.591548  0.615689  0.750000  1
  Ga  Ga6  1  0.272038  0.268526  0.499379  1
  Ga  Ga7  1  0.731474  0.003510  0.499379  1
  Ga  Ga8  1  0.996490  0.727962  0.499379  1
  Ga  Ga9  1  0.731474  0.003510  0.000621  1
  Ga  Ga10  1  0.272038  0.268526  0.000621  1
  Ga  Ga11  1  0.996490  0.727962  0.000621  1
  Ir  Ir12  1  0.333333  0.666667  0.481500  1
  Ir  Ir13  1  0.333333  0.666667  0.018500  1
  Pd  Pd14  1  0.000000  0.000000  0.750000  1
  Pd  Pd15  1  0.000000  0.000000  0.250000  1
  Pt  Pt16  1  0.666667  0.333333  0.527189  1
  Pt  Pt17  1  0.666667  0.333333  0.972811  1
