# generated using pymatgen
data_Ta2Nb3Ge(B2Ru5)2
_symmetry_space_group_name_H-M   'P 1'
_cell_length_a   9.41246336
_cell_length_b   9.40872836
_cell_length_c   3.00778600
_cell_angle_alpha   90.00000000
_cell_angle_beta   90.00000000
_cell_angle_gamma   90.09684263
_symmetry_Int_Tables_number   1
_chemical_formula_structural   Ta2Nb3Ge(B2Ru5)2
_chemical_formula_sum   'Ta2 Nb3 Ge1 B4 Ru10'
_cell_volume   266.36707520
_cell_formula_units_Z   1
loop_
 _symmetry_equiv_pos_site_id
 _symmetry_equiv_pos_as_xyz
  1  'x, y, z'
loop_
 _atom_site_type_symbol
 _atom_site_label
 _atom_site_symmetry_multiplicity
 _atom_site_fract_x
 _atom_site_fract_y
 _atom_site_fract_z
 _atom_site_occupancy
  Ta  Ta0  1  0.675623  0.177485  0.000000  1
  Ta  Ta1  1  0.000061  0.999909  0.000000  1
  Nb  Nb2  1  0.822228  0.675569  0.000000  1
  Nb  Nb3  1  0.177663  0.324297  0.000000  1
  Nb  Nb4  1  0.324793  0.822738  0.000000  1
  Ge  Ge5  1  0.499790  0.500324  0.000000  1
  B  B6  1  0.617234  0.872034  0.000000  1
  B  B7  1  0.382850  0.128067  0.000000  1
  B  B8  1  0.127986  0.617109  0.000000  1
  B  B9  1  0.871961  0.382985  0.000000  1
  Ru  Ru10  1  0.569116  0.713497  0.500000  1
  Ru  Ru11  1  0.431861  0.286462  0.500000  1
  Ru  Ru12  1  0.071888  0.780165  0.500000  1
  Ru  Ru13  1  0.926980  0.219351  0.500000  1
  Ru  Ru14  1  0.286691  0.569059  0.500000  1
  Ru  Ru15  1  0.712824  0.429790  0.500000  1
  Ru  Ru16  1  0.219934  0.071672  0.500000  1
  Ru  Ru17  1  0.780136  0.929131  0.500000  1
  Ru  Ru18  1  0.500537  0.000561  0.500000  1
  Ru  Ru19  1  0.999845  0.499795  0.500000  1
