# generated using pymatgen
data_Ca20Zn11Cd
_symmetry_space_group_name_H-M   'P 1'
_cell_length_a   7.95446300
_cell_length_b   7.95446300
_cell_length_c   15.07038500
_cell_angle_alpha   90.00000000
_cell_angle_beta   90.00000000
_cell_angle_gamma   90.00000000
_symmetry_Int_Tables_number   1
_chemical_formula_structural   Ca20Zn11Cd
_chemical_formula_sum   'Ca20 Zn11 Cd1'
_cell_volume   953.55572828
_cell_formula_units_Z   1
loop_
 _symmetry_equiv_pos_site_id
 _symmetry_equiv_pos_as_xyz
  1  'x, y, z'
loop_
 _atom_site_type_symbol
 _atom_site_label
 _atom_site_symmetry_multiplicity
 _atom_site_fract_x
 _atom_site_fract_y
 _atom_site_fract_z
 _atom_site_occupancy
  Ca  Ca0  1  0.664103  0.170447  0.103470  1
  Ca  Ca1  1  0.168010  0.667603  0.602582  1
  Ca  Ca2  1  0.335897  0.829553  0.103470  1
  Ca  Ca3  1  0.831990  0.332397  0.602582  1
  Ca  Ca4  1  0.829553  0.664103  0.103470  1
  Ca  Ca5  1  0.332397  0.168010  0.602582  1
  Ca  Ca6  1  0.170447  0.335897  0.103470  1
  Ca  Ca7  1  0.667603  0.831990  0.602582  1
  Ca  Ca8  1  0.829553  0.335897  0.896530  1
  Ca  Ca9  1  0.332397  0.831990  0.397418  1
  Ca  Ca10  1  0.170447  0.664103  0.896530  1
  Ca  Ca11  1  0.667603  0.168010  0.397418  1
  Ca  Ca12  1  0.664103  0.829553  0.896530  1
  Ca  Ca13  1  0.168010  0.332397  0.397418  1
  Ca  Ca14  1  0.335897  0.170447  0.896530  1
  Ca  Ca15  1  0.831990  0.667603  0.397418  1
  Ca  Ca16  1  0.500000  0.500000  0.749223  1
  Ca  Ca17  1  0.000000  0.000000  0.249846  1
  Ca  Ca18  1  0.000000  0.000000  0.750154  1
  Ca  Ca19  1  0.500000  0.500000  0.250777  1
  Zn  Zn20  1  0.500000  0.500000  0.500000  1
  Zn  Zn21  1  0.500000  0.500000  0.000000  1
  Zn  Zn22  1  0.000000  0.000000  0.500000  1
  Zn  Zn23  1  0.620495  0.120164  0.749605  1
  Zn  Zn24  1  0.120164  0.620495  0.250395  1
  Zn  Zn25  1  0.879836  0.379505  0.250395  1
  Zn  Zn26  1  0.379505  0.879836  0.749605  1
  Zn  Zn27  1  0.879836  0.620495  0.749605  1
  Zn  Zn28  1  0.379505  0.120164  0.250395  1
  Zn  Zn29  1  0.120164  0.379505  0.749605  1
  Zn  Zn30  1  0.620495  0.879836  0.250395  1
  Cd  Cd31  1  0.000000  0.000000  0.000000  1
