# generated using pymatgen
data_Ho15ErCd4TcPt3
_symmetry_space_group_name_H-M   'P 1'
_cell_length_a   9.65721457
_cell_length_b   9.65721483
_cell_length_c   9.65721473
_cell_angle_alpha   59.49096990
_cell_angle_beta   59.49096890
_cell_angle_gamma   59.49096508
_symmetry_Int_Tables_number   1
_chemical_formula_structural   Ho15ErCd4TcPt3
_chemical_formula_sum   'Ho15 Er1 Cd4 Tc1 Pt3'
_cell_volume   629.48202801
_cell_formula_units_Z   1
loop_
 _symmetry_equiv_pos_site_id
 _symmetry_equiv_pos_as_xyz
  1  'x, y, z'
loop_
 _atom_site_type_symbol
 _atom_site_label
 _atom_site_symmetry_multiplicity
 _atom_site_fract_x
 _atom_site_fract_y
 _atom_site_fract_z
 _atom_site_occupancy
  Ho  Ho0  1  0.601139  0.601139  0.197170  1
  Ho  Ho1  1  0.601139  0.197170  0.601139  1
  Ho  Ho2  1  0.197170  0.601139  0.601139  1
  Ho  Ho3  1  0.065489  0.438155  0.438155  1
  Ho  Ho4  1  0.439166  0.059767  0.059767  1
  Ho  Ho5  1  0.438155  0.065489  0.438155  1
  Ho  Ho6  1  0.059767  0.439166  0.059767  1
  Ho  Ho7  1  0.438155  0.438155  0.065489  1
  Ho  Ho8  1  0.059767  0.059767  0.439166  1
  Ho  Ho9  1  0.185483  0.815054  0.815054  1
  Ho  Ho10  1  0.806620  0.187620  0.187620  1
  Ho  Ho11  1  0.815054  0.185483  0.815054  1
  Ho  Ho12  1  0.187620  0.806620  0.187620  1
  Ho  Ho13  1  0.815054  0.815054  0.185483  1
  Ho  Ho14  1  0.187620  0.187620  0.806620  1
  Er  Er15  1  0.601664  0.601664  0.601664  1
  Cd  Cd16  1  0.829919  0.829919  0.829919  1
  Cd  Cd17  1  0.830884  0.830884  0.504391  1
  Cd  Cd18  1  0.830884  0.504391  0.830884  1
  Cd  Cd19  1  0.504391  0.830884  0.830884  1
  Tc  Tc20  1  0.394053  0.394053  0.394053  1
  Pt  Pt21  1  0.394409  0.394409  0.821984  1
  Pt  Pt22  1  0.394409  0.821984  0.394409  1
  Pt  Pt23  1  0.821984  0.394409  0.394409  1
