# generated using pymatgen
data_Ca3Cd(BrO3)8
_symmetry_space_group_name_H-M   'P 1'
_cell_length_a   5.82866167
_cell_length_b   11.36869196
_cell_length_c   11.47583350
_cell_angle_alpha   119.44755203
_cell_angle_beta   90.11244750
_cell_angle_gamma   89.89732536
_symmetry_Int_Tables_number   1
_chemical_formula_structural   Ca3Cd(BrO3)8
_chemical_formula_sum   'Ca3 Cd1 Br8 O24'
_cell_volume   662.19212364
_cell_formula_units_Z   1
loop_
 _symmetry_equiv_pos_site_id
 _symmetry_equiv_pos_as_xyz
  1  'x, y, z'
loop_
 _atom_site_type_symbol
 _atom_site_label
 _atom_site_symmetry_multiplicity
 _atom_site_fract_x
 _atom_site_fract_y
 _atom_site_fract_z
 _atom_site_occupancy
  Ca  Ca0  1  0.642815  0.235128  0.491279  1
  Ca  Ca1  1  0.139225  0.265750  0.007940  1
  Ca  Ca2  1  0.639108  0.734390  0.992321  1
  Cd  Cd3  1  0.150875  0.765250  0.508735  1
  Br  Br4  1  0.269443  0.422254  0.353106  1
  Br  Br5  1  0.774660  0.584686  0.647574  1
  Br  Br6  1  0.266678  0.916186  0.847587  1
  Br  Br7  1  0.765799  0.082942  0.146879  1
  Br  Br8  1  0.785339  0.079872  0.687121  1
  Br  Br9  1  0.280390  0.911781  0.312669  1
  Br  Br10  1  0.281640  0.412861  0.805046  1
  Br  Br11  1  0.786317  0.589954  0.199070  1
  O  O12  1  0.418902  0.883070  0.952479  1
  O  O13  1  0.922231  0.112377  0.041199  1
  O  O14  1  0.376075  0.809398  0.694130  1
  O  O15  1  0.866874  0.191553  0.300835  1
  O  O16  1  0.370395  0.314998  0.198671  1
  O  O17  1  0.873123  0.691530  0.802815  1
  O  O18  1  0.914899  0.211987  0.816309  1
  O  O19  1  0.413018  0.782507  0.182652  1
  O  O20  1  0.929255  0.941862  0.667147  1
  O  O21  1  0.417125  0.051719  0.335592  1
  O  O22  1  0.363993  0.069437  0.881012  1
  O  O23  1  0.860847  0.930974  0.119379  1
  O  O24  1  0.416212  0.281368  0.678025  1
  O  O25  1  0.924746  0.722918  0.323840  1
  O  O26  1  0.347371  0.398411  0.940586  1
  O  O27  1  0.847910  0.603034  0.062415  1
  O  O28  1  0.423811  0.551697  0.828707  1
  O  O29  1  0.927705  0.450381  0.174551  1
  O  O30  1  0.372180  0.574183  0.382473  1
  O  O31  1  0.865916  0.431428  0.618635  1
  O  O32  1  0.423835  0.388572  0.456819  1
  O  O33  1  0.936812  0.611575  0.541483  1
  O  O34  1  0.854085  0.096262  0.553176  1
  O  O35  1  0.359996  0.897708  0.447740  1
