# generated using pymatgen
data_Tm3Si3Pd
_symmetry_space_group_name_H-M   'P 1'
_cell_length_a   5.60697695
_cell_length_b   5.60697837
_cell_length_c   13.48048783
_cell_angle_alpha   71.40006183
_cell_angle_beta   71.40005721
_cell_angle_gamma   44.02843570
_symmetry_Int_Tables_number   1
_chemical_formula_structural   Tm3Si3Pd
_chemical_formula_sum   'Tm6 Si6 Pd2'
_cell_volume   276.56806631
_cell_formula_units_Z   2
loop_
 _symmetry_equiv_pos_site_id
 _symmetry_equiv_pos_as_xyz
  1  'x, y, z'
loop_
 _atom_site_type_symbol
 _atom_site_label
 _atom_site_symmetry_multiplicity
 _atom_site_fract_x
 _atom_site_fract_y
 _atom_site_fract_z
 _atom_site_occupancy
  Tm  Tm0  1  0.474443  0.474443  0.375875  1
  Tm  Tm1  1  0.525557  0.525557  0.624125  1
  Tm  Tm2  1  0.603665  0.603665  0.077319  1
  Tm  Tm3  1  0.396335  0.396335  0.922681  1
  Tm  Tm4  1  0.256835  0.256835  0.225299  1
  Tm  Tm5  1  0.743165  0.743165  0.774701  1
  Si  Si6  1  0.963788  0.963788  0.229675  1
  Si  Si7  1  0.036212  0.036212  0.770325  1
  Si  Si8  1  0.886739  0.886739  0.074664  1
  Si  Si9  1  0.113261  0.113261  0.925336  1
  Si  Si10  1  0.877178  0.877178  0.544964  1
  Si  Si11  1  0.122822  0.122822  0.455036  1
  Pd  Pd12  1  0.755519  0.755519  0.401676  1
  Pd  Pd13  1  0.244481  0.244481  0.598324  1
