# generated using pymatgen
data_TbPu3(AlSi2)2
_symmetry_space_group_name_H-M   'P 1'
_cell_length_a   6.81089308
_cell_length_b   6.81089241
_cell_length_c   4.38482400
_cell_angle_alpha   90.00000000
_cell_angle_beta   90.00000000
_cell_angle_gamma   89.59095457
_symmetry_Int_Tables_number   1
_chemical_formula_structural   TbPu3(AlSi2)2
_chemical_formula_sum   'Tb1 Pu3 Al2 Si4'
_cell_volume   203.39917234
_cell_formula_units_Z   1
loop_
 _symmetry_equiv_pos_site_id
 _symmetry_equiv_pos_as_xyz
  1  'x, y, z'
loop_
 _atom_site_type_symbol
 _atom_site_label
 _atom_site_symmetry_multiplicity
 _atom_site_fract_x
 _atom_site_fract_y
 _atom_site_fract_z
 _atom_site_occupancy
  Tb  Tb0  1  0.675552  0.175552  0.500000  1
  Pu  Pu1  1  0.322385  0.822385  0.500000  1
  Pu  Pu2  1  0.828299  0.674653  0.500000  1
  Pu  Pu3  1  0.174653  0.328299  0.500000  1
  Al  Al4  1  0.500771  0.499326  0.000000  1
  Al  Al5  1  0.999326  0.000771  0.000000  1
  Si  Si6  1  0.624165  0.873808  0.000000  1
  Si  Si7  1  0.876177  0.376177  0.000000  1
  Si  Si8  1  0.373808  0.124165  0.000000  1
  Si  Si9  1  0.124864  0.624864  0.000000  1
