# generated using pymatgen
data_CeNd2S5
_symmetry_space_group_name_H-M   'P 1'
_cell_length_a   7.52219800
_cell_length_b   8.15502200
_cell_length_c   11.99260300
_cell_angle_alpha   90.00000000
_cell_angle_beta   90.00000000
_cell_angle_gamma   90.00000000
_symmetry_Int_Tables_number   1
_chemical_formula_structural   CeNd2S5
_chemical_formula_sum   'Ce4 Nd8 S20'
_cell_volume   735.67052286
_cell_formula_units_Z   4
loop_
 _symmetry_equiv_pos_site_id
 _symmetry_equiv_pos_as_xyz
  1  'x, y, z'
loop_
 _atom_site_type_symbol
 _atom_site_label
 _atom_site_symmetry_multiplicity
 _atom_site_fract_x
 _atom_site_fract_y
 _atom_site_fract_z
 _atom_site_occupancy
  Ce  Ce0  1  0.071381  0.750000  0.491068  1
  Ce  Ce1  1  0.428619  0.750000  0.991068  1
  Ce  Ce2  1  0.928619  0.250000  0.508932  1
  Ce  Ce3  1  0.571381  0.250000  0.008932  1
  Nd  Nd4  1  0.522727  0.500340  0.322659  1
  Nd  Nd5  1  0.977273  0.999660  0.822659  1
  Nd  Nd6  1  0.477273  0.000340  0.677341  1
  Nd  Nd7  1  0.022727  0.499660  0.177341  1
  Nd  Nd8  1  0.477273  0.499660  0.677341  1
  Nd  Nd9  1  0.022727  0.000340  0.177341  1
  Nd  Nd10  1  0.522727  0.999660  0.322659  1
  Nd  Nd11  1  0.977273  0.500340  0.822659  1
  S  S12  1  0.837798  0.957946  0.597040  1
  S  S13  1  0.662202  0.542054  0.097040  1
  S  S14  1  0.162202  0.457946  0.402960  1
  S  S15  1  0.337798  0.042054  0.902960  1
  S  S16  1  0.162202  0.042054  0.402960  1
  S  S17  1  0.337798  0.457946  0.902960  1
  S  S18  1  0.837798  0.542054  0.597040  1
  S  S19  1  0.662202  0.957946  0.097040  1
  S  S20  1  0.830104  0.750000  0.311092  1
  S  S21  1  0.669896  0.750000  0.811092  1
  S  S22  1  0.169896  0.250000  0.688908  1
  S  S23  1  0.330104  0.250000  0.188908  1
  S  S24  1  0.456210  0.750000  0.498904  1
  S  S25  1  0.043790  0.750000  0.998904  1
  S  S26  1  0.543790  0.250000  0.501096  1
  S  S27  1  0.956210  0.250000  0.001096  1
  S  S28  1  0.196254  0.750000  0.714427  1
  S  S29  1  0.303746  0.750000  0.214427  1
  S  S30  1  0.803746  0.250000  0.285573  1
  S  S31  1  0.696254  0.250000  0.785573  1
