# generated using pymatgen
data_Cs6EuUI12
_symmetry_space_group_name_H-M   'P 1'
_cell_length_a   10.61875700
_cell_length_b   10.64065499
_cell_length_c   8.84692900
_cell_angle_alpha   90.00000000
_cell_angle_beta   90.00000000
_cell_angle_gamma   89.88089234
_symmetry_Int_Tables_number   1
_chemical_formula_structural   Cs6EuUI12
_chemical_formula_sum   'Cs6 Eu1 U1 I12'
_cell_volume   999.61703381
_cell_formula_units_Z   1
loop_
 _symmetry_equiv_pos_site_id
 _symmetry_equiv_pos_as_xyz
  1  'x, y, z'
loop_
 _atom_site_type_symbol
 _atom_site_label
 _atom_site_symmetry_multiplicity
 _atom_site_fract_x
 _atom_site_fract_y
 _atom_site_fract_z
 _atom_site_occupancy
  Cs  Cs0  1  0.000000  0.000000  0.500000  1
  Cs  Cs1  1  0.000000  0.000000  0.000000  1
  Cs  Cs2  1  0.222146  0.581645  0.500000  1
  Cs  Cs3  1  0.777854  0.418355  0.500000  1
  Cs  Cs4  1  0.406715  0.241118  0.000000  1
  Cs  Cs5  1  0.593285  0.758882  0.000000  1
  Eu  Eu6  1  0.000000  0.500000  0.000000  1
  U  U7  1  0.500000  0.000000  0.500000  1
  I  I8  1  0.693723  0.060500  0.745456  1
  I  I9  1  0.306277  0.939500  0.745456  1
  I  I10  1  0.937675  0.705870  0.252691  1
  I  I11  1  0.062325  0.294130  0.252691  1
  I  I12  1  0.306277  0.939500  0.254544  1
  I  I13  1  0.693723  0.060500  0.254544  1
  I  I14  1  0.062325  0.294130  0.747309  1
  I  I15  1  0.937675  0.705870  0.747309  1
  I  I16  1  0.571330  0.725021  0.500000  1
  I  I17  1  0.428670  0.274979  0.500000  1
  I  I18  1  0.289504  0.574149  0.000000  1
  I  I19  1  0.710496  0.425851  0.000000  1
