# generated using pymatgen
data_Tb3ErMn4F28
_symmetry_space_group_name_H-M   'P 1'
_cell_length_a   5.43720627
_cell_length_b   8.75114121
_cell_length_c   11.74917200
_cell_angle_alpha   62.27287565
_cell_angle_beta   90.01819865
_cell_angle_gamma   90.00763563
_symmetry_Int_Tables_number   1
_chemical_formula_structural   Tb3ErMn4F28
_chemical_formula_sum   'Tb3 Er1 Mn4 F28'
_cell_volume   494.85290953
_cell_formula_units_Z   1
loop_
 _symmetry_equiv_pos_site_id
 _symmetry_equiv_pos_as_xyz
  1  'x, y, z'
loop_
 _atom_site_type_symbol
 _atom_site_label
 _atom_site_symmetry_multiplicity
 _atom_site_fract_x
 _atom_site_fract_y
 _atom_site_fract_z
 _atom_site_occupancy
  Tb  Tb0  1  0.738602  0.189421  0.735924  1
  Tb  Tb1  1  0.761472  0.187752  0.236169  1
  Tb  Tb2  1  0.238576  0.810430  0.764018  1
  Er  Er3  1  0.262046  0.810821  0.263763  1
  Mn  Mn4  1  0.758943  0.725894  0.043875  1
  Mn  Mn5  1  0.241511  0.273559  0.957521  1
  Mn  Mn6  1  0.258760  0.275409  0.456576  1
  Mn  Mn7  1  0.741232  0.725892  0.541977  1
  F  F8  1  0.932476  0.707216  0.420283  1
  F  F9  1  0.069221  0.293678  0.578860  1
  F  F10  1  0.431211  0.293118  0.079274  1
  F  F11  1  0.569198  0.706830  0.921822  1
  F  F12  1  0.479584  0.728816  0.132565  1
  F  F13  1  0.520452  0.271831  0.869083  1
  F  F14  1  0.979811  0.272101  0.368500  1
  F  F15  1  0.019756  0.727959  0.630861  1
  F  F16  1  0.949363  0.741479  0.169925  1
  F  F17  1  0.054041  0.259281  0.830893  1
  F  F18  1  0.446307  0.259951  0.330433  1
  F  F19  1  0.553664  0.740512  0.668687  1
  F  F20  1  0.770266  0.488357  0.137631  1
  F  F21  1  0.229718  0.511260  0.863077  1
  F  F22  1  0.270067  0.513748  0.362234  1
  F  F23  1  0.729336  0.488582  0.636685  1
  F  F24  1  0.955435  0.281539  0.040180  1
  F  F25  1  0.044039  0.718183  0.960444  1
  F  F26  1  0.454693  0.719100  0.458217  1
  F  F27  1  0.544642  0.282301  0.539651  1
  F  F28  1  0.739742  0.962252  0.452533  1
  F  F29  1  0.260474  0.038977  0.546743  1
  F  F30  1  0.239585  0.037142  0.048062  1
  F  F31  1  0.760519  0.962060  0.953210  1
  F  F32  1  0.591793  0.966186  0.228235  1
  F  F33  1  0.403107  0.032216  0.772485  1
  F  F34  1  0.097198  0.028415  0.272103  1
  F  F35  1  0.903163  0.967736  0.727497  1
