# generated using pymatgen
data_ThSc11CoTc3
_symmetry_space_group_name_H-M   'P 1'
_cell_length_a   5.94872700
_cell_length_b   8.62439700
_cell_length_c   13.62520800
_cell_angle_alpha   90.00000000
_cell_angle_beta   90.00000000
_cell_angle_gamma   90.00000000
_symmetry_Int_Tables_number   1
_chemical_formula_structural   ThSc11CoTc3
_chemical_formula_sum   'Th2 Sc22 Co2 Tc6'
_cell_volume   699.03016863
_cell_formula_units_Z   2
loop_
 _symmetry_equiv_pos_site_id
 _symmetry_equiv_pos_as_xyz
  1  'x, y, z'
loop_
 _atom_site_type_symbol
 _atom_site_label
 _atom_site_symmetry_multiplicity
 _atom_site_fract_x
 _atom_site_fract_y
 _atom_site_fract_z
 _atom_site_occupancy
  Th  Th0  1  0.546153  0.750000  0.357081  1
  Th  Th1  1  0.046153  0.250000  0.142919  1
  Sc  Sc2  1  0.472488  0.250000  0.652887  1
  Sc  Sc3  1  0.972488  0.750000  0.847113  1
  Sc  Sc4  1  0.799774  0.750000  0.105392  1
  Sc  Sc5  1  0.299774  0.250000  0.394608  1
  Sc  Sc6  1  0.213083  0.250000  0.881734  1
  Sc  Sc7  1  0.713083  0.750000  0.618266  1
  Sc  Sc8  1  0.409569  0.934995  0.783289  1
  Sc  Sc9  1  0.909569  0.065005  0.716711  1
  Sc  Sc10  1  0.569286  0.435772  0.205867  1
  Sc  Sc11  1  0.069286  0.564228  0.294133  1
  Sc  Sc12  1  0.569286  0.064228  0.205867  1
  Sc  Sc13  1  0.069286  0.935772  0.294133  1
  Sc  Sc14  1  0.409569  0.565005  0.783289  1
  Sc  Sc15  1  0.909569  0.434995  0.716711  1
  Sc  Sc16  1  0.243798  0.943646  0.546583  1
  Sc  Sc17  1  0.743798  0.056354  0.953417  1
  Sc  Sc18  1  0.757071  0.433389  0.476284  1
  Sc  Sc19  1  0.257071  0.566611  0.023716  1
  Sc  Sc20  1  0.757071  0.066611  0.476284  1
  Sc  Sc21  1  0.257071  0.933389  0.023716  1
  Sc  Sc22  1  0.243798  0.556354  0.546583  1
  Sc  Sc23  1  0.743798  0.443646  0.953417  1
  Co  Co24  1  0.628569  0.250000  0.818575  1
  Co  Co25  1  0.128569  0.750000  0.681425  1
  Tc  Tc26  1  0.936316  0.750000  0.452411  1
  Tc  Tc27  1  0.436316  0.250000  0.047589  1
  Tc  Tc28  1  0.074189  0.250000  0.567474  1
  Tc  Tc29  1  0.574189  0.750000  0.932526  1
  Tc  Tc30  1  0.369980  0.750000  0.183431  1
  Tc  Tc31  1  0.869980  0.250000  0.316569  1
