# generated using pymatgen
data_La7Er(Sc3Sn4)4
_symmetry_space_group_name_H-M   'P 1'
_cell_length_a   7.90312361
_cell_length_b   8.10116947
_cell_length_c   15.11412800
_cell_angle_alpha   89.95326470
_cell_angle_beta   89.95344926
_cell_angle_gamma   90.11997587
_symmetry_Int_Tables_number   1
_chemical_formula_structural   La7Er(Sc3Sn4)4
_chemical_formula_sum   'La7 Er1 Sc12 Sn16'
_cell_volume   967.67238404
_cell_formula_units_Z   1
loop_
 _symmetry_equiv_pos_site_id
 _symmetry_equiv_pos_as_xyz
  1  'x, y, z'
loop_
 _atom_site_type_symbol
 _atom_site_label
 _atom_site_symmetry_multiplicity
 _atom_site_fract_x
 _atom_site_fract_y
 _atom_site_fract_z
 _atom_site_occupancy
  La  La0  1  0.994544  0.173094  0.094015  1
  La  La1  1  0.005536  0.825462  0.903959  1
  La  La2  1  0.504584  0.673354  0.906503  1
  La  La3  1  0.005024  0.825176  0.593810  1
  La  La4  1  0.495018  0.326820  0.093781  1
  La  La5  1  0.996031  0.173546  0.407585  1
  La  La6  1  0.494274  0.326827  0.407661  1
  Er  Er7  1  0.508742  0.677909  0.596503  1
  Sc  Sc8  1  0.167532  0.495534  0.748685  1
  Sc  Sc9  1  0.832146  0.506203  0.250601  1
  Sc  Sc10  1  0.333044  0.993148  0.250533  1
  Sc  Sc11  1  0.666298  0.005868  0.748891  1
  Sc  Sc12  1  0.337381  0.161149  0.628043  1
  Sc  Sc13  1  0.661754  0.837140  0.372895  1
  Sc  Sc14  1  0.162530  0.660476  0.373417  1
  Sc  Sc15  1  0.663131  0.839371  0.127834  1
  Sc  Sc16  1  0.836469  0.340888  0.626620  1
  Sc  Sc17  1  0.337409  0.160339  0.870152  1
  Sc  Sc18  1  0.836326  0.339067  0.871370  1
  Sc  Sc19  1  0.162519  0.661620  0.127755  1
  Sn  Sn20  1  0.028416  0.133171  0.748811  1
  Sn  Sn21  1  0.970768  0.867161  0.251073  1
  Sn  Sn22  1  0.469817  0.632489  0.249916  1
  Sn  Sn23  1  0.529718  0.370829  0.748697  1
  Sn  Sn24  1  0.313736  0.853825  0.746825  1
  Sn  Sn25  1  0.689704  0.141939  0.250607  1
  Sn  Sn26  1  0.189275  0.357943  0.250395  1
  Sn  Sn27  1  0.805548  0.642595  0.747817  1
  Sn  Sn28  1  0.183064  0.459792  0.546195  1
  Sn  Sn29  1  0.820115  0.547094  0.457964  1
  Sn  Sn30  1  0.329344  0.950435  0.457894  1
  Sn  Sn31  1  0.827331  0.545938  0.044184  1
  Sn  Sn32  1  0.670938  0.040085  0.545129  1
  Sn  Sn33  1  0.171981  0.453398  0.954991  1
  Sn  Sn34  1  0.673227  0.045356  0.955107  1
  Sn  Sn35  1  0.326727  0.954956  0.043780  1
