# generated using pymatgen
data_Tm6Al24Fe3OsRu4
_symmetry_space_group_name_H-M   'P 1'
_cell_length_a   8.72270400
_cell_length_b   8.72086647
_cell_length_c   9.44555598
_cell_angle_alpha   89.81176449
_cell_angle_beta   90.00000000
_cell_angle_gamma   120.00697032
_symmetry_Int_Tables_number   1
_chemical_formula_structural   Tm6Al24Fe3OsRu4
_chemical_formula_sum   'Tm6 Al24 Fe3 Os1 Ru4'
_cell_volume   622.20757826
_cell_formula_units_Z   1
loop_
 _symmetry_equiv_pos_site_id
 _symmetry_equiv_pos_as_xyz
  1  'x, y, z'
loop_
 _atom_site_type_symbol
 _atom_site_label
 _atom_site_symmetry_multiplicity
 _atom_site_fract_x
 _atom_site_fract_y
 _atom_site_fract_z
 _atom_site_occupancy
  Tm  Tm0  1  0.804840  0.192849  0.750334  1
  Tm  Tm1  1  0.195160  0.807151  0.249666  1
  Tm  Tm2  1  0.388010  0.192849  0.750334  1
  Tm  Tm3  1  0.611990  0.807151  0.249666  1
  Tm  Tm4  1  0.806060  0.612122  0.748080  1
  Tm  Tm5  1  0.193940  0.387878  0.251920  1
  Al  Al6  1  0.667280  0.334558  0.984644  1
  Al  Al7  1  0.332720  0.665442  0.015356  1
  Al  Al8  1  0.336639  0.673279  0.484510  1
  Al  Al9  1  0.663361  0.326721  0.515490  1
  Al  Al10  1  0.837282  0.157238  0.424561  1
  Al  Al11  1  0.162718  0.842762  0.575439  1
  Al  Al12  1  0.319957  0.157238  0.424561  1
  Al  Al13  1  0.159619  0.840665  0.923325  1
  Al  Al14  1  0.680043  0.842762  0.575439  1
  Al  Al15  1  0.840381  0.159335  0.076675  1
  Al  Al16  1  0.840594  0.681190  0.423313  1
  Al  Al17  1  0.681046  0.840665  0.923325  1
  Al  Al18  1  0.159406  0.318810  0.576687  1
  Al  Al19  1  0.318954  0.159335  0.076675  1
  Al  Al20  1  0.158911  0.317822  0.923170  1
  Al  Al21  1  0.841089  0.682178  0.076830  1
  Al  Al22  1  0.439010  0.560946  0.749654  1
  Al  Al23  1  0.560990  0.439054  0.250346  1
  Al  Al24  1  0.121935  0.560946  0.749654  1
  Al  Al25  1  0.878065  0.439054  0.250346  1
  Al  Al26  1  0.439915  0.879831  0.744488  1
  Al  Al27  1  0.560085  0.120169  0.255512  1
  Al  Al28  1  0.000046  0.000092  0.749901  1
  Al  Al29  1  0.999954  0.999908  0.250099  1
  Fe  Fe30  1  0.500000  0.000000  0.500000  1
  Fe  Fe31  1  0.000000  0.000000  0.000000  1
  Fe  Fe32  1  0.000000  0.000000  0.500000  1
  Os  Os33  1  0.500000  0.000000  0.000000  1
  Ru  Ru34  1  0.500000  0.500000  0.000000  1
  Ru  Ru35  1  0.000000  0.500000  0.000000  1
  Ru  Ru36  1  0.500000  0.500000  0.500000  1
  Ru  Ru37  1  0.000000  0.500000  0.500000  1
