# generated using pymatgen
data_Tb2Y13Th(CdPt)4
_symmetry_space_group_name_H-M   'P 1'
_cell_length_a   9.74833414
_cell_length_b   9.75648589
_cell_length_c   9.75648591
_cell_angle_alpha   60.06073812
_cell_angle_beta   60.05650737
_cell_angle_gamma   60.05650209
_symmetry_Int_Tables_number   1
_chemical_formula_structural   Tb2Y13Th(CdPt)4
_chemical_formula_sum   'Tb2 Y13 Th1 Cd4 Pt4'
_cell_volume   657.00993742
_cell_formula_units_Z   1
loop_
 _symmetry_equiv_pos_site_id
 _symmetry_equiv_pos_as_xyz
  1  'x, y, z'
loop_
 _atom_site_type_symbol
 _atom_site_label
 _atom_site_symmetry_multiplicity
 _atom_site_fract_x
 _atom_site_fract_y
 _atom_site_fract_z
 _atom_site_occupancy
  Tb  Tb0  1  0.353840  0.353767  0.939194  1
  Tb  Tb1  1  0.353840  0.939194  0.353767  1
  Y  Y2  1  0.938143  0.354402  0.354402  1
  Y  Y3  1  0.812203  0.189441  0.189441  1
  Y  Y4  1  0.190588  0.810829  0.810829  1
  Y  Y5  1  0.189535  0.812461  0.189384  1
  Y  Y6  1  0.810876  0.190264  0.810848  1
  Y  Y7  1  0.189535  0.189384  0.812461  1
  Y  Y8  1  0.810876  0.810848  0.190264  1
  Y  Y9  1  0.937076  0.566050  0.566050  1
  Y  Y10  1  0.563079  0.937116  0.937116  1
  Y  Y11  1  0.565247  0.936994  0.565756  1
  Y  Y12  1  0.937055  0.563554  0.936619  1
  Y  Y13  1  0.565247  0.565756  0.936994  1
  Y  Y14  1  0.937055  0.936619  0.563554  1
  Th  Th15  1  0.348607  0.348794  0.348794  1
  Cd  Cd16  1  0.582200  0.581486  0.581486  1
  Cd  Cd17  1  0.582740  0.582314  0.252335  1
  Cd  Cd18  1  0.582740  0.252335  0.582314  1
  Cd  Cd19  1  0.252378  0.582365  0.582365  1
  Pt  Pt20  1  0.144368  0.144040  0.144040  1
  Pt  Pt21  1  0.141644  0.140890  0.569677  1
  Pt  Pt22  1  0.141644  0.569677  0.140890  1
  Pt  Pt23  1  0.569481  0.141420  0.141420  1
