# generated using pymatgen
data_Ho2Co9Tc(AsP2)2
_symmetry_space_group_name_H-M   'P 1'
_cell_length_a   3.71625200
_cell_length_b   10.48343100
_cell_length_c   11.87335200
_cell_angle_alpha   90.00000000
_cell_angle_beta   90.00000000
_cell_angle_gamma   90.00000000
_symmetry_Int_Tables_number   1
_chemical_formula_structural   Ho2Co9Tc(AsP2)2
_chemical_formula_sum   'Ho4 Co18 Tc2 As4 P8'
_cell_volume   462.57476857
_cell_formula_units_Z   2
loop_
 _symmetry_equiv_pos_site_id
 _symmetry_equiv_pos_as_xyz
  1  'x, y, z'
loop_
 _atom_site_type_symbol
 _atom_site_label
 _atom_site_symmetry_multiplicity
 _atom_site_fract_x
 _atom_site_fract_y
 _atom_site_fract_z
 _atom_site_occupancy
  Ho  Ho0  1  0.250000  0.585468  0.702047  1
  Ho  Ho1  1  0.250000  0.914532  0.202047  1
  Ho  Ho2  1  0.750000  0.422913  0.299543  1
  Ho  Ho3  1  0.750000  0.077087  0.799543  1
  Co  Co4  1  0.750000  0.279066  0.011421  1
  Co  Co5  1  0.750000  0.220934  0.511421  1
  Co  Co6  1  0.250000  0.415702  0.490871  1
  Co  Co7  1  0.250000  0.084298  0.990871  1
  Co  Co8  1  0.750000  0.595373  0.511555  1
  Co  Co9  1  0.750000  0.904627  0.011555  1
  Co  Co10  1  0.250000  0.208613  0.174051  1
  Co  Co11  1  0.250000  0.291387  0.674051  1
  Co  Co12  1  0.750000  0.778274  0.823445  1
  Co  Co13  1  0.750000  0.721726  0.323445  1
  Co  Co14  1  0.250000  0.881034  0.702633  1
  Co  Co15  1  0.250000  0.618966  0.202633  1
  Co  Co16  1  0.750000  0.107140  0.297460  1
  Co  Co17  1  0.750000  0.392860  0.797460  1
  Co  Co18  1  0.250000  0.474486  0.928122  1
  Co  Co19  1  0.250000  0.025514  0.428122  1
  Co  Co20  1  0.750000  0.539089  0.066532  1
  Co  Co21  1  0.750000  0.960911  0.566532  1
  Tc  Tc22  1  0.250000  0.711206  0.990209  1
  Tc  Tc23  1  0.250000  0.788794  0.490209  1
  As  As24  1  0.250000  0.413140  0.113048  1
  As  As25  1  0.250000  0.086860  0.613048  1
  As  As26  1  0.250000  0.268333  0.870284  1
  As  As27  1  0.250000  0.231667  0.370284  1
  P  P28  1  0.750000  0.581951  0.885537  1
  P  P29  1  0.750000  0.918049  0.385537  1
  P  P30  1  0.750000  0.730049  0.134022  1
  P  P31  1  0.750000  0.769951  0.634022  1
  P  P32  1  0.250000  0.599424  0.391450  1
  P  P33  1  0.250000  0.900576  0.891450  1
  P  P34  1  0.750000  0.403069  0.607773  1
  P  P35  1  0.750000  0.096931  0.107773  1
