# generated using pymatgen
data_Tm16MgIn(Ni2Ag)2
_symmetry_space_group_name_H-M   'P 1'
_cell_length_a   9.44487426
_cell_length_b   9.36445499
_cell_length_c   9.36445496
_cell_angle_alpha   60.02755751
_cell_angle_beta   59.96077280
_cell_angle_gamma   59.96077142
_symmetry_Int_Tables_number   1
_chemical_formula_structural   Tm16MgIn(Ni2Ag)2
_chemical_formula_sum   'Tm16 Mg1 In1 Ni4 Ag2'
_cell_volume   585.43501431
_cell_formula_units_Z   1
loop_
 _symmetry_equiv_pos_site_id
 _symmetry_equiv_pos_as_xyz
  1  'x, y, z'
loop_
 _atom_site_type_symbol
 _atom_site_label
 _atom_site_symmetry_multiplicity
 _atom_site_fract_x
 _atom_site_fract_y
 _atom_site_fract_z
 _atom_site_occupancy
  Tm  Tm0  1  0.184385  0.815756  0.815756  1
  Tm  Tm1  1  0.812678  0.187374  0.187374  1
  Tm  Tm2  1  0.813162  0.191946  0.814800  1
  Tm  Tm3  1  0.184149  0.814636  0.188331  1
  Tm  Tm4  1  0.813162  0.814800  0.191946  1
  Tm  Tm5  1  0.184149  0.188331  0.814636  1
  Tm  Tm6  1  0.058365  0.440723  0.440723  1
  Tm  Tm7  1  0.439726  0.061168  0.061168  1
  Tm  Tm8  1  0.436277  0.062883  0.437622  1
  Tm  Tm9  1  0.058992  0.440711  0.060399  1
  Tm  Tm10  1  0.436277  0.437622  0.062883  1
  Tm  Tm11  1  0.058992  0.060399  0.440711  1
  Tm  Tm12  1  0.595679  0.596703  0.596703  1
  Tm  Tm13  1  0.599829  0.598895  0.204774  1
  Tm  Tm14  1  0.599829  0.204774  0.598895  1
  Tm  Tm15  1  0.198097  0.601131  0.601131  1
  Mg  Mg16  1  0.529632  0.819408  0.819408  1
  In  In17  1  0.835081  0.830866  0.830866  1
  Ni  Ni18  1  0.391410  0.394219  0.394219  1
  Ni  Ni19  1  0.389236  0.391280  0.824048  1
  Ni  Ni20  1  0.389236  0.824048  0.391280  1
  Ni  Ni21  1  0.824420  0.391249  0.391249  1
  Ag  Ag22  1  0.833619  0.832678  0.498403  1
  Ag  Ag23  1  0.833619  0.498403  0.832678  1
