# generated using pymatgen
data_Ba6SrTb(BO3)6
_symmetry_space_group_name_H-M   'P 1'
_cell_length_a   8.32541167
_cell_length_b   8.32541297
_cell_length_c   8.32541237
_cell_angle_alpha   105.56710346
_cell_angle_beta   105.56709409
_cell_angle_gamma   105.56709141
_symmetry_Int_Tables_number   1
_chemical_formula_structural   Ba6SrTb(BO3)6
_chemical_formula_sum   'Ba6 Sr1 Tb1 B6 O18'
_cell_volume   498.17004587
_cell_formula_units_Z   1
loop_
 _symmetry_equiv_pos_site_id
 _symmetry_equiv_pos_as_xyz
  1  'x, y, z'
loop_
 _atom_site_type_symbol
 _atom_site_label
 _atom_site_symmetry_multiplicity
 _atom_site_fract_x
 _atom_site_fract_y
 _atom_site_fract_z
 _atom_site_occupancy
  Ba  Ba0  1  0.353977  0.734098  0.845552  1
  Ba  Ba1  1  0.845552  0.353977  0.734098  1
  Ba  Ba2  1  0.734098  0.845552  0.353977  1
  Ba  Ba3  1  0.646023  0.265902  0.154448  1
  Ba  Ba4  1  0.154448  0.646023  0.265902  1
  Ba  Ba5  1  0.265902  0.154448  0.646023  1
  Sr  Sr6  1  0.000000  0.000000  0.000000  1
  Tb  Tb7  1  0.500000  0.500000  0.500000  1
  B  B8  1  0.701668  0.616495  0.954922  1
  B  B9  1  0.954922  0.701668  0.616495  1
  B  B10  1  0.616495  0.954922  0.701668  1
  B  B11  1  0.045078  0.298332  0.383505  1
  B  B12  1  0.383505  0.045078  0.298332  1
  B  B13  1  0.298332  0.383505  0.045078  1
  O  O14  1  0.057255  0.803998  0.547692  1
  O  O15  1  0.547692  0.057255  0.803998  1
  O  O16  1  0.426082  0.497296  0.215789  1
  O  O17  1  0.497296  0.215789  0.426082  1
  O  O18  1  0.215789  0.426082  0.497296  1
  O  O19  1  0.784211  0.573918  0.502704  1
  O  O20  1  0.573918  0.502704  0.784211  1
  O  O21  1  0.502704  0.784211  0.573918  1
  O  O22  1  0.280386  0.205551  0.982019  1
  O  O23  1  0.205551  0.982019  0.280386  1
  O  O24  1  0.982019  0.280386  0.205551  1
  O  O25  1  0.719614  0.794449  0.017981  1
  O  O26  1  0.794449  0.017981  0.719614  1
  O  O27  1  0.017981  0.719614  0.794449  1
  O  O28  1  0.196002  0.452308  0.942745  1
  O  O29  1  0.452308  0.942745  0.196002  1
  O  O30  1  0.942745  0.196002  0.452308  1
  O  O31  1  0.803998  0.547692  0.057255  1
