# generated using pymatgen
data_La2Y7Er(Al2Ru3)2
_symmetry_space_group_name_H-M   'P 1'
_cell_length_a   8.47815027
_cell_length_b   8.42883920
_cell_length_c   8.42773216
_cell_angle_alpha   109.53777857
_cell_angle_beta   109.79995829
_cell_angle_gamma   109.69980492
_symmetry_Int_Tables_number   1
_chemical_formula_structural   La2Y7Er(Al2Ru3)2
_chemical_formula_sum   'La2 Y7 Er1 Al4 Ru6'
_cell_volume   460.00918575
_cell_formula_units_Z   1
loop_
 _symmetry_equiv_pos_site_id
 _symmetry_equiv_pos_as_xyz
  1  'x, y, z'
loop_
 _atom_site_type_symbol
 _atom_site_label
 _atom_site_symmetry_multiplicity
 _atom_site_fract_x
 _atom_site_fract_y
 _atom_site_fract_z
 _atom_site_occupancy
  La  La0  1  0.939931  0.251978  0.191687  1
  La  La1  1  0.192812  0.936607  0.252730  1
  Y  Y2  1  0.321501  0.570022  0.756154  1
  Y  Y3  1  0.752889  0.322054  0.571998  1
  Y  Y4  1  0.568672  0.748684  0.316063  1
  Y  Y5  1  0.714219  0.502805  0.996810  1
  Y  Y6  1  0.999080  0.716828  0.506615  1
  Y  Y7  1  0.501780  0.992888  0.714130  1
  Y  Y8  1  0.253729  0.186065  0.928769  1
  Er  Er9  1  0.786919  0.789755  0.784266  1
  Al  Al10  1  0.422942  0.420583  0.420851  1
  Al  Al11  1  0.088163  0.492586  0.994677  1
  Al  Al12  1  0.996127  0.084850  0.500204  1
  Al  Al13  1  0.497346  0.004884  0.086374  1
  Ru  Ru14  1  0.873244  0.118754  0.740235  1
  Ru  Ru15  1  0.742168  0.884267  0.118995  1
  Ru  Ru16  1  0.123215  0.751185  0.886513  1
  Ru  Ru17  1  0.241634  0.607676  0.368135  1
  Ru  Ru18  1  0.364271  0.239444  0.612748  1
  Ru  Ru19  1  0.619361  0.378089  0.252044  1
