# generated using pymatgen
data_RbYSiSe4
_symmetry_space_group_name_H-M   'P 1'
_cell_length_a   7.03779600
_cell_length_b   6.72679167
_cell_length_c   9.41143462
_cell_angle_alpha   72.68192908
_cell_angle_beta   90.00000000
_cell_angle_gamma   90.00000000
_symmetry_Int_Tables_number   1
_chemical_formula_structural   RbYSiSe4
_chemical_formula_sum   'Rb2 Y2 Si2 Se8'
_cell_volume   425.35581497
_cell_formula_units_Z   2
loop_
 _symmetry_equiv_pos_site_id
 _symmetry_equiv_pos_as_xyz
  1  'x, y, z'
loop_
 _atom_site_type_symbol
 _atom_site_label
 _atom_site_symmetry_multiplicity
 _atom_site_fract_x
 _atom_site_fract_y
 _atom_site_fract_z
 _atom_site_occupancy
  Rb  Rb0  1  0.991916  0.738021  0.064104  1
  Rb  Rb1  1  0.491916  0.261979  0.935896  1
  Y  Y2  1  0.509315  0.229357  0.452186  1
  Y  Y3  1  0.009315  0.770643  0.547814  1
  Si  Si4  1  0.471356  0.778503  0.331781  1
  Si  Si5  1  0.971356  0.221497  0.668219  1
  Se  Se6  1  0.476568  0.576190  0.177394  1
  Se  Se7  1  0.236515  0.027219  0.285320  1
  Se  Se8  1  0.740311  0.980407  0.306058  1
  Se  Se9  1  0.907021  0.426214  0.432011  1
  Se  Se10  1  0.407021  0.573786  0.567989  1
  Se  Se11  1  0.240311  0.019593  0.693942  1
  Se  Se12  1  0.736515  0.972781  0.714680  1
  Se  Se13  1  0.976568  0.423810  0.822606  1
