# generated using pymatgen
data_Sr2Eu2Dy5Er3Se16
_symmetry_space_group_name_H-M   'P 1'
_cell_length_a   4.13448200
_cell_length_b   12.64405201
_cell_length_c   14.95072757
_cell_angle_alpha   89.97602174
_cell_angle_beta   90.00000000
_cell_angle_gamma   90.00000000
_symmetry_Int_Tables_number   1
_chemical_formula_structural   Sr2Eu2Dy5Er3Se16
_chemical_formula_sum   'Sr2 Eu2 Dy5 Er3 Se16'
_cell_volume   781.57321787
_cell_formula_units_Z   1
loop_
 _symmetry_equiv_pos_site_id
 _symmetry_equiv_pos_as_xyz
  1  'x, y, z'
loop_
 _atom_site_type_symbol
 _atom_site_label
 _atom_site_symmetry_multiplicity
 _atom_site_fract_x
 _atom_site_fract_y
 _atom_site_fract_z
 _atom_site_occupancy
  Sr  Sr0  1  0.250000  0.258951  0.834271  1
  Sr  Sr1  1  0.250000  0.758661  0.665393  1
  Eu  Eu2  1  0.750000  0.742375  0.165742  1
  Eu  Eu3  1  0.750000  0.243082  0.335428  1
  Dy  Dy4  1  0.750000  0.062403  0.112339  1
  Dy  Dy5  1  0.250000  0.937707  0.888656  1
  Dy  Dy6  1  0.250000  0.438029  0.610801  1
  Dy  Dy7  1  0.250000  0.915255  0.401994  1
  Dy  Dy8  1  0.250000  0.415950  0.098507  1
  Er  Er9  1  0.750000  0.561862  0.387460  1
  Er  Er10  1  0.750000  0.084277  0.596201  1
  Er  Er11  1  0.750000  0.584151  0.903699  1
  Se  Se12  1  0.750000  0.294441  0.672450  1
  Se  Se13  1  0.750000  0.794068  0.827060  1
  Se  Se14  1  0.250000  0.703506  0.324192  1
  Se  Se15  1  0.250000  0.204743  0.177938  1
  Se  Se16  1  0.750000  0.371488  0.969325  1
  Se  Se17  1  0.750000  0.871836  0.531278  1
  Se  Se18  1  0.250000  0.630475  0.032239  1
  Se  Se19  1  0.250000  0.130315  0.467385  1
  Se  Se20  1  0.750000  0.471150  0.216717  1
  Se  Se21  1  0.750000  0.968561  0.283367  1
  Se  Se22  1  0.250000  0.528678  0.785803  1
  Se  Se23  1  0.250000  0.028941  0.713865  1
  Se  Se24  1  0.750000  0.090348  0.923078  1
  Se  Se25  1  0.750000  0.590530  0.575419  1
  Se  Se26  1  0.250000  0.908483  0.078059  1
  Se  Se27  1  0.250000  0.409734  0.421335  1
