# generated using pymatgen
data_Tm8V(B8Rh)3
_symmetry_space_group_name_H-M   'P 1'
_cell_length_a   3.60385800
_cell_length_b   9.11184140
_cell_length_c   11.47411687
_cell_angle_alpha   89.77564117
_cell_angle_beta   90.00000000
_cell_angle_gamma   90.00000000
_symmetry_Int_Tables_number   1
_chemical_formula_structural   Tm8V(B8Rh)3
_chemical_formula_sum   'Tm8 V1 B24 Rh3'
_cell_volume   376.78166553
_cell_formula_units_Z   1
loop_
 _symmetry_equiv_pos_site_id
 _symmetry_equiv_pos_as_xyz
  1  'x, y, z'
loop_
 _atom_site_type_symbol
 _atom_site_label
 _atom_site_symmetry_multiplicity
 _atom_site_fract_x
 _atom_site_fract_y
 _atom_site_fract_z
 _atom_site_occupancy
  Tm  Tm0  1  0.000000  0.323941  0.412655  1
  Tm  Tm1  1  0.000000  0.678147  0.582443  1
  Tm  Tm2  1  0.000000  0.818013  0.089315  1
  Tm  Tm3  1  0.000000  0.178109  0.915098  1
  Tm  Tm4  1  0.000000  0.942698  0.373808  1
  Tm  Tm5  1  0.000000  0.057467  0.627633  1
  Tm  Tm6  1  0.000000  0.445692  0.127478  1
  Tm  Tm7  1  0.000000  0.556645  0.871353  1
  V  V8  1  0.000000  0.637961  0.321162  1
  B  B9  1  0.500000  0.551283  0.434767  1
  B  B10  1  0.500000  0.447590  0.566322  1
  B  B11  1  0.500000  0.052539  0.065965  1
  B  B12  1  0.500000  0.946520  0.934640  1
  B  B13  1  0.500000  0.749360  0.420591  1
  B  B14  1  0.500000  0.251379  0.579781  1
  B  B15  1  0.500000  0.249522  0.079333  1
  B  B16  1  0.500000  0.750484  0.920965  1
  B  B17  1  0.500000  0.793613  0.264077  1
  B  B18  1  0.500000  0.206745  0.736197  1
  B  B19  1  0.500000  0.292357  0.234447  1
  B  B20  1  0.500000  0.708096  0.763812  1
  B  B21  1  0.500000  0.631351  0.184043  1
  B  B22  1  0.500000  0.367889  0.816396  1
  B  B23  1  0.500000  0.131836  0.315716  1
  B  B24  1  0.500000  0.868588  0.683425  1
  B  B25  1  0.500000  0.980929  0.212278  1
  B  B26  1  0.500000  0.019008  0.788292  1
  B  B27  1  0.500000  0.480158  0.287113  1
  B  B28  1  0.500000  0.518749  0.712242  1
  B  B29  1  0.500000  0.606953  0.027958  1
  B  B30  1  0.500000  0.392889  0.970023  1
  B  B31  1  0.500000  0.107466  0.470928  1
  B  B32  1  0.500000  0.895007  0.530508  1
  Rh  Rh33  1  0.000000  0.360799  0.679859  1
  Rh  Rh34  1  0.000000  0.138098  0.178307  1
  Rh  Rh35  1  0.000000  0.862117  0.821073  1
