# generated using pymatgen
data_Rb3AgGe4
_symmetry_space_group_name_H-M   'P 1'
_cell_length_a   6.32385400
_cell_length_b   6.92766500
_cell_length_c   12.61031200
_cell_angle_alpha   90.00000000
_cell_angle_beta   90.00000000
_cell_angle_gamma   90.00000000
_symmetry_Int_Tables_number   1
_chemical_formula_structural   Rb3AgGe4
_chemical_formula_sum   'Rb6 Ag2 Ge8'
_cell_volume   552.45199346
_cell_formula_units_Z   2
loop_
 _symmetry_equiv_pos_site_id
 _symmetry_equiv_pos_as_xyz
  1  'x, y, z'
loop_
 _atom_site_type_symbol
 _atom_site_label
 _atom_site_symmetry_multiplicity
 _atom_site_fract_x
 _atom_site_fract_y
 _atom_site_fract_z
 _atom_site_occupancy
  Rb  Rb0  1  0.837268  0.500000  0.264773  1
  Rb  Rb1  1  0.837268  0.500000  0.735227  1
  Rb  Rb2  1  0.423193  0.500000  0.500000  1
  Rb  Rb3  1  0.162732  0.000000  0.235227  1
  Rb  Rb4  1  0.162732  0.000000  0.764773  1
  Rb  Rb5  1  0.576807  0.000000  0.000000  1
  Ag  Ag6  1  0.698943  0.500000  0.000000  1
  Ag  Ag7  1  0.301057  0.000000  0.500000  1
  Ge  Ge8  1  0.068252  0.300851  0.000000  1
  Ge  Ge9  1  0.332051  0.500000  0.109697  1
  Ge  Ge10  1  0.667949  0.000000  0.609697  1
  Ge  Ge11  1  0.068252  0.699149  0.000000  1
  Ge  Ge12  1  0.931748  0.800851  0.500000  1
  Ge  Ge13  1  0.667949  0.000000  0.390303  1
  Ge  Ge14  1  0.332051  0.500000  0.890303  1
  Ge  Ge15  1  0.931748  0.199149  0.500000  1
