# generated using pymatgen
data_Dy5Y5Tm2Co5Sn
_symmetry_space_group_name_H-M   'P 1'
_cell_length_a   8.28852698
_cell_length_b   8.29453304
_cell_length_c   8.28852811
_cell_angle_alpha   107.11848197
_cell_angle_beta   110.61023332
_cell_angle_gamma   110.68153459
_symmetry_Int_Tables_number   1
_chemical_formula_structural   Dy5Y5Tm2Co5Sn
_chemical_formula_sum   'Dy5 Y5 Tm2 Co5 Sn1'
_cell_volume   438.26341985
_cell_formula_units_Z   1
loop_
 _symmetry_equiv_pos_site_id
 _symmetry_equiv_pos_as_xyz
  1  'x, y, z'
loop_
 _atom_site_type_symbol
 _atom_site_label
 _atom_site_symmetry_multiplicity
 _atom_site_fract_x
 _atom_site_fract_y
 _atom_site_fract_z
 _atom_site_occupancy
  Dy  Dy0  1  0.693065  0.007055  0.313991  1
  Dy  Dy1  1  0.193198  0.206894  0.401065  1
  Dy  Dy2  1  0.808073  0.792728  0.600591  1
  Dy  Dy3  1  0.192137  0.792728  0.984654  1
  Dy  Dy4  1  0.805829  0.206894  0.013697  1
  Y  Y5  1  0.479495  0.292265  0.186825  1
  Y  Y6  1  0.105440  0.292265  0.812769  1
  Y  Y7  1  0.894069  0.707362  0.186747  1
  Y  Y8  1  0.520616  0.707362  0.813293  1
  Y  Y9  1  0.305009  0.619017  0.314008  1
  Tm  Tm10  1  0.308094  0.994303  0.686208  1
  Tm  Tm11  1  0.692059  0.378295  0.686237  1
  Co  Co12  1  0.500636  0.611311  0.110675  1
  Co  Co13  1  0.499770  0.385910  0.886141  1
  Co  Co14  1  0.379640  0.002292  0.379925  1
  Co  Co15  1  0.622368  0.002292  0.622653  1
  Co  Co16  1  0.000425  0.000550  0.000126  1
  Sn  Sn17  1  0.000078  0.500475  0.500397  1
