# generated using pymatgen
data_TbYbGa9Ir2Pd
_symmetry_space_group_name_H-M   'P 1'
_cell_length_a   7.61012528
_cell_length_b   7.62011313
_cell_length_c   9.53109600
_cell_angle_alpha   90.00000000
_cell_angle_beta   90.00000000
_cell_angle_gamma   119.64638972
_symmetry_Int_Tables_number   1
_chemical_formula_structural   TbYbGa9Ir2Pd
_chemical_formula_sum   'Tb2 Yb2 Ga18 Ir4 Pd2'
_cell_volume   480.35595828
_cell_formula_units_Z   2
loop_
 _symmetry_equiv_pos_site_id
 _symmetry_equiv_pos_as_xyz
  1  'x, y, z'
loop_
 _atom_site_type_symbol
 _atom_site_label
 _atom_site_symmetry_multiplicity
 _atom_site_fract_x
 _atom_site_fract_y
 _atom_site_fract_z
 _atom_site_occupancy
  Tb  Tb0  1  0.998146  0.670602  0.250000  1
  Tb  Tb1  1  0.001854  0.329398  0.750000  1
  Yb  Yb2  1  0.669817  0.997680  0.250000  1
  Yb  Yb3  1  0.330183  0.002320  0.750000  1
  Ga  Ga4  1  0.130362  0.129811  0.250000  1
  Ga  Ga5  1  0.869638  0.870189  0.750000  1
  Ga  Ga6  1  0.999264  0.335832  0.081381  1
  Ga  Ga7  1  0.000736  0.664168  0.918619  1
  Ga  Ga8  1  0.000736  0.664168  0.581381  1
  Ga  Ga9  1  0.340167  0.000589  0.420735  1
  Ga  Ga10  1  0.999264  0.335832  0.418619  1
  Ga  Ga11  1  0.659833  0.999411  0.579265  1
  Ga  Ga12  1  0.659833  0.999411  0.920735  1
  Ga  Ga13  1  0.340167  0.000589  0.079265  1
  Ga  Ga14  1  0.335968  0.334160  0.566585  1
  Ga  Ga15  1  0.664032  0.665840  0.433415  1
  Ga  Ga16  1  0.664032  0.665840  0.066585  1
  Ga  Ga17  1  0.335968  0.334160  0.933415  1
  Ga  Ga18  1  0.337774  0.548532  0.250000  1
  Ga  Ga19  1  0.662226  0.451468  0.750000  1
  Ga  Ga20  1  0.548139  0.336531  0.250000  1
  Ga  Ga21  1  0.451861  0.663469  0.750000  1
  Ir  Ir22  1  0.673225  0.330142  0.000110  1
  Ir  Ir23  1  0.326775  0.669858  0.999890  1
  Ir  Ir24  1  0.326775  0.669858  0.500110  1
  Ir  Ir25  1  0.673225  0.330142  0.499890  1
  Pd  Pd26  1  0.000000  0.000000  0.000000  1
  Pd  Pd27  1  0.000000  0.000000  0.500000  1
