# generated using pymatgen
data_Er9Tm11Sn16
_symmetry_space_group_name_H-M   'P 1'
_cell_length_a   7.97840702
_cell_length_b   8.10992219
_cell_length_c   15.32555100
_cell_angle_alpha   89.99589529
_cell_angle_beta   89.99579173
_cell_angle_gamma   89.98813773
_symmetry_Int_Tables_number   1
_chemical_formula_structural   Er9Tm11Sn16
_chemical_formula_sum   'Er9 Tm11 Sn16'
_cell_volume   991.62841286
_cell_formula_units_Z   1
loop_
 _symmetry_equiv_pos_site_id
 _symmetry_equiv_pos_as_xyz
  1  'x, y, z'
loop_
 _atom_site_type_symbol
 _atom_site_label
 _atom_site_symmetry_multiplicity
 _atom_site_fract_x
 _atom_site_fract_y
 _atom_site_fract_z
 _atom_site_occupancy
  Er  Er0  1  0.521585  0.321083  0.903038  1
  Er  Er1  1  0.021465  0.179077  0.596856  1
  Er  Er2  1  0.478444  0.679074  0.402818  1
  Er  Er3  1  0.978590  0.820900  0.097143  1
  Er  Er4  1  0.478486  0.679126  0.097298  1
  Er  Er5  1  0.978491  0.820882  0.402860  1
  Er  Er6  1  0.521612  0.321008  0.596864  1
  Er  Er7  1  0.021440  0.179040  0.903113  1
  Er  Er8  1  0.367558  0.836914  0.877405  1
  Tm  Tm9  1  0.867646  0.663184  0.622623  1
  Tm  Tm10  1  0.632457  0.163134  0.377185  1
  Tm  Tm11  1  0.132351  0.336830  0.122860  1
  Tm  Tm12  1  0.632438  0.163121  0.122769  1
  Tm  Tm13  1  0.132418  0.336827  0.377208  1
  Tm  Tm14  1  0.367540  0.836892  0.622649  1
  Tm  Tm15  1  0.867558  0.663198  0.877294  1
  Tm  Tm16  1  0.198234  0.503804  0.749934  1
  Tm  Tm17  1  0.698338  0.996158  0.749949  1
  Tm  Tm18  1  0.801787  0.496104  0.249974  1
  Tm  Tm19  1  0.301783  0.003912  0.250018  1
  Sn  Sn20  1  0.292976  0.037664  0.041922  1
  Sn  Sn21  1  0.792630  0.462667  0.458366  1
  Sn  Sn22  1  0.706891  0.962931  0.541346  1
  Sn  Sn23  1  0.206755  0.536352  0.958910  1
  Sn  Sn24  1  0.707774  0.963167  0.958779  1
  Sn  Sn25  1  0.206944  0.537075  0.541378  1
  Sn  Sn26  1  0.292748  0.037204  0.458457  1
  Sn  Sn27  1  0.792797  0.462814  0.041553  1
  Sn  Sn28  1  0.564765  0.619224  0.749798  1
  Sn  Sn29  1  0.064281  0.880629  0.749814  1
  Sn  Sn30  1  0.435482  0.380479  0.249998  1
  Sn  Sn31  1  0.935730  0.119316  0.250015  1
  Sn  Sn32  1  0.331131  0.149051  0.749858  1
  Sn  Sn33  1  0.831255  0.351139  0.749974  1
  Sn  Sn34  1  0.668785  0.851157  0.249992  1
  Sn  Sn35  1  0.168840  0.648860  0.249981  1
