# generated using pymatgen
data_LiLu19(Cd3Fe)2
_symmetry_space_group_name_H-M   'P 1'
_cell_length_a   9.30168800
_cell_length_b   9.30168877
_cell_length_c   9.49873500
_cell_angle_alpha   90.00000000
_cell_angle_beta   90.00000000
_cell_angle_gamma   119.99999725
_symmetry_Int_Tables_number   1
_chemical_formula_structural   LiLu19(Cd3Fe)2
_chemical_formula_sum   'Li1 Lu19 Cd6 Fe2'
_cell_volume   711.73772851
_cell_formula_units_Z   1
loop_
 _symmetry_equiv_pos_site_id
 _symmetry_equiv_pos_as_xyz
  1  'x, y, z'
loop_
 _atom_site_type_symbol
 _atom_site_label
 _atom_site_symmetry_multiplicity
 _atom_site_fract_x
 _atom_site_fract_y
 _atom_site_fract_z
 _atom_site_occupancy
  Li  Li0  1  0.000000  0.000000  0.500000  1
  Lu  Lu1  1  0.000000  0.000000  0.000000  1
  Lu  Lu2  1  0.541445  0.458371  0.251592  1
  Lu  Lu3  1  0.541559  0.083196  0.251307  1
  Lu  Lu4  1  0.916797  0.458306  0.251483  1
  Lu  Lu5  1  0.458555  0.541629  0.748408  1
  Lu  Lu6  1  0.458441  0.916804  0.748693  1
  Lu  Lu7  1  0.083203  0.541694  0.748517  1
  Lu  Lu8  1  0.211405  0.788731  0.436808  1
  Lu  Lu9  1  0.211692  0.422857  0.436880  1
  Lu  Lu10  1  0.577300  0.788526  0.436926  1
  Lu  Lu11  1  0.788595  0.211269  0.563192  1
  Lu  Lu12  1  0.788308  0.577143  0.563120  1
  Lu  Lu13  1  0.422700  0.211474  0.563074  1
  Lu  Lu14  1  0.787290  0.212264  0.939616  1
  Lu  Lu15  1  0.787479  0.575128  0.939415  1
  Lu  Lu16  1  0.424904  0.212293  0.939670  1
  Lu  Lu17  1  0.212710  0.787736  0.060384  1
  Lu  Lu18  1  0.212521  0.424872  0.060585  1
  Lu  Lu19  1  0.575096  0.787707  0.060330  1
  Cd  Cd20  1  0.889593  0.109872  0.258867  1
  Cd  Cd21  1  0.889688  0.779883  0.259139  1
  Cd  Cd22  1  0.220478  0.110140  0.258930  1
  Cd  Cd23  1  0.110407  0.890128  0.741133  1
  Cd  Cd24  1  0.110312  0.220117  0.740861  1
  Cd  Cd25  1  0.779522  0.889860  0.741070  1
  Fe  Fe26  1  0.333940  0.666946  0.246287  1
  Fe  Fe27  1  0.666060  0.333054  0.753713  1
