# generated using pymatgen
data_LiTm(PSe3)2
_symmetry_space_group_name_H-M   'P 1'
_cell_length_a   6.52183100
_cell_length_b   6.52183010
_cell_length_c   14.46358400
_cell_angle_alpha   90.00000000
_cell_angle_beta   90.00000000
_cell_angle_gamma   120.00000963
_symmetry_Int_Tables_number   1
_chemical_formula_structural   LiTm(PSe3)2
_chemical_formula_sum   'Li2 Tm2 P4 Se12'
_cell_volume   532.77708027
_cell_formula_units_Z   2
loop_
 _symmetry_equiv_pos_site_id
 _symmetry_equiv_pos_as_xyz
  1  'x, y, z'
loop_
 _atom_site_type_symbol
 _atom_site_label
 _atom_site_symmetry_multiplicity
 _atom_site_fract_x
 _atom_site_fract_y
 _atom_site_fract_z
 _atom_site_occupancy
  Li  Li0  1  0.666667  0.333333  0.250000  1
  Li  Li1  1  0.333333  0.666667  0.750000  1
  Tm  Tm2  1  0.000000  0.000000  0.250000  1
  Tm  Tm3  1  0.000000  0.000000  0.750000  1
  P  P4  1  0.666667  0.333333  0.672490  1
  P  P5  1  0.666667  0.333333  0.827510  1
  P  P6  1  0.333333  0.666667  0.327510  1
  P  P7  1  0.333333  0.666667  0.172490  1
  Se  Se8  1  0.992038  0.335989  0.872104  1
  Se  Se9  1  0.343951  0.335989  0.627896  1
  Se  Se10  1  0.992038  0.656049  0.627896  1
  Se  Se11  1  0.664011  0.007962  0.627896  1
  Se  Se12  1  0.335989  0.343951  0.127896  1
  Se  Se13  1  0.656049  0.992038  0.127896  1
  Se  Se14  1  0.007962  0.664011  0.127896  1
  Se  Se15  1  0.656049  0.664011  0.372104  1
  Se  Se16  1  0.007962  0.343951  0.372104  1
  Se  Se17  1  0.335989  0.992038  0.372104  1
  Se  Se18  1  0.664011  0.656049  0.872104  1
  Se  Se19  1  0.343951  0.007962  0.872104  1
