# generated using pymatgen
data_Mg4Co10SiGeB4
_symmetry_space_group_name_H-M   'P 1'
_cell_length_a   8.77472800
_cell_length_b   8.77472800
_cell_length_c   2.77361700
_cell_angle_alpha   90.00000000
_cell_angle_beta   90.00000000
_cell_angle_gamma   90.00000000
_symmetry_Int_Tables_number   1
_chemical_formula_structural   Mg4Co10SiGeB4
_chemical_formula_sum   'Mg4 Co10 Si1 Ge1 B4'
_cell_volume   213.55700258
_cell_formula_units_Z   1
loop_
 _symmetry_equiv_pos_site_id
 _symmetry_equiv_pos_as_xyz
  1  'x, y, z'
loop_
 _atom_site_type_symbol
 _atom_site_label
 _atom_site_symmetry_multiplicity
 _atom_site_fract_x
 _atom_site_fract_y
 _atom_site_fract_z
 _atom_site_occupancy
  Mg  Mg0  1  0.676321  0.825626  0.000000  1
  Mg  Mg1  1  0.825626  0.323679  0.000000  1
  Mg  Mg2  1  0.174374  0.676321  0.000000  1
  Mg  Mg3  1  0.323679  0.174374  0.000000  1
  Co  Co4  1  0.500000  0.000000  0.500000  1
  Co  Co5  1  0.571046  0.281556  0.500000  1
  Co  Co6  1  0.718444  0.571046  0.500000  1
  Co  Co7  1  0.281556  0.428954  0.500000  1
  Co  Co8  1  0.213200  0.932167  0.500000  1
  Co  Co9  1  0.000000  0.500000  0.500000  1
  Co  Co10  1  0.067833  0.213200  0.500000  1
  Co  Co11  1  0.786800  0.067833  0.500000  1
  Co  Co12  1  0.932167  0.786800  0.500000  1
  Co  Co13  1  0.428954  0.718444  0.500000  1
  Si  Si14  1  0.000000  0.000000  0.000000  1
  Ge  Ge15  1  0.500000  0.500000  0.000000  1
  B  B16  1  0.375890  0.878818  0.000000  1
  B  B17  1  0.121182  0.375890  0.000000  1
  B  B18  1  0.878818  0.624110  0.000000  1
  B  B19  1  0.624110  0.121182  0.000000  1
