# generated using pymatgen
data_La14CoPd5
_symmetry_space_group_name_H-M   'P 1'
_cell_length_a   10.29982017
_cell_length_b   10.29982008
_cell_length_c   6.59404027
_cell_angle_alpha   90.19593012
_cell_angle_beta   89.80406753
_cell_angle_gamma   119.81560010
_symmetry_Int_Tables_number   1
_chemical_formula_structural   La14CoPd5
_chemical_formula_sum   'La14 Co1 Pd5'
_cell_volume   606.93488239
_cell_formula_units_Z   1
loop_
 _symmetry_equiv_pos_site_id
 _symmetry_equiv_pos_as_xyz
  1  'x, y, z'
loop_
 _atom_site_type_symbol
 _atom_site_label
 _atom_site_symmetry_multiplicity
 _atom_site_fract_x
 _atom_site_fract_y
 _atom_site_fract_z
 _atom_site_occupancy
  La  La0  1  0.333198  0.666802  0.451652  1
  La  La1  1  0.672383  0.327617  0.965502  1
  La  La2  1  0.126536  0.873464  0.241163  1
  La  La3  1  0.752018  0.890008  0.240491  1
  La  La4  1  0.109992  0.247982  0.240491  1
  La  La5  1  0.871885  0.128115  0.753982  1
  La  La6  1  0.253532  0.126155  0.741928  1
  La  La7  1  0.873845  0.746468  0.741928  1
  La  La8  1  0.537339  0.462661  0.444222  1
  La  La9  1  0.917708  0.447896  0.435124  1
  La  La10  1  0.552104  0.082292  0.435124  1
  La  La11  1  0.462899  0.537101  0.948680  1
  La  La12  1  0.075758  0.536153  0.942264  1
  La  La13  1  0.463847  0.924242  0.942264  1
  Co  Co14  1  0.811502  0.188498  0.197494  1
  Pd  Pd15  1  0.373055  0.188500  0.192494  1
  Pd  Pd16  1  0.811500  0.626945  0.192494  1
  Pd  Pd17  1  0.187850  0.812150  0.693645  1
  Pd  Pd18  1  0.624403  0.811352  0.692422  1
  Pd  Pd19  1  0.188648  0.375597  0.692422  1
