# generated using pymatgen
data_DyHo15Cd4Ni3Os
_symmetry_space_group_name_H-M   'P 1'
_cell_length_a   9.56336981
_cell_length_b   9.56336899
_cell_length_c   9.56336992
_cell_angle_alpha   59.37024756
_cell_angle_beta   59.37024978
_cell_angle_gamma   59.37025053
_symmetry_Int_Tables_number   1
_chemical_formula_structural   DyHo15Cd4Ni3Os
_chemical_formula_sum   'Dy1 Ho15 Cd4 Ni3 Os1'
_cell_volume   609.60404626
_cell_formula_units_Z   1
loop_
 _symmetry_equiv_pos_site_id
 _symmetry_equiv_pos_as_xyz
  1  'x, y, z'
loop_
 _atom_site_type_symbol
 _atom_site_label
 _atom_site_symmetry_multiplicity
 _atom_site_fract_x
 _atom_site_fract_y
 _atom_site_fract_z
 _atom_site_occupancy
  Dy  Dy0  1  0.347356  0.347356  0.347356  1
  Ho  Ho1  1  0.351573  0.351573  0.952794  1
  Ho  Ho2  1  0.351573  0.952794  0.351573  1
  Ho  Ho3  1  0.952794  0.351573  0.351573  1
  Ho  Ho4  1  0.810492  0.187995  0.187995  1
  Ho  Ho5  1  0.186715  0.811461  0.811461  1
  Ho  Ho6  1  0.187995  0.810492  0.187995  1
  Ho  Ho7  1  0.811461  0.186715  0.811461  1
  Ho  Ho8  1  0.187995  0.187995  0.810492  1
  Ho  Ho9  1  0.811461  0.811461  0.186715  1
  Ho  Ho10  1  0.935759  0.566096  0.566096  1
  Ho  Ho11  1  0.556895  0.939142  0.939142  1
  Ho  Ho12  1  0.566096  0.935759  0.566096  1
  Ho  Ho13  1  0.939142  0.556895  0.939142  1
  Ho  Ho14  1  0.566096  0.566096  0.935759  1
  Ho  Ho15  1  0.939142  0.939142  0.556895  1
  Cd  Cd16  1  0.580184  0.580184  0.580184  1
  Cd  Cd17  1  0.579952  0.579952  0.255478  1
  Cd  Cd18  1  0.579952  0.255478  0.579952  1
  Cd  Cd19  1  0.255478  0.579952  0.579952  1
  Ni  Ni20  1  0.141360  0.141360  0.575739  1
  Ni  Ni21  1  0.141360  0.575739  0.141360  1
  Ni  Ni22  1  0.575739  0.141360  0.141360  1
  Os  Os23  1  0.143429  0.143429  0.143429  1
