# generated using pymatgen
data_Tm2Fe3Co8NiP7
_symmetry_space_group_name_H-M   'P 1'
_cell_length_a   8.97843688
_cell_length_b   8.95423268
_cell_length_c   3.60508500
_cell_angle_alpha   90.00000000
_cell_angle_beta   90.00000000
_cell_angle_gamma   120.02178459
_symmetry_Int_Tables_number   1
_chemical_formula_structural   Tm2Fe3Co8NiP7
_chemical_formula_sum   'Tm2 Fe3 Co8 Ni1 P7'
_cell_volume   250.94576657
_cell_formula_units_Z   1
loop_
 _symmetry_equiv_pos_site_id
 _symmetry_equiv_pos_as_xyz
  1  'x, y, z'
loop_
 _atom_site_type_symbol
 _atom_site_label
 _atom_site_symmetry_multiplicity
 _atom_site_fract_x
 _atom_site_fract_y
 _atom_site_fract_z
 _atom_site_occupancy
  Tm  Tm0  1  0.332690  0.667219  0.000000  1
  Tm  Tm1  1  0.001104  0.001113  0.500000  1
  Fe  Fe2  1  0.759858  0.207812  0.500000  1
  Fe  Fe3  1  0.447886  0.240658  0.500000  1
  Fe  Fe4  1  0.791956  0.551436  0.500000  1
  Co  Co5  1  0.727395  0.961993  0.000000  1
  Co  Co6  1  0.235366  0.274211  0.000000  1
  Co  Co7  1  0.037894  0.765871  0.000000  1
  Co  Co8  1  0.943138  0.451651  0.000000  1
  Co  Co9  1  0.508372  0.057342  0.000000  1
  Co  Co10  1  0.100016  0.382716  0.500000  1
  Co  Co11  1  0.282208  0.898290  0.500000  1
  Co  Co12  1  0.616277  0.716364  0.500000  1
  Ni  Ni13  1  0.549141  0.490522  0.000000  1
  P  P14  1  0.962644  0.219107  0.000000  1
  P  P15  1  0.256103  0.037003  0.000000  1
  P  P16  1  0.783080  0.746758  0.000000  1
  P  P17  1  0.070722  0.623876  0.500000  1
  P  P18  1  0.552863  0.929010  0.500000  1
  P  P19  1  0.371951  0.446162  0.500000  1
  P  P20  1  0.669338  0.330882  0.000000  1
