# generated using pymatgen
data_ThTaNb3C4
_symmetry_space_group_name_H-M   'P 1'
_cell_length_a   6.37753668
_cell_length_b   6.37753723
_cell_length_c   6.39893721
_cell_angle_alpha   93.94429118
_cell_angle_beta   93.88882111
_cell_angle_gamma   149.64766149
_symmetry_Int_Tables_number   1
_chemical_formula_structural   ThTaNb3C4
_chemical_formula_sum   'Th1 Ta1 Nb3 C4'
_cell_volume   126.96013224
_cell_formula_units_Z   1
loop_
 _symmetry_equiv_pos_site_id
 _symmetry_equiv_pos_as_xyz
  1  'x, y, z'
loop_
 _atom_site_type_symbol
 _atom_site_label
 _atom_site_symmetry_multiplicity
 _atom_site_fract_x
 _atom_site_fract_y
 _atom_site_fract_z
 _atom_site_occupancy
  Th  Th0  1  0.000266  0.000074  0.000340  1
  Ta  Ta1  1  0.174638  0.627953  0.802591  1
  Nb  Nb2  1  0.627019  0.826607  0.453628  1
  Nb  Nb3  1  0.372453  0.173919  0.546372  1
  Nb  Nb4  1  0.826181  0.372929  0.199109  1
  C  C5  1  0.274743  0.400586  0.675329  1
  C  C6  1  0.724457  0.600767  0.325224  1
  C  C7  1  0.398499  0.723851  0.122349  1
  C  C8  1  0.601745  0.273313  0.875057  1
