# generated using pymatgen
data_Dy2Er3Lu(Co3P2)6
_symmetry_space_group_name_H-M   'P 1'
_cell_length_a   3.68039900
_cell_length_b   10.49477701
_cell_length_c   12.13976001
_cell_angle_alpha   90.00527124
_cell_angle_beta   90.00000000
_cell_angle_gamma   90.00000000
_symmetry_Int_Tables_number   1
_chemical_formula_structural   Dy2Er3Lu(Co3P2)6
_chemical_formula_sum   'Dy2 Er3 Lu1 Co18 P12'
_cell_volume   468.89782568
_cell_formula_units_Z   1
loop_
 _symmetry_equiv_pos_site_id
 _symmetry_equiv_pos_as_xyz
  1  'x, y, z'
loop_
 _atom_site_type_symbol
 _atom_site_label
 _atom_site_symmetry_multiplicity
 _atom_site_fract_x
 _atom_site_fract_y
 _atom_site_fract_z
 _atom_site_occupancy
  Dy  Dy0  1  0.750000  0.250044  0.477762  1
  Dy  Dy1  1  0.250000  0.749994  0.522419  1
  Er  Er2  1  0.250000  0.567988  0.794183  1
  Er  Er3  1  0.750000  0.067714  0.205712  1
  Er  Er4  1  0.750000  0.432285  0.205768  1
  Lu  Lu5  1  0.250000  0.932196  0.794167  1
  Co  Co6  1  0.250000  0.249938  0.841264  1
  Co  Co7  1  0.750000  0.750061  0.158669  1
  Co  Co8  1  0.250000  0.249933  0.296188  1
  Co  Co9  1  0.750000  0.750924  0.704216  1
  Co  Co10  1  0.750000  0.249550  0.013567  1
  Co  Co11  1  0.250000  0.750376  0.985796  1
  Co  Co12  1  0.250000  0.416777  0.005327  1
  Co  Co13  1  0.250000  0.082897  0.004867  1
  Co  Co14  1  0.750000  0.583625  0.994521  1
  Co  Co15  1  0.750000  0.916761  0.994031  1
  Co  Co16  1  0.250000  0.452909  0.569633  1
  Co  Co17  1  0.250000  0.046897  0.570162  1
  Co  Co18  1  0.750000  0.547172  0.430404  1
  Co  Co19  1  0.750000  0.952910  0.430660  1
  Co  Co20  1  0.250000  0.871183  0.289886  1
  Co  Co21  1  0.250000  0.628834  0.289832  1
  Co  Co22  1  0.750000  0.127922  0.710609  1
  Co  Co23  1  0.750000  0.371058  0.710135  1
  P  P24  1  0.250000  0.249871  0.117331  1
  P  P25  1  0.750000  0.750790  0.882183  1
  P  P26  1  0.250000  0.250064  0.656313  1
  P  P27  1  0.750000  0.749990  0.343753  1
  P  P28  1  0.250000  0.439180  0.383351  1
  P  P29  1  0.250000  0.060720  0.383478  1
  P  P30  1  0.750000  0.561033  0.616752  1
  P  P31  1  0.750000  0.939097  0.617653  1
  P  P32  1  0.250000  0.902926  0.107186  1
  P  P33  1  0.250000  0.597165  0.107016  1
  P  P34  1  0.750000  0.096146  0.892355  1
  P  P35  1  0.750000  0.403067  0.892850  1
