# generated using pymatgen
data_LiHo16Hg3Rh4
_symmetry_space_group_name_H-M   'P 1'
_cell_length_a   9.55733418
_cell_length_b   9.54631296
_cell_length_c   9.54631300
_cell_angle_alpha   59.99999641
_cell_angle_beta   60.03813559
_cell_angle_gamma   60.03813889
_symmetry_Int_Tables_number   1
_chemical_formula_structural   LiHo16Hg3Rh4
_chemical_formula_sum   'Li1 Ho16 Hg3 Rh4'
_cell_volume   616.23052330
_cell_formula_units_Z   1
loop_
 _symmetry_equiv_pos_site_id
 _symmetry_equiv_pos_as_xyz
  1  'x, y, z'
loop_
 _atom_site_type_symbol
 _atom_site_label
 _atom_site_symmetry_multiplicity
 _atom_site_fract_x
 _atom_site_fract_y
 _atom_site_fract_z
 _atom_site_occupancy
  Li  Li0  1  0.295936  0.568022  0.568022  1
  Ho  Ho1  1  0.810008  0.189011  0.189011  1
  Ho  Ho2  1  0.184234  0.815032  0.815032  1
  Ho  Ho3  1  0.184234  0.815032  0.185701  1
  Ho  Ho4  1  0.810008  0.189011  0.811971  1
  Ho  Ho5  1  0.184234  0.185701  0.815032  1
  Ho  Ho6  1  0.810008  0.811971  0.189011  1
  Ho  Ho7  1  0.935203  0.564463  0.564463  1
  Ho  Ho8  1  0.564427  0.935259  0.935259  1
  Ho  Ho9  1  0.564427  0.935259  0.565055  1
  Ho  Ho10  1  0.935203  0.564463  0.935872  1
  Ho  Ho11  1  0.564427  0.565055  0.935259  1
  Ho  Ho12  1  0.935203  0.935872  0.564463  1
  Ho  Ho13  1  0.352952  0.349321  0.349321  1
  Ho  Ho14  1  0.352952  0.349321  0.948406  1
  Ho  Ho15  1  0.352952  0.948406  0.349321  1
  Ho  Ho16  1  0.935192  0.354936  0.354936  1
  Hg  Hg17  1  0.578980  0.587022  0.587022  1
  Hg  Hg18  1  0.578980  0.587022  0.246976  1
  Hg  Hg19  1  0.578980  0.246976  0.587022  1
  Rh  Rh20  1  0.140190  0.145075  0.145075  1
  Rh  Rh21  1  0.140190  0.145075  0.569660  1
  Rh  Rh22  1  0.140190  0.569660  0.145075  1
  Rh  Rh23  1  0.570894  0.143035  0.143035  1
