# generated using pymatgen
data_YLu(Co3Si2)2
_symmetry_space_group_name_H-M   'P 1'
_cell_length_a   6.24563840
_cell_length_b   6.24631050
_cell_length_c   6.24583585
_cell_angle_alpha   130.65896999
_cell_angle_beta   112.67518140
_cell_angle_gamma   87.87357142
_symmetry_Int_Tables_number   1
_chemical_formula_structural   YLu(Co3Si2)2
_chemical_formula_sum   'Y1 Lu1 Co6 Si4'
_cell_volume   162.38385919
_cell_formula_units_Z   1
loop_
 _symmetry_equiv_pos_site_id
 _symmetry_equiv_pos_as_xyz
  1  'x, y, z'
loop_
 _atom_site_type_symbol
 _atom_site_label
 _atom_site_symmetry_multiplicity
 _atom_site_fract_x
 _atom_site_fract_y
 _atom_site_fract_z
 _atom_site_occupancy
  Y  Y0  1  0.250023  0.527426  0.277432  1
  Lu  Lu1  1  0.749987  0.468674  0.718697  1
  Co  Co2  1  0.999453  0.001136  0.500595  1
  Co  Co3  1  0.500543  0.001168  0.001700  1
  Co  Co4  1  0.725664  0.002254  0.725648  1
  Co  Co5  1  0.223409  0.499987  0.725658  1
  Co  Co6  1  0.276598  0.002252  0.276573  1
  Co  Co7  1  0.774330  0.499976  0.276589  1
  Si  Si8  1  0.079822  0.871280  0.791452  1
  Si  Si9  1  0.917846  0.125018  0.207038  1
  Si  Si10  1  0.582086  0.789210  0.207118  1
  Si  Si11  1  0.420239  0.211620  0.791501  1
