# generated using pymatgen
data_Tm10Th2Tc3Os
_symmetry_space_group_name_H-M   'P 1'
_cell_length_a   7.36525992
_cell_length_b   9.12590000
_cell_length_c   6.25764302
_cell_angle_alpha   90.00000000
_cell_angle_beta   89.88787625
_cell_angle_gamma   90.00000000
_symmetry_Int_Tables_number   1
_chemical_formula_structural   Tm10Th2Tc3Os
_chemical_formula_sum   'Tm10 Th2 Tc3 Os1'
_cell_volume   420.60432663
_cell_formula_units_Z   1
loop_
 _symmetry_equiv_pos_site_id
 _symmetry_equiv_pos_as_xyz
  1  'x, y, z'
loop_
 _atom_site_type_symbol
 _atom_site_label
 _atom_site_symmetry_multiplicity
 _atom_site_fract_x
 _atom_site_fract_y
 _atom_site_fract_z
 _atom_site_occupancy
  Tm  Tm0  1  0.041095  0.250000  0.630866  1
  Tm  Tm1  1  0.539284  0.250000  0.872229  1
  Tm  Tm2  1  0.174649  0.068833  0.163266  1
  Tm  Tm3  1  0.823840  0.941477  0.839237  1
  Tm  Tm4  1  0.324244  0.940535  0.659075  1
  Tm  Tm5  1  0.823840  0.558523  0.839237  1
  Tm  Tm6  1  0.676176  0.069021  0.335921  1
  Tm  Tm7  1  0.174649  0.431167  0.163266  1
  Tm  Tm8  1  0.676176  0.430979  0.335921  1
  Tm  Tm9  1  0.324244  0.559465  0.659075  1
  Th  Th10  1  0.950134  0.750000  0.369003  1
  Th  Th11  1  0.451621  0.750000  0.131642  1
  Tc  Tc12  1  0.381544  0.250000  0.464484  1
  Tc  Tc13  1  0.629531  0.750000  0.522091  1
  Tc  Tc14  1  0.128919  0.750000  0.979462  1
  Os  Os15  1  0.880054  0.250000  0.035224  1
