# generated using pymatgen
data_Ce3YF15
_symmetry_space_group_name_H-M   'P 1'
_cell_length_a   8.61104012
_cell_length_b   8.61103949
_cell_length_c   8.60007131
_cell_angle_alpha   79.65996878
_cell_angle_beta   79.65996954
_cell_angle_gamma   100.30638779
_symmetry_Int_Tables_number   1
_chemical_formula_structural   Ce3YF15
_chemical_formula_sum   'Ce6 Y2 F30'
_cell_volume   602.28617897
_cell_formula_units_Z   2
loop_
 _symmetry_equiv_pos_site_id
 _symmetry_equiv_pos_as_xyz
  1  'x, y, z'
loop_
 _atom_site_type_symbol
 _atom_site_label
 _atom_site_symmetry_multiplicity
 _atom_site_fract_x
 _atom_site_fract_y
 _atom_site_fract_z
 _atom_site_occupancy
  Ce  Ce0  1  0.749820  0.250180  0.250000  1
  Ce  Ce1  1  0.250180  0.749820  0.750000  1
  Ce  Ce2  1  0.754434  0.678671  0.673315  1
  Ce  Ce3  1  0.321329  0.245566  0.826685  1
  Ce  Ce4  1  0.245566  0.321329  0.326685  1
  Ce  Ce5  1  0.678671  0.754434  0.173315  1
  Y  Y6  1  0.178654  0.821346  0.250000  1
  Y  Y7  1  0.821346  0.178654  0.750000  1
  F  F8  1  0.317651  0.350061  0.053022  1
  F  F9  1  0.943658  0.814530  0.154875  1
  F  F10  1  0.844977  0.451456  0.683039  1
  F  F11  1  0.451456  0.844977  0.183039  1
  F  F12  1  0.814530  0.943658  0.654875  1
  F  F13  1  0.350061  0.317651  0.553021  1
  F  F14  1  0.682349  0.649939  0.946978  1
  F  F15  1  0.056342  0.185470  0.845125  1
  F  F16  1  0.155023  0.548544  0.316961  1
  F  F17  1  0.548544  0.155023  0.816961  1
  F  F18  1  0.185470  0.056342  0.345125  1
  F  F19  1  0.649939  0.682349  0.446978  1
  F  F20  1  0.776162  0.276895  0.990736  1
  F  F21  1  0.010850  0.275959  0.216866  1
  F  F22  1  0.779482  0.510267  0.223670  1
  F  F23  1  0.510267  0.779482  0.723670  1
  F  F24  1  0.275959  0.010850  0.716866  1
  F  F25  1  0.276895  0.776162  0.490736  1
  F  F26  1  0.223838  0.723105  0.009264  1
  F  F27  1  0.989150  0.724041  0.783134  1
  F  F28  1  0.220518  0.489733  0.776330  1
  F  F29  1  0.489733  0.220518  0.276330  1
  F  F30  1  0.724041  0.989150  0.283134  1
  F  F31  1  0.723105  0.223838  0.509264  1
  F  F32  1  0.466045  0.533955  0.250000  1
  F  F33  1  0.749917  0.963128  0.964454  1
  F  F34  1  0.036872  0.250083  0.535546  1
  F  F35  1  0.250083  0.036872  0.035546  1
  F  F36  1  0.963128  0.749917  0.464454  1
  F  F37  1  0.533955  0.466045  0.750000  1
