# generated using pymatgen
data_MnBe4Os
_symmetry_space_group_name_H-M   'P 1'
_cell_length_a   4.29129570
_cell_length_b   4.29129656
_cell_length_c   4.29129700
_cell_angle_alpha   60.00000430
_cell_angle_beta   59.99999766
_cell_angle_gamma   59.99999618
_symmetry_Int_Tables_number   1
_chemical_formula_structural   MnBe4Os
_chemical_formula_sum   'Mn1 Be4 Os1'
_cell_volume   55.87924612
_cell_formula_units_Z   1
loop_
 _symmetry_equiv_pos_site_id
 _symmetry_equiv_pos_as_xyz
  1  'x, y, z'
loop_
 _atom_site_type_symbol
 _atom_site_label
 _atom_site_symmetry_multiplicity
 _atom_site_fract_x
 _atom_site_fract_y
 _atom_site_fract_z
 _atom_site_occupancy
  Mn  Mn0  1  0.000000  0.000000  0.000000  1
  Be  Be1  1  0.624984  0.624984  0.125048  1
  Be  Be2  1  0.624984  0.125048  0.624984  1
  Be  Be3  1  0.125048  0.624984  0.624984  1
  Be  Be4  1  0.624984  0.624984  0.624984  1
  Os  Os5  1  0.250000  0.250000  0.250000  1
