# generated using pymatgen
data_MnFeSb12PtAu
_symmetry_space_group_name_H-M   'P 1'
_cell_length_a   8.12613567
_cell_length_b   8.15045558
_cell_length_c   9.38478305
_cell_angle_alpha   54.42307553
_cell_angle_beta   54.60987425
_cell_angle_gamma   70.04835021
_symmetry_Int_Tables_number   1
_chemical_formula_structural   MnFeSb12PtAu
_chemical_formula_sum   'Mn1 Fe1 Sb12 Pt1 Au1'
_cell_volume   412.12554952
_cell_formula_units_Z   1
loop_
 _symmetry_equiv_pos_site_id
 _symmetry_equiv_pos_as_xyz
  1  'x, y, z'
loop_
 _atom_site_type_symbol
 _atom_site_label
 _atom_site_symmetry_multiplicity
 _atom_site_fract_x
 _atom_site_fract_y
 _atom_site_fract_z
 _atom_site_occupancy
  Mn  Mn0  1  0.500000  0.000000  0.000000  1
  Fe  Fe1  1  0.000000  0.500000  0.000000  1
  Sb  Sb2  1  0.677075  0.677402  0.161673  1
  Sb  Sb3  1  0.322925  0.322598  0.838327  1
  Sb  Sb4  1  0.640920  0.651000  0.503038  1
  Sb  Sb5  1  0.359080  0.349000  0.496962  1
  Sb  Sb6  1  0.852792  0.168732  0.326810  1
  Sb  Sb7  1  0.147208  0.831268  0.673190  1
  Sb  Sb8  1  0.171039  0.860827  0.326656  1
  Sb  Sb9  1  0.828961  0.139173  0.673344  1
  Sb  Sb10  1  0.491524  0.821256  0.853903  1
  Sb  Sb11  1  0.508476  0.178744  0.146097  1
  Sb  Sb12  1  0.188357  0.505200  0.137611  1
  Sb  Sb13  1  0.811643  0.494800  0.862389  1
  Pt  Pt14  1  0.500000  0.000000  0.500000  1
  Au  Au15  1  0.000000  0.500000  0.500000  1
