# generated using pymatgen
data_Th5Ga2Ru3
_symmetry_space_group_name_H-M   'P 1'
_cell_length_a   8.53821133
_cell_length_b   8.53821069
_cell_length_c   8.53821100
_cell_angle_alpha   109.47121899
_cell_angle_beta   109.47121747
_cell_angle_gamma   109.47122196
_symmetry_Int_Tables_number   1
_chemical_formula_structural   Th5Ga2Ru3
_chemical_formula_sum   'Th10 Ga4 Ru6'
_cell_volume   479.15803841
_cell_formula_units_Z   2
loop_
 _symmetry_equiv_pos_site_id
 _symmetry_equiv_pos_as_xyz
  1  'x, y, z'
loop_
 _atom_site_type_symbol
 _atom_site_label
 _atom_site_symmetry_multiplicity
 _atom_site_fract_x
 _atom_site_fract_y
 _atom_site_fract_z
 _atom_site_occupancy
  Th  Th0  1  0.250000  0.696942  0.446942  1
  Th  Th1  1  0.750000  0.803058  0.053058  1
  Th  Th2  1  0.446942  0.250000  0.696942  1
  Th  Th3  1  0.696942  0.446942  0.250000  1
  Th  Th4  1  0.053058  0.750000  0.803058  1
  Th  Th5  1  0.803058  0.053058  0.750000  1
  Th  Th6  1  0.218564  0.218564  0.218564  1
  Th  Th7  1  0.500000  0.000000  0.281436  1
  Th  Th8  1  0.281436  0.500000  0.000000  1
  Th  Th9  1  0.000000  0.281436  0.500000  1
  Ga  Ga10  1  0.603687  0.603687  0.603687  1
  Ga  Ga11  1  0.500000  0.000000  0.896313  1
  Ga  Ga12  1  0.896313  0.500000  0.000000  1
  Ga  Ga13  1  0.000000  0.896313  0.500000  1
  Ru  Ru14  1  0.250000  0.131098  0.881098  1
  Ru  Ru15  1  0.750000  0.368902  0.618902  1
  Ru  Ru16  1  0.881097  0.250000  0.131098  1
  Ru  Ru17  1  0.131098  0.881097  0.250000  1
  Ru  Ru18  1  0.618902  0.750000  0.368902  1
  Ru  Ru19  1  0.368902  0.618902  0.750000  1
