# generated using pymatgen
data_Ba3CaNbSbO9
_symmetry_space_group_name_H-M   'P 1'
_cell_length_a   5.98011300
_cell_length_b   5.98011294
_cell_length_c   7.38473100
_cell_angle_alpha   90.00000000
_cell_angle_beta   90.00000000
_cell_angle_gamma   119.99999478
_symmetry_Int_Tables_number   1
_chemical_formula_structural   Ba3CaNbSbO9
_chemical_formula_sum   'Ba3 Ca1 Nb1 Sb1 O9'
_cell_volume   228.70945109
_cell_formula_units_Z   1
loop_
 _symmetry_equiv_pos_site_id
 _symmetry_equiv_pos_as_xyz
  1  'x, y, z'
loop_
 _atom_site_type_symbol
 _atom_site_label
 _atom_site_symmetry_multiplicity
 _atom_site_fract_x
 _atom_site_fract_y
 _atom_site_fract_z
 _atom_site_occupancy
  Ba  Ba0  1  0.000000  0.000000  0.006973  1
  Ba  Ba1  1  0.333333  0.666667  0.661183  1
  Ba  Ba2  1  0.666667  0.333333  0.325311  1
  Ca  Ca3  1  0.000000  0.000000  0.494546  1
  Nb  Nb4  1  0.666667  0.333333  0.826282  1
  Sb  Sb5  1  0.333333  0.666667  0.164048  1
  O  O6  1  0.176038  0.823962  0.316535  1
  O  O7  1  0.823289  0.176711  0.688148  1
  O  O8  1  0.176038  0.352076  0.316535  1
  O  O9  1  0.823289  0.646579  0.688148  1
  O  O10  1  0.647924  0.823962  0.316535  1
  O  O11  1  0.353421  0.176711  0.688148  1
  O  O12  1  0.497186  0.994372  0.002536  1
  O  O13  1  0.005628  0.502814  0.002536  1
  O  O14  1  0.497186  0.502814  0.002536  1
