# generated using pymatgen
data_Ac2Sm2Zn10SnGe
_symmetry_space_group_name_H-M   'P 1'
_cell_length_a   8.57829499
_cell_length_b   8.57829507
_cell_length_c   9.08713300
_cell_angle_alpha   90.00000000
_cell_angle_beta   90.00000000
_cell_angle_gamma   149.30797085
_symmetry_Int_Tables_number   1
_chemical_formula_structural   Ac2Sm2Zn10SnGe
_chemical_formula_sum   'Ac2 Sm2 Zn10 Sn1 Ge1'
_cell_volume   341.31810560
_cell_formula_units_Z   1
loop_
 _symmetry_equiv_pos_site_id
 _symmetry_equiv_pos_as_xyz
  1  'x, y, z'
loop_
 _atom_site_type_symbol
 _atom_site_label
 _atom_site_symmetry_multiplicity
 _atom_site_fract_x
 _atom_site_fract_y
 _atom_site_fract_z
 _atom_site_occupancy
  Ac  Ac0  1  0.000725  0.999275  0.490645  1
  Ac  Ac1  1  0.000725  0.999275  0.009355  1
  Sm  Sm2  1  0.205980  0.794020  0.250000  1
  Sm  Sm3  1  0.791847  0.208153  0.750000  1
  Zn  Zn4  1  0.811122  0.188878  0.389666  1
  Zn  Zn5  1  0.187754  0.812246  0.609590  1
  Zn  Zn6  1  0.811122  0.188878  0.110334  1
  Zn  Zn7  1  0.187754  0.812246  0.890410  1
  Zn  Zn8  1  0.657096  0.342904  0.479110  1
  Zn  Zn9  1  0.339917  0.660083  0.512968  1
  Zn  Zn10  1  0.657096  0.342904  0.020890  1
  Zn  Zn11  1  0.339917  0.660083  0.987032  1
  Zn  Zn12  1  0.402574  0.597426  0.250000  1
  Zn  Zn13  1  0.603128  0.396872  0.750000  1
  Sn  Sn14  1  0.438257  0.561743  0.750000  1
  Ge  Ge15  1  0.564989  0.435011  0.250000  1
