# generated using pymatgen
data_TbNb(NiSn)2
_symmetry_space_group_name_H-M   'P 1'
_cell_length_a   7.69840121
_cell_length_b   7.69840113
_cell_length_c   7.69840151
_cell_angle_alpha   32.82672952
_cell_angle_beta   32.82672801
_cell_angle_gamma   32.82673415
_symmetry_Int_Tables_number   1
_chemical_formula_structural   TbNb(NiSn)2
_chemical_formula_sum   'Tb1 Nb1 Ni2 Sn2'
_cell_volume   119.28540264
_cell_formula_units_Z   1
loop_
 _symmetry_equiv_pos_site_id
 _symmetry_equiv_pos_as_xyz
  1  'x, y, z'
loop_
 _atom_site_type_symbol
 _atom_site_label
 _atom_site_symmetry_multiplicity
 _atom_site_fract_x
 _atom_site_fract_y
 _atom_site_fract_z
 _atom_site_occupancy
  Tb  Tb0  1  0.000174  0.000174  0.000174  1
  Nb  Nb1  1  0.502055  0.502055  0.502055  1
  Ni  Ni2  1  0.130191  0.130191  0.130191  1
  Ni  Ni3  1  0.616224  0.616224  0.616224  1
  Sn  Sn4  1  0.755251  0.755251  0.755251  1
  Sn  Sn5  1  0.246103  0.246103  0.246103  1
