# generated using pymatgen
data_Ho4Sc4Re3B24Rh
_symmetry_space_group_name_H-M   'P 1'
_cell_length_a   3.58130000
_cell_length_b   8.98661321
_cell_length_c   11.36718153
_cell_angle_alpha   90.05956116
_cell_angle_beta   90.00000000
_cell_angle_gamma   90.00000000
_symmetry_Int_Tables_number   1
_chemical_formula_structural   Ho4Sc4Re3B24Rh
_chemical_formula_sum   'Ho4 Sc4 Re3 B24 Rh1'
_cell_volume   365.83842091
_cell_formula_units_Z   1
loop_
 _symmetry_equiv_pos_site_id
 _symmetry_equiv_pos_as_xyz
  1  'x, y, z'
loop_
 _atom_site_type_symbol
 _atom_site_label
 _atom_site_symmetry_multiplicity
 _atom_site_fract_x
 _atom_site_fract_y
 _atom_site_fract_z
 _atom_site_occupancy
  Ho  Ho0  1  0.000000  0.317739  0.415373  1
  Ho  Ho1  1  0.000000  0.679871  0.589303  1
  Ho  Ho2  1  0.000000  0.823676  0.082454  1
  Ho  Ho3  1  0.000000  0.178350  0.912714  1
  Sc  Sc4  1  0.000000  0.947056  0.371787  1
  Sc  Sc5  1  0.000000  0.054905  0.628427  1
  Sc  Sc6  1  0.000000  0.441574  0.127159  1
  Sc  Sc7  1  0.000000  0.555630  0.871243  1
  Re  Re8  1  0.000000  0.359651  0.680541  1
  Re  Re9  1  0.000000  0.140584  0.182175  1
  Re  Re10  1  0.000000  0.859575  0.818752  1
  B  B11  1  0.500000  0.555624  0.433418  1
  B  B12  1  0.500000  0.445716  0.566877  1
  B  B13  1  0.500000  0.054007  0.067028  1
  B  B14  1  0.500000  0.945603  0.932728  1
  B  B15  1  0.500000  0.754321  0.419571  1
  B  B16  1  0.500000  0.245895  0.581626  1
  B  B17  1  0.500000  0.253908  0.081512  1
  B  B18  1  0.500000  0.746141  0.918586  1
  B  B19  1  0.500000  0.793903  0.264751  1
  B  B20  1  0.500000  0.205181  0.735091  1
  B  B21  1  0.500000  0.295398  0.236125  1
  B  B22  1  0.500000  0.705048  0.764976  1
  B  B23  1  0.500000  0.629263  0.181775  1
  B  B24  1  0.500000  0.371241  0.816789  1
  B  B25  1  0.500000  0.129450  0.317629  1
  B  B26  1  0.500000  0.870514  0.682909  1
  B  B27  1  0.500000  0.981231  0.213856  1
  B  B28  1  0.500000  0.018500  0.785719  1
  B  B29  1  0.500000  0.482442  0.285979  1
  B  B30  1  0.500000  0.518988  0.713880  1
  B  B31  1  0.500000  0.597736  0.027025  1
  B  B32  1  0.500000  0.403105  0.974153  1
  B  B33  1  0.500000  0.096813  0.473352  1
  B  B34  1  0.500000  0.901271  0.526014  1
  Rh  Rh35  1  0.000000  0.640089  0.318701  1
