# generated using pymatgen
data_LiU(I2Br)2
_symmetry_space_group_name_H-M   'P 1'
_cell_length_a   8.02202407
_cell_length_b   8.02202476
_cell_length_c   7.19220156
_cell_angle_alpha   82.14292627
_cell_angle_beta   82.14292355
_cell_angle_gamma   121.41091493
_symmetry_Int_Tables_number   1
_chemical_formula_structural   LiU(I2Br)2
_chemical_formula_sum   'Li1 U1 I4 Br2'
_cell_volume   379.28098729
_cell_formula_units_Z   1
loop_
 _symmetry_equiv_pos_site_id
 _symmetry_equiv_pos_as_xyz
  1  'x, y, z'
loop_
 _atom_site_type_symbol
 _atom_site_label
 _atom_site_symmetry_multiplicity
 _atom_site_fract_x
 _atom_site_fract_y
 _atom_site_fract_z
 _atom_site_occupancy
  Li  Li0  1  0.904931  0.095069  0.500000  1
  U  U1  1  0.992109  0.007891  0.000000  1
  I  I2  1  0.044811  0.364745  0.742834  1
  I  I3  1  0.353913  0.080108  0.761035  1
  I  I4  1  0.919892  0.646087  0.238965  1
  I  I5  1  0.635255  0.955189  0.257166  1
  Br  Br6  1  0.220124  0.237036  0.223495  1
  Br  Br7  1  0.762964  0.779876  0.776505  1
