# generated using pymatgen
data_ThNi2PPt
_symmetry_space_group_name_H-M   'P 1'
_cell_length_a   3.97812400
_cell_length_b   3.97812400
_cell_length_c   10.05822900
_cell_angle_alpha   90.00000000
_cell_angle_beta   90.00000000
_cell_angle_gamma   90.00000000
_symmetry_Int_Tables_number   1
_chemical_formula_structural   ThNi2PPt
_chemical_formula_sum   'Th2 Ni4 P2 Pt2'
_cell_volume   159.17620692
_cell_formula_units_Z   2
loop_
 _symmetry_equiv_pos_site_id
 _symmetry_equiv_pos_as_xyz
  1  'x, y, z'
loop_
 _atom_site_type_symbol
 _atom_site_label
 _atom_site_symmetry_multiplicity
 _atom_site_fract_x
 _atom_site_fract_y
 _atom_site_fract_z
 _atom_site_occupancy
  Th  Th0  1  0.000000  0.500000  0.752243  1
  Th  Th1  1  0.500000  0.000000  0.247757  1
  Ni  Ni2  1  0.000000  0.500000  0.335141  1
  Ni  Ni3  1  0.500000  0.000000  0.664859  1
  Ni  Ni4  1  0.500000  0.500000  0.000000  1
  Ni  Ni5  1  0.000000  0.000000  0.000000  1
  P  P6  1  0.500000  0.000000  0.883893  1
  P  P7  1  0.000000  0.500000  0.116107  1
  Pt  Pt8  1  0.000000  0.000000  0.500000  1
  Pt  Pt9  1  0.500000  0.500000  0.500000  1
