# generated using pymatgen
data_Ta2IrRu3Pt2
_symmetry_space_group_name_H-M   'P 1'
_cell_length_a   3.95492900
_cell_length_b   3.97212200
_cell_length_c   7.71981400
_cell_angle_alpha   90.00000000
_cell_angle_beta   90.00000000
_cell_angle_gamma   90.00000000
_symmetry_Int_Tables_number   1
_chemical_formula_structural   Ta2IrRu3Pt2
_chemical_formula_sum   'Ta2 Ir1 Ru3 Pt2'
_cell_volume   121.27411302
_cell_formula_units_Z   1
loop_
 _symmetry_equiv_pos_site_id
 _symmetry_equiv_pos_as_xyz
  1  'x, y, z'
loop_
 _atom_site_type_symbol
 _atom_site_label
 _atom_site_symmetry_multiplicity
 _atom_site_fract_x
 _atom_site_fract_y
 _atom_site_fract_z
 _atom_site_occupancy
  Ta  Ta0  1  0.000000  0.000000  0.247043  1
  Ta  Ta1  1  0.000000  0.000000  0.752957  1
  Ir  Ir2  1  0.000000  0.500000  0.500000  1
  Ru  Ru3  1  0.000000  0.500000  0.000000  1
  Ru  Ru4  1  0.500000  0.000000  0.500000  1
  Ru  Ru5  1  0.500000  0.000000  0.000000  1
  Pt  Pt6  1  0.500000  0.500000  0.250426  1
  Pt  Pt7  1  0.500000  0.500000  0.749574  1
