# generated using pymatgen
data_Ta2Se4O13
_symmetry_space_group_name_H-M   'P 1'
_cell_length_a   6.90453300
_cell_length_b   7.56679039
_cell_length_c   11.65050574
_cell_angle_alpha   71.41754444
_cell_angle_beta   90.00000000
_cell_angle_gamma   90.00000000
_symmetry_Int_Tables_number   1
_chemical_formula_structural   Ta2Se4O13
_chemical_formula_sum   'Ta4 Se8 O26'
_cell_volume   576.94943472
_cell_formula_units_Z   2
loop_
 _symmetry_equiv_pos_site_id
 _symmetry_equiv_pos_as_xyz
  1  'x, y, z'
loop_
 _atom_site_type_symbol
 _atom_site_label
 _atom_site_symmetry_multiplicity
 _atom_site_fract_x
 _atom_site_fract_y
 _atom_site_fract_z
 _atom_site_occupancy
  Ta  Ta0  1  0.498381  0.924363  0.396071  1
  Ta  Ta1  1  0.501619  0.424363  0.396071  1
  Ta  Ta2  1  0.999738  0.843826  0.048473  1
  Ta  Ta3  1  0.000262  0.343826  0.048473  1
  Se  Se4  1  0.514726  0.895167  0.707125  1
  Se  Se5  1  0.485274  0.395167  0.707125  1
  Se  Se6  1  0.071152  0.049939  0.724132  1
  Se  Se7  1  0.928848  0.549939  0.724132  1
  Se  Se8  1  0.062160  0.675683  0.382561  1
  Se  Se9  1  0.937840  0.175683  0.382561  1
  Se  Se10  1  0.561465  0.588988  0.061398  1
  Se  Se11  1  0.438535  0.088988  0.061398  1
  O  O12  1  0.097517  0.500833  0.637778  1
  O  O13  1  0.902483  0.000833  0.637778  1
  O  O14  1  0.579515  0.698774  0.812076  1
  O  O15  1  0.420485  0.198774  0.812076  1
  O  O16  1  0.246306  0.865714  0.722495  1
  O  O17  1  0.753694  0.365714  0.722495  1
  O  O18  1  0.570666  0.665702  0.400944  1
  O  O19  1  0.429334  0.165702  0.400944  1
  O  O20  1  0.524226  0.824060  0.575765  1
  O  O21  1  0.475774  0.324060  0.575765  1
  O  O22  1  0.215745  0.845621  0.403311  1
  O  O23  1  0.784255  0.345621  0.403311  1
  O  O24  1  0.985859  0.268717  0.230872  1
  O  O25  1  0.014141  0.768717  0.230872  1
  O  O26  1  0.284077  0.273619  0.058382  1
  O  O27  1  0.715923  0.773619  0.058382  1
  O  O28  1  0.284764  0.917887  0.043159  1
  O  O29  1  0.715236  0.417887  0.043159  1
  O  O30  1  0.016262  0.432912  0.870844  1
  O  O31  1  0.983738  0.932912  0.870844  1
  O  O32  1  0.930899  0.096689  0.052277  1
  O  O33  1  0.069101  0.596689  0.052277  1
  O  O34  1  0.479065  0.000159  0.215392  1
  O  O35  1  0.520935  0.500159  0.215392  1
  O  O36  1  0.218441  0.495048  0.380946  1
  O  O37  1  0.781559  0.995048  0.380946  1
