# generated using pymatgen
data_YbGd3(SO4)6
_symmetry_space_group_name_H-M   'P 1'
_cell_length_a   9.06249683
_cell_length_b   9.06249686
_cell_length_c   9.67076900
_cell_angle_alpha   117.94028011
_cell_angle_beta   62.05971981
_cell_angle_gamma   120.00000284
_symmetry_Int_Tables_number   1
_chemical_formula_structural   YbGd3(SO4)6
_chemical_formula_sum   'Yb1 Gd3 S6 O24'
_cell_volume   578.47292776
_cell_formula_units_Z   1
loop_
 _symmetry_equiv_pos_site_id
 _symmetry_equiv_pos_as_xyz
  1  'x, y, z'
loop_
 _atom_site_type_symbol
 _atom_site_label
 _atom_site_symmetry_multiplicity
 _atom_site_fract_x
 _atom_site_fract_y
 _atom_site_fract_z
 _atom_site_occupancy
  Yb  Yb0  1  0.353281  0.646720  0.940158  1
  Gd  Gd1  1  0.645990  0.354011  0.062034  1
  Gd  Gd2  1  0.857249  0.142752  0.428255  1
  Gd  Gd3  1  0.142018  0.857983  0.573947  1
  S  S4  1  0.248661  0.032864  0.247692  1
  S  S5  1  0.967135  0.463489  0.247692  1
  S  S6  1  0.536511  0.751338  0.247692  1
  S  S7  1  0.464147  0.254033  0.750678  1
  S  S8  1  0.039207  0.535853  0.750678  1
  S  S9  1  0.745967  0.960793  0.750678  1
  O  O10  1  0.138091  0.482763  0.115350  1
  O  O11  1  0.517236  0.770677  0.115350  1
  O  O12  1  0.229323  0.861908  0.115350  1
  O  O13  1  0.435258  0.162555  0.209783  1
  O  O14  1  0.837445  0.482486  0.209783  1
  O  O15  1  0.517514  0.564742  0.209783  1
  O  O16  1  0.126157  0.110515  0.268469  1
  O  O17  1  0.889484  0.284111  0.268469  1
  O  O18  1  0.715889  0.873843  0.268469  1
  O  O19  1  0.204373  0.006609  0.405324  1
  O  O20  1  0.993392  0.603088  0.405324  1
  O  O21  1  0.396912  0.795627  0.405324  1
  O  O22  1  0.603842  0.205970  0.594882  1
  O  O23  1  0.007247  0.396158  0.594882  1
  O  O24  1  0.794029  0.992752  0.594882  1
  O  O25  1  0.285191  0.125432  0.732610  1
  O  O26  1  0.107630  0.714809  0.732610  1
  O  O27  1  0.874570  0.892370  0.732610  1
  O  O28  1  0.482008  0.437287  0.787367  1
  O  O29  1  0.167911  0.517992  0.787367  1
  O  O30  1  0.562712  0.832087  0.787367  1
  O  O31  1  0.762211  0.133368  0.886382  1
  O  O32  1  0.484774  0.237789  0.886382  1
  O  O33  1  0.866632  0.515227  0.886382  1
