# generated using pymatgen
data_YbSm(B3Mo)2
_symmetry_space_group_name_H-M   'P 1'
_cell_length_a   3.13940200
_cell_length_b   5.50081745
_cell_length_c   6.95529599
_cell_angle_alpha   77.18869671
_cell_angle_beta   90.00000000
_cell_angle_gamma   90.00000000
_symmetry_Int_Tables_number   1
_chemical_formula_structural   YbSm(B3Mo)2
_chemical_formula_sum   'Yb1 Sm1 B6 Mo2'
_cell_volume   117.12279904
_cell_formula_units_Z   1
loop_
 _symmetry_equiv_pos_site_id
 _symmetry_equiv_pos_as_xyz
  1  'x, y, z'
loop_
 _atom_site_type_symbol
 _atom_site_label
 _atom_site_symmetry_multiplicity
 _atom_site_fract_x
 _atom_site_fract_y
 _atom_site_fract_z
 _atom_site_occupancy
  Yb  Yb0  1  0.750000  0.670739  0.291438  1
  Sm  Sm1  1  0.250000  0.331365  0.709263  1
  B  B2  1  0.250000  0.927416  0.527597  1
  B  B3  1  0.750000  0.067182  0.467045  1
  B  B4  1  0.250000  0.910576  0.007776  1
  B  B5  1  0.750000  0.085770  0.996738  1
  B  B6  1  0.250000  0.586306  0.008681  1
  B  B7  1  0.750000  0.419365  0.996132  1
  Mo  Mo8  1  0.250000  0.186183  0.214795  1
  Mo  Mo9  1  0.750000  0.815098  0.780534  1
