# generated using pymatgen
data_Tb7ErCd2(SnAu4)2
_symmetry_space_group_name_H-M   'P 1'
_cell_length_a   8.01103652
_cell_length_b   8.01103652
_cell_length_c   7.43487467
_cell_angle_alpha   90.08130495
_cell_angle_beta   89.91869505
_cell_angle_gamma   90.41084692
_symmetry_Int_Tables_number   1
_chemical_formula_structural   Tb7ErCd2(SnAu4)2
_chemical_formula_sum   'Tb7 Er1 Cd2 Sn2 Au8'
_cell_volume   477.13254633
_cell_formula_units_Z   1
loop_
 _symmetry_equiv_pos_site_id
 _symmetry_equiv_pos_as_xyz
  1  'x, y, z'
loop_
 _atom_site_type_symbol
 _atom_site_label
 _atom_site_symmetry_multiplicity
 _atom_site_fract_x
 _atom_site_fract_y
 _atom_site_fract_z
 _atom_site_occupancy
  Tb  Tb0  1  0.181302  0.181302  0.000000  1
  Tb  Tb1  1  0.319290  0.681968  0.500033  1
  Tb  Tb2  1  0.681968  0.319290  0.499967  1
  Tb  Tb3  1  0.339700  0.661076  0.000021  1
  Tb  Tb4  1  0.661076  0.339700  0.999979  1
  Tb  Tb5  1  0.838771  0.838771  0.500000  1
  Tb  Tb6  1  0.160282  0.160282  0.500000  1
  Er  Er7  1  0.818798  0.818798  0.000000  1
  Cd  Cd8  1  0.999740  0.500273  0.751038  1
  Cd  Cd9  1  0.500273  0.999740  0.248962  1
  Sn  Sn10  1  0.999762  0.500649  0.249533  1
  Sn  Sn11  1  0.500649  0.999762  0.750467  1
  Au  Au12  1  0.122591  0.867538  0.772317  1
  Au  Au13  1  0.867538  0.122591  0.227683  1
  Au  Au14  1  0.376298  0.368638  0.271639  1
  Au  Au15  1  0.632725  0.625318  0.731609  1
  Au  Au16  1  0.625318  0.632725  0.268391  1
  Au  Au17  1  0.874959  0.130322  0.772222  1
  Au  Au18  1  0.368638  0.376298  0.728361  1
  Au  Au19  1  0.130322  0.874959  0.227778  1
