# generated using pymatgen
data_Ti4S9Br4
_symmetry_space_group_name_H-M   'P 1'
_cell_length_a   11.24140700
_cell_length_b   11.24140700
_cell_length_c   7.72078400
_cell_angle_alpha   90.00000000
_cell_angle_beta   90.00000000
_cell_angle_gamma   90.00000000
_symmetry_Int_Tables_number   1
_chemical_formula_structural   Ti4S9Br4
_chemical_formula_sum   'Ti8 S18 Br8'
_cell_volume   975.66953942
_cell_formula_units_Z   2
loop_
 _symmetry_equiv_pos_site_id
 _symmetry_equiv_pos_as_xyz
  1  'x, y, z'
loop_
 _atom_site_type_symbol
 _atom_site_label
 _atom_site_symmetry_multiplicity
 _atom_site_fract_x
 _atom_site_fract_y
 _atom_site_fract_z
 _atom_site_occupancy
  Ti  Ti0  1  0.611051  0.611051  0.389859  1
  Ti  Ti1  1  0.888949  0.611051  0.389859  1
  Ti  Ti2  1  0.611051  0.888949  0.389859  1
  Ti  Ti3  1  0.888949  0.888949  0.389859  1
  Ti  Ti4  1  0.111051  0.111051  0.610141  1
  Ti  Ti5  1  0.388950  0.111051  0.610141  1
  Ti  Ti6  1  0.111051  0.388950  0.610141  1
  Ti  Ti7  1  0.388950  0.388950  0.610141  1
  S  S8  1  0.750000  0.536375  0.171744  1
  S  S9  1  0.536375  0.750000  0.171744  1
  S  S10  1  0.963625  0.750000  0.171744  1
  S  S11  1  0.750000  0.963625  0.171744  1
  S  S12  1  0.750000  0.058869  0.396552  1
  S  S13  1  0.750000  0.441131  0.396552  1
  S  S14  1  0.058869  0.750000  0.396552  1
  S  S15  1  0.441131  0.750000  0.396552  1
  S  S16  1  0.250000  0.250000  0.492386  1
  S  S17  1  0.750000  0.750000  0.507614  1
  S  S18  1  0.558869  0.250000  0.603448  1
  S  S19  1  0.941131  0.250000  0.603448  1
  S  S20  1  0.250000  0.558869  0.603448  1
  S  S21  1  0.250000  0.941131  0.603448  1
  S  S22  1  0.250000  0.036375  0.828255  1
  S  S23  1  0.036375  0.250000  0.828255  1
  S  S24  1  0.463625  0.250000  0.828255  1
  S  S25  1  0.250000  0.463625  0.828255  1
  Br  Br26  1  0.051166  0.051166  0.289205  1
  Br  Br27  1  0.448835  0.051166  0.289205  1
  Br  Br28  1  0.051166  0.448835  0.289205  1
  Br  Br29  1  0.448835  0.448835  0.289205  1
  Br  Br30  1  0.551166  0.551166  0.710794  1
  Br  Br31  1  0.948834  0.551166  0.710794  1
  Br  Br32  1  0.551166  0.948834  0.710794  1
  Br  Br33  1  0.948834  0.948834  0.710794  1
