# generated using pymatgen
data_Ta9Ti(Ga2P)2
_symmetry_space_group_name_H-M   'P 1'
_cell_length_a   6.61670403
_cell_length_b   7.58186376
_cell_length_c   6.60228903
_cell_angle_alpha   115.81606908
_cell_angle_beta   89.98905142
_cell_angle_gamma   115.87656996
_symmetry_Int_Tables_number   1
_chemical_formula_structural   Ta9Ti(Ga2P)2
_chemical_formula_sum   'Ta9 Ti1 Ga4 P2'
_cell_volume   260.79021144
_cell_formula_units_Z   1
loop_
 _symmetry_equiv_pos_site_id
 _symmetry_equiv_pos_as_xyz
  1  'x, y, z'
loop_
 _atom_site_type_symbol
 _atom_site_label
 _atom_site_symmetry_multiplicity
 _atom_site_fract_x
 _atom_site_fract_y
 _atom_site_fract_z
 _atom_site_occupancy
  Ta  Ta0  1  0.507805  0.000000  0.498320  1
  Ta  Ta1  1  0.522330  0.707627  0.691655  1
  Ta  Ta2  1  0.195024  0.692280  0.009799  1
  Ta  Ta3  1  0.682613  0.706166  0.192021  1
  Ta  Ta4  1  0.001840  0.694062  0.507120  1
  Ta  Ta5  1  0.502745  0.307720  0.317520  1
  Ta  Ta6  1  0.814704  0.292373  0.984029  1
  Ta  Ta7  1  0.307779  0.305938  0.813060  1
  Ta  Ta8  1  0.976448  0.293834  0.485857  1
  Ti  Ti9  1  0.988912  0.000000  0.996590  1
  Ga  Ga10  1  0.752061  0.502763  0.759793  1
  Ga  Ga11  1  0.249298  0.497237  0.257030  1
  Ga  Ga12  1  0.136483  0.000000  0.355509  1
  Ga  Ga13  1  0.354630  0.000000  0.866624  1
  P  P14  1  0.873806  0.000000  0.635586  1
  P  P15  1  0.633522  0.000000  0.129488  1
