# generated using pymatgen
data_Ta3ZnPtN
_symmetry_space_group_name_H-M   'P 1'
_cell_length_a   7.02516964
_cell_length_b   7.02310941
_cell_length_c   7.01952369
_cell_angle_alpha   89.98709405
_cell_angle_beta   89.77502151
_cell_angle_gamma   89.88336962
_symmetry_Int_Tables_number   1
_chemical_formula_structural   Ta3ZnPtN
_chemical_formula_sum   'Ta12 Zn4 Pt4 N4'
_cell_volume   346.32962032
_cell_formula_units_Z   4
loop_
 _symmetry_equiv_pos_site_id
 _symmetry_equiv_pos_as_xyz
  1  'x, y, z'
loop_
 _atom_site_type_symbol
 _atom_site_label
 _atom_site_symmetry_multiplicity
 _atom_site_fract_x
 _atom_site_fract_y
 _atom_site_fract_z
 _atom_site_occupancy
  Ta  Ta0  1  0.628581  0.701206  0.957473  1
  Ta  Ta1  1  0.457744  0.873973  0.294585  1
  Ta  Ta2  1  0.708298  0.956690  0.621800  1
  Ta  Ta3  1  0.546078  0.374684  0.206679  1
  Ta  Ta4  1  0.373907  0.207886  0.542960  1
  Ta  Ta5  1  0.205545  0.544633  0.373817  1
  Ta  Ta6  1  0.873094  0.296622  0.459416  1
  Ta  Ta7  1  0.040216  0.126641  0.796706  1
  Ta  Ta8  1  0.298330  0.459122  0.867439  1
  Ta  Ta9  1  0.126059  0.792297  0.044819  1
  Ta  Ta10  1  0.793351  0.043683  0.122904  1
  Ta  Ta11  1  0.952463  0.621162  0.710362  1
  Zn  Zn12  1  0.186526  0.180535  0.179746  1
  Zn  Zn13  1  0.316268  0.823585  0.685720  1
  Zn  Zn14  1  0.423881  0.064421  0.932474  1
  Zn  Zn15  1  0.819659  0.684996  0.317313  1
  Pt  Pt16  1  0.677778  0.306644  0.817171  1
  Pt  Pt17  1  0.566768  0.578077  0.562889  1
  Pt  Pt18  1  0.068157  0.932214  0.432064  1
  Pt  Pt19  1  0.937050  0.433250  0.076281  1
  N  N20  1  0.376185  0.621409  0.123922  1
  N  N21  1  0.875409  0.873590  0.873778  1
  N  N22  1  0.122536  0.375810  0.624218  1
  N  N23  1  0.626118  0.126869  0.375463  1
