# generated using pymatgen
data_Ho16TlIn5RuPt
_symmetry_space_group_name_H-M   'P 1'
_cell_length_a   10.39262600
_cell_length_b   10.40225656
_cell_length_c   7.02901824
_cell_angle_alpha   90.08179879
_cell_angle_beta   90.00000000
_cell_angle_gamma   119.96938539
_symmetry_Int_Tables_number   1
_chemical_formula_structural   Ho16TlIn5RuPt
_chemical_formula_sum   'Ho16 Tl1 In5 Ru1 Pt1'
_cell_volume   658.28122128
_cell_formula_units_Z   1
loop_
 _symmetry_equiv_pos_site_id
 _symmetry_equiv_pos_as_xyz
  1  'x, y, z'
loop_
 _atom_site_type_symbol
 _atom_site_label
 _atom_site_symmetry_multiplicity
 _atom_site_fract_x
 _atom_site_fract_y
 _atom_site_fract_z
 _atom_site_occupancy
  Ho  Ho0  1  0.530528  0.061055  0.508092  1
  Ho  Ho1  1  0.938682  0.469267  0.507605  1
  Ho  Ho2  1  0.530586  0.469267  0.507605  1
  Ho  Ho3  1  0.465285  0.930571  0.006381  1
  Ho  Ho4  1  0.070300  0.534336  0.007456  1
  Ho  Ho5  1  0.464035  0.534336  0.007456  1
  Ho  Ho6  1  0.176368  0.352734  0.713872  1
  Ho  Ho7  1  0.647923  0.823502  0.714362  1
  Ho  Ho8  1  0.175580  0.823502  0.714362  1
  Ho  Ho9  1  0.824567  0.649135  0.211281  1
  Ho  Ho10  1  0.350903  0.175175  0.213007  1
  Ho  Ho11  1  0.824273  0.175175  0.213007  1
  Ho  Ho12  1  0.666400  0.332799  0.884223  1
  Ho  Ho13  1  0.333520  0.667041  0.386011  1
  Ho  Ho14  1  0.000672  0.001346  0.489701  1
  Ho  Ho15  1  0.000894  0.001787  0.994247  1
  Tl  Tl16  1  0.836266  0.672532  0.754399  1
  In  In17  1  0.326376  0.163125  0.752111  1
  In  In18  1  0.836749  0.163125  0.752111  1
  In  In19  1  0.162544  0.325086  0.253553  1
  In  In20  1  0.674943  0.837546  0.253419  1
  In  In21  1  0.162604  0.837546  0.253419  1
  Ru  Ru22  1  0.333321  0.666643  0.778906  1
  Pt  Pt23  1  0.666683  0.333366  0.281448  1
