# generated using pymatgen
data_Sc4MnTc7
_symmetry_space_group_name_H-M   'P 1'
_cell_length_a   5.23392000
_cell_length_b   5.23392179
_cell_length_c   8.54612000
_cell_angle_alpha   89.99990304
_cell_angle_beta   90.00006322
_cell_angle_gamma   119.99928248
_symmetry_Int_Tables_number   1
_chemical_formula_structural   Sc4MnTc7
_chemical_formula_sum   'Sc4 Mn1 Tc7'
_cell_volume   202.74822789
_cell_formula_units_Z   1
loop_
 _symmetry_equiv_pos_site_id
 _symmetry_equiv_pos_as_xyz
  1  'x, y, z'
loop_
 _atom_site_type_symbol
 _atom_site_label
 _atom_site_symmetry_multiplicity
 _atom_site_fract_x
 _atom_site_fract_y
 _atom_site_fract_z
 _atom_site_occupancy
  Sc  Sc0  1  0.666657  0.333337  0.937202  1
  Sc  Sc1  1  0.666678  0.333333  0.563139  1
  Sc  Sc2  1  0.333301  0.666667  0.062842  1
  Sc  Sc3  1  0.333325  0.666670  0.436815  1
  Mn  Mn4  1  0.999980  0.999996  0.000020  1
  Tc  Tc5  1  0.657663  0.828831  0.753142  1
  Tc  Tc6  1  0.171160  0.828829  0.753142  1
  Tc  Tc7  1  0.828827  0.171169  0.246854  1
  Tc  Tc8  1  0.342319  0.171168  0.246854  1
  Tc  Tc9  1  0.171166  0.342332  0.753141  1
  Tc  Tc10  1  0.828826  0.657670  0.246856  1
  Tc  Tc11  1  0.000000  0.000001  0.499992  1
