# generated using pymatgen
data_Zr6Al3Zn3O
_symmetry_space_group_name_H-M   'P 1'
_cell_length_a   8.60427238
_cell_length_b   8.59696261
_cell_length_c   8.59696216
_cell_angle_alpha   60.05712879
_cell_angle_beta   59.97186379
_cell_angle_gamma   59.97186773
_symmetry_Int_Tables_number   1
_chemical_formula_structural   Zr6Al3Zn3O
_chemical_formula_sum   'Zr12 Al6 Zn6 O2'
_cell_volume   449.66738394
_cell_formula_units_Z   2
loop_
 _symmetry_equiv_pos_site_id
 _symmetry_equiv_pos_as_xyz
  1  'x, y, z'
loop_
 _atom_site_type_symbol
 _atom_site_label
 _atom_site_symmetry_multiplicity
 _atom_site_fract_x
 _atom_site_fract_y
 _atom_site_fract_z
 _atom_site_occupancy
  Zr  Zr0  1  0.191731  0.808239  0.192197  1
  Zr  Zr1  1  0.441527  0.057939  0.442077  1
  Zr  Zr2  1  0.442191  0.057809  0.057809  1
  Zr  Zr3  1  0.441527  0.442077  0.057939  1
  Zr  Zr4  1  0.191941  0.808059  0.808059  1
  Zr  Zr5  1  0.058457  0.442077  0.057939  1
  Zr  Zr6  1  0.807834  0.808239  0.192197  1
  Zr  Zr7  1  0.058490  0.441510  0.441510  1
  Zr  Zr8  1  0.191731  0.192197  0.808239  1
  Zr  Zr9  1  0.807975  0.192025  0.192025  1
  Zr  Zr10  1  0.807834  0.192197  0.808239  1
  Zr  Zr11  1  0.058457  0.057939  0.442077  1
  Al  Al12  1  0.832419  0.502285  0.832877  1
  Al  Al13  1  0.416584  0.416478  0.750354  1
  Al  Al14  1  0.750258  0.416527  0.416527  1
  Al  Al15  1  0.416687  0.416527  0.416527  1
  Al  Al16  1  0.832419  0.832877  0.502285  1
  Al  Al17  1  0.416584  0.750354  0.416478  1
  Zn  Zn18  1  0.832026  0.832224  0.832224  1
  Zn  Zn19  1  0.503526  0.832224  0.832224  1
  Zn  Zn20  1  0.625123  0.123991  0.625763  1
  Zn  Zn21  1  0.625123  0.625763  0.123991  1
  Zn  Zn22  1  0.124001  0.625546  0.625546  1
  Zn  Zn23  1  0.624907  0.625546  0.625546  1
  O  O24  1  0.000446  0.999554  0.999554  1
  O  O25  1  0.250203  0.249797  0.249797  1
