# generated using pymatgen
data_Tb4Ga2As4Ir7
_symmetry_space_group_name_H-M   'P 1'
_cell_length_a   7.30404320
_cell_length_b   7.30404376
_cell_length_c   7.30702695
_cell_angle_alpha   109.25077036
_cell_angle_beta   109.25076325
_cell_angle_gamma   109.89661546
_symmetry_Int_Tables_number   1
_chemical_formula_structural   Tb4Ga2As4Ir7
_chemical_formula_sum   'Tb4 Ga2 As4 Ir7'
_cell_volume   300.13373613
_cell_formula_units_Z   1
loop_
 _symmetry_equiv_pos_site_id
 _symmetry_equiv_pos_as_xyz
  1  'x, y, z'
loop_
 _atom_site_type_symbol
 _atom_site_label
 _atom_site_symmetry_multiplicity
 _atom_site_fract_x
 _atom_site_fract_y
 _atom_site_fract_z
 _atom_site_occupancy
  Tb  Tb0  1  0.999337  0.999337  0.490654  1
  Tb  Tb1  1  0.998258  0.498258  0.996516  1
  Tb  Tb2  1  0.498258  0.998258  0.996516  1
  Tb  Tb3  1  0.491317  0.491317  0.490654  1
  Ga  Ga4  1  0.689471  0.995919  0.685390  1
  Ga  Ga5  1  0.995919  0.689471  0.685390  1
  As  As6  1  0.680390  0.680390  0.993786  1
  As  As7  1  0.329652  0.996476  0.326128  1
  As  As8  1  0.996476  0.329652  0.326128  1
  As  As9  1  0.313396  0.313396  0.993786  1
  Ir  Ir10  1  0.751019  0.251019  0.502040  1
  Ir  Ir11  1  0.746053  0.501490  0.247544  1
  Ir  Ir12  1  0.501062  0.248676  0.749738  1
  Ir  Ir13  1  0.248676  0.501062  0.749738  1
  Ir  Ir14  1  0.251019  0.751019  0.502040  1
  Ir  Ir15  1  0.501490  0.746053  0.247544  1
  Ir  Ir16  1  0.008206  0.008206  0.016411  1
