# generated using pymatgen
data_Er9Th(FeSb2)2
_symmetry_space_group_name_H-M   'P 1'
_cell_length_a   7.87563900
_cell_length_b   8.64319061
_cell_length_c   12.09375500
_cell_angle_alpha   89.79080130
_cell_angle_beta   90.00000000
_cell_angle_gamma   90.00000000
_symmetry_Int_Tables_number   1
_chemical_formula_structural   Er9Th(FeSb2)2
_chemical_formula_sum   'Er18 Th2 Fe4 Sb8'
_cell_volume   823.22426521
_cell_formula_units_Z   2
loop_
 _symmetry_equiv_pos_site_id
 _symmetry_equiv_pos_as_xyz
  1  'x, y, z'
loop_
 _atom_site_type_symbol
 _atom_site_label
 _atom_site_symmetry_multiplicity
 _atom_site_fract_x
 _atom_site_fract_y
 _atom_site_fract_z
 _atom_site_occupancy
  Er  Er0  1  0.161231  0.748186  0.207423  1
  Er  Er1  1  0.661231  0.251814  0.292577  1
  Er  Er2  1  0.841664  0.250602  0.796602  1
  Er  Er3  1  0.341664  0.749398  0.703398  1
  Er  Er4  1  0.445926  0.750881  0.997622  1
  Er  Er5  1  0.945926  0.249119  0.502378  1
  Er  Er6  1  0.545814  0.251784  0.001579  1
  Er  Er7  1  0.045814  0.748216  0.498421  1
  Er  Er8  1  0.625538  0.750153  0.303261  1
  Er  Er9  1  0.125538  0.249847  0.196739  1
  Er  Er10  1  0.380445  0.254126  0.695448  1
  Er  Er11  1  0.880445  0.745874  0.804552  1
  Er  Er12  1  0.174413  0.459336  0.936324  1
  Er  Er13  1  0.674413  0.540664  0.563676  1
  Er  Er14  1  0.183465  0.041889  0.931426  1
  Er  Er15  1  0.683465  0.958111  0.568574  1
  Er  Er16  1  0.823616  0.536008  0.064093  1
  Er  Er17  1  0.323616  0.463992  0.435907  1
  Th  Th18  1  0.831226  0.966617  0.058680  1
  Th  Th19  1  0.331226  0.033383  0.441320  1
  Fe  Fe20  1  0.418758  0.765226  0.482040  1
  Fe  Fe21  1  0.918758  0.234774  0.017960  1
  Fe  Fe22  1  0.568981  0.246298  0.509022  1
  Fe  Fe23  1  0.068981  0.753702  0.990978  1
  Sb  Sb24  1  0.926797  0.989721  0.328540  1
  Sb  Sb25  1  0.426797  0.010279  0.171460  1
  Sb  Sb26  1  0.070418  0.489278  0.672297  1
  Sb  Sb27  1  0.570418  0.510722  0.827703  1
  Sb  Sb28  1  0.071510  0.009822  0.674324  1
  Sb  Sb29  1  0.571510  0.990178  0.825676  1
  Sb  Sb30  1  0.930200  0.507878  0.327450  1
  Sb  Sb31  1  0.430200  0.492122  0.172550  1
