# generated using pymatgen
data_Tm16GaHg5Os2
_symmetry_space_group_name_H-M   'P 1'
_cell_length_a   10.00656913
_cell_length_b   10.00656801
_cell_length_c   7.17471690
_cell_angle_alpha   90.40012605
_cell_angle_beta   89.59987522
_cell_angle_gamma   120.33195786
_symmetry_Int_Tables_number   1
_chemical_formula_structural   Tm16GaHg5Os2
_chemical_formula_sum   'Tm16 Ga1 Hg5 Os2'
_cell_volume   620.05356855
_cell_formula_units_Z   1
loop_
 _symmetry_equiv_pos_site_id
 _symmetry_equiv_pos_as_xyz
  1  'x, y, z'
loop_
 _atom_site_type_symbol
 _atom_site_label
 _atom_site_symmetry_multiplicity
 _atom_site_fract_x
 _atom_site_fract_y
 _atom_site_fract_z
 _atom_site_occupancy
  Tm  Tm0  1  0.173400  0.826600  0.982233  1
  Tm  Tm1  1  0.347161  0.171706  0.480798  1
  Tm  Tm2  1  0.828294  0.652839  0.480798  1
  Tm  Tm3  1  0.172352  0.347838  0.984773  1
  Tm  Tm4  1  0.652162  0.827648  0.984773  1
  Tm  Tm5  1  0.825793  0.174207  0.479972  1
  Tm  Tm6  1  0.333750  0.666250  0.677565  1
  Tm  Tm7  1  0.668328  0.331672  0.171983  1
  Tm  Tm8  1  0.463148  0.536852  0.293999  1
  Tm  Tm9  1  0.922223  0.459114  0.794227  1
  Tm  Tm10  1  0.540886  0.077777  0.794227  1
  Tm  Tm11  1  0.463609  0.925202  0.294264  1
  Tm  Tm12  1  0.074798  0.536391  0.294264  1
  Tm  Tm13  1  0.539086  0.460914  0.792523  1
  Tm  Tm14  1  0.994253  0.005747  0.255211  1
  Tm  Tm15  1  0.994293  0.005707  0.760292  1
  Ga  Ga16  1  0.836425  0.163575  0.045665  1
  Hg  Hg17  1  0.168979  0.831021  0.551228  1
  Hg  Hg18  1  0.334620  0.168775  0.048142  1
  Hg  Hg19  1  0.831225  0.665380  0.048142  1
  Hg  Hg20  1  0.166599  0.332288  0.547971  1
  Hg  Hg21  1  0.667712  0.833401  0.547971  1
  Os  Os22  1  0.333288  0.666712  0.058992  1
  Os  Os23  1  0.667618  0.332382  0.553991  1
