# generated using pymatgen
data_PrEr3Si6IrRh
_symmetry_space_group_name_H-M   'P 1'
_cell_length_a   8.19062900
_cell_length_b   8.19062893
_cell_length_c   7.99728800
_cell_angle_alpha   90.00000000
_cell_angle_beta   90.00000000
_cell_angle_gamma   119.99999623
_symmetry_Int_Tables_number   1
_chemical_formula_structural   PrEr3Si6IrRh
_chemical_formula_sum   'Pr2 Er6 Si12 Ir2 Rh2'
_cell_volume   464.63068759
_cell_formula_units_Z   2
loop_
 _symmetry_equiv_pos_site_id
 _symmetry_equiv_pos_as_xyz
  1  'x, y, z'
loop_
 _atom_site_type_symbol
 _atom_site_label
 _atom_site_symmetry_multiplicity
 _atom_site_fract_x
 _atom_site_fract_y
 _atom_site_fract_z
 _atom_site_occupancy
  Pr  Pr0  1  0.000000  0.000000  0.250000  1
  Pr  Pr1  1  0.000000  0.000000  0.750000  1
  Er  Er2  1  0.492279  0.507721  0.250000  1
  Er  Er3  1  0.492279  0.984558  0.250000  1
  Er  Er4  1  0.015442  0.507721  0.250000  1
  Er  Er5  1  0.509400  0.490600  0.750000  1
  Er  Er6  1  0.981198  0.490600  0.750000  1
  Er  Er7  1  0.509400  0.018802  0.750000  1
  Si  Si8  1  0.831713  0.168287  0.502695  1
  Si  Si9  1  0.831713  0.663427  0.502695  1
  Si  Si10  1  0.336573  0.168287  0.502695  1
  Si  Si11  1  0.831713  0.168287  0.997305  1
  Si  Si12  1  0.831713  0.663427  0.997305  1
  Si  Si13  1  0.336573  0.168287  0.997305  1
  Si  Si14  1  0.169223  0.830777  0.002595  1
  Si  Si15  1  0.661555  0.830777  0.002595  1
  Si  Si16  1  0.169223  0.338445  0.002595  1
  Si  Si17  1  0.169223  0.830777  0.497405  1
  Si  Si18  1  0.661555  0.830777  0.497405  1
  Si  Si19  1  0.169223  0.338445  0.497405  1
  Ir  Ir20  1  0.666667  0.333333  0.464414  1
  Ir  Ir21  1  0.666667  0.333333  0.035586  1
  Rh  Rh22  1  0.333333  0.666667  0.963161  1
  Rh  Rh23  1  0.333333  0.666667  0.536839  1
