# generated using pymatgen
data_Dy2Er10Co4BiRu
_symmetry_space_group_name_H-M   'P 1'
_cell_length_a   8.27327488
_cell_length_b   8.27327512
_cell_length_c   8.26253980
_cell_angle_alpha   110.74759805
_cell_angle_beta   111.01970691
_cell_angle_gamma   106.73731128
_symmetry_Int_Tables_number   1
_chemical_formula_structural   Dy2Er10Co4BiRu
_chemical_formula_sum   'Dy2 Er10 Co4 Bi1 Ru1'
_cell_volume   434.30407860
_cell_formula_units_Z   1
loop_
 _symmetry_equiv_pos_site_id
 _symmetry_equiv_pos_as_xyz
  1  'x, y, z'
loop_
 _atom_site_type_symbol
 _atom_site_label
 _atom_site_symmetry_multiplicity
 _atom_site_fract_x
 _atom_site_fract_y
 _atom_site_fract_z
 _atom_site_occupancy
  Dy  Dy0  1  0.284881  0.182887  0.467768  1
  Dy  Dy1  1  0.715119  0.817113  0.532232  1
  Er  Er2  1  0.284013  0.816530  0.100544  1
  Er  Er3  1  0.715987  0.183470  0.899456  1
  Er  Er4  1  0.620652  0.310746  0.308377  1
  Er  Er5  1  0.379348  0.689254  0.691623  1
  Er  Er6  1  0.002371  0.312275  0.691623  1
  Er  Er7  1  0.997629  0.687725  0.308377  1
  Er  Er8  1  0.211186  0.408050  0.195245  1
  Er  Er9  1  0.788814  0.591950  0.804755  1
  Er  Er10  1  0.212804  0.015941  0.804755  1
  Er  Er11  1  0.787196  0.984059  0.195245  1
  Co  Co12  1  0.999975  0.375754  0.375730  1
  Co  Co13  1  0.000025  0.624246  0.624270  1
  Co  Co14  1  0.388515  0.888515  0.500000  1
  Co  Co15  1  0.611485  0.111485  0.500000  1
  Bi  Bi16  1  0.500000  0.500000  0.000000  1
  Ru  Ru17  1  0.000000  0.000000  0.000000  1
