# generated using pymatgen
data_RbGePIrRh
_symmetry_space_group_name_H-M   'P 1'
_cell_length_a   7.66901674
_cell_length_b   7.66901664
_cell_length_c   7.66901767
_cell_angle_alpha   149.70133420
_cell_angle_beta   149.47819261
_cell_angle_gamma   43.54419340
_symmetry_Int_Tables_number   1
_chemical_formula_structural   RbGePIrRh
_chemical_formula_sum   'Rb1 Ge1 P1 Ir1 Rh1'
_cell_volume   115.25187161
_cell_formula_units_Z   1
loop_
 _symmetry_equiv_pos_site_id
 _symmetry_equiv_pos_as_xyz
  1  'x, y, z'
loop_
 _atom_site_type_symbol
 _atom_site_label
 _atom_site_symmetry_multiplicity
 _atom_site_fract_x
 _atom_site_fract_y
 _atom_site_fract_z
 _atom_site_occupancy
  Rb  Rb0  1  0.007120  0.007120  0.000000  1
  Ge  Ge1  1  0.346475  0.346475  0.000000  1
  P  P2  1  0.661012  0.661012  0.000000  1
  Ir  Ir3  1  0.743126  0.243126  0.500000  1
  Rh  Rh4  1  0.242266  0.742266  0.500000  1
