# generated using pymatgen
data_EuCuHgPd3
_symmetry_space_group_name_H-M   'P 1'
_cell_length_a   5.50738224
_cell_length_b   5.50738146
_cell_length_c   5.29208589
_cell_angle_alpha   58.64484816
_cell_angle_beta   58.64485330
_cell_angle_gamma   59.99999976
_symmetry_Int_Tables_number   1
_chemical_formula_structural   EuCuHgPd3
_chemical_formula_sum   'Eu1 Cu1 Hg1 Pd3'
_cell_volume   111.12096828
_cell_formula_units_Z   1
loop_
 _symmetry_equiv_pos_site_id
 _symmetry_equiv_pos_as_xyz
  1  'x, y, z'
loop_
 _atom_site_type_symbol
 _atom_site_label
 _atom_site_symmetry_multiplicity
 _atom_site_fract_x
 _atom_site_fract_y
 _atom_site_fract_z
 _atom_site_occupancy
  Eu  Eu0  1  0.500195  0.500195  0.499414  1
  Cu  Cu1  1  0.124384  0.124384  0.626848  1
  Hg  Hg2  1  0.752555  0.752555  0.742335  1
  Pd  Pd3  1  0.123580  0.625707  0.127135  1
  Pd  Pd4  1  0.123580  0.123580  0.127135  1
  Pd  Pd5  1  0.625707  0.123580  0.127135  1
