# generated using pymatgen
data_Ho6Er2AsPd24
_symmetry_space_group_name_H-M   'P 1'
_cell_length_a   8.33149400
_cell_length_b   8.33120904
_cell_length_c   8.33120900
_cell_angle_alpha   89.99407181
_cell_angle_beta   90.00000000
_cell_angle_gamma   90.00000000
_symmetry_Int_Tables_number   1
_chemical_formula_structural   Ho6Er2AsPd24
_chemical_formula_sum   'Ho6 Er2 As1 Pd24'
_cell_volume   578.28102865
_cell_formula_units_Z   1
loop_
 _symmetry_equiv_pos_site_id
 _symmetry_equiv_pos_as_xyz
  1  'x, y, z'
loop_
 _atom_site_type_symbol
 _atom_site_label
 _atom_site_symmetry_multiplicity
 _atom_site_fract_x
 _atom_site_fract_y
 _atom_site_fract_z
 _atom_site_occupancy
  Ho  Ho0  1  0.255155  0.255132  0.744868  1
  Ho  Ho1  1  0.255155  0.744868  0.255132  1
  Ho  Ho2  1  0.744868  0.255137  0.255137  1
  Ho  Ho3  1  0.744868  0.744863  0.744863  1
  Ho  Ho4  1  0.744918  0.744917  0.255083  1
  Ho  Ho5  1  0.744918  0.255083  0.744917  1
  Er  Er6  1  0.255256  0.744748  0.744748  1
  Er  Er7  1  0.255256  0.255252  0.255252  1
  As  As8  1  0.999504  0.000000  0.000000  1
  Pd  Pd9  1  0.499733  0.500203  0.747176  1
  Pd  Pd10  1  0.499733  0.252824  0.499797  1
  Pd  Pd11  1  0.252860  0.500000  0.500000  1
  Pd  Pd12  1  0.499733  0.499797  0.252824  1
  Pd  Pd13  1  0.499733  0.747176  0.500203  1
  Pd  Pd14  1  0.747205  0.500000  0.500000  1
  Pd  Pd15  1  0.000297  0.999738  0.712085  1
  Pd  Pd16  1  0.000297  0.287915  0.000262  1
  Pd  Pd17  1  0.287657  0.000000  0.000000  1
  Pd  Pd18  1  0.000297  0.000262  0.287915  1
  Pd  Pd19  1  0.000297  0.712085  0.999738  1
  Pd  Pd20  1  0.711829  0.000000  0.000000  1
  Pd  Pd21  1  0.000312  0.500138  0.740760  1
  Pd  Pd22  1  0.499757  0.259233  0.000266  1
  Pd  Pd23  1  0.259267  0.000000  0.500000  1
  Pd  Pd24  1  0.000312  0.259240  0.499862  1
  Pd  Pd25  1  0.499757  0.999734  0.740767  1
  Pd  Pd26  1  0.259267  0.500000  0.000000  1
  Pd  Pd27  1  0.000312  0.499862  0.259240  1
  Pd  Pd28  1  0.499757  0.740767  0.999734  1
  Pd  Pd29  1  0.000312  0.740760  0.500138  1
  Pd  Pd30  1  0.499757  0.000266  0.259233  1
  Pd  Pd31  1  0.740810  0.000000  0.500000  1
  Pd  Pd32  1  0.740810  0.500000  0.000000  1
