# generated using pymatgen
data_Zn2CrNi2AsO8
_symmetry_space_group_name_H-M   'P 1'
_cell_length_a   6.00075643
_cell_length_b   6.03906693
_cell_length_c   5.92367801
_cell_angle_alpha   60.62963601
_cell_angle_beta   90.00197191
_cell_angle_gamma   121.10459393
_symmetry_Int_Tables_number   1
_chemical_formula_structural   Zn2CrNi2AsO8
_chemical_formula_sum   'Zn2 Cr1 Ni2 As1 O8'
_cell_volume   150.66506504
_cell_formula_units_Z   1
loop_
 _symmetry_equiv_pos_site_id
 _symmetry_equiv_pos_as_xyz
  1  'x, y, z'
loop_
 _atom_site_type_symbol
 _atom_site_label
 _atom_site_symmetry_multiplicity
 _atom_site_fract_x
 _atom_site_fract_y
 _atom_site_fract_z
 _atom_site_occupancy
  Zn  Zn0  1  0.631536  0.721232  0.639375  1
  Zn  Zn1  1  0.368362  0.278781  0.360625  1
  Cr  Cr2  1  0.500266  0.000126  0.000075  1
  Ni  Ni3  1  0.999872  0.499912  0.500149  1
  Ni  Ni4  1  0.999866  0.499871  0.999887  1
  As  As5  1  0.000012  0.999998  0.999974  1
  O  O6  1  0.785698  0.558968  0.220479  1
  O  O7  1  0.232276  0.996999  0.782448  1
  O  O8  1  0.232243  0.997001  0.220577  1
  O  O9  1  0.214254  0.441004  0.779470  1
  O  O10  1  0.759227  0.463865  0.768041  1
  O  O11  1  0.767822  0.003033  0.217558  1
  O  O12  1  0.240815  0.536207  0.231896  1
  O  O13  1  0.767752  0.003003  0.779449  1
