# generated using pymatgen
data_Cs4NiAs4Pd
_symmetry_space_group_name_H-M   'P 1'
_cell_length_a   8.33828501
_cell_length_b   8.33828467
_cell_length_c   6.35239721
_cell_angle_alpha   91.74901082
_cell_angle_beta   88.25099358
_cell_angle_gamma   128.77838973
_symmetry_Int_Tables_number   1
_chemical_formula_structural   Cs4NiAs4Pd
_chemical_formula_sum   'Cs4 Ni1 As4 Pd1'
_cell_volume   344.11188931
_cell_formula_units_Z   1
loop_
 _symmetry_equiv_pos_site_id
 _symmetry_equiv_pos_as_xyz
  1  'x, y, z'
loop_
 _atom_site_type_symbol
 _atom_site_label
 _atom_site_symmetry_multiplicity
 _atom_site_fract_x
 _atom_site_fract_y
 _atom_site_fract_z
 _atom_site_occupancy
  Cs  Cs0  1  0.791778  0.208222  0.250328  1
  Cs  Cs1  1  0.208222  0.791778  0.749672  1
  Cs  Cs2  1  0.410426  0.589574  0.250117  1
  Cs  Cs3  1  0.589574  0.410426  0.749883  1
  Ni  Ni4  1  0.000000  0.000000  0.500000  1
  As  As5  1  0.925452  0.735830  0.263428  1
  As  As6  1  0.074548  0.264170  0.736572  1
  As  As7  1  0.264170  0.074548  0.263428  1
  As  As8  1  0.735830  0.925452  0.736572  1
  Pd  Pd9  1  0.000000  0.000000  0.000000  1
