# generated using pymatgen
data_SmLu4(In2Pt)2
_symmetry_space_group_name_H-M   'P 1'
_cell_length_a   3.61535300
_cell_length_b   8.05072800
_cell_length_c   18.08061800
_cell_angle_alpha   90.00000000
_cell_angle_beta   90.00000000
_cell_angle_gamma   90.00000000
_symmetry_Int_Tables_number   1
_chemical_formula_structural   SmLu4(In2Pt)2
_chemical_formula_sum   'Sm2 Lu8 In8 Pt4'
_cell_volume   526.25851082
_cell_formula_units_Z   2
loop_
 _symmetry_equiv_pos_site_id
 _symmetry_equiv_pos_as_xyz
  1  'x, y, z'
loop_
 _atom_site_type_symbol
 _atom_site_label
 _atom_site_symmetry_multiplicity
 _atom_site_fract_x
 _atom_site_fract_y
 _atom_site_fract_z
 _atom_site_occupancy
  Sm  Sm0  1  0.000000  0.000000  0.000000  1
  Sm  Sm1  1  0.000000  0.500000  0.500000  1
  Lu  Lu2  1  0.000000  0.118936  0.413430  1
  Lu  Lu3  1  0.000000  0.881064  0.586570  1
  Lu  Lu4  1  0.000000  0.381064  0.913430  1
  Lu  Lu5  1  0.000000  0.618936  0.086570  1
  Lu  Lu6  1  0.000000  0.245388  0.221135  1
  Lu  Lu7  1  0.000000  0.754612  0.778865  1
  Lu  Lu8  1  0.000000  0.254612  0.721135  1
  Lu  Lu9  1  0.000000  0.745388  0.278865  1
  In  In10  1  0.500000  0.424833  0.350281  1
  In  In11  1  0.500000  0.575167  0.649719  1
  In  In12  1  0.500000  0.075167  0.850281  1
  In  In13  1  0.500000  0.924833  0.149719  1
  In  In14  1  0.500000  0.299105  0.067058  1
  In  In15  1  0.500000  0.700895  0.932942  1
  In  In16  1  0.500000  0.200895  0.567058  1
  In  In17  1  0.500000  0.799105  0.432942  1
  Pt  Pt18  1  0.500000  0.027144  0.304486  1
  Pt  Pt19  1  0.500000  0.972856  0.695514  1
  Pt  Pt20  1  0.500000  0.472856  0.804486  1
  Pt  Pt21  1  0.500000  0.527144  0.195514  1
