# generated using pymatgen
data_LiYb2BrO6
_symmetry_space_group_name_H-M   'P 1'
_cell_length_a   5.27686960
_cell_length_b   5.27686972
_cell_length_c   5.40067377
_cell_angle_alpha   119.53606466
_cell_angle_beta   119.53607219
_cell_angle_gamma   59.90543179
_symmetry_Int_Tables_number   1
_chemical_formula_structural   LiYb2BrO6
_chemical_formula_sum   'Li1 Yb2 Br1 O6'
_cell_volume   106.99910600
_cell_formula_units_Z   1
loop_
 _symmetry_equiv_pos_site_id
 _symmetry_equiv_pos_as_xyz
  1  'x, y, z'
loop_
 _atom_site_type_symbol
 _atom_site_label
 _atom_site_symmetry_multiplicity
 _atom_site_fract_x
 _atom_site_fract_y
 _atom_site_fract_z
 _atom_site_occupancy
  Li  Li0  1  0.500000  0.500000  0.000000  1
  Yb  Yb1  1  0.252150  0.252150  0.259958  1
  Yb  Yb2  1  0.747850  0.747850  0.740042  1
  Br  Br3  1  0.000000  0.000000  0.500000  1
  O  O4  1  0.767589  0.767589  0.190558  1
  O  O5  1  0.804787  0.284711  0.314553  1
  O  O6  1  0.284711  0.804787  0.314553  1
  O  O7  1  0.715289  0.195213  0.685447  1
  O  O8  1  0.195213  0.715289  0.685447  1
  O  O9  1  0.232411  0.232411  0.809442  1
