# generated using pymatgen
data_Nd16SmEr3Sn16
_symmetry_space_group_name_H-M   'P 1'
_cell_length_a   8.24041803
_cell_length_b   8.39378903
_cell_length_c   15.93493300
_cell_angle_alpha   90.00000000
_cell_angle_beta   90.00000000
_cell_angle_gamma   89.99106515
_symmetry_Int_Tables_number   1
_chemical_formula_structural   Nd16SmEr3Sn16
_chemical_formula_sum   'Nd16 Sm1 Er3 Sn16'
_cell_volume   1102.19269699
_cell_formula_units_Z   1
loop_
 _symmetry_equiv_pos_site_id
 _symmetry_equiv_pos_as_xyz
  1  'x, y, z'
loop_
 _atom_site_type_symbol
 _atom_site_label
 _atom_site_symmetry_multiplicity
 _atom_site_fract_x
 _atom_site_fract_y
 _atom_site_fract_z
 _atom_site_occupancy
  Nd  Nd0  1  0.018009  0.180531  0.401445  1
  Nd  Nd1  1  0.368214  0.837785  0.120590  1
  Nd  Nd2  1  0.132561  0.337624  0.621332  1
  Nd  Nd3  1  0.481825  0.680995  0.901182  1
  Nd  Nd4  1  0.866891  0.663052  0.120831  1
  Nd  Nd5  1  0.132561  0.337624  0.878668  1
  Nd  Nd6  1  0.481825  0.680995  0.598818  1
  Nd  Nd7  1  0.632360  0.162397  0.620823  1
  Nd  Nd8  1  0.866891  0.663052  0.379169  1
  Nd  Nd9  1  0.018009  0.180531  0.098555  1
  Nd  Nd10  1  0.981988  0.818914  0.901376  1
  Nd  Nd11  1  0.632360  0.162397  0.879177  1
  Nd  Nd12  1  0.518731  0.318520  0.098421  1
  Nd  Nd13  1  0.368214  0.837785  0.379410  1
  Nd  Nd14  1  0.981988  0.818914  0.598624  1
  Nd  Nd15  1  0.518731  0.318520  0.401579  1
  Sm  Sm16  1  0.197234  0.502278  0.250000  1
  Er  Er17  1  0.699039  0.997650  0.250000  1
  Er  Er18  1  0.300880  0.002039  0.750000  1
  Er  Er19  1  0.800862  0.497653  0.750000  1
  Sn  Sn20  1  0.792371  0.465146  0.543888  1
  Sn  Sn21  1  0.707613  0.964977  0.456301  1
  Sn  Sn22  1  0.675548  0.853472  0.750000  1
  Sn  Sn23  1  0.207828  0.535678  0.457384  1
  Sn  Sn24  1  0.292228  0.035136  0.956026  1
  Sn  Sn25  1  0.823706  0.352691  0.250000  1
  Sn  Sn26  1  0.792371  0.465146  0.956112  1
  Sn  Sn27  1  0.566291  0.617149  0.250000  1
  Sn  Sn28  1  0.207828  0.535678  0.042616  1
  Sn  Sn29  1  0.435804  0.383044  0.750000  1
  Sn  Sn30  1  0.175141  0.646883  0.750000  1
  Sn  Sn31  1  0.935600  0.117002  0.750000  1
  Sn  Sn32  1  0.292228  0.035136  0.543974  1
  Sn  Sn33  1  0.707613  0.964977  0.043699  1
  Sn  Sn34  1  0.325156  0.144056  0.250000  1
  Sn  Sn35  1  0.063499  0.884572  0.250000  1
