# generated using pymatgen
data_Ac2Pr(MgPt)3
_symmetry_space_group_name_H-M   'P 1'
_cell_length_a   7.76069670
_cell_length_b   7.69454933
_cell_length_c   4.27248600
_cell_angle_alpha   90.00000000
_cell_angle_beta   90.00000000
_cell_angle_gamma   119.71845075
_symmetry_Int_Tables_number   1
_chemical_formula_structural   Ac2Pr(MgPt)3
_chemical_formula_sum   'Ac2 Pr1 Mg3 Pt3'
_cell_volume   221.57478068
_cell_formula_units_Z   1
loop_
 _symmetry_equiv_pos_site_id
 _symmetry_equiv_pos_as_xyz
  1  'x, y, z'
loop_
 _atom_site_type_symbol
 _atom_site_label
 _atom_site_symmetry_multiplicity
 _atom_site_fract_x
 _atom_site_fract_y
 _atom_site_fract_z
 _atom_site_occupancy
  Ac  Ac0  1  0.415134  0.414349  0.000000  1
  Ac  Ac1  1  0.584866  0.999216  0.000000  1
  Pr  Pr2  1  0.000000  0.591322  0.000000  1
  Mg  Mg3  1  0.000000  0.240898  0.500000  1
  Mg  Mg4  1  0.770535  0.763483  0.500000  1
  Mg  Mg5  1  0.229465  0.992948  0.500000  1
  Pt  Pt6  1  0.000000  0.997011  0.000000  1
  Pt  Pt7  1  0.671439  0.336105  0.500000  1
  Pt  Pt8  1  0.328561  0.664667  0.500000  1
