# generated using pymatgen
data_CeNd15(CdIr)4
_symmetry_space_group_name_H-M   'P 1'
_cell_length_a   9.95289288
_cell_length_b   9.95289231
_cell_length_c   9.95289226
_cell_angle_alpha   59.72151407
_cell_angle_beta   59.72151573
_cell_angle_gamma   59.72152090
_symmetry_Int_Tables_number   1
_chemical_formula_structural   CeNd15(CdIr)4
_chemical_formula_sum   'Ce1 Nd15 Cd4 Ir4'
_cell_volume   692.75131335
_cell_formula_units_Z   1
loop_
 _symmetry_equiv_pos_site_id
 _symmetry_equiv_pos_as_xyz
  1  'x, y, z'
loop_
 _atom_site_type_symbol
 _atom_site_label
 _atom_site_symmetry_multiplicity
 _atom_site_fract_x
 _atom_site_fract_y
 _atom_site_fract_z
 _atom_site_occupancy
  Ce  Ce0  1  0.343104  0.343104  0.343104  1
  Nd  Nd1  1  0.349697  0.349697  0.951773  1
  Nd  Nd2  1  0.349697  0.951773  0.349697  1
  Nd  Nd3  1  0.951773  0.349697  0.349697  1
  Nd  Nd4  1  0.810486  0.190150  0.190150  1
  Nd  Nd5  1  0.189311  0.809123  0.809123  1
  Nd  Nd6  1  0.190150  0.810486  0.190150  1
  Nd  Nd7  1  0.809123  0.189311  0.809123  1
  Nd  Nd8  1  0.190150  0.190150  0.810486  1
  Nd  Nd9  1  0.809123  0.809123  0.189311  1
  Nd  Nd10  1  0.942559  0.561311  0.561311  1
  Nd  Nd11  1  0.559034  0.938907  0.938907  1
  Nd  Nd12  1  0.561311  0.942559  0.561311  1
  Nd  Nd13  1  0.938907  0.559034  0.938907  1
  Nd  Nd14  1  0.561311  0.561311  0.942559  1
  Nd  Nd15  1  0.938907  0.938907  0.559034  1
  Cd  Cd16  1  0.580135  0.580135  0.580135  1
  Cd  Cd17  1  0.578334  0.578334  0.259949  1
  Cd  Cd18  1  0.578334  0.259949  0.578334  1
  Cd  Cd19  1  0.259949  0.578334  0.578334  1
  Ir  Ir20  1  0.142509  0.142509  0.142509  1
  Ir  Ir21  1  0.147113  0.147113  0.571869  1
  Ir  Ir22  1  0.147113  0.571869  0.147113  1
  Ir  Ir23  1  0.571869  0.147113  0.147113  1
