# generated using pymatgen
data_CsEr6(CI6)2
_symmetry_space_group_name_H-M   'P 1'
_cell_length_a   9.44560381
_cell_length_b   9.46148373
_cell_length_c   9.84221186
_cell_angle_alpha   72.55278630
_cell_angle_beta   71.68260618
_cell_angle_gamma   73.02893193
_symmetry_Int_Tables_number   1
_chemical_formula_structural   CsEr6(CI6)2
_chemical_formula_sum   'Cs1 Er6 C2 I12'
_cell_volume   777.40364474
_cell_formula_units_Z   1
loop_
 _symmetry_equiv_pos_site_id
 _symmetry_equiv_pos_as_xyz
  1  'x, y, z'
loop_
 _atom_site_type_symbol
 _atom_site_label
 _atom_site_symmetry_multiplicity
 _atom_site_fract_x
 _atom_site_fract_y
 _atom_site_fract_z
 _atom_site_occupancy
  Cs  Cs0  1  0.000012  0.499990  0.999996  1
  Er  Er1  1  0.472939  0.106548  0.197525  1
  Er  Er2  1  0.759243  0.030664  0.413934  1
  Er  Er3  1  0.585518  0.743760  0.476525  1
  Er  Er4  1  0.414480  0.256247  0.523467  1
  Er  Er5  1  0.240749  0.969330  0.586069  1
  Er  Er6  1  0.527070  0.893453  0.802477  1
  C  C7  1  0.492822  0.025045  0.425585  1
  C  C8  1  0.507160  0.974960  0.574437  1
  I  I9  1  0.795489  0.153308  0.082035  1
  I  I10  1  0.580651  0.783892  0.141862  1
  I  I11  1  0.354101  0.430285  0.222502  1
  I  I12  1  0.137656  0.067248  0.295210  1
  I  I13  1  0.919751  0.722022  0.357807  1
  I  I14  1  0.712226  0.359754  0.433851  1
  I  I15  1  0.287770  0.640247  0.566154  1
  I  I16  1  0.080240  0.277991  0.642186  1
  I  I17  1  0.862360  0.932735  0.704781  1
  I  I18  1  0.645901  0.569721  0.777489  1
  I  I19  1  0.419351  0.216107  0.858141  1
  I  I20  1  0.204514  0.846690  0.917966  1
