# generated using pymatgen
data_Ca6YbCdN4
_symmetry_space_group_name_H-M   'P 1'
_cell_length_a   3.61365000
_cell_length_b   12.06634200
_cell_length_c   11.64948200
_cell_angle_alpha   90.00000000
_cell_angle_beta   90.00000000
_cell_angle_gamma   90.00000000
_symmetry_Int_Tables_number   1
_chemical_formula_structural   Ca6YbCdN4
_chemical_formula_sum   'Ca12 Yb2 Cd2 N8'
_cell_volume   507.95861672
_cell_formula_units_Z   2
loop_
 _symmetry_equiv_pos_site_id
 _symmetry_equiv_pos_as_xyz
  1  'x, y, z'
loop_
 _atom_site_type_symbol
 _atom_site_label
 _atom_site_symmetry_multiplicity
 _atom_site_fract_x
 _atom_site_fract_y
 _atom_site_fract_z
 _atom_site_occupancy
  Ca  Ca0  1  0.498838  0.670641  0.234332  1
  Ca  Ca1  1  0.498838  0.329359  0.765668  1
  Ca  Ca2  1  0.501162  0.170641  0.265668  1
  Ca  Ca3  1  0.501162  0.829359  0.734332  1
  Ca  Ca4  1  0.000675  0.928086  0.267491  1
  Ca  Ca5  1  0.000675  0.071914  0.732509  1
  Ca  Ca6  1  0.999325  0.428086  0.232509  1
  Ca  Ca7  1  0.999325  0.571914  0.767491  1
  Ca  Ca8  1  0.001618  0.766021  0.479086  1
  Ca  Ca9  1  0.001618  0.233979  0.520914  1
  Ca  Ca10  1  0.998382  0.266021  0.020914  1
  Ca  Ca11  1  0.998382  0.733979  0.979086  1
  Yb  Yb12  1  0.498794  0.500000  0.000000  1
  Yb  Yb13  1  0.501206  0.000000  0.500000  1
  Cd  Cd14  1  0.512550  0.500000  0.500000  1
  Cd  Cd15  1  0.487450  0.000000  0.000000  1
  N  N16  1  0.998462  0.599685  0.127805  1
  N  N17  1  0.998462  0.400315  0.872195  1
  N  N18  1  0.001538  0.099685  0.372195  1
  N  N19  1  0.001538  0.900315  0.627805  1
  N  N20  1  0.501145  0.831283  0.359006  1
  N  N21  1  0.501145  0.168717  0.640994  1
  N  N22  1  0.498855  0.331283  0.140994  1
  N  N23  1  0.498855  0.668717  0.859006  1
