# generated using pymatgen
data_Ta12AlGa7(FeC)4
_symmetry_space_group_name_H-M   'P 1'
_cell_length_a   8.18901335
_cell_length_b   8.18901478
_cell_length_c   8.18901340
_cell_angle_alpha   60.03251239
_cell_angle_beta   60.03250360
_cell_angle_gamma   60.03250778
_symmetry_Int_Tables_number   1
_chemical_formula_structural   Ta12AlGa7(FeC)4
_chemical_formula_sum   'Ta12 Al1 Ga7 Fe4 C4'
_cell_volume   388.59725187
_cell_formula_units_Z   1
loop_
 _symmetry_equiv_pos_site_id
 _symmetry_equiv_pos_as_xyz
  1  'x, y, z'
loop_
 _atom_site_type_symbol
 _atom_site_label
 _atom_site_symmetry_multiplicity
 _atom_site_fract_x
 _atom_site_fract_y
 _atom_site_fract_z
 _atom_site_occupancy
  Ta  Ta0  1  0.555585  0.944568  0.555585  1
  Ta  Ta1  1  0.305434  0.694941  0.694941  1
  Ta  Ta2  1  0.692168  0.306258  0.306258  1
  Ta  Ta3  1  0.306258  0.692168  0.306258  1
  Ta  Ta4  1  0.694941  0.694941  0.305434  1
  Ta  Ta5  1  0.306258  0.306258  0.692168  1
  Ta  Ta6  1  0.555585  0.555585  0.944568  1
  Ta  Ta7  1  0.944568  0.555585  0.555585  1
  Ta  Ta8  1  0.555581  0.944444  0.944444  1
  Ta  Ta9  1  0.944444  0.944444  0.555581  1
  Ta  Ta10  1  0.694941  0.305434  0.694941  1
  Ta  Ta11  1  0.944444  0.555581  0.944444  1
  Al  Al12  1  0.331149  0.331149  0.331149  1
  Ga  Ga13  1  0.916263  0.916263  0.916263  1
  Ga  Ga14  1  0.998436  0.334020  0.334020  1
  Ga  Ga15  1  0.334020  0.998436  0.334020  1
  Ga  Ga16  1  0.334020  0.334020  0.998436  1
  Ga  Ga17  1  0.916414  0.251297  0.916414  1
  Ga  Ga18  1  0.916414  0.916414  0.251297  1
  Ga  Ga19  1  0.251297  0.916414  0.916414  1
  Fe  Fe20  1  0.125033  0.125033  0.125033  1
  Fe  Fe21  1  0.624566  0.125733  0.125733  1
  Fe  Fe22  1  0.125733  0.624566  0.125733  1
  Fe  Fe23  1  0.125733  0.125733  0.624566  1
  C  C24  1  0.624924  0.624924  0.624924  1
  C  C25  1  0.124987  0.625403  0.625403  1
  C  C26  1  0.625403  0.124987  0.625403  1
  C  C27  1  0.625403  0.625403  0.124987  1
