# generated using pymatgen
data_Dy2Er3Sc3As3P9Ir16
_symmetry_space_group_name_H-M   'P 1'
_cell_length_a   12.85021200
_cell_length_b   12.85021197
_cell_length_c   3.96063400
_cell_angle_alpha   90.00000000
_cell_angle_beta   90.00000000
_cell_angle_gamma   120.00000008
_symmetry_Int_Tables_number   1
_chemical_formula_structural   Dy2Er3Sc3As3P9Ir16
_chemical_formula_sum   'Dy2 Er3 Sc3 As3 P9 Ir16'
_cell_volume   566.39045632
_cell_formula_units_Z   1
loop_
 _symmetry_equiv_pos_site_id
 _symmetry_equiv_pos_as_xyz
  1  'x, y, z'
loop_
 _atom_site_type_symbol
 _atom_site_label
 _atom_site_symmetry_multiplicity
 _atom_site_fract_x
 _atom_site_fract_y
 _atom_site_fract_z
 _atom_site_occupancy
  Dy  Dy0  1  0.333333  0.666667  0.500000  1
  Dy  Dy1  1  0.666667  0.333333  0.500000  1
  Er  Er2  1  0.000000  0.814264  0.000000  1
  Er  Er3  1  0.185736  0.185736  0.000000  1
  Er  Er4  1  0.814264  0.000000  0.000000  1
  Sc  Sc5  1  0.000000  0.442419  0.500000  1
  Sc  Sc6  1  0.557581  0.557581  0.500000  1
  Sc  Sc7  1  0.442419  0.000000  0.500000  1
  As  As8  1  0.000000  0.645426  0.500000  1
  As  As9  1  0.354574  0.354574  0.500000  1
  As  As10  1  0.645426  0.000000  0.500000  1
  P  P11  1  0.517029  0.686991  0.000000  1
  P  P12  1  0.313009  0.830039  0.000000  1
  P  P13  1  0.169961  0.482971  0.000000  1
  P  P14  1  0.482971  0.169961  0.000000  1
  P  P15  1  0.686991  0.517029  0.000000  1
  P  P16  1  0.830039  0.313009  0.000000  1
  P  P17  1  0.000000  0.176332  0.500000  1
  P  P18  1  0.823668  0.823668  0.500000  1
  P  P19  1  0.176332  0.000000  0.500000  1
  Ir  Ir20  1  0.506918  0.864754  0.000000  1
  Ir  Ir21  1  0.135246  0.642165  0.000000  1
  Ir  Ir22  1  0.357835  0.493082  0.000000  1
  Ir  Ir23  1  0.493082  0.357835  0.000000  1
  Ir  Ir24  1  0.864754  0.506918  0.000000  1
  Ir  Ir25  1  0.642165  0.135246  0.000000  1
  Ir  Ir26  1  0.000000  0.275831  0.000000  1
  Ir  Ir27  1  0.724169  0.724169  0.000000  1
  Ir  Ir28  1  0.275831  0.000000  0.000000  1
  Ir  Ir29  1  0.625951  0.800457  0.500000  1
  Ir  Ir30  1  0.199543  0.825495  0.500000  1
  Ir  Ir31  1  0.174505  0.374049  0.500000  1
  Ir  Ir32  1  0.374049  0.174505  0.500000  1
  Ir  Ir33  1  0.800457  0.625951  0.500000  1
  Ir  Ir34  1  0.825495  0.199543  0.500000  1
  Ir  Ir35  1  0.000000  0.000000  0.500000  1
