# generated using pymatgen
data_Eu4Ru
_symmetry_space_group_name_H-M   'P 1'
_cell_length_a   7.71267319
_cell_length_b   7.71267381
_cell_length_c   7.71267410
_cell_angle_alpha   107.74815055
_cell_angle_beta   107.74815367
_cell_angle_gamma   112.97520682
_symmetry_Int_Tables_number   1
_chemical_formula_structural   Eu4Ru
_chemical_formula_sum   'Eu8 Ru2'
_cell_volume   352.18031849
_cell_formula_units_Z   2
loop_
 _symmetry_equiv_pos_site_id
 _symmetry_equiv_pos_as_xyz
  1  'x, y, z'
loop_
 _atom_site_type_symbol
 _atom_site_label
 _atom_site_symmetry_multiplicity
 _atom_site_fract_x
 _atom_site_fract_y
 _atom_site_fract_z
 _atom_site_occupancy
  Eu  Eu0  1  0.821172  0.017398  0.196225  1
  Eu  Eu1  1  0.428828  0.125052  0.696225  1
  Eu  Eu2  1  0.874948  0.571172  0.303775  1
  Eu  Eu3  1  0.821172  0.624948  0.803775  1
  Eu  Eu4  1  0.375052  0.178828  0.196225  1
  Eu  Eu5  1  0.428828  0.732602  0.303775  1
  Eu  Eu6  1  0.267398  0.571172  0.696225  1
  Eu  Eu7  1  0.982602  0.178828  0.803775  1
  Ru  Ru8  1  0.500000  0.500000  0.000000  1
  Ru  Ru9  1  0.750000  0.250000  0.500000  1
