# generated using pymatgen
data_Li7Mg5Ru8
_symmetry_space_group_name_H-M   'P 1'
_cell_length_a   6.70142538
_cell_length_b   6.80326984
_cell_length_c   6.85301621
_cell_angle_alpha   89.61912414
_cell_angle_beta   89.63564221
_cell_angle_gamma   89.94442451
_symmetry_Int_Tables_number   1
_chemical_formula_structural   Li7Mg5Ru8
_chemical_formula_sum   'Li7 Mg5 Ru8'
_cell_volume   312.42665407
_cell_formula_units_Z   1
loop_
 _symmetry_equiv_pos_site_id
 _symmetry_equiv_pos_as_xyz
  1  'x, y, z'
loop_
 _atom_site_type_symbol
 _atom_site_label
 _atom_site_symmetry_multiplicity
 _atom_site_fract_x
 _atom_site_fract_y
 _atom_site_fract_z
 _atom_site_occupancy
  Li  Li0  1  0.716681  0.048552  0.867100  1
  Li  Li1  1  0.536383  0.623701  0.299738  1
  Li  Li2  1  0.287990  0.548724  0.623905  1
  Li  Li3  1  0.964267  0.379875  0.803331  1
  Li  Li4  1  0.793973  0.947703  0.378320  1
  Li  Li5  1  0.037589  0.874627  0.699243  1
  Li  Li6  1  0.208059  0.452045  0.126893  1
  Mg  Mg7  1  0.467726  0.120508  0.201546  1
  Mg  Mg8  1  0.871977  0.713737  0.038845  1
  Mg  Mg9  1  0.631873  0.290465  0.546862  1
  Mg  Mg10  1  0.369888  0.781391  0.954587  1
  Mg  Mg11  1  0.117466  0.212260  0.466185  1
  Ru  Ru12  1  0.173682  0.828165  0.325327  1
  Ru  Ru13  1  0.326809  0.170553  0.825747  1
  Ru  Ru14  1  0.823415  0.328019  0.174488  1
  Ru  Ru15  1  0.673667  0.673661  0.671922  1
  Ru  Ru16  1  0.923159  0.576707  0.421148  1
  Ru  Ru17  1  0.576401  0.424745  0.920917  1
  Ru  Ru18  1  0.423614  0.926451  0.574640  1
  Ru  Ru19  1  0.075377  0.078107  0.079253  1
