# generated using pymatgen
data_Nd6Er10Cd4NiRu3
_symmetry_space_group_name_H-M   'P 1'
_cell_length_a   9.60939825
_cell_length_b   9.74170948
_cell_length_c   9.74171000
_cell_angle_alpha   59.99999823
_cell_angle_beta   59.54347042
_cell_angle_gamma   59.54346993
_symmetry_Int_Tables_number   1
_chemical_formula_structural   Nd6Er10Cd4NiRu3
_chemical_formula_sum   'Nd6 Er10 Cd4 Ni1 Ru3'
_cell_volume   640.35383033
_cell_formula_units_Z   1
loop_
 _symmetry_equiv_pos_site_id
 _symmetry_equiv_pos_as_xyz
  1  'x, y, z'
loop_
 _atom_site_type_symbol
 _atom_site_label
 _atom_site_symmetry_multiplicity
 _atom_site_fract_x
 _atom_site_fract_y
 _atom_site_fract_z
 _atom_site_occupancy
  Nd  Nd0  1  0.189127  0.809768  0.809768  1
  Nd  Nd1  1  0.806792  0.190260  0.190260  1
  Nd  Nd2  1  0.806792  0.190260  0.812688  1
  Nd  Nd3  1  0.189127  0.809768  0.191337  1
  Nd  Nd4  1  0.806792  0.812688  0.190260  1
  Nd  Nd5  1  0.189127  0.191337  0.809768  1
  Er  Er6  1  0.597686  0.594374  0.594374  1
  Er  Er7  1  0.597686  0.594374  0.213565  1
  Er  Er8  1  0.597686  0.213565  0.594374  1
  Er  Er9  1  0.216933  0.594356  0.594356  1
  Er  Er10  1  0.063066  0.436287  0.436287  1
  Er  Er11  1  0.434936  0.064575  0.064575  1
  Er  Er12  1  0.434936  0.064575  0.435913  1
  Er  Er13  1  0.063066  0.436287  0.064361  1
  Er  Er14  1  0.434936  0.435913  0.064575  1
  Er  Er15  1  0.063066  0.064361  0.436287  1
  Cd  Cd16  1  0.828781  0.828745  0.828745  1
  Cd  Cd17  1  0.828781  0.828745  0.513730  1
  Cd  Cd18  1  0.828781  0.513730  0.828745  1
  Cd  Cd19  1  0.511498  0.829500  0.829500  1
  Ni  Ni20  1  0.828070  0.390644  0.390644  1
  Ru  Ru21  1  0.394111  0.388496  0.388496  1
  Ru  Ru22  1  0.394111  0.388496  0.828896  1
  Ru  Ru23  1  0.394111  0.828896  0.388496  1
