# generated using pymatgen
data_Yb6Er2Si12IrAu3
_symmetry_space_group_name_H-M   'P 1'
_cell_length_a   8.26899100
_cell_length_b   8.26883977
_cell_length_c   8.18985400
_cell_angle_alpha   89.99971182
_cell_angle_beta   90.00028543
_cell_angle_gamma   120.00233232
_symmetry_Int_Tables_number   1
_chemical_formula_structural   Yb6Er2Si12IrAu3
_chemical_formula_sum   'Yb6 Er2 Si12 Ir1 Au3'
_cell_volume   484.94633326
_cell_formula_units_Z   1
loop_
 _symmetry_equiv_pos_site_id
 _symmetry_equiv_pos_as_xyz
  1  'x, y, z'
loop_
 _atom_site_type_symbol
 _atom_site_label
 _atom_site_symmetry_multiplicity
 _atom_site_fract_x
 _atom_site_fract_y
 _atom_site_fract_z
 _atom_site_occupancy
  Yb  Yb0  1  0.498402  0.996792  0.244519  1
  Yb  Yb1  1  0.495436  0.990861  0.755661  1
  Yb  Yb2  1  0.003210  0.501600  0.244518  1
  Yb  Yb3  1  0.009142  0.504565  0.755662  1
  Yb  Yb4  1  0.498399  0.501600  0.244507  1
  Yb  Yb5  1  0.495441  0.504559  0.755669  1
  Er  Er6  1  0.000003  0.000000  0.247849  1
  Er  Er7  1  0.000007  0.000000  0.751766  1
  Si  Si8  1  0.167967  0.335963  0.001892  1
  Si  Si9  1  0.840917  0.681835  0.998410  1
  Si  Si10  1  0.664031  0.832026  0.001891  1
  Si  Si11  1  0.838189  0.676369  0.502105  1
  Si  Si12  1  0.318168  0.159085  0.998410  1
  Si  Si13  1  0.160753  0.321514  0.497888  1
  Si  Si14  1  0.167975  0.832020  0.001891  1
  Si  Si15  1  0.323631  0.161813  0.502104  1
  Si  Si16  1  0.840915  0.159087  0.998412  1
  Si  Si17  1  0.678485  0.839244  0.497885  1
  Si  Si18  1  0.838200  0.161803  0.502109  1
  Si  Si19  1  0.160735  0.839261  0.497892  1
  Ir  Ir20  1  0.333339  0.666663  0.002551  1
  Au  Au21  1  0.666665  0.333336  0.997442  1
  Au  Au22  1  0.666665  0.333324  0.503055  1
  Au  Au23  1  0.333329  0.666678  0.495916  1
