# generated using pymatgen
data_Tb12InCo4Au
_symmetry_space_group_name_H-M   'P 1'
_cell_length_a   8.38794261
_cell_length_b   8.38794312
_cell_length_c   8.38794260
_cell_angle_alpha   111.21063382
_cell_angle_beta   110.24965290
_cell_angle_gamma   106.98318920
_symmetry_Int_Tables_number   1
_chemical_formula_structural   Tb12InCo4Au
_chemical_formula_sum   'Tb12 In1 Co4 Au1'
_cell_volume   453.62937229
_cell_formula_units_Z   1
loop_
 _symmetry_equiv_pos_site_id
 _symmetry_equiv_pos_as_xyz
  1  'x, y, z'
loop_
 _atom_site_type_symbol
 _atom_site_label
 _atom_site_symmetry_multiplicity
 _atom_site_fract_x
 _atom_site_fract_y
 _atom_site_fract_z
 _atom_site_occupancy
  Tb  Tb0  1  0.423183  0.220021  0.203162  1
  Tb  Tb1  1  0.576817  0.779979  0.796838  1
  Tb  Tb2  1  0.016858  0.220021  0.796838  1
  Tb  Tb3  1  0.983142  0.779979  0.203162  1
  Tb  Tb4  1  0.185534  0.292342  0.477876  1
  Tb  Tb5  1  0.814466  0.707658  0.522124  1
  Tb  Tb6  1  0.185534  0.707658  0.893191  1
  Tb  Tb7  1  0.814466  0.292342  0.106809  1
  Tb  Tb8  1  0.317027  0.622250  0.305223  1
  Tb  Tb9  1  0.682973  0.377750  0.694777  1
  Tb  Tb10  1  0.317027  0.011805  0.694777  1
  Tb  Tb11  1  0.682973  0.988195  0.305223  1
  In  In12  1  0.500000  0.500000  0.000000  1
  Co  Co13  1  0.377196  0.000000  0.377196  1
  Co  Co14  1  0.622804  0.000000  0.622804  1
  Co  Co15  1  0.111979  0.611979  0.500000  1
  Co  Co16  1  0.888021  0.388021  0.500000  1
  Au  Au17  1  0.000000  0.000000  0.000000  1
