# generated using pymatgen
data_Hf16Co3TcNiRh3
_symmetry_space_group_name_H-M   'P 1'
_cell_length_a   8.62973818
_cell_length_b   8.59984921
_cell_length_c   8.59985048
_cell_angle_alpha   60.00966538
_cell_angle_beta   60.08269251
_cell_angle_gamma   60.08269935
_symmetry_Int_Tables_number   1
_chemical_formula_structural   Hf16Co3TcNiRh3
_chemical_formula_sum   'Hf16 Co3 Tc1 Ni1 Rh3'
_cell_volume   451.89534486
_cell_formula_units_Z   1
loop_
 _symmetry_equiv_pos_site_id
 _symmetry_equiv_pos_as_xyz
  1  'x, y, z'
loop_
 _atom_site_type_symbol
 _atom_site_label
 _atom_site_symmetry_multiplicity
 _atom_site_fract_x
 _atom_site_fract_y
 _atom_site_fract_z
 _atom_site_occupancy
  Hf  Hf0  1  0.675053  0.109260  0.109260  1
  Hf  Hf1  1  0.105464  0.685624  0.105747  1
  Hf  Hf2  1  0.105464  0.105747  0.685624  1
  Hf  Hf3  1  0.103338  0.103193  0.103193  1
  Hf  Hf4  1  0.314937  0.313865  0.686032  1
  Hf  Hf5  1  0.692522  0.680781  0.313765  1
  Hf  Hf6  1  0.314937  0.686032  0.313865  1
  Hf  Hf7  1  0.692522  0.313765  0.680781  1
  Hf  Hf8  1  0.691922  0.313646  0.313646  1
  Hf  Hf9  1  0.315793  0.685590  0.685590  1
  Hf  Hf10  1  0.945802  0.949297  0.549069  1
  Hf  Hf11  1  0.556245  0.555350  0.944484  1
  Hf  Hf12  1  0.945802  0.549069  0.949297  1
  Hf  Hf13  1  0.556245  0.944484  0.555350  1
  Hf  Hf14  1  0.550037  0.946494  0.946494  1
  Hf  Hf15  1  0.943845  0.554976  0.554976  1
  Co  Co16  1  0.323550  0.891765  0.891765  1
  Co  Co17  1  0.889850  0.319817  0.894822  1
  Co  Co18  1  0.889850  0.894822  0.319817  1
  Tc  Tc19  1  0.999955  0.333178  0.333178  1
  Ni  Ni20  1  0.888911  0.895516  0.895516  1
  Rh  Rh21  1  0.332520  0.994513  0.336607  1
  Rh  Rh22  1  0.332520  0.336607  0.994513  1
  Rh  Rh23  1  0.332915  0.336613  0.336613  1
