# generated using pymatgen
data_Li2La9Pr7(CdIr2)2
_symmetry_space_group_name_H-M   'P 1'
_cell_length_a   10.10653751
_cell_length_b   10.10653708
_cell_length_c   10.08840700
_cell_angle_alpha   60.05932715
_cell_angle_beta   60.05932858
_cell_angle_gamma   60.46734165
_symmetry_Int_Tables_number   1
_chemical_formula_structural   Li2La9Pr7(CdIr2)2
_chemical_formula_sum   'Li2 La9 Pr7 Cd2 Ir4'
_cell_volume   731.83715969
_cell_formula_units_Z   1
loop_
 _symmetry_equiv_pos_site_id
 _symmetry_equiv_pos_as_xyz
  1  'x, y, z'
loop_
 _atom_site_type_symbol
 _atom_site_label
 _atom_site_symmetry_multiplicity
 _atom_site_fract_x
 _atom_site_fract_y
 _atom_site_fract_z
 _atom_site_occupancy
  Li  Li0  1  0.572178  0.572178  0.575698  1
  Li  Li1  1  0.572178  0.572178  0.279944  1
  La  La2  1  0.346859  0.346859  0.348019  1
  La  La3  1  0.346859  0.346859  0.958262  1
  La  La4  1  0.347027  0.962305  0.345333  1
  La  La5  1  0.962305  0.347027  0.345333  1
  La  La6  1  0.810515  0.188712  0.190230  1
  La  La7  1  0.188712  0.810515  0.810544  1
  La  La8  1  0.188712  0.810515  0.190230  1
  La  La9  1  0.810515  0.188712  0.810544  1
  La  La10  1  0.192678  0.192678  0.807322  1
  Pr  Pr11  1  0.813307  0.813307  0.186693  1
  Pr  Pr12  1  0.936722  0.563744  0.563296  1
  Pr  Pr13  1  0.563744  0.936722  0.936238  1
  Pr  Pr14  1  0.563744  0.936722  0.563296  1
  Pr  Pr15  1  0.936722  0.563744  0.936238  1
  Pr  Pr16  1  0.563483  0.563483  0.936517  1
  Pr  Pr17  1  0.937512  0.937512  0.562488  1
  Cd  Cd18  1  0.582874  0.257149  0.579988  1
  Cd  Cd19  1  0.257149  0.582874  0.579988  1
  Ir  Ir20  1  0.141284  0.141284  0.140409  1
  Ir  Ir21  1  0.141284  0.141284  0.577021  1
  Ir  Ir22  1  0.147242  0.576391  0.138183  1
  Ir  Ir23  1  0.576391  0.147242  0.138183  1
