# generated using pymatgen
data_Y5GaSb3
_symmetry_space_group_name_H-M   'P 1'
_cell_length_a   8.01374400
_cell_length_b   15.33942900
_cell_length_c   8.06311600
_cell_angle_alpha   90.00000000
_cell_angle_beta   90.00000000
_cell_angle_gamma   90.00000000
_symmetry_Int_Tables_number   1
_chemical_formula_structural   Y5GaSb3
_chemical_formula_sum   'Y20 Ga4 Sb12'
_cell_volume   991.16867054
_cell_formula_units_Z   4
loop_
 _symmetry_equiv_pos_site_id
 _symmetry_equiv_pos_as_xyz
  1  'x, y, z'
loop_
 _atom_site_type_symbol
 _atom_site_label
 _atom_site_symmetry_multiplicity
 _atom_site_fract_x
 _atom_site_fract_y
 _atom_site_fract_z
 _atom_site_occupancy
  Y  Y0  1  0.223408  0.250000  0.009087  1
  Y  Y1  1  0.105455  0.620693  0.152019  1
  Y  Y2  1  0.105455  0.879307  0.152019  1
  Y  Y3  1  0.557598  0.112402  0.180700  1
  Y  Y4  1  0.557598  0.387598  0.180700  1
  Y  Y5  1  0.057598  0.112402  0.319300  1
  Y  Y6  1  0.057598  0.387598  0.319300  1
  Y  Y7  1  0.605454  0.620693  0.347981  1
  Y  Y8  1  0.605454  0.879307  0.347981  1
  Y  Y9  1  0.723408  0.250000  0.490913  1
  Y  Y10  1  0.276592  0.750000  0.509087  1
  Y  Y11  1  0.394545  0.120693  0.652019  1
  Y  Y12  1  0.394545  0.379307  0.652019  1
  Y  Y13  1  0.942402  0.612402  0.680701  1
  Y  Y14  1  0.942402  0.887598  0.680701  1
  Y  Y15  1  0.442402  0.612402  0.819300  1
  Y  Y16  1  0.442402  0.887598  0.819300  1
  Y  Y17  1  0.894545  0.120693  0.847981  1
  Y  Y18  1  0.894545  0.379307  0.847981  1
  Y  Y19  1  0.776592  0.750000  0.990913  1
  Ga  Ga20  1  0.867151  0.250000  0.145162  1
  Ga  Ga21  1  0.367151  0.250000  0.354838  1
  Ga  Ga22  1  0.632848  0.750000  0.645162  1
  Ga  Ga23  1  0.132848  0.750000  0.854838  1
  Sb  Sb24  1  0.760423  0.545585  0.023584  1
  Sb  Sb25  1  0.760423  0.954415  0.023584  1
  Sb  Sb26  1  0.405987  0.750000  0.123255  1
  Sb  Sb27  1  0.905987  0.750000  0.376745  1
  Sb  Sb28  1  0.260423  0.545585  0.476416  1
  Sb  Sb29  1  0.260423  0.954415  0.476416  1
  Sb  Sb30  1  0.739577  0.045585  0.523584  1
  Sb  Sb31  1  0.739577  0.454415  0.523584  1
  Sb  Sb32  1  0.094013  0.250000  0.623255  1
  Sb  Sb33  1  0.594013  0.250000  0.876745  1
  Sb  Sb34  1  0.239576  0.045585  0.976416  1
  Sb  Sb35  1  0.239576  0.454415  0.976416  1
