# generated using pymatgen
data_Dy19YCd6IrRu
_symmetry_space_group_name_H-M   'P 1'
_cell_length_a   9.61458301
_cell_length_b   9.61392141
_cell_length_c   9.86906800
_cell_angle_alpha   90.00000000
_cell_angle_beta   90.00000000
_cell_angle_gamma   119.99772560
_symmetry_Int_Tables_number   1
_chemical_formula_structural   Dy19YCd6IrRu
_chemical_formula_sum   'Dy19 Y1 Cd6 Ir1 Ru1'
_cell_volume   790.03757415
_cell_formula_units_Z   1
loop_
 _symmetry_equiv_pos_site_id
 _symmetry_equiv_pos_as_xyz
  1  'x, y, z'
loop_
 _atom_site_type_symbol
 _atom_site_label
 _atom_site_symmetry_multiplicity
 _atom_site_fract_x
 _atom_site_fract_y
 _atom_site_fract_z
 _atom_site_occupancy
  Dy  Dy0  1  0.000008  0.000004  0.499621  1
  Dy  Dy1  1  0.000008  0.000004  0.000379  1
  Dy  Dy2  1  0.209700  0.790614  0.440906  1
  Dy  Dy3  1  0.209700  0.419085  0.440906  1
  Dy  Dy4  1  0.580954  0.790477  0.440804  1
  Dy  Dy5  1  0.790087  0.209671  0.560214  1
  Dy  Dy6  1  0.790087  0.580413  0.560214  1
  Dy  Dy7  1  0.419717  0.209857  0.560043  1
  Dy  Dy8  1  0.790087  0.209671  0.939786  1
  Dy  Dy9  1  0.790087  0.580413  0.939786  1
  Dy  Dy10  1  0.419717  0.209857  0.939957  1
  Dy  Dy11  1  0.209700  0.790614  0.059094  1
  Dy  Dy12  1  0.209700  0.419085  0.059094  1
  Dy  Dy13  1  0.580954  0.790477  0.059196  1
  Dy  Dy14  1  0.541266  0.458754  0.250000  1
  Dy  Dy15  1  0.541266  0.082512  0.250000  1
  Dy  Dy16  1  0.458701  0.541230  0.750000  1
  Dy  Dy17  1  0.458701  0.917471  0.750000  1
  Dy  Dy18  1  0.082547  0.541274  0.750000  1
  Y  Y19  1  0.917029  0.458514  0.250000  1
  Cd  Cd20  1  0.885346  0.114454  0.250000  1
  Cd  Cd21  1  0.885346  0.770892  0.250000  1
  Cd  Cd22  1  0.229287  0.114643  0.250000  1
  Cd  Cd23  1  0.114582  0.885345  0.750000  1
  Cd  Cd24  1  0.114582  0.229236  0.750000  1
  Cd  Cd25  1  0.770781  0.885390  0.750000  1
  Ir  Ir26  1  0.333470  0.666735  0.250000  1
  Ru  Ru27  1  0.666600  0.333299  0.750000  1
