# generated using pymatgen
data_Sc4AlMo3Os4
_symmetry_space_group_name_H-M   'P 1'
_cell_length_a   5.23734744
_cell_length_b   5.25990371
_cell_length_c   8.69315200
_cell_angle_alpha   90.00000000
_cell_angle_beta   90.00000000
_cell_angle_gamma   119.33321746
_symmetry_Int_Tables_number   1
_chemical_formula_structural   Sc4AlMo3Os4
_chemical_formula_sum   'Sc4 Al1 Mo3 Os4'
_cell_volume   208.77382416
_cell_formula_units_Z   1
loop_
 _symmetry_equiv_pos_site_id
 _symmetry_equiv_pos_as_xyz
  1  'x, y, z'
loop_
 _atom_site_type_symbol
 _atom_site_label
 _atom_site_symmetry_multiplicity
 _atom_site_fract_x
 _atom_site_fract_y
 _atom_site_fract_z
 _atom_site_occupancy
  Sc  Sc0  1  0.337185  0.671484  0.441508  1
  Sc  Sc1  1  0.668307  0.331969  0.562234  1
  Sc  Sc2  1  0.668307  0.331969  0.937766  1
  Sc  Sc3  1  0.337185  0.671484  0.058492  1
  Al  Al4  1  0.832041  0.660026  0.250000  1
  Mo  Mo5  1  0.167038  0.333386  0.750000  1
  Mo  Mo6  1  0.166257  0.826565  0.750000  1
  Mo  Mo7  1  0.340840  0.163434  0.250000  1
  Os  Os8  1  0.649405  0.822569  0.750000  1
  Os  Os9  1  0.009351  0.011124  0.004673  1
  Os  Os10  1  0.814733  0.164866  0.250000  1
  Os  Os11  1  0.009351  0.011124  0.495327  1
