# generated using pymatgen
data_Zr6Zn5PtN2
_symmetry_space_group_name_H-M   'P 1'
_cell_length_a   8.60834224
_cell_length_b   8.60836182
_cell_length_c   8.56931800
_cell_angle_alpha   60.14990308
_cell_angle_beta   60.14964396
_cell_angle_gamma   60.24495896
_symmetry_Int_Tables_number   1
_chemical_formula_structural   Zr6Zn5PtN2
_chemical_formula_sum   'Zr12 Zn10 Pt2 N4'
_cell_volume   450.87064050
_cell_formula_units_Z   2
loop_
 _symmetry_equiv_pos_site_id
 _symmetry_equiv_pos_as_xyz
  1  'x, y, z'
loop_
 _atom_site_type_symbol
 _atom_site_label
 _atom_site_symmetry_multiplicity
 _atom_site_fract_x
 _atom_site_fract_y
 _atom_site_fract_z
 _atom_site_occupancy
  Zr  Zr0  1  0.812109  0.183986  0.192318  1
  Zr  Zr1  1  0.183986  0.812108  0.192318  1
  Zr  Zr2  1  0.812300  0.812300  0.187701  1
  Zr  Zr3  1  0.183987  0.812108  0.811588  1
  Zr  Zr4  1  0.812106  0.183986  0.811590  1
  Zr  Zr5  1  0.190768  0.190767  0.809235  1
  Zr  Zr6  1  0.437891  0.066014  0.057682  1
  Zr  Zr7  1  0.066014  0.437892  0.057682  1
  Zr  Zr8  1  0.437700  0.437700  0.062299  1
  Zr  Zr9  1  0.066013  0.437892  0.438412  1
  Zr  Zr10  1  0.437894  0.066014  0.438410  1
  Zr  Zr11  1  0.059232  0.059233  0.440765  1
  Zn  Zn12  1  0.419711  0.419713  0.743577  1
  Zn  Zn13  1  0.419714  0.419714  0.416998  1
  Zn  Zn14  1  0.747064  0.418612  0.417161  1
  Zn  Zn15  1  0.418612  0.747065  0.417161  1
  Zn  Zn16  1  0.830289  0.830287  0.506423  1
  Zn  Zn17  1  0.830286  0.830286  0.833002  1
  Zn  Zn18  1  0.502936  0.831388  0.832839  1
  Zn  Zn19  1  0.831388  0.502935  0.832839  1
  Zn  Zn20  1  0.625000  0.625000  0.125000  1
  Zn  Zn21  1  0.625000  0.625000  0.625000  1
  Pt  Pt22  1  0.125000  0.625000  0.625000  1
  Pt  Pt23  1  0.625000  0.125000  0.625000  1
  N  N24  1  0.125000  0.125000  0.625000  1
  N  N25  1  0.125000  0.125000  0.125000  1
  N  N26  1  0.625000  0.125000  0.125000  1
  N  N27  1  0.125000  0.625000  0.125000  1
