# generated using pymatgen
data_Li3Mg(SbPd5)2
_symmetry_space_group_name_H-M   'P 1'
_cell_length_a   4.16569400
_cell_length_b   5.51036292
_cell_length_c   10.88485790
_cell_angle_alpha   89.87644254
_cell_angle_beta   90.00000000
_cell_angle_gamma   90.00000000
_symmetry_Int_Tables_number   1
_chemical_formula_structural   Li3Mg(SbPd5)2
_chemical_formula_sum   'Li3 Mg1 Sb2 Pd10'
_cell_volume   249.85573490
_cell_formula_units_Z   1
loop_
 _symmetry_equiv_pos_site_id
 _symmetry_equiv_pos_as_xyz
  1  'x, y, z'
loop_
 _atom_site_type_symbol
 _atom_site_label
 _atom_site_symmetry_multiplicity
 _atom_site_fract_x
 _atom_site_fract_y
 _atom_site_fract_z
 _atom_site_occupancy
  Li  Li0  1  0.500000  0.178649  0.137271  1
  Li  Li1  1  0.500000  0.821855  0.859666  1
  Li  Li2  1  0.500000  0.322439  0.643371  1
  Mg  Mg3  1  0.500000  0.673660  0.357837  1
  Sb  Sb4  1  0.000000  0.008774  0.506072  1
  Sb  Sb5  1  0.000000  0.499848  0.997427  1
  Pd  Pd6  1  0.500000  0.192777  0.384294  1
  Pd  Pd7  1  0.500000  0.798717  0.616035  1
  Pd  Pd8  1  0.500000  0.298149  0.884544  1
  Pd  Pd9  1  0.500000  0.703138  0.111666  1
  Pd  Pd10  1  0.000000  0.426997  0.240955  1
  Pd  Pd11  1  0.000000  0.571003  0.755562  1
  Pd  Pd12  1  0.000000  0.070250  0.746950  1
  Pd  Pd13  1  0.000000  0.930784  0.256846  1
  Pd  Pd14  1  0.000000  0.000358  0.000964  1
  Pd  Pd15  1  0.000000  0.502603  0.500541  1
