# generated using pymatgen
data_AcPrZn5Si
_symmetry_space_group_name_H-M   'P 1'
_cell_length_a   8.49675808
_cell_length_b   8.49675811
_cell_length_c   8.95142600
_cell_angle_alpha   90.00000000
_cell_angle_beta   90.00000000
_cell_angle_gamma   148.98243734
_symmetry_Int_Tables_number   1
_chemical_formula_structural   AcPrZn5Si
_chemical_formula_sum   'Ac2 Pr2 Zn10 Si2'
_cell_volume   333.01174153
_cell_formula_units_Z   2
loop_
 _symmetry_equiv_pos_site_id
 _symmetry_equiv_pos_as_xyz
  1  'x, y, z'
loop_
 _atom_site_type_symbol
 _atom_site_label
 _atom_site_symmetry_multiplicity
 _atom_site_fract_x
 _atom_site_fract_y
 _atom_site_fract_z
 _atom_site_occupancy
  Ac  Ac0  1  0.000000  0.000000  0.500000  1
  Ac  Ac1  1  0.000000  0.000000  0.000000  1
  Pr  Pr2  1  0.206778  0.793222  0.250000  1
  Pr  Pr3  1  0.793222  0.206778  0.750000  1
  Zn  Zn4  1  0.812559  0.187441  0.392205  1
  Zn  Zn5  1  0.187441  0.812559  0.607795  1
  Zn  Zn6  1  0.812559  0.187441  0.107795  1
  Zn  Zn7  1  0.187441  0.812559  0.892205  1
  Zn  Zn8  1  0.653235  0.346765  0.478009  1
  Zn  Zn9  1  0.346765  0.653235  0.521991  1
  Zn  Zn10  1  0.653235  0.346765  0.021991  1
  Zn  Zn11  1  0.346765  0.653235  0.978009  1
  Zn  Zn12  1  0.407049  0.592951  0.250000  1
  Zn  Zn13  1  0.592951  0.407049  0.750000  1
  Si  Si14  1  0.562941  0.437059  0.250000  1
  Si  Si15  1  0.437059  0.562941  0.750000  1
