# generated using pymatgen
data_Dy8In2HgPt
_symmetry_space_group_name_H-M   'P 1'
_cell_length_a   10.41622693
_cell_length_b   10.41622154
_cell_length_c   7.03338984
_cell_angle_alpha   90.07242280
_cell_angle_beta   89.92757371
_cell_angle_gamma   119.86896348
_symmetry_Int_Tables_number   1
_chemical_formula_structural   Dy8In2HgPt
_chemical_formula_sum   'Dy16 In4 Hg2 Pt2'
_cell_volume   661.74007065
_cell_formula_units_Z   2
loop_
 _symmetry_equiv_pos_site_id
 _symmetry_equiv_pos_as_xyz
  1  'x, y, z'
loop_
 _atom_site_type_symbol
 _atom_site_label
 _atom_site_symmetry_multiplicity
 _atom_site_fract_x
 _atom_site_fract_y
 _atom_site_fract_z
 _atom_site_occupancy
  Dy  Dy0  1  0.528776  0.063873  0.516803  1
  Dy  Dy1  1  0.936127  0.471223  0.516803  1
  Dy  Dy2  1  0.533158  0.466843  0.517378  1
  Dy  Dy3  1  0.468934  0.936029  0.014026  1
  Dy  Dy4  1  0.063971  0.531067  0.014026  1
  Dy  Dy5  1  0.467515  0.532484  0.016926  1
  Dy  Dy6  1  0.176867  0.344965  0.724259  1
  Dy  Dy7  1  0.655035  0.823133  0.724259  1
  Dy  Dy8  1  0.171107  0.828893  0.726345  1
  Dy  Dy9  1  0.825350  0.650137  0.213013  1
  Dy  Dy10  1  0.349863  0.174650  0.213013  1
  Dy  Dy11  1  0.824738  0.175262  0.224224  1
  Dy  Dy12  1  0.664307  0.335693  0.888319  1
  Dy  Dy13  1  0.333139  0.666861  0.390744  1
  Dy  Dy14  1  0.000530  0.999470  0.497927  1
  Dy  Dy15  1  0.999779  0.000221  0.000904  1
  In  In16  1  0.836000  0.163999  0.760079  1
  In  In17  1  0.163250  0.326682  0.260746  1
  In  In18  1  0.673319  0.836751  0.260746  1
  In  In19  1  0.163259  0.836742  0.260830  1
  Hg  Hg20  1  0.836022  0.670584  0.765574  1
  Hg  Hg21  1  0.329415  0.163977  0.765574  1
  Pt  Pt22  1  0.666276  0.333724  0.286250  1
  Pt  Pt23  1  0.333262  0.666738  0.785432  1
