# generated using pymatgen
data_Li2PrY5(Co4P3)4
_symmetry_space_group_name_H-M   'P 1'
_cell_length_a   3.73392600
_cell_length_b   10.60408000
_cell_length_c   12.21911800
_cell_angle_alpha   90.00000000
_cell_angle_beta   90.00000000
_cell_angle_gamma   90.00000000
_symmetry_Int_Tables_number   1
_chemical_formula_structural   Li2PrY5(Co4P3)4
_chemical_formula_sum   'Li2 Pr1 Y5 Co16 P12'
_cell_volume   483.81414456
_cell_formula_units_Z   1
loop_
 _symmetry_equiv_pos_site_id
 _symmetry_equiv_pos_as_xyz
  1  'x, y, z'
loop_
 _atom_site_type_symbol
 _atom_site_label
 _atom_site_symmetry_multiplicity
 _atom_site_fract_x
 _atom_site_fract_y
 _atom_site_fract_z
 _atom_site_occupancy
  Li  Li0  1  0.500000  0.500000  0.150207  1
  Li  Li1  1  0.000000  0.000000  0.847814  1
  Pr  Pr2  1  0.000000  0.500000  0.523791  1
  Y  Y3  1  0.500000  0.000000  0.476881  1
  Y  Y4  1  0.500000  0.819803  0.205696  1
  Y  Y5  1  0.500000  0.180197  0.205696  1
  Y  Y6  1  0.000000  0.680882  0.794998  1
  Y  Y7  1  0.000000  0.319118  0.794998  1
  Co  Co8  1  0.500000  0.500000  0.707346  1
  Co  Co9  1  0.000000  0.000000  0.295370  1
  Co  Co10  1  0.000000  0.500000  0.987749  1
  Co  Co11  1  0.500000  0.000000  0.012983  1
  Co  Co12  1  0.500000  0.332508  0.997011  1
  Co  Co13  1  0.500000  0.667492  0.997011  1
  Co  Co14  1  0.000000  0.166799  0.003057  1
  Co  Co15  1  0.000000  0.833201  0.003057  1
  Co  Co16  1  0.500000  0.293232  0.430197  1
  Co  Co17  1  0.500000  0.706768  0.430197  1
  Co  Co18  1  0.000000  0.200756  0.569413  1
  Co  Co19  1  0.000000  0.799244  0.569413  1
  Co  Co20  1  0.500000  0.879905  0.707911  1
  Co  Co21  1  0.500000  0.120095  0.707911  1
  Co  Co22  1  0.000000  0.621901  0.291511  1
  Co  Co23  1  0.000000  0.378099  0.291511  1
  P  P24  1  0.500000  0.500000  0.886377  1
  P  P25  1  0.000000  0.000000  0.114802  1
  P  P26  1  0.500000  0.500000  0.340791  1
  P  P27  1  0.000000  0.000000  0.654800  1
  P  P28  1  0.500000  0.305233  0.617043  1
  P  P29  1  0.500000  0.694767  0.617043  1
  P  P30  1  0.000000  0.190017  0.383820  1
  P  P31  1  0.000000  0.809983  0.383820  1
  P  P32  1  0.500000  0.843856  0.894080  1
  P  P33  1  0.500000  0.156144  0.894080  1
  P  P34  1  0.000000  0.657119  0.105806  1
  P  P35  1  0.000000  0.342881  0.105806  1
