# generated using pymatgen
data_Tb6Ho3TmSn6
_symmetry_space_group_name_H-M   'P 1'
_cell_length_a   8.98468200
_cell_length_b   8.98468212
_cell_length_c   6.54561200
_cell_angle_alpha   90.00000000
_cell_angle_beta   90.00000000
_cell_angle_gamma   119.99999954
_symmetry_Int_Tables_number   1
_chemical_formula_structural   Tb6Ho3TmSn6
_chemical_formula_sum   'Tb6 Ho3 Tm1 Sn6'
_cell_volume   457.60031948
_cell_formula_units_Z   1
loop_
 _symmetry_equiv_pos_site_id
 _symmetry_equiv_pos_as_xyz
  1  'x, y, z'
loop_
 _atom_site_type_symbol
 _atom_site_label
 _atom_site_symmetry_multiplicity
 _atom_site_fract_x
 _atom_site_fract_y
 _atom_site_fract_z
 _atom_site_occupancy
  Tb  Tb0  1  0.000031  0.760871  0.749979  1
  Tb  Tb1  1  0.000031  0.239161  0.250021  1
  Tb  Tb2  1  0.760839  0.760871  0.250021  1
  Tb  Tb3  1  0.760839  0.999969  0.749979  1
  Tb  Tb4  1  0.239129  0.239161  0.749979  1
  Tb  Tb5  1  0.239129  0.999969  0.250021  1
  Ho  Ho6  1  0.666667  0.333333  0.000000  1
  Ho  Ho7  1  0.666667  0.333333  0.500000  1
  Ho  Ho8  1  0.333333  0.666667  0.000000  1
  Tm  Tm9  1  0.333333  0.666667  0.500000  1
  Sn  Sn10  1  0.395689  0.999892  0.749931  1
  Sn  Sn11  1  0.395689  0.395797  0.250069  1
  Sn  Sn12  1  0.000108  0.604311  0.250069  1
  Sn  Sn13  1  0.000108  0.395797  0.749931  1
  Sn  Sn14  1  0.604203  0.604311  0.749931  1
  Sn  Sn15  1  0.604203  0.999892  0.250069  1
