# generated using pymatgen
data_Sm3ErCr4F28
_symmetry_space_group_name_H-M   'P 1'
_cell_length_a   5.54705349
_cell_length_b   8.86743746
_cell_length_c   11.81864534
_cell_angle_alpha   62.84181508
_cell_angle_beta   90.05605380
_cell_angle_gamma   89.96917627
_symmetry_Int_Tables_number   1
_chemical_formula_structural   Sm3ErCr4F28
_chemical_formula_sum   'Sm3 Er1 Cr4 F28'
_cell_volume   517.24414113
_cell_formula_units_Z   1
loop_
 _symmetry_equiv_pos_site_id
 _symmetry_equiv_pos_as_xyz
  1  'x, y, z'
loop_
 _atom_site_type_symbol
 _atom_site_label
 _atom_site_symmetry_multiplicity
 _atom_site_fract_x
 _atom_site_fract_y
 _atom_site_fract_z
 _atom_site_occupancy
  Sm  Sm0  1  0.262988  0.188140  0.734452  1
  Sm  Sm1  1  0.236598  0.191969  0.233985  1
  Sm  Sm2  1  0.735377  0.807040  0.265881  1
  Er  Er3  1  0.767219  0.806586  0.766225  1
  Cr  Cr4  1  0.756144  0.277155  0.955256  1
  Cr  Cr5  1  0.258592  0.726609  0.546900  1
  Cr  Cr6  1  0.243894  0.726112  0.039814  1
  Cr  Cr7  1  0.744810  0.271760  0.458369  1
  F  F8  1  0.438391  0.706624  0.921764  1
  F  F9  1  0.934815  0.293055  0.578165  1
  F  F10  1  0.563654  0.295341  0.075568  1
  F  F11  1  0.063146  0.707701  0.428248  1
  F  F12  1  0.460281  0.282389  0.543146  1
  F  F13  1  0.959175  0.718241  0.951448  1
  F  F14  1  0.538445  0.716101  0.458514  1
  F  F15  1  0.039551  0.286519  0.040524  1
  F  F16  1  0.763668  0.510989  0.860978  1
  F  F17  1  0.268201  0.494333  0.640545  1
  F  F18  1  0.229797  0.494067  0.134635  1
  F  F19  1  0.732973  0.505081  0.364138  1
  F  F20  1  0.759785  0.045303  0.045077  1
  F  F21  1  0.259856  0.958059  0.455546  1
  F  F22  1  0.242318  0.958087  0.952080  1
  F  F23  1  0.743060  0.040597  0.547671  1
  F  F24  1  0.982442  0.731833  0.640300  1
  F  F25  1  0.479880  0.269672  0.865608  1
  F  F26  1  0.023462  0.269847  0.368078  1
  F  F27  1  0.520349  0.729235  0.132202  1
  F  F28  1  0.052667  0.743880  0.162814  1
  F  F29  1  0.556405  0.256007  0.333666  1
  F  F30  1  0.945918  0.259285  0.831827  1
  F  F31  1  0.455712  0.746389  0.667854  1
  F  F32  1  0.404402  0.968862  0.226105  1
  F  F33  1  0.905150  0.030560  0.272850  1
  F  F34  1  0.590617  0.018617  0.772207  1
  F  F35  1  0.080258  0.967957  0.727560  1
