# generated using pymatgen
data_Tb6YbIrCl12
_symmetry_space_group_name_H-M   'P 1'
_cell_length_a   9.01921999
_cell_length_b   8.98641097
_cell_length_c   9.01326723
_cell_angle_alpha   107.24749543
_cell_angle_beta   107.14239553
_cell_angle_gamma   107.15636301
_symmetry_Int_Tables_number   1
_chemical_formula_structural   Tb6YbIrCl12
_chemical_formula_sum   'Tb6 Yb1 Ir1 Cl12'
_cell_volume   605.34379601
_cell_formula_units_Z   1
loop_
 _symmetry_equiv_pos_site_id
 _symmetry_equiv_pos_as_xyz
  1  'x, y, z'
loop_
 _atom_site_type_symbol
 _atom_site_label
 _atom_site_symmetry_multiplicity
 _atom_site_fract_x
 _atom_site_fract_y
 _atom_site_fract_z
 _atom_site_occupancy
  Tb  Tb0  1  0.108401  0.318606  0.019878  1
  Tb  Tb1  1  0.321693  0.020490  0.110170  1
  Tb  Tb2  1  0.021106  0.108662  0.320697  1
  Tb  Tb3  1  0.978895  0.891338  0.679304  1
  Tb  Tb4  1  0.678307  0.979511  0.889830  1
  Tb  Tb5  1  0.891599  0.681394  0.980122  1
  Yb  Yb6  1  0.500000  0.500000  0.500000  1
  Ir  Ir7  1  0.000000  0.000000  0.000000  1
  Cl  Cl8  1  0.213480  0.679781  0.071647  1
  Cl  Cl9  1  0.450728  0.370271  0.166962  1
  Cl  Cl10  1  0.680669  0.072659  0.213827  1
  Cl  Cl11  1  0.927402  0.785723  0.319836  1
  Cl  Cl12  1  0.166774  0.450010  0.369874  1
  Cl  Cl13  1  0.371157  0.166799  0.451304  1
  Cl  Cl14  1  0.628843  0.833201  0.548697  1
  Cl  Cl15  1  0.833227  0.549990  0.630126  1
  Cl  Cl16  1  0.072599  0.214277  0.680165  1
  Cl  Cl17  1  0.319332  0.927342  0.786173  1
  Cl  Cl18  1  0.549272  0.629729  0.833039  1
  Cl  Cl19  1  0.786520  0.320219  0.928353  1
