# generated using pymatgen
data_Nd2UIn3Ir2Rh
_symmetry_space_group_name_H-M   'P 1'
_cell_length_a   7.63150030
_cell_length_b   7.88381252
_cell_length_c   3.89633500
_cell_angle_alpha   90.00000000
_cell_angle_beta   90.00000000
_cell_angle_gamma   121.11334283
_symmetry_Int_Tables_number   1
_chemical_formula_structural   Nd2UIn3Ir2Rh
_chemical_formula_sum   'Nd2 U1 In3 Ir2 Rh1'
_cell_volume   200.70155029
_cell_formula_units_Z   1
loop_
 _symmetry_equiv_pos_site_id
 _symmetry_equiv_pos_as_xyz
  1  'x, y, z'
loop_
 _atom_site_type_symbol
 _atom_site_label
 _atom_site_symmetry_multiplicity
 _atom_site_fract_x
 _atom_site_fract_y
 _atom_site_fract_z
 _atom_site_occupancy
  Nd  Nd0  1  0.409563  0.409811  0.500000  1
  Nd  Nd1  1  0.590352  0.000119  0.500000  1
  U  U2  1  0.999975  0.581606  0.500000  1
  In  In3  1  0.738109  0.745983  0.000000  1
  In  In4  1  0.262031  0.007964  0.000000  1
  In  In5  1  0.999921  0.240049  0.000000  1
  Ir  Ir6  1  0.715706  0.374258  0.000000  1
  Ir  Ir7  1  0.284252  0.658482  0.000000  1
  Rh  Rh8  1  0.000090  0.981729  0.500000  1
