# generated using pymatgen
data_Tb11Th5(HgRu)4
_symmetry_space_group_name_H-M   'P 1'
_cell_length_a   9.67232424
_cell_length_b   9.74894063
_cell_length_c   9.74893883
_cell_angle_alpha   59.73431015
_cell_angle_beta   60.25962321
_cell_angle_gamma   60.25962895
_symmetry_Int_Tables_number   1
_chemical_formula_structural   Tb11Th5(HgRu)4
_chemical_formula_sum   'Tb11 Th5 Hg4 Ru4'
_cell_volume   651.23453842
_cell_formula_units_Z   1
loop_
 _symmetry_equiv_pos_site_id
 _symmetry_equiv_pos_as_xyz
  1  'x, y, z'
loop_
 _atom_site_type_symbol
 _atom_site_label
 _atom_site_symmetry_multiplicity
 _atom_site_fract_x
 _atom_site_fract_y
 _atom_site_fract_z
 _atom_site_occupancy
  Tb  Tb0  1  0.437750  0.062250  0.062250  1
  Tb  Tb1  1  0.443417  0.057827  0.437115  1
  Tb  Tb2  1  0.061642  0.437115  0.057827  1
  Tb  Tb3  1  0.443417  0.437115  0.057827  1
  Tb  Tb4  1  0.061642  0.057827  0.437115  1
  Tb  Tb5  1  0.184241  0.815759  0.815759  1
  Tb  Tb6  1  0.813215  0.186785  0.186785  1
  Tb  Tb7  1  0.811952  0.187438  0.813273  1
  Tb  Tb8  1  0.187337  0.813273  0.187438  1
  Tb  Tb9  1  0.811952  0.813273  0.187438  1
  Tb  Tb10  1  0.187337  0.187438  0.813273  1
  Th  Th11  1  0.594075  0.600498  0.600498  1
  Th  Th12  1  0.598487  0.599386  0.203641  1
  Th  Th13  1  0.598487  0.203641  0.599386  1
  Th  Th14  1  0.204929  0.600498  0.600498  1
  Th  Th15  1  0.065095  0.434905  0.434905  1
  Hg  Hg16  1  0.836118  0.835247  0.835247  1
  Hg  Hg17  1  0.835105  0.837984  0.491805  1
  Hg  Hg18  1  0.835105  0.491805  0.837984  1
  Hg  Hg19  1  0.493389  0.835247  0.835247  1
  Ru  Ru20  1  0.378773  0.397320  0.397320  1
  Ru  Ru21  1  0.394976  0.392437  0.817612  1
  Ru  Ru22  1  0.394976  0.817612  0.392437  1
  Ru  Ru23  1  0.826586  0.397320  0.397320  1
