# generated using pymatgen
data_LiNd4P12Ir13Ru6
_symmetry_space_group_name_H-M   'P 1'
_cell_length_a   12.64121439
_cell_length_b   12.65057695
_cell_length_c   4.01305000
_cell_angle_alpha   90.00000000
_cell_angle_beta   90.00000000
_cell_angle_gamma   119.64274855
_symmetry_Int_Tables_number   1
_chemical_formula_structural   LiNd4P12Ir13Ru6
_chemical_formula_sum   'Li1 Nd4 P12 Ir13 Ru6'
_cell_volume   557.77175754
_cell_formula_units_Z   1
loop_
 _symmetry_equiv_pos_site_id
 _symmetry_equiv_pos_as_xyz
  1  'x, y, z'
loop_
 _atom_site_type_symbol
 _atom_site_label
 _atom_site_symmetry_multiplicity
 _atom_site_fract_x
 _atom_site_fract_y
 _atom_site_fract_z
 _atom_site_occupancy
  Li  Li0  1  0.333312  0.664889  0.000000  1
  Nd  Nd1  1  0.668416  0.334218  0.000000  1
  Nd  Nd2  1  0.815568  0.002761  0.500000  1
  Nd  Nd3  1  0.186190  0.185197  0.500000  1
  Nd  Nd4  1  0.998357  0.814024  0.500000  1
  P  P5  1  0.639615  0.003448  0.000000  1
  P  P6  1  0.367193  0.368172  0.000000  1
  P  P7  1  0.000576  0.632552  0.000000  1
  P  P8  1  0.687758  0.520911  0.500000  1
  P  P9  1  0.831699  0.308374  0.500000  1
  P  P10  1  0.308311  0.819275  0.500000  1
  P  P11  1  0.511476  0.687752  0.500000  1
  P  P12  1  0.183064  0.997494  0.000000  1
  P  P13  1  0.814708  0.818881  0.000000  1
  P  P14  1  0.000714  0.185829  0.000000  1
  P  P15  1  0.480296  0.170819  0.500000  1
  P  P16  1  0.174621  0.487281  0.500000  1
  Ir  Ir17  1  0.619644  0.804375  0.000000  1
  Ir  Ir18  1  0.184144  0.379721  0.000000  1
  Ir  Ir19  1  0.378413  0.178937  0.000000  1
  Ir  Ir20  1  0.197639  0.817378  0.000000  1
  Ir  Ir21  1  0.803300  0.623914  0.000000  1
  Ir  Ir22  1  0.869804  0.508266  0.500000  1
  Ir  Ir23  1  0.488768  0.362325  0.500000  1
  Ir  Ir24  1  0.636646  0.127357  0.500000  1
  Ir  Ir25  1  0.127628  0.637918  0.500000  1
  Ir  Ir26  1  0.360818  0.493209  0.500000  1
  Ir  Ir27  1  0.504469  0.866515  0.500000  1
  Ir  Ir28  1  0.000809  0.000132  0.000000  1
  Ir  Ir29  1  0.454567  0.996908  0.000000  1
  Ru  Ru30  1  0.707032  0.711032  0.500000  1
  Ru  Ru31  1  0.004913  0.293136  0.500000  1
  Ru  Ru32  1  0.547051  0.548829  0.000000  1
  Ru  Ru33  1  0.000222  0.452256  0.000000  1
  Ru  Ru34  1  0.820166  0.199293  0.000000  1
  Ru  Ru35  1  0.292091  0.996622  0.500000  1
