# generated using pymatgen
data_PrBr37
_symmetry_space_group_name_H-M   'P 1'
_cell_length_a   14.20848141
_cell_length_b   15.29732181
_cell_length_c   14.42416200
_cell_angle_alpha   103.00376457
_cell_angle_beta   48.80056783
_cell_angle_gamma   81.50743146
_symmetry_Int_Tables_number   1
_chemical_formula_structural   PrBr37
_chemical_formula_sum   'Pr1 Br37'
_cell_volume   2102.91272627
_cell_formula_units_Z   1
loop_
 _symmetry_equiv_pos_site_id
 _symmetry_equiv_pos_as_xyz
  1  'x, y, z'
loop_
 _atom_site_type_symbol
 _atom_site_label
 _atom_site_symmetry_multiplicity
 _atom_site_fract_x
 _atom_site_fract_y
 _atom_site_fract_z
 _atom_site_occupancy
  Pr  Pr0  1  0.500000  0.000000  0.000000  1
  Br  Br1  1  0.792229  0.301397  0.136521  1
  Br  Br2  1  0.207771  0.698603  0.863479  1
  Br  Br3  1  0.748058  0.083375  0.363454  1
  Br  Br4  1  0.251942  0.916625  0.636546  1
  Br  Br5  1  0.112028  0.349420  0.170560  1
  Br  Br6  1  0.887972  0.650580  0.829440  1
  Br  Br7  1  0.869153  0.535582  0.247386  1
  Br  Br8  1  0.130847  0.464418  0.752614  1
  Br  Br9  1  0.688241  0.275853  0.522335  1
  Br  Br10  1  0.311759  0.724147  0.477665  1
  Br  Br11  1  0.051404  0.147652  0.474356  1
  Br  Br12  1  0.948596  0.852348  0.525644  1
  Br  Br13  1  0.982788  0.005340  0.284142  1
  Br  Br14  1  0.017212  0.994660  0.715858  1
  Br  Br15  1  0.954166  0.342001  0.600964  1
  Br  Br16  1  0.045834  0.657999  0.399036  1
  Br  Br17  1  0.582486  0.428842  0.235049  1
  Br  Br18  1  0.417514  0.571158  0.764951  1
  Br  Br19  1  0.172256  0.476629  0.273116  1
  Br  Br20  1  0.827744  0.523371  0.726884  1
  Br  Br21  1  0.000000  0.500000  0.000000  1
  Br  Br22  1  0.572363  0.951252  0.141690  1
  Br  Br23  1  0.427637  0.048748  0.858310  1
  Br  Br24  1  0.312176  0.051636  0.310667  1
  Br  Br25  1  0.687824  0.948364  0.689333  1
  Br  Br26  1  0.536244  0.133400  0.412781  1
  Br  Br27  1  0.463756  0.866600  0.587219  1
  Br  Br28  1  0.091165  0.214719  0.068182  1
  Br  Br29  1  0.908835  0.785281  0.931818  1
  Br  Br30  1  0.663573  0.692633  0.401563  1
  Br  Br31  1  0.336427  0.307367  0.598437  1
  Br  Br32  1  0.900511  0.149118  0.923580  1
  Br  Br33  1  0.099489  0.850882  0.076420  1
  Br  Br34  1  0.503215  0.184530  0.062700  1
  Br  Br35  1  0.496785  0.815470  0.937300  1
  Br  Br36  1  0.648825  0.432299  0.651277  1
  Br  Br37  1  0.351175  0.567701  0.348723  1
