# generated using pymatgen
data_Nd4YP12Ru9Rh10
_symmetry_space_group_name_H-M   'P 1'
_cell_length_a   12.70092500
_cell_length_b   12.70092514
_cell_length_c   3.97901600
_cell_angle_alpha   90.00000000
_cell_angle_beta   90.00000000
_cell_angle_gamma   120.00000744
_symmetry_Int_Tables_number   1
_chemical_formula_structural   Nd4YP12Ru9Rh10
_chemical_formula_sum   'Nd4 Y1 P12 Ru9 Rh10'
_cell_volume   555.87480801
_cell_formula_units_Z   1
loop_
 _symmetry_equiv_pos_site_id
 _symmetry_equiv_pos_as_xyz
  1  'x, y, z'
loop_
 _atom_site_type_symbol
 _atom_site_label
 _atom_site_symmetry_multiplicity
 _atom_site_fract_x
 _atom_site_fract_y
 _atom_site_fract_z
 _atom_site_occupancy
  Nd  Nd0  1  0.999950  0.186020  0.500000  1
  Nd  Nd1  1  0.813980  0.813929  0.500000  1
  Nd  Nd2  1  0.186071  0.000050  0.500000  1
  Nd  Nd3  1  0.333333  0.666667  0.000000  1
  Y  Y4  1  0.666667  0.333333  0.000000  1
  P  P5  1  0.999662  0.815073  0.000000  1
  P  P6  1  0.184927  0.184589  0.000000  1
  P  P7  1  0.815411  0.000338  0.000000  1
  P  P8  1  0.689893  0.173246  0.500000  1
  P  P9  1  0.826754  0.516648  0.500000  1
  P  P10  1  0.483352  0.310107  0.500000  1
  P  P11  1  0.171248  0.690067  0.500000  1
  P  P12  1  0.518820  0.828752  0.500000  1
  P  P13  1  0.309933  0.481180  0.500000  1
  P  P14  1  0.000159  0.372266  0.000000  1
  P  P15  1  0.627734  0.627893  0.000000  1
  P  P16  1  0.372107  0.999841  0.000000  1
  Ru  Ru17  1  0.999413  0.712437  0.500000  1
  Ru  Ru18  1  0.287563  0.286976  0.500000  1
  Ru  Ru19  1  0.713024  0.000587  0.500000  1
  Ru  Ru20  1  0.872898  0.362772  0.500000  1
  Ru  Ru21  1  0.637228  0.510126  0.500000  1
  Ru  Ru22  1  0.489874  0.127102  0.500000  1
  Ru  Ru23  1  0.362702  0.875128  0.500000  1
  Ru  Ru24  1  0.512425  0.637298  0.500000  1
  Ru  Ru25  1  0.124872  0.487575  0.500000  1
  Rh  Rh26  1  0.000132  0.551247  0.000000  1
  Rh  Rh27  1  0.448753  0.448885  0.000000  1
  Rh  Rh28  1  0.551115  0.999868  0.000000  1
  Rh  Rh29  1  0.805011  0.183002  0.000000  1
  Rh  Rh30  1  0.816998  0.622011  0.000000  1
  Rh  Rh31  1  0.377989  0.194989  0.000000  1
  Rh  Rh32  1  0.182190  0.805450  0.000000  1
  Rh  Rh33  1  0.623260  0.817810  0.000000  1
  Rh  Rh34  1  0.194550  0.376740  0.000000  1
  Rh  Rh35  1  0.000000  0.000000  0.000000  1
