# generated using pymatgen
data_Y3Tm4Th(CdNi)2
_symmetry_space_group_name_H-M   'P 1'
_cell_length_a   9.53859645
_cell_length_b   9.53859748
_cell_length_c   9.53996600
_cell_angle_alpha   59.99525387
_cell_angle_beta   59.99525029
_cell_angle_gamma   60.03085260
_symmetry_Int_Tables_number   1
_chemical_formula_structural   Y3Tm4Th(CdNi)2
_chemical_formula_sum   'Y6 Tm8 Th2 Cd4 Ni4'
_cell_volume   613.86207473
_cell_formula_units_Z   2
loop_
 _symmetry_equiv_pos_site_id
 _symmetry_equiv_pos_as_xyz
  1  'x, y, z'
loop_
 _atom_site_type_symbol
 _atom_site_label
 _atom_site_symmetry_multiplicity
 _atom_site_fract_x
 _atom_site_fract_y
 _atom_site_fract_z
 _atom_site_occupancy
  Y  Y0  1  0.187522  0.812941  0.814903  1
  Y  Y1  1  0.812941  0.187522  0.184634  1
  Y  Y2  1  0.812941  0.187522  0.814903  1
  Y  Y3  1  0.187522  0.812941  0.184634  1
  Y  Y4  1  0.813574  0.813574  0.186426  1
  Y  Y5  1  0.187381  0.187381  0.812619  1
  Tm  Tm6  1  0.598592  0.200847  0.600280  1
  Tm  Tm7  1  0.200847  0.598592  0.600280  1
  Tm  Tm8  1  0.064389  0.437749  0.436169  1
  Tm  Tm9  1  0.437749  0.064389  0.061692  1
  Tm  Tm10  1  0.437749  0.064389  0.436169  1
  Tm  Tm11  1  0.064389  0.437749  0.061692  1
  Tm  Tm12  1  0.436143  0.436143  0.063857  1
  Tm  Tm13  1  0.062951  0.062951  0.437049  1
  Th  Th14  1  0.593381  0.593381  0.601433  1
  Th  Th15  1  0.593381  0.593381  0.211804  1
  Cd  Cd16  1  0.832980  0.832980  0.828849  1
  Cd  Cd17  1  0.832980  0.832980  0.505190  1
  Cd  Cd18  1  0.834428  0.505319  0.830126  1
  Cd  Cd19  1  0.505319  0.834428  0.830126  1
  Ni  Ni20  1  0.392815  0.392815  0.391869  1
  Ni  Ni21  1  0.392815  0.392815  0.822502  1
  Ni  Ni22  1  0.395274  0.821935  0.391396  1
  Ni  Ni23  1  0.821935  0.395274  0.391396  1
