# generated using pymatgen
data_FeCo2(AsO4)2
_symmetry_space_group_name_H-M   'P 1'
_cell_length_a   8.62310600
_cell_length_b   5.36774449
_cell_length_c   9.11959696
_cell_angle_alpha   60.32991442
_cell_angle_beta   90.00000000
_cell_angle_gamma   90.00000000
_symmetry_Int_Tables_number   1
_chemical_formula_structural   FeCo2(AsO4)2
_chemical_formula_sum   'Fe2 Co4 As4 O16'
_cell_volume   366.77188959
_cell_formula_units_Z   2
loop_
 _symmetry_equiv_pos_site_id
 _symmetry_equiv_pos_as_xyz
  1  'x, y, z'
loop_
 _atom_site_type_symbol
 _atom_site_label
 _atom_site_symmetry_multiplicity
 _atom_site_fract_x
 _atom_site_fract_y
 _atom_site_fract_z
 _atom_site_occupancy
  Fe  Fe0  1  0.000000  0.000000  0.000000  1
  Fe  Fe1  1  0.500000  0.000000  0.500000  1
  Co  Co2  1  0.360244  0.991648  0.106766  1
  Co  Co3  1  0.639756  0.008352  0.893234  1
  Co  Co4  1  0.860244  0.008352  0.393234  1
  Co  Co5  1  0.139756  0.991648  0.606766  1
  As  As6  1  0.694773  0.648667  0.305139  1
  As  As7  1  0.305227  0.351333  0.694861  1
  As  As8  1  0.194773  0.351333  0.194861  1
  As  As9  1  0.805227  0.648667  0.805139  1
  O  O10  1  0.646455  0.721512  0.462791  1
  O  O11  1  0.353545  0.278488  0.537209  1
  O  O12  1  0.146455  0.278488  0.037209  1
  O  O13  1  0.853545  0.721512  0.962791  1
  O  O14  1  0.567218  0.798201  0.136668  1
  O  O15  1  0.432782  0.201799  0.863332  1
  O  O16  1  0.067218  0.201799  0.363332  1
  O  O17  1  0.932782  0.798201  0.636668  1
  O  O18  1  0.872352  0.824903  0.244721  1
  O  O19  1  0.127648  0.175097  0.755279  1
  O  O20  1  0.372352  0.175097  0.255279  1
  O  O21  1  0.627648  0.824903  0.744721  1
  O  O22  1  0.695870  0.283561  0.381425  1
  O  O23  1  0.304130  0.716439  0.618575  1
  O  O24  1  0.195870  0.716439  0.118575  1
  O  O25  1  0.804130  0.283561  0.881425  1
