# generated using pymatgen
data_La7SmY2Si8O3
_symmetry_space_group_name_H-M   'P 1'
_cell_length_a   10.80439500
_cell_length_b   10.77407474
_cell_length_c   4.58962000
_cell_angle_alpha   90.00000000
_cell_angle_beta   90.00000000
_cell_angle_gamma   120.09313936
_symmetry_Int_Tables_number   1
_chemical_formula_structural   La7SmY2Si8O3
_chemical_formula_sum   'La7 Sm1 Y2 Si8 O3'
_cell_volume   462.25267467
_cell_formula_units_Z   1
loop_
 _symmetry_equiv_pos_site_id
 _symmetry_equiv_pos_as_xyz
  1  'x, y, z'
loop_
 _atom_site_type_symbol
 _atom_site_label
 _atom_site_symmetry_multiplicity
 _atom_site_fract_x
 _atom_site_fract_y
 _atom_site_fract_z
 _atom_site_occupancy
  La  La0  1  0.211242  0.787848  0.000000  1
  La  La1  1  0.576607  0.787848  0.000000  1
  La  La2  1  0.788139  0.576280  0.000000  1
  La  La3  1  0.000000  0.000000  0.000000  1
  La  La4  1  0.211861  0.423720  0.000000  1
  La  La5  1  0.423393  0.212152  0.000000  1
  La  La6  1  0.788758  0.212152  0.000000  1
  Sm  Sm7  1  0.500000  0.000000  0.500000  1
  Y  Y8  1  0.000000  0.500000  0.500000  1
  Y  Y9  1  0.500000  0.500000  0.500000  1
  Si  Si10  1  0.999727  0.777186  0.500000  1
  Si  Si11  1  0.000273  0.222814  0.500000  1
  Si  Si12  1  0.222541  0.222814  0.500000  1
  Si  Si13  1  0.778628  0.000000  0.500000  1
  Si  Si14  1  0.331663  0.663327  0.500000  1
  Si  Si15  1  0.221372  0.000000  0.500000  1
  Si  Si16  1  0.668337  0.336673  0.500000  1
  Si  Si17  1  0.777459  0.777186  0.500000  1
  O  O18  1  0.000000  0.500000  0.000000  1
  O  O19  1  0.500000  0.500000  0.000000  1
  O  O20  1  0.500000  0.000000  0.000000  1
