# generated using pymatgen
data_Tm5Si2Hg
_symmetry_space_group_name_H-M   'P 1'
_cell_length_a   7.46401503
_cell_length_b   7.46401464
_cell_length_c   8.76783160
_cell_angle_alpha   115.19167333
_cell_angle_beta   115.19167341
_cell_angle_gamma   90.00000243
_symmetry_Int_Tables_number   1
_chemical_formula_structural   Tm5Si2Hg
_chemical_formula_sum   'Tm10 Si4 Hg2'
_cell_volume   390.05662157
_cell_formula_units_Z   2
loop_
 _symmetry_equiv_pos_site_id
 _symmetry_equiv_pos_as_xyz
  1  'x, y, z'
loop_
 _atom_site_type_symbol
 _atom_site_label
 _atom_site_symmetry_multiplicity
 _atom_site_fract_x
 _atom_site_fract_y
 _atom_site_fract_z
 _atom_site_occupancy
  Tm  Tm0  1  0.500000  0.500000  0.000000  1
  Tm  Tm1  1  0.000000  0.000000  0.000000  1
  Tm  Tm2  1  0.970040  0.810725  0.280765  1
  Tm  Tm3  1  0.310725  0.470040  0.280765  1
  Tm  Tm4  1  0.810725  0.310725  0.280765  1
  Tm  Tm5  1  0.470040  0.970040  0.280765  1
  Tm  Tm6  1  0.029960  0.189275  0.719235  1
  Tm  Tm7  1  0.689275  0.529960  0.719235  1
  Tm  Tm8  1  0.189275  0.689275  0.719235  1
  Tm  Tm9  1  0.529960  0.029960  0.719235  1
  Si  Si10  1  0.626565  0.873435  0.000000  1
  Si  Si11  1  0.373435  0.126565  0.000000  1
  Si  Si12  1  0.873435  0.373435  0.000000  1
  Si  Si13  1  0.126565  0.626565  0.000000  1
  Hg  Hg14  1  0.750000  0.750000  0.500000  1
  Hg  Hg15  1  0.250000  0.250000  0.500000  1
