# generated using pymatgen
data_LiDy16Cd3Ni4
_symmetry_space_group_name_H-M   'P 1'
_cell_length_a   9.52213799
_cell_length_b   9.52213780
_cell_length_c   9.52213769
_cell_angle_alpha   59.96440647
_cell_angle_beta   59.96440361
_cell_angle_gamma   59.96440766
_symmetry_Int_Tables_number   1
_chemical_formula_structural   LiDy16Cd3Ni4
_chemical_formula_sum   'Li1 Dy16 Cd3 Ni4'
_cell_volume   610.01103735
_cell_formula_units_Z   1
loop_
 _symmetry_equiv_pos_site_id
 _symmetry_equiv_pos_as_xyz
  1  'x, y, z'
loop_
 _atom_site_type_symbol
 _atom_site_label
 _atom_site_symmetry_multiplicity
 _atom_site_fract_x
 _atom_site_fract_y
 _atom_site_fract_z
 _atom_site_occupancy
  Li  Li0  1  0.821855  0.821855  0.821855  1
  Dy  Dy1  1  0.596743  0.596743  0.596743  1
  Dy  Dy2  1  0.598772  0.598772  0.203629  1
  Dy  Dy3  1  0.598772  0.203629  0.598772  1
  Dy  Dy4  1  0.203629  0.598772  0.598772  1
  Dy  Dy5  1  0.061802  0.440978  0.440978  1
  Dy  Dy6  1  0.436721  0.063992  0.063992  1
  Dy  Dy7  1  0.440978  0.061802  0.440978  1
  Dy  Dy8  1  0.063992  0.436721  0.063992  1
  Dy  Dy9  1  0.440978  0.440978  0.061802  1
  Dy  Dy10  1  0.063992  0.063992  0.436721  1
  Dy  Dy11  1  0.186195  0.814181  0.814181  1
  Dy  Dy12  1  0.813051  0.186732  0.186732  1
  Dy  Dy13  1  0.814181  0.186195  0.814181  1
  Dy  Dy14  1  0.186732  0.813051  0.186732  1
  Dy  Dy15  1  0.814181  0.814181  0.186195  1
  Dy  Dy16  1  0.186732  0.186732  0.813051  1
  Cd  Cd17  1  0.831777  0.831777  0.506192  1
  Cd  Cd18  1  0.831777  0.506192  0.831777  1
  Cd  Cd19  1  0.506192  0.831777  0.831777  1
  Ni  Ni20  1  0.393928  0.393928  0.393928  1
  Ni  Ni21  1  0.392156  0.392156  0.822711  1
  Ni  Ni22  1  0.392156  0.822711  0.392156  1
  Ni  Ni23  1  0.822711  0.392156  0.392156  1
