# generated using pymatgen
data_Zr4Ti3Re3W2
_symmetry_space_group_name_H-M   'P 1'
_cell_length_a   5.38979401
_cell_length_b   5.30012774
_cell_length_c   8.90116100
_cell_angle_alpha   90.00000000
_cell_angle_beta   90.00000000
_cell_angle_gamma   120.24760624
_symmetry_Int_Tables_number   1
_chemical_formula_structural   Zr4Ti3Re3W2
_chemical_formula_sum   'Zr4 Ti3 Re3 W2'
_cell_volume   219.65788214
_cell_formula_units_Z   1
loop_
 _symmetry_equiv_pos_site_id
 _symmetry_equiv_pos_as_xyz
  1  'x, y, z'
loop_
 _atom_site_type_symbol
 _atom_site_label
 _atom_site_symmetry_multiplicity
 _atom_site_fract_x
 _atom_site_fract_y
 _atom_site_fract_z
 _atom_site_occupancy
  Zr  Zr0  1  0.330821  0.665162  0.435905  1
  Zr  Zr1  1  0.665891  0.333037  0.937869  1
  Zr  Zr2  1  0.665891  0.333037  0.562131  1
  Zr  Zr3  1  0.330821  0.665162  0.064095  1
  Ti  Ti4  1  0.659419  0.830358  0.750000  1
  Ti  Ti5  1  0.002961  0.999946  0.502176  1
  Ti  Ti6  1  0.002961  0.999946  0.997824  1
  Re  Re7  1  0.167416  0.337252  0.750000  1
  Re  Re8  1  0.167546  0.828409  0.750000  1
  Re  Re9  1  0.832270  0.666214  0.250000  1
  W  W10  1  0.341586  0.171686  0.250000  1
  W  W11  1  0.832418  0.169790  0.250000  1
