# generated using pymatgen
data_DyTi4BiO12
_symmetry_space_group_name_H-M   'P 1'
_cell_length_a   5.30772824
_cell_length_b   6.62442180
_cell_length_c   7.47331388
_cell_angle_alpha   67.07973765
_cell_angle_beta   68.47623873
_cell_angle_gamma   81.23971911
_symmetry_Int_Tables_number   1
_chemical_formula_structural   DyTi4BiO12
_chemical_formula_sum   'Dy1 Ti4 Bi1 O12'
_cell_volume   225.12965302
_cell_formula_units_Z   1
loop_
 _symmetry_equiv_pos_site_id
 _symmetry_equiv_pos_as_xyz
  1  'x, y, z'
loop_
 _atom_site_type_symbol
 _atom_site_label
 _atom_site_symmetry_multiplicity
 _atom_site_fract_x
 _atom_site_fract_y
 _atom_site_fract_z
 _atom_site_occupancy
  Dy  Dy0  1  0.743402  0.492664  0.749825  1
  Ti  Ti1  1  0.291525  0.886411  0.467088  1
  Ti  Ti2  1  0.797221  0.895070  0.969068  1
  Ti  Ti3  1  0.705009  0.104547  0.530795  1
  Ti  Ti4  1  0.208406  0.112814  0.034544  1
  Bi  Bi5  1  0.252163  0.500970  0.250132  1
  O  O6  1  0.187389  0.604072  0.505781  1
  O  O7  1  0.849395  0.389100  0.457803  1
  O  O8  1  0.013352  0.066455  0.317745  1
  O  O9  1  0.958022  0.887717  0.694348  1
  O  O10  1  0.308426  0.394730  0.998436  1
  O  O11  1  0.652295  0.612501  0.036477  1
  O  O12  1  0.549570  0.809682  0.593389  1
  O  O13  1  0.420445  0.195196  0.416914  1
  O  O14  1  0.486233  0.930070  0.183201  1
  O  O15  1  0.544799  0.122972  0.803806  1
  O  O16  1  0.950069  0.190084  0.909239  1
  O  O17  1  0.082277  0.804944  0.081410  1
