# generated using pymatgen
data_Dy6Zn18PPd5
_symmetry_space_group_name_H-M   'P 1'
_cell_length_a   9.02829760
_cell_length_b   9.01452163
_cell_length_c   9.02841000
_cell_angle_alpha   60.04964332
_cell_angle_beta   60.13263498
_cell_angle_gamma   60.05126646
_symmetry_Int_Tables_number   1
_chemical_formula_structural   Dy6Zn18PPd5
_chemical_formula_sum   'Dy6 Zn18 P1 Pd5'
_cell_volume   520.48679554
_cell_formula_units_Z   1
loop_
 _symmetry_equiv_pos_site_id
 _symmetry_equiv_pos_as_xyz
  1  'x, y, z'
loop_
 _atom_site_type_symbol
 _atom_site_label
 _atom_site_symmetry_multiplicity
 _atom_site_fract_x
 _atom_site_fract_y
 _atom_site_fract_z
 _atom_site_occupancy
  Dy  Dy0  1  0.716582  0.285431  0.283419  1
  Dy  Dy1  1  0.714499  0.285500  0.714501  1
  Dy  Dy2  1  0.716585  0.714572  0.283415  1
  Dy  Dy3  1  0.283418  0.714569  0.716581  1
  Dy  Dy4  1  0.285501  0.714500  0.285499  1
  Dy  Dy5  1  0.283415  0.285428  0.716585  1
  Zn  Zn6  1  0.628251  0.125165  0.121426  1
  Zn  Zn7  1  0.124463  0.627593  0.124459  1
  Zn  Zn8  1  0.121425  0.125162  0.628252  1
  Zn  Zn9  1  0.124457  0.123491  0.124463  1
  Zn  Zn10  1  0.371749  0.874835  0.878574  1
  Zn  Zn11  1  0.875537  0.372407  0.875541  1
  Zn  Zn12  1  0.878575  0.874838  0.371748  1
  Zn  Zn13  1  0.875543  0.876509  0.875537  1
  Zn  Zn14  1  0.500000  0.000000  0.500000  1
  Zn  Zn15  1  0.000000  0.000000  0.000000  1
  Zn  Zn16  1  0.013095  0.328771  0.329367  1
  Zn  Zn17  1  0.331116  0.008495  0.331113  1
  Zn  Zn18  1  0.329366  0.328767  0.013096  1
  Zn  Zn19  1  0.331112  0.329278  0.331115  1
  Zn  Zn20  1  0.986905  0.671229  0.670633  1
  Zn  Zn21  1  0.668884  0.991505  0.668887  1
  Zn  Zn22  1  0.670634  0.671233  0.986904  1
  Zn  Zn23  1  0.668888  0.670722  0.668885  1
  P  P24  1  0.500000  0.500000  0.500000  1
  Pd  Pd25  1  0.500000  0.000000  0.000000  1
  Pd  Pd26  1  0.500000  0.500000  0.000000  1
  Pd  Pd27  1  0.000000  0.500000  0.500000  1
  Pd  Pd28  1  0.000000  0.500000  0.000000  1
  Pd  Pd29  1  0.000000  0.000000  0.500000  1
