# generated using pymatgen
data_Lu3Mg3Hg2Ir
_symmetry_space_group_name_H-M   'P 1'
_cell_length_a   7.89609900
_cell_length_b   7.89610070
_cell_length_c   3.78928200
_cell_angle_alpha   90.00000000
_cell_angle_beta   90.00000000
_cell_angle_gamma   119.99998981
_symmetry_Int_Tables_number   1
_chemical_formula_structural   Lu3Mg3Hg2Ir
_chemical_formula_sum   'Lu3 Mg3 Hg2 Ir1'
_cell_volume   204.60340942
_cell_formula_units_Z   1
loop_
 _symmetry_equiv_pos_site_id
 _symmetry_equiv_pos_as_xyz
  1  'x, y, z'
loop_
 _atom_site_type_symbol
 _atom_site_label
 _atom_site_symmetry_multiplicity
 _atom_site_fract_x
 _atom_site_fract_y
 _atom_site_fract_z
 _atom_site_occupancy
  Lu  Lu0  1  0.608043  0.040895  0.000000  1
  Lu  Lu1  1  0.959105  0.567148  0.000000  1
  Lu  Lu2  1  0.432852  0.391957  0.000000  1
  Mg  Mg3  1  0.265367  0.998574  0.500000  1
  Mg  Mg4  1  0.001426  0.266792  0.500000  1
  Mg  Mg5  1  0.733208  0.734633  0.500000  1
  Hg  Hg6  1  0.333333  0.666667  0.500000  1
  Hg  Hg7  1  0.000000  0.000000  0.000000  1
  Ir  Ir8  1  0.666667  0.333333  0.500000  1
