# generated using pymatgen
data_Y2Ho4ReBi2
_symmetry_space_group_name_H-M   'P 1'
_cell_length_a   8.25604600
_cell_length_b   8.26713571
_cell_length_c   4.33816600
_cell_angle_alpha   90.00000000
_cell_angle_beta   90.00000000
_cell_angle_gamma   119.95563607
_symmetry_Int_Tables_number   1
_chemical_formula_structural   Y2Ho4ReBi2
_chemical_formula_sum   'Y2 Ho4 Re1 Bi2'
_cell_volume   256.54168469
_cell_formula_units_Z   1
loop_
 _symmetry_equiv_pos_site_id
 _symmetry_equiv_pos_as_xyz
  1  'x, y, z'
loop_
 _atom_site_type_symbol
 _atom_site_label
 _atom_site_symmetry_multiplicity
 _atom_site_fract_x
 _atom_site_fract_y
 _atom_site_fract_z
 _atom_site_occupancy
  Y  Y0  1  0.999953  0.610887  0.500000  1
  Y  Y1  1  0.389066  0.389113  0.500000  1
  Ho  Ho2  1  0.231938  0.000000  0.000000  1
  Ho  Ho3  1  0.768053  0.768386  0.000000  1
  Ho  Ho4  1  0.999667  0.231614  0.000000  1
  Ho  Ho5  1  0.611618  0.000000  0.500000  1
  Re  Re6  1  0.999540  0.000000  0.500000  1
  Bi  Bi7  1  0.333479  0.666794  0.000000  1
  Bi  Bi8  1  0.666686  0.333206  0.000000  1
