# generated using pymatgen
data_Ca3(NdSn2)2
_symmetry_space_group_name_H-M   'P 1'
_cell_length_a   8.02034584
_cell_length_b   8.55086153
_cell_length_c   16.23352423
_cell_angle_alpha   89.88530388
_cell_angle_beta   89.96162151
_cell_angle_gamma   89.87601171
_symmetry_Int_Tables_number   1
_chemical_formula_structural   Ca3(NdSn2)2
_chemical_formula_sum   'Ca12 Nd8 Sn16'
_cell_volume   1113.30407656
_cell_formula_units_Z   4
loop_
 _symmetry_equiv_pos_site_id
 _symmetry_equiv_pos_as_xyz
  1  'x, y, z'
loop_
 _atom_site_type_symbol
 _atom_site_label
 _atom_site_symmetry_multiplicity
 _atom_site_fract_x
 _atom_site_fract_y
 _atom_site_fract_z
 _atom_site_occupancy
  Ca  Ca0  1  0.991182  0.185163  0.407575  1
  Ca  Ca1  1  0.326596  0.827765  0.121967  1
  Ca  Ca2  1  0.173307  0.331334  0.624380  1
  Ca  Ca3  1  0.507296  0.682827  0.905511  1
  Ca  Ca4  1  0.828581  0.670651  0.122067  1
  Ca  Ca5  1  0.172077  0.330804  0.876252  1
  Ca  Ca6  1  0.156469  0.494975  0.249062  1
  Ca  Ca7  1  0.658376  0.002738  0.248609  1
  Ca  Ca8  1  0.509451  0.684732  0.595523  1
  Ca  Ca9  1  0.343688  0.996461  0.749206  1
  Ca  Ca10  1  0.673702  0.171586  0.622873  1
  Ca  Ca11  1  0.840277  0.502978  0.749448  1
  Nd  Nd12  1  0.829468  0.671596  0.377428  1
  Nd  Nd13  1  0.987677  0.185811  0.093246  1
  Nd  Nd14  1  0.013051  0.811380  0.903174  1
  Nd  Nd15  1  0.669468  0.171288  0.875238  1
  Nd  Nd16  1  0.486185  0.313145  0.095887  1
  Nd  Nd17  1  0.329642  0.827561  0.376264  1
  Nd  Nd18  1  0.013850  0.812513  0.598383  1
  Nd  Nd19  1  0.489826  0.312020  0.404307  1
  Sn  Sn20  1  0.833236  0.471063  0.540863  1
  Sn  Sn21  1  0.668428  0.970153  0.458344  1
  Sn  Sn22  1  0.718547  0.862104  0.750782  1
  Sn  Sn23  1  0.170168  0.536069  0.460971  1
  Sn  Sn24  1  0.329631  0.038005  0.962163  1
  Sn  Sn25  1  0.782527  0.360244  0.250839  1
  Sn  Sn26  1  0.831131  0.464241  0.961394  1
  Sn  Sn27  1  0.527638  0.602868  0.249998  1
  Sn  Sn28  1  0.166050  0.531371  0.040026  1
  Sn  Sn29  1  0.471012  0.394833  0.750695  1
  Sn  Sn30  1  0.214021  0.639068  0.750248  1
  Sn  Sn31  1  0.973710  0.102690  0.750396  1
  Sn  Sn32  1  0.331503  0.037383  0.537371  1
  Sn  Sn33  1  0.669383  0.969450  0.040566  1
  Sn  Sn34  1  0.284722  0.136862  0.248582  1
  Sn  Sn35  1  0.028127  0.896267  0.250362  1
