# generated using pymatgen
data_YTm3V4F28
_symmetry_space_group_name_H-M   'P 1'
_cell_length_a   5.48015307
_cell_length_b   8.75700141
_cell_length_c   11.71132636
_cell_angle_alpha   63.57765734
_cell_angle_beta   90.01662925
_cell_angle_gamma   90.00082942
_symmetry_Int_Tables_number   1
_chemical_formula_structural   YTm3V4F28
_chemical_formula_sum   'Y1 Tm3 V4 F28'
_cell_volume   503.31321966
_cell_formula_units_Z   1
loop_
 _symmetry_equiv_pos_site_id
 _symmetry_equiv_pos_as_xyz
  1  'x, y, z'
loop_
 _atom_site_type_symbol
 _atom_site_label
 _atom_site_symmetry_multiplicity
 _atom_site_fract_x
 _atom_site_fract_y
 _atom_site_fract_z
 _atom_site_occupancy
  Y  Y0  1  0.241913  0.810135  0.770265  1
  Tm  Tm1  1  0.258157  0.809744  0.270225  1
  Tm  Tm2  1  0.741695  0.194860  0.728455  1
  Tm  Tm3  1  0.758220  0.191479  0.229285  1
  V  V4  1  0.754156  0.725744  0.047544  1
  V  V5  1  0.246064  0.272324  0.955009  1
  V  V6  1  0.254461  0.274883  0.453446  1
  V  V7  1  0.746272  0.726089  0.543952  1
  F  F8  1  0.955131  0.705624  0.422769  1
  F  F9  1  0.045872  0.294521  0.575297  1
  F  F10  1  0.455258  0.293418  0.076144  1
  F  F11  1  0.548257  0.704205  0.925724  1
  F  F12  1  0.478901  0.732794  0.144109  1
  F  F13  1  0.520620  0.267428  0.857442  1
  F  F14  1  0.980145  0.267090  0.356476  1
  F  F15  1  0.020669  0.730912  0.640715  1
  F  F16  1  0.961744  0.748649  0.170818  1
  F  F17  1  0.038211  0.250625  0.830940  1
  F  F18  1  0.462409  0.251444  0.330233  1
  F  F19  1  0.542379  0.746739  0.668765  1
  F  F20  1  0.765588  0.491471  0.140145  1
  F  F21  1  0.232831  0.505479  0.861586  1
  F  F22  1  0.266455  0.508385  0.360678  1
  F  F23  1  0.733189  0.491802  0.637944  1
  F  F24  1  0.962766  0.283751  0.047511  1
  F  F25  1  0.036788  0.713268  0.956348  1
  F  F26  1  0.461717  0.715339  0.452241  1
  F  F27  1  0.537446  0.285147  0.546283  1
  F  F28  1  0.743050  0.957468  0.453509  1
  F  F29  1  0.256999  0.043259  0.544527  1
  F  F30  1  0.243044  0.041038  0.046360  1
  F  F31  1  0.757154  0.956677  0.955496  1
  F  F32  1  0.573559  0.975399  0.232512  1
  F  F33  1  0.427030  0.030377  0.768307  1
  F  F34  1  0.073142  0.025197  0.267508  1
  F  F35  1  0.918711  0.977236  0.731433  1
