# generated using pymatgen
data_TmTeClO3
_symmetry_space_group_name_H-M   'P 1'
_cell_length_a   7.18116800
_cell_length_b   7.43612865
_cell_length_c   8.57911154
_cell_angle_alpha   76.49082007
_cell_angle_beta   90.00000000
_cell_angle_gamma   90.00000000
_symmetry_Int_Tables_number   1
_chemical_formula_structural   TmTeClO3
_chemical_formula_sum   'Tm4 Te4 Cl4 O12'
_cell_volume   445.45014037
_cell_formula_units_Z   4
loop_
 _symmetry_equiv_pos_site_id
 _symmetry_equiv_pos_as_xyz
  1  'x, y, z'
loop_
 _atom_site_type_symbol
 _atom_site_label
 _atom_site_symmetry_multiplicity
 _atom_site_fract_x
 _atom_site_fract_y
 _atom_site_fract_z
 _atom_site_occupancy
  Tm  Tm0  1  0.750024  0.795191  0.332584  1
  Tm  Tm1  1  0.249976  0.204809  0.667416  1
  Tm  Tm2  1  0.250024  0.704809  0.667416  1
  Tm  Tm3  1  0.749976  0.295191  0.332584  1
  Te  Te4  1  0.721127  0.944693  0.704116  1
  Te  Te5  1  0.221127  0.555307  0.295884  1
  Te  Te6  1  0.778873  0.444693  0.704116  1
  Te  Te7  1  0.278873  0.055307  0.295884  1
  Cl  Cl8  1  0.704770  0.607656  0.101498  1
  Cl  Cl9  1  0.295230  0.392344  0.898502  1
  Cl  Cl10  1  0.795230  0.107656  0.101498  1
  Cl  Cl11  1  0.204770  0.892344  0.898502  1
  O  O12  1  0.783214  0.006481  0.476968  1
  O  O13  1  0.447634  0.244521  0.319638  1
  O  O14  1  0.052366  0.744521  0.319638  1
  O  O15  1  0.552540  0.146673  0.683346  1
  O  O16  1  0.947460  0.646673  0.683346  1
  O  O17  1  0.052540  0.353327  0.316654  1
  O  O18  1  0.447460  0.853327  0.316654  1
  O  O19  1  0.552366  0.755479  0.680362  1
  O  O20  1  0.716786  0.506481  0.476968  1
  O  O21  1  0.216786  0.993519  0.523032  1
  O  O22  1  0.283214  0.493519  0.523032  1
  O  O23  1  0.947634  0.255479  0.680362  1
