# generated using pymatgen
data_Tm2Ga2PdRu
_symmetry_space_group_name_H-M   'P 1'
_cell_length_a   4.27563800
_cell_length_b   6.86551600
_cell_length_c   7.78666500
_cell_angle_alpha   90.00000000
_cell_angle_beta   90.00000000
_cell_angle_gamma   90.00000000
_symmetry_Int_Tables_number   1
_chemical_formula_structural   Tm2Ga2PdRu
_chemical_formula_sum   'Tm4 Ga4 Pd2 Ru2'
_cell_volume   228.57335484
_cell_formula_units_Z   2
loop_
 _symmetry_equiv_pos_site_id
 _symmetry_equiv_pos_as_xyz
  1  'x, y, z'
loop_
 _atom_site_type_symbol
 _atom_site_label
 _atom_site_symmetry_multiplicity
 _atom_site_fract_x
 _atom_site_fract_y
 _atom_site_fract_z
 _atom_site_occupancy
  Tm  Tm0  1  0.250000  0.972156  0.317906  1
  Tm  Tm1  1  0.250000  0.472156  0.182094  1
  Tm  Tm2  1  0.750000  0.017090  0.697199  1
  Tm  Tm3  1  0.750000  0.517090  0.802801  1
  Ga  Ga4  1  0.250000  0.343514  0.571794  1
  Ga  Ga5  1  0.250000  0.843514  0.928206  1
  Ga  Ga6  1  0.750000  0.663571  0.432538  1
  Ga  Ga7  1  0.750000  0.163571  0.067462  1
  Pd  Pd8  1  0.750000  0.772651  0.109315  1
  Pd  Pd9  1  0.750000  0.272651  0.390685  1
  Ru  Ru10  1  0.250000  0.231019  0.891120  1
  Ru  Ru11  1  0.250000  0.731019  0.608880  1
