# generated using pymatgen
data_La3As2O7F
_symmetry_space_group_name_H-M   'P 1'
_cell_length_a   12.92133000
_cell_length_b   12.92133000
_cell_length_c   5.58093400
_cell_angle_alpha   90.00000000
_cell_angle_beta   90.00000000
_cell_angle_gamma   90.00000000
_symmetry_Int_Tables_number   1
_chemical_formula_structural   La3As2O7F
_chemical_formula_sum   'La12 As8 O28 F4'
_cell_volume   931.79703220
_cell_formula_units_Z   4
loop_
 _symmetry_equiv_pos_site_id
 _symmetry_equiv_pos_as_xyz
  1  'x, y, z'
loop_
 _atom_site_type_symbol
 _atom_site_label
 _atom_site_symmetry_multiplicity
 _atom_site_fract_x
 _atom_site_fract_y
 _atom_site_fract_z
 _atom_site_occupancy
  La  La0  1  0.563017  0.138541  0.000000  1
  La  La1  1  0.274796  0.274796  0.000000  1
  La  La2  1  0.861459  0.436983  0.000000  1
  La  La3  1  0.138541  0.563017  0.000000  1
  La  La4  1  0.725204  0.725204  0.000000  1
  La  La5  1  0.436983  0.861459  0.000000  1
  La  La6  1  0.361460  0.063017  0.500001  1
  La  La7  1  0.774796  0.225204  0.500001  1
  La  La8  1  0.063017  0.361460  0.500001  1
  La  La9  1  0.936983  0.638540  0.500001  1
  La  La10  1  0.225204  0.774796  0.500001  1
  La  La11  1  0.638540  0.936983  0.500001  1
  As  As12  1  0.797915  0.015266  0.000000  1
  As  As13  1  0.984734  0.202085  0.000000  1
  As  As14  1  0.015266  0.797915  0.000000  1
  As  As15  1  0.202085  0.984734  0.000000  1
  As  As16  1  0.484734  0.297915  0.500001  1
  As  As17  1  0.297915  0.484734  0.500001  1
  As  As18  1  0.702085  0.515266  0.500001  1
  As  As19  1  0.515266  0.702085  0.500001  1
  O  O20  1  0.282594  0.095780  0.000000  1
  O  O21  1  0.095780  0.282594  0.000000  1
  O  O22  1  0.904220  0.717406  0.000000  1
  O  O23  1  0.717406  0.904220  0.000000  1
  O  O24  1  0.727528  0.077767  0.241439  1
  O  O25  1  0.922233  0.272472  0.241439  1
  O  O26  1  0.077767  0.727528  0.241439  1
  O  O27  1  0.272472  0.922233  0.241439  1
  O  O28  1  0.500000  0.000000  0.249999  1
  O  O29  1  0.000000  0.500000  0.249999  1
  O  O30  1  0.422233  0.227528  0.258562  1
  O  O31  1  0.227528  0.422233  0.258562  1
  O  O32  1  0.772473  0.577767  0.258562  1
  O  O33  1  0.577767  0.772473  0.258562  1
  O  O34  1  0.595781  0.217406  0.500001  1
  O  O35  1  0.782594  0.404219  0.500001  1
  O  O36  1  0.217406  0.595781  0.500001  1
  O  O37  1  0.404219  0.782594  0.500001  1
  O  O38  1  0.422233  0.227528  0.741439  1
  O  O39  1  0.227528  0.422233  0.741439  1
  O  O40  1  0.772473  0.577767  0.741439  1
  O  O41  1  0.577767  0.772473  0.741439  1
  O  O42  1  0.500000  0.000000  0.750000  1
  O  O43  1  0.000000  0.500000  0.750000  1
  O  O44  1  0.727528  0.077767  0.758560  1
  O  O45  1  0.922233  0.272472  0.758560  1
  O  O46  1  0.077767  0.727528  0.758560  1
  O  O47  1  0.272472  0.922233  0.758560  1
  F  F48  1  0.704081  0.295919  0.000000  1
  F  F49  1  0.295919  0.704081  0.000000  1
  F  F50  1  0.204081  0.204081  0.500001  1
  F  F51  1  0.795920  0.795920  0.500001  1
