# generated using pymatgen
data_Ho3BiSbRh3O14
_symmetry_space_group_name_H-M   'P 1'
_cell_length_a   7.33004819
_cell_length_b   7.33004821
_cell_length_c   7.33004892
_cell_angle_alpha   58.92292387
_cell_angle_beta   58.92292080
_cell_angle_gamma   58.92292739
_symmetry_Int_Tables_number   1
_chemical_formula_structural   Ho3BiSbRh3O14
_chemical_formula_sum   'Ho3 Bi1 Sb1 Rh3 O14'
_cell_volume   271.64227271
_cell_formula_units_Z   1
loop_
 _symmetry_equiv_pos_site_id
 _symmetry_equiv_pos_as_xyz
  1  'x, y, z'
loop_
 _atom_site_type_symbol
 _atom_site_label
 _atom_site_symmetry_multiplicity
 _atom_site_fract_x
 _atom_site_fract_y
 _atom_site_fract_z
 _atom_site_occupancy
  Ho  Ho0  1  0.125000  0.625000  0.125000  1
  Ho  Ho1  1  0.625000  0.125000  0.125000  1
  Ho  Ho2  1  0.125000  0.125000  0.625000  1
  Bi  Bi3  1  0.125000  0.125000  0.125000  1
  Sb  Sb4  1  0.625000  0.625000  0.625000  1
  Rh  Rh5  1  0.625000  0.625000  0.125000  1
  Rh  Rh6  1  0.125000  0.625000  0.625000  1
  Rh  Rh7  1  0.625000  0.125000  0.625000  1
  O  O8  1  0.252412  0.252412  0.252412  1
  O  O9  1  0.286019  0.706502  0.286019  1
  O  O10  1  0.963981  0.963981  0.543498  1
  O  O11  1  0.537761  0.961034  0.537761  1
  O  O12  1  0.712239  0.712239  0.288966  1
  O  O13  1  0.961034  0.537761  0.537761  1
  O  O14  1  0.712239  0.288966  0.712239  1
  O  O15  1  0.286019  0.286019  0.706502  1
  O  O16  1  0.706502  0.286019  0.286019  1
  O  O17  1  0.288966  0.712239  0.712239  1
  O  O18  1  0.963981  0.543498  0.963981  1
  O  O19  1  0.537761  0.537761  0.961034  1
  O  O20  1  0.997588  0.997588  0.997588  1
  O  O21  1  0.543498  0.963981  0.963981  1
