# generated using pymatgen
data_Te19P
_symmetry_space_group_name_H-M   'P 1'
_cell_length_a   7.96740280
_cell_length_b   8.94102754
_cell_length_c   10.12016500
_cell_angle_alpha   103.09486428
_cell_angle_beta   96.93454965
_cell_angle_gamma   107.31739481
_symmetry_Int_Tables_number   1
_chemical_formula_structural   Te19P
_chemical_formula_sum   'Te19 P1'
_cell_volume   656.48094483
_cell_formula_units_Z   1
loop_
 _symmetry_equiv_pos_site_id
 _symmetry_equiv_pos_as_xyz
  1  'x, y, z'
loop_
 _atom_site_type_symbol
 _atom_site_label
 _atom_site_symmetry_multiplicity
 _atom_site_fract_x
 _atom_site_fract_y
 _atom_site_fract_z
 _atom_site_occupancy
  Te  Te0  1  0.804850  0.578361  0.605216  1
  Te  Te1  1  0.598329  0.184157  0.194244  1
  Te  Te2  1  0.401671  0.815843  0.805756  1
  Te  Te3  1  0.595883  0.687006  0.194987  1
  Te  Te4  1  0.195150  0.421639  0.394784  1
  Te  Te5  1  0.404117  0.312994  0.805013  1
  Te  Te6  1  0.000000  0.000000  0.000000  1
  Te  Te7  1  0.192802  0.913268  0.392097  1
  Te  Te8  1  0.807198  0.086732  0.607903  1
  Te  Te9  1  0.720655  0.625130  0.915365  1
  Te  Te10  1  0.498298  0.253306  0.499238  1
  Te  Te11  1  0.717283  0.152384  0.911838  1
  Te  Te12  1  0.282717  0.847616  0.088162  1
  Te  Te13  1  0.501702  0.746694  0.500762  1
  Te  Te14  1  0.091513  0.472006  0.721594  1
  Te  Te15  1  0.279345  0.374870  0.084635  1
  Te  Te16  1  0.904403  0.036436  0.300092  1
  Te  Te17  1  0.095597  0.963564  0.699908  1
  Te  Te18  1  0.908487  0.527994  0.278406  1
  P  P19  1  0.000000  0.500000  0.000000  1
