# generated using pymatgen
data_Ti3Mn3SiGeAs
_symmetry_space_group_name_H-M   'P 1'
_cell_length_a   6.55748300
_cell_length_b   6.55748437
_cell_length_c   3.26320900
_cell_angle_alpha   90.00000000
_cell_angle_beta   90.00000000
_cell_angle_gamma   119.99999211
_symmetry_Int_Tables_number   1
_chemical_formula_structural   Ti3Mn3SiGeAs
_chemical_formula_sum   'Ti3 Mn3 Si1 Ge1 As1'
_cell_volume   121.52062479
_cell_formula_units_Z   1
loop_
 _symmetry_equiv_pos_site_id
 _symmetry_equiv_pos_as_xyz
  1  'x, y, z'
loop_
 _atom_site_type_symbol
 _atom_site_label
 _atom_site_symmetry_multiplicity
 _atom_site_fract_x
 _atom_site_fract_y
 _atom_site_fract_z
 _atom_site_occupancy
  Ti  Ti0  1  0.601526  0.000654  0.000000  1
  Ti  Ti1  1  0.999346  0.600872  0.000000  1
  Ti  Ti2  1  0.399128  0.398474  0.000000  1
  Mn  Mn3  1  0.251333  0.001030  0.500000  1
  Mn  Mn4  1  0.998970  0.250302  0.500000  1
  Mn  Mn5  1  0.749698  0.748667  0.500000  1
  Si  Si6  1  0.000000  0.000000  0.000000  1
  Ge  Ge7  1  0.333333  0.666667  0.500000  1
  As  As8  1  0.666667  0.333333  0.500000  1
