# generated using pymatgen
data_YbTh2Co7C2
_symmetry_space_group_name_H-M   'P 1'
_cell_length_a   5.04963800
_cell_length_b   5.05022553
_cell_length_c   14.06906600
_cell_angle_alpha   90.00000000
_cell_angle_beta   90.00000000
_cell_angle_gamma   119.99892455
_symmetry_Int_Tables_number   1
_chemical_formula_structural   YbTh2Co7C2
_chemical_formula_sum   'Yb2 Th4 Co14 C4'
_cell_volume   310.72172781
_cell_formula_units_Z   2
loop_
 _symmetry_equiv_pos_site_id
 _symmetry_equiv_pos_as_xyz
  1  'x, y, z'
loop_
 _atom_site_type_symbol
 _atom_site_label
 _atom_site_symmetry_multiplicity
 _atom_site_fract_x
 _atom_site_fract_y
 _atom_site_fract_z
 _atom_site_occupancy
  Yb  Yb0  1  0.666669  0.333333  0.750000  1
  Yb  Yb1  1  0.333331  0.666667  0.250000  1
  Th  Th2  1  0.666663  0.333334  0.539158  1
  Th  Th3  1  0.333337  0.666666  0.460842  1
  Th  Th4  1  0.333337  0.666666  0.039158  1
  Th  Th5  1  0.666663  0.333334  0.960842  1
  Co  Co6  1  0.165078  0.330155  0.657260  1
  Co  Co7  1  0.330168  0.165084  0.342735  1
  Co  Co8  1  0.330168  0.165084  0.157265  1
  Co  Co9  1  0.165081  0.834920  0.842735  1
  Co  Co10  1  0.834922  0.669845  0.342740  1
  Co  Co11  1  0.834919  0.165080  0.157265  1
  Co  Co12  1  0.669832  0.834916  0.657265  1
  Co  Co13  1  0.669832  0.834916  0.842735  1
  Co  Co14  1  0.165081  0.834920  0.657265  1
  Co  Co15  1  0.834922  0.669845  0.157260  1
  Co  Co16  1  0.000000  0.000000  0.000000  1
  Co  Co17  1  0.165078  0.330155  0.842740  1
  Co  Co18  1  0.834919  0.165080  0.342735  1
  Co  Co19  1  0.000000  0.000000  0.500000  1
  C  C20  1  0.666672  0.333342  0.250000  1
  C  C21  1  0.000004  0.000002  0.750000  1
  C  C22  1  0.333328  0.666658  0.750000  1
  C  C23  1  0.999996  0.999998  0.250000  1
