# generated using pymatgen
data_Dy10Bi3Pb3S2
_symmetry_space_group_name_H-M   'P 1'
_cell_length_a   9.19267600
_cell_length_b   9.19267518
_cell_length_c   6.62089200
_cell_angle_alpha   90.00000000
_cell_angle_beta   90.00000000
_cell_angle_gamma   120.00000294
_symmetry_Int_Tables_number   1
_chemical_formula_structural   Dy10Bi3Pb3S2
_chemical_formula_sum   'Dy10 Bi3 Pb3 S2'
_cell_volume   484.54151275
_cell_formula_units_Z   1
loop_
 _symmetry_equiv_pos_site_id
 _symmetry_equiv_pos_as_xyz
  1  'x, y, z'
loop_
 _atom_site_type_symbol
 _atom_site_label
 _atom_site_symmetry_multiplicity
 _atom_site_fract_x
 _atom_site_fract_y
 _atom_site_fract_z
 _atom_site_occupancy
  Dy  Dy0  1  0.756750  0.756750  0.750000  1
  Dy  Dy1  1  0.243250  0.000000  0.750000  1
  Dy  Dy2  1  0.000000  0.243250  0.750000  1
  Dy  Dy3  1  0.243705  0.243705  0.250000  1
  Dy  Dy4  1  0.756295  0.000000  0.250000  1
  Dy  Dy5  1  0.000000  0.756295  0.250000  1
  Dy  Dy6  1  0.666667  0.333333  0.002191  1
  Dy  Dy7  1  0.333333  0.666667  0.002191  1
  Dy  Dy8  1  0.333333  0.666667  0.497809  1
  Dy  Dy9  1  0.666667  0.333333  0.497809  1
  Bi  Bi10  1  0.397174  0.397174  0.750000  1
  Bi  Bi11  1  0.602826  0.000000  0.750000  1
  Bi  Bi12  1  0.000000  0.602826  0.750000  1
  Pb  Pb13  1  0.603883  0.603883  0.250000  1
  Pb  Pb14  1  0.396117  0.000000  0.250000  1
  Pb  Pb15  1  0.000000  0.396117  0.250000  1
  S  S16  1  0.000000  0.000000  0.999540  1
  S  S17  1  0.000000  0.000000  0.500460  1
