# generated using pymatgen
data_LuCoH4
_symmetry_space_group_name_H-M   'P 1'
_cell_length_a   5.94775813
_cell_length_b   5.94775809
_cell_length_c   4.62620500
_cell_angle_alpha   90.00000000
_cell_angle_beta   90.00000000
_cell_angle_gamma   145.84922240
_symmetry_Int_Tables_number   1
_chemical_formula_structural   LuCoH4
_chemical_formula_sum   'Lu2 Co2 H8'
_cell_volume   91.87190150
_cell_formula_units_Z   2
loop_
 _symmetry_equiv_pos_site_id
 _symmetry_equiv_pos_as_xyz
  1  'x, y, z'
loop_
 _atom_site_type_symbol
 _atom_site_label
 _atom_site_symmetry_multiplicity
 _atom_site_fract_x
 _atom_site_fract_y
 _atom_site_fract_z
 _atom_site_occupancy
  Lu  Lu0  1  0.866967  0.133033  0.750000  1
  Lu  Lu1  1  0.133033  0.866967  0.250000  1
  Co  Co2  1  0.599059  0.400941  0.750000  1
  Co  Co3  1  0.400941  0.599059  0.250000  1
  H  H4  1  0.089907  0.910093  0.750000  1
  H  H5  1  0.910093  0.089907  0.250000  1
  H  H6  1  0.694102  0.305898  0.495458  1
  H  H7  1  0.305898  0.694102  0.504542  1
  H  H8  1  0.694102  0.305898  0.004542  1
  H  H9  1  0.305898  0.694102  0.995458  1
  H  H10  1  0.500000  0.500000  0.000000  1
  H  H11  1  0.500000  0.500000  0.500000  1
