# generated using pymatgen
data_TbEr5Ni2
_symmetry_space_group_name_H-M   'P 1'
_cell_length_a   6.30387400
_cell_length_b   6.78173500
_cell_length_c   9.45796200
_cell_angle_alpha   90.00000000
_cell_angle_beta   90.00000000
_cell_angle_gamma   90.00000000
_symmetry_Int_Tables_number   1
_chemical_formula_structural   TbEr5Ni2
_chemical_formula_sum   'Tb2 Er10 Ni4'
_cell_volume   404.33925287
_cell_formula_units_Z   2
loop_
 _symmetry_equiv_pos_site_id
 _symmetry_equiv_pos_as_xyz
  1  'x, y, z'
loop_
 _atom_site_type_symbol
 _atom_site_label
 _atom_site_symmetry_multiplicity
 _atom_site_fract_x
 _atom_site_fract_y
 _atom_site_fract_z
 _atom_site_occupancy
  Tb  Tb0  1  0.862066  0.531659  0.250000  1
  Tb  Tb1  1  0.637934  0.031659  0.250000  1
  Er  Er2  1  0.320840  0.678369  0.065185  1
  Er  Er3  1  0.179160  0.178369  0.434815  1
  Er  Er4  1  0.679278  0.321814  0.566237  1
  Er  Er5  1  0.820722  0.821814  0.933763  1
  Er  Er6  1  0.679278  0.321814  0.933763  1
  Er  Er7  1  0.820722  0.821814  0.566237  1
  Er  Er8  1  0.320840  0.678369  0.434815  1
  Er  Er9  1  0.179160  0.178369  0.065185  1
  Er  Er10  1  0.138990  0.467626  0.750000  1
  Er  Er11  1  0.361010  0.967626  0.750000  1
  Ni  Ni12  1  0.056864  0.892095  0.250000  1
  Ni  Ni13  1  0.443136  0.392095  0.250000  1
  Ni  Ni14  1  0.945462  0.108254  0.750000  1
  Ni  Ni15  1  0.554538  0.608254  0.750000  1
