# generated using pymatgen
data_Co8Tc2Mo13PN4
_symmetry_space_group_name_H-M   'P 1'
_cell_length_a   7.94706238
_cell_length_b   7.94706219
_cell_length_c   7.82379707
_cell_angle_alpha   59.61376721
_cell_angle_beta   59.61376686
_cell_angle_gamma   60.06367632
_symmetry_Int_Tables_number   1
_chemical_formula_structural   Co8Tc2Mo13PN4
_chemical_formula_sum   'Co8 Tc2 Mo13 P1 N4'
_cell_volume   347.50551152
_cell_formula_units_Z   1
loop_
 _symmetry_equiv_pos_site_id
 _symmetry_equiv_pos_as_xyz
  1  'x, y, z'
loop_
 _atom_site_type_symbol
 _atom_site_label
 _atom_site_symmetry_multiplicity
 _atom_site_fract_x
 _atom_site_fract_y
 _atom_site_fract_z
 _atom_site_occupancy
  Co  Co0  1  0.247662  0.926456  0.898257  1
  Co  Co1  1  0.926456  0.247662  0.898257  1
  Co  Co2  1  0.928724  0.928724  0.899788  1
  Co  Co3  1  0.920316  0.920316  0.238664  1
  Co  Co4  1  0.002338  0.323544  0.351743  1
  Co  Co5  1  0.329684  0.329684  0.011336  1
  Co  Co6  1  0.323544  0.002338  0.351743  1
  Co  Co7  1  0.321276  0.321276  0.350212  1
  Tc  Tc8  1  0.625000  0.125000  0.125000  1
  Tc  Tc9  1  0.125000  0.625000  0.125000  1
  Mo  Mo10  1  0.685256  0.310163  0.694720  1
  Mo  Mo11  1  0.550474  0.550474  0.951862  1
  Mo  Mo12  1  0.564744  0.939837  0.555280  1
  Mo  Mo13  1  0.937545  0.937545  0.560616  1
  Mo  Mo14  1  0.939837  0.564744  0.555280  1
  Mo  Mo15  1  0.944366  0.556311  0.949357  1
  Mo  Mo16  1  0.693689  0.305634  0.300643  1
  Mo  Mo17  1  0.305634  0.693689  0.300643  1
  Mo  Mo18  1  0.312455  0.312455  0.689384  1
  Mo  Mo19  1  0.310163  0.685256  0.694720  1
  Mo  Mo20  1  0.699526  0.699526  0.298138  1
  Mo  Mo21  1  0.125000  0.125000  0.125000  1
  Mo  Mo22  1  0.556311  0.944366  0.949357  1
  P  P23  1  0.125000  0.125000  0.625000  1
  N  N24  1  0.625000  0.625000  0.625000  1
  N  N25  1  0.125000  0.625000  0.625000  1
  N  N26  1  0.625000  0.125000  0.625000  1
  N  N27  1  0.625000  0.625000  0.125000  1
