# generated using pymatgen
data_Tm4MnAl6Fe
_symmetry_space_group_name_H-M   'P 1'
_cell_length_a   5.48253700
_cell_length_b   5.48253734
_cell_length_c   8.62030300
_cell_angle_alpha   90.00000000
_cell_angle_beta   90.00000000
_cell_angle_gamma   119.99999192
_symmetry_Int_Tables_number   1
_chemical_formula_structural   Tm4MnAl6Fe
_chemical_formula_sum   'Tm4 Mn1 Al6 Fe1'
_cell_volume   224.39664939
_cell_formula_units_Z   1
loop_
 _symmetry_equiv_pos_site_id
 _symmetry_equiv_pos_as_xyz
  1  'x, y, z'
loop_
 _atom_site_type_symbol
 _atom_site_label
 _atom_site_symmetry_multiplicity
 _atom_site_fract_x
 _atom_site_fract_y
 _atom_site_fract_z
 _atom_site_occupancy
  Tm  Tm0  1  0.666665  0.333333  0.055155  1
  Tm  Tm1  1  0.666665  0.333333  0.444386  1
  Tm  Tm2  1  0.333334  0.666667  0.555615  1
  Tm  Tm3  1  0.333334  0.666667  0.944845  1
  Mn  Mn4  1  0.000000  0.000000  0.000000  1
  Al  Al5  1  0.162459  0.324919  0.252421  1
  Al  Al6  1  0.162458  0.837541  0.252421  1
  Al  Al7  1  0.675082  0.837541  0.252421  1
  Al  Al8  1  0.324919  0.162459  0.747579  1
  Al  Al9  1  0.837541  0.162459  0.747579  1
  Al  Al10  1  0.837540  0.675081  0.747579  1
  Fe  Fe11  1  0.000000  0.000000  0.500000  1
