# generated using pymatgen
data_AcGa2NiRu
_symmetry_space_group_name_H-M   'P 1'
_cell_length_a   4.33044949
_cell_length_b   4.33044805
_cell_length_c   6.03067817
_cell_angle_alpha   111.04093933
_cell_angle_beta   111.04095547
_cell_angle_gamma   89.99997919
_symmetry_Int_Tables_number   1
_chemical_formula_structural   AcGa2NiRu
_chemical_formula_sum   'Ac1 Ga2 Ni1 Ru1'
_cell_volume   97.42913664
_cell_formula_units_Z   1
loop_
 _symmetry_equiv_pos_site_id
 _symmetry_equiv_pos_as_xyz
  1  'x, y, z'
loop_
 _atom_site_type_symbol
 _atom_site_label
 _atom_site_symmetry_multiplicity
 _atom_site_fract_x
 _atom_site_fract_y
 _atom_site_fract_z
 _atom_site_occupancy
  Ac  Ac0  1  0.000000  0.000000  0.000000  1
  Ga  Ga1  1  0.363679  0.363679  0.727357  1
  Ga  Ga2  1  0.636321  0.636321  0.272643  1
  Ni  Ni3  1  0.750000  0.250000  0.500000  1
  Ru  Ru4  1  0.250000  0.750000  0.500000  1
