# generated using pymatgen
data_Ho7Sn22BiRu6
_symmetry_space_group_name_H-M   'P 1'
_cell_length_a   9.83751200
_cell_length_b   9.83751037
_cell_length_c   10.07166800
_cell_angle_alpha   90.00000000
_cell_angle_beta   90.00000000
_cell_angle_gamma   119.99999875
_symmetry_Int_Tables_number   1
_chemical_formula_structural   Ho7Sn22BiRu6
_chemical_formula_sum   'Ho7 Sn22 Bi1 Ru6'
_cell_volume   844.11674763
_cell_formula_units_Z   1
loop_
 _symmetry_equiv_pos_site_id
 _symmetry_equiv_pos_as_xyz
  1  'x, y, z'
loop_
 _atom_site_type_symbol
 _atom_site_label
 _atom_site_symmetry_multiplicity
 _atom_site_fract_x
 _atom_site_fract_y
 _atom_site_fract_z
 _atom_site_occupancy
  Ho  Ho0  1  0.000000  0.000000  0.000000  1
  Ho  Ho1  1  0.515254  0.484746  0.696085  1
  Ho  Ho2  1  0.515254  0.030507  0.696085  1
  Ho  Ho3  1  0.969493  0.484746  0.696085  1
  Ho  Ho4  1  0.030507  0.515254  0.303915  1
  Ho  Ho5  1  0.484746  0.969493  0.303915  1
  Ho  Ho6  1  0.484746  0.515254  0.303915  1
  Sn  Sn7  1  0.666667  0.333333  0.178206  1
  Sn  Sn8  1  0.666667  0.333333  0.870742  1
  Sn  Sn9  1  0.333333  0.666667  0.129258  1
  Sn  Sn10  1  0.349309  0.349309  0.000000  1
  Sn  Sn11  1  0.000000  0.650691  0.000000  1
  Sn  Sn12  1  0.650691  0.000000  0.000000  1
  Sn  Sn13  1  0.650691  0.650691  0.000000  1
  Sn  Sn14  1  0.333333  0.666667  0.821794  1
  Sn  Sn15  1  0.440327  0.220164  0.462947  1
  Sn  Sn16  1  0.220164  0.779836  0.537053  1
  Sn  Sn17  1  0.220164  0.440327  0.537053  1
  Sn  Sn18  1  0.559673  0.779836  0.537053  1
  Sn  Sn19  1  0.120059  0.879941  0.271299  1
  Sn  Sn20  1  0.779836  0.559673  0.462947  1
  Sn  Sn21  1  0.779836  0.220164  0.462947  1
  Sn  Sn22  1  0.349309  0.000000  0.000000  1
  Sn  Sn23  1  0.120059  0.240117  0.271299  1
  Sn  Sn24  1  0.759883  0.879941  0.271299  1
  Sn  Sn25  1  0.240117  0.120059  0.728701  1
  Sn  Sn26  1  0.879941  0.759883  0.728701  1
  Sn  Sn27  1  0.879941  0.120059  0.728701  1
  Sn  Sn28  1  0.000000  0.349309  0.000000  1
  Bi  Bi29  1  0.000000  0.000000  0.500000  1
  Ru  Ru30  1  0.169988  0.830012  0.797658  1
  Ru  Ru31  1  0.169988  0.339974  0.797658  1
  Ru  Ru32  1  0.660026  0.830012  0.797658  1
  Ru  Ru33  1  0.339974  0.169988  0.202342  1
  Ru  Ru34  1  0.830012  0.660026  0.202342  1
  Ru  Ru35  1  0.830012  0.169988  0.202342  1
