# generated using pymatgen
data_Tb4Zn3In5
_symmetry_space_group_name_H-M   'P 1'
_cell_length_a   4.74972100
_cell_length_b   7.31866411
_cell_length_c   8.22340222
_cell_angle_alpha   89.97685954
_cell_angle_beta   90.00000000
_cell_angle_gamma   90.00000000
_symmetry_Int_Tables_number   1
_chemical_formula_structural   Tb4Zn3In5
_chemical_formula_sum   'Tb4 Zn3 In5'
_cell_volume   285.85869898
_cell_formula_units_Z   1
loop_
 _symmetry_equiv_pos_site_id
 _symmetry_equiv_pos_as_xyz
  1  'x, y, z'
loop_
 _atom_site_type_symbol
 _atom_site_label
 _atom_site_symmetry_multiplicity
 _atom_site_fract_x
 _atom_site_fract_y
 _atom_site_fract_z
 _atom_site_occupancy
  Tb  Tb0  1  0.500000  0.494068  0.744334  1
  Tb  Tb1  1  0.500000  0.982104  0.747915  1
  Tb  Tb2  1  0.000000  0.501283  0.256758  1
  Tb  Tb3  1  0.000000  0.991268  0.252859  1
  Zn  Zn4  1  0.500000  0.787265  0.417288  1
  Zn  Zn5  1  0.000000  0.789655  0.917580  1
  Zn  Zn6  1  0.000000  0.300403  0.579325  1
  In  In7  1  0.500000  0.728925  0.082184  1
  In  In8  1  0.500000  0.215077  0.429761  1
  In  In9  1  0.000000  0.206467  0.901445  1
  In  In10  1  0.000000  0.720668  0.585303  1
  In  In11  1  0.500000  0.282817  0.085248  1
