# generated using pymatgen
data_Nd3LuSb10
_symmetry_space_group_name_H-M   'P 1'
_cell_length_a   4.29733100
_cell_length_b   13.42210897
_cell_length_c   14.97147097
_cell_angle_alpha   78.15160368
_cell_angle_beta   90.00000000
_cell_angle_gamma   90.00000000
_symmetry_Int_Tables_number   1
_chemical_formula_structural   Nd3LuSb10
_chemical_formula_sum   'Nd6 Lu2 Sb20'
_cell_volume   845.14475670
_cell_formula_units_Z   2
loop_
 _symmetry_equiv_pos_site_id
 _symmetry_equiv_pos_as_xyz
  1  'x, y, z'
loop_
 _atom_site_type_symbol
 _atom_site_label
 _atom_site_symmetry_multiplicity
 _atom_site_fract_x
 _atom_site_fract_y
 _atom_site_fract_z
 _atom_site_occupancy
  Nd  Nd0  1  0.250000  0.664943  0.857390  1
  Nd  Nd1  1  0.750000  0.335057  0.142610  1
  Nd  Nd2  1  0.250000  0.667715  0.576198  1
  Nd  Nd3  1  0.750000  0.332285  0.423802  1
  Nd  Nd4  1  0.250000  0.948169  0.360216  1
  Nd  Nd5  1  0.750000  0.051831  0.639784  1
  Lu  Lu6  1  0.250000  0.398541  0.772204  1
  Lu  Lu7  1  0.750000  0.601459  0.227796  1
  Sb  Sb8  1  0.250000  0.149465  0.783309  1
  Sb  Sb9  1  0.750000  0.850535  0.216691  1
  Sb  Sb10  1  0.250000  0.143752  0.478410  1
  Sb  Sb11  1  0.750000  0.856248  0.521590  1
  Sb  Sb12  1  0.250000  0.147303  0.178971  1
  Sb  Sb13  1  0.750000  0.852697  0.821029  1
  Sb  Sb14  1  0.250000  0.419830  0.972121  1
  Sb  Sb15  1  0.750000  0.580170  0.027879  1
  Sb  Sb16  1  0.750000  0.034645  0.893326  1
  Sb  Sb17  1  0.250000  0.965355  0.106674  1
  Sb  Sb18  1  0.750000  0.136975  0.324315  1
  Sb  Sb19  1  0.250000  0.863025  0.675685  1
  Sb  Sb20  1  0.750000  0.285641  0.932588  1
  Sb  Sb21  1  0.250000  0.714359  0.067412  1
  Sb  Sb22  1  0.750000  0.295444  0.650353  1
  Sb  Sb23  1  0.250000  0.704556  0.349647  1
  Sb  Sb24  1  0.750000  0.570827  0.737494  1
  Sb  Sb25  1  0.250000  0.429173  0.262506  1
  Sb  Sb26  1  0.750000  0.575068  0.440531  1
  Sb  Sb27  1  0.250000  0.424932  0.559469  1
