# generated using pymatgen
data_Tb15NdMgAg3Pt4
_symmetry_space_group_name_H-M   'P 1'
_cell_length_a   9.68279397
_cell_length_b   9.70938703
_cell_length_c   9.69329000
_cell_angle_alpha   60.05482721
_cell_angle_beta   59.96413548
_cell_angle_gamma   59.94235002
_symmetry_Int_Tables_number   1
_chemical_formula_structural   Tb15NdMgAg3Pt4
_chemical_formula_sum   'Tb15 Nd1 Mg1 Ag3 Pt4'
_cell_volume   644.20006197
_cell_formula_units_Z   1
loop_
 _symmetry_equiv_pos_site_id
 _symmetry_equiv_pos_as_xyz
  1  'x, y, z'
loop_
 _atom_site_type_symbol
 _atom_site_label
 _atom_site_symmetry_multiplicity
 _atom_site_fract_x
 _atom_site_fract_y
 _atom_site_fract_z
 _atom_site_occupancy
  Tb  Tb0  1  0.352648  0.351614  0.349395  1
  Tb  Tb1  1  0.352648  0.351614  0.946345  1
  Tb  Tb2  1  0.355747  0.942674  0.350790  1
  Tb  Tb3  1  0.929526  0.359009  0.355734  1
  Tb  Tb4  1  0.809113  0.190942  0.190299  1
  Tb  Tb5  1  0.188595  0.811731  0.811801  1
  Tb  Tb6  1  0.188595  0.811731  0.187874  1
  Tb  Tb7  1  0.809113  0.190942  0.809646  1
  Tb  Tb8  1  0.188468  0.189607  0.810963  1
  Tb  Tb9  1  0.809680  0.810031  0.190144  1
  Tb  Tb10  1  0.933096  0.563792  0.565962  1
  Tb  Tb11  1  0.562171  0.935172  0.936318  1
  Tb  Tb12  1  0.562171  0.935172  0.566338  1
  Tb  Tb13  1  0.933096  0.563792  0.937149  1
  Tb  Tb14  1  0.564439  0.566380  0.934590  1
  Nd  Nd15  1  0.933457  0.932272  0.567135  1
  Mg  Mg16  1  0.288533  0.569002  0.571233  1
  Ag  Ag17  1  0.582315  0.586991  0.586625  1
  Ag  Ag18  1  0.582315  0.586991  0.244069  1
  Ag  Ag19  1  0.579044  0.246468  0.587245  1
  Pt  Pt20  1  0.142044  0.145800  0.144174  1
  Pt  Pt21  1  0.142044  0.145800  0.567984  1
  Pt  Pt22  1  0.140651  0.569506  0.144922  1
  Pt  Pt23  1  0.570492  0.142970  0.143270  1
