# generated using pymatgen
data_LaYbSnIr2
_symmetry_space_group_name_H-M   'P 1'
_cell_length_a   5.83686486
_cell_length_b   5.83686423
_cell_length_c   8.17672675
_cell_angle_alpha   101.85825298
_cell_angle_beta   101.85825439
_cell_angle_gamma   58.68577928
_symmetry_Int_Tables_number   1
_chemical_formula_structural   LaYbSnIr2
_chemical_formula_sum   'La2 Yb2 Sn2 Ir4'
_cell_volume   231.28577202
_cell_formula_units_Z   2
loop_
 _symmetry_equiv_pos_site_id
 _symmetry_equiv_pos_as_xyz
  1  'x, y, z'
loop_
 _atom_site_type_symbol
 _atom_site_label
 _atom_site_symmetry_multiplicity
 _atom_site_fract_x
 _atom_site_fract_y
 _atom_site_fract_z
 _atom_site_occupancy
  La  La0  1  0.795043  0.491562  0.136875  1
  La  La1  1  0.508438  0.204957  0.363126  1
  Yb  Yb2  1  0.498202  0.798924  0.654623  1
  Yb  Yb3  1  0.201076  0.501798  0.845377  1
  Sn  Sn4  1  0.146235  0.853765  0.250000  1
  Sn  Sn5  1  0.867421  0.132579  0.750001  1
  Ir  Ir6  1  0.281411  0.010056  0.004683  1
  Ir  Ir7  1  0.989944  0.718588  0.495318  1
  Ir  Ir8  1  0.992524  0.280294  0.498297  1
  Ir  Ir9  1  0.719705  0.007475  0.001703  1
