# generated using pymatgen
data_Y2Ho3Al2Ru3
_symmetry_space_group_name_H-M   'P 1'
_cell_length_a   8.34112153
_cell_length_b   8.34112213
_cell_length_c   8.34112176
_cell_angle_alpha   109.57231782
_cell_angle_beta   109.57231484
_cell_angle_gamma   109.57231198
_symmetry_Int_Tables_number   1
_chemical_formula_structural   Y2Ho3Al2Ru3
_chemical_formula_sum   'Y4 Ho6 Al4 Ru6'
_cell_volume   445.05661429
_cell_formula_units_Z   2
loop_
 _symmetry_equiv_pos_site_id
 _symmetry_equiv_pos_as_xyz
  1  'x, y, z'
loop_
 _atom_site_type_symbol
 _atom_site_label
 _atom_site_symmetry_multiplicity
 _atom_site_fract_x
 _atom_site_fract_y
 _atom_site_fract_z
 _atom_site_occupancy
  Y  Y0  1  0.785168  0.785168  0.785168  1
  Y  Y1  1  0.318517  0.568577  0.750111  1
  Y  Y2  1  0.750111  0.318517  0.568577  1
  Y  Y3  1  0.568577  0.750111  0.318517  1
  Ho  Ho4  1  0.713080  0.501295  0.001128  1
  Ho  Ho5  1  0.001128  0.713080  0.501295  1
  Ho  Ho6  1  0.501295  0.001128  0.713080  1
  Ho  Ho7  1  0.250755  0.180442  0.929900  1
  Ho  Ho8  1  0.929900  0.250755  0.180442  1
  Ho  Ho9  1  0.180442  0.929900  0.250755  1
  Al  Al10  1  0.407838  0.407838  0.407838  1
  Al  Al11  1  0.089596  0.499727  0.001343  1
  Al  Al12  1  0.001343  0.089596  0.499727  1
  Al  Al13  1  0.499727  0.001343  0.089596  1
  Ru  Ru14  1  0.879896  0.127860  0.750340  1
  Ru  Ru15  1  0.750340  0.879896  0.127860  1
  Ru  Ru16  1  0.127860  0.750340  0.879896  1
  Ru  Ru17  1  0.248209  0.622199  0.374021  1
  Ru  Ru18  1  0.374021  0.248209  0.622199  1
  Ru  Ru19  1  0.622199  0.374021  0.248209  1
