# generated using pymatgen
data_Lu12Sc8Si15Au
_symmetry_space_group_name_H-M   'P 1'
_cell_length_a   7.13361385
_cell_length_b   7.38100652
_cell_length_c   14.03553643
_cell_angle_alpha   90.15058611
_cell_angle_beta   89.62161386
_cell_angle_gamma   90.03373172
_symmetry_Int_Tables_number   1
_chemical_formula_structural   Lu12Sc8Si15Au
_chemical_formula_sum   'Lu12 Sc8 Si15 Au1'
_cell_volume   738.99782371
_cell_formula_units_Z   1
loop_
 _symmetry_equiv_pos_site_id
 _symmetry_equiv_pos_as_xyz
  1  'x, y, z'
loop_
 _atom_site_type_symbol
 _atom_site_label
 _atom_site_symmetry_multiplicity
 _atom_site_fract_x
 _atom_site_fract_y
 _atom_site_fract_z
 _atom_site_occupancy
  Lu  Lu0  1  0.172832  0.993523  0.750072  1
  Lu  Lu1  1  0.829202  0.005645  0.251006  1
  Lu  Lu2  1  0.326887  0.497442  0.249228  1
  Lu  Lu3  1  0.674557  0.505951  0.750970  1
  Lu  Lu4  1  0.995830  0.668823  0.596349  1
  Lu  Lu5  1  0.002662  0.329368  0.400990  1
  Lu  Lu6  1  0.504650  0.179197  0.402350  1
  Lu  Lu7  1  0.006947  0.325636  0.095713  1
  Lu  Lu8  1  0.497119  0.820199  0.597749  1
  Lu  Lu9  1  0.993112  0.674411  0.905692  1
  Lu  Lu10  1  0.491388  0.822059  0.905581  1
  Lu  Lu11  1  0.507995  0.177867  0.094904  1
  Sc  Sc12  1  0.349373  0.323450  0.623773  1
  Sc  Sc13  1  0.655323  0.678634  0.375513  1
  Sc  Sc14  1  0.160606  0.824649  0.373446  1
  Sc  Sc15  1  0.661573  0.678192  0.123354  1
  Sc  Sc16  1  0.836471  0.175078  0.624790  1
  Sc  Sc17  1  0.336497  0.321671  0.877731  1
  Sc  Sc18  1  0.838451  0.178711  0.877081  1
  Sc  Sc19  1  0.160164  0.822253  0.124284  1
  Si  Si20  1  0.049735  0.378963  0.750534  1
  Si  Si21  1  0.951013  0.616849  0.248937  1
  Si  Si22  1  0.455001  0.886589  0.248391  1
  Si  Si23  1  0.546902  0.113892  0.752124  1
  Si  Si24  1  0.290437  0.622048  0.751383  1
  Si  Si25  1  0.708160  0.375601  0.248311  1
  Si  Si26  1  0.211418  0.128968  0.247108  1
  Si  Si27  1  0.790566  0.873238  0.753962  1
  Si  Si28  1  0.829950  0.964871  0.461370  1
  Si  Si29  1  0.327274  0.537518  0.461388  1
  Si  Si30  1  0.835888  0.965325  0.037269  1
  Si  Si31  1  0.671562  0.463265  0.536882  1
  Si  Si32  1  0.162297  0.034649  0.963442  1
  Si  Si33  1  0.665720  0.465213  0.962476  1
  Si  Si34  1  0.333648  0.536159  0.038026  1
  Au  Au35  1  0.168787  0.034093  0.537823  1
