# generated using pymatgen
data_Ti6Re5Si6Ru
_symmetry_space_group_name_H-M   'P 1'
_cell_length_a   7.53511425
_cell_length_b   7.53355593
_cell_length_c   7.53300629
_cell_angle_alpha   126.34893132
_cell_angle_beta   129.03189102
_cell_angle_gamma   77.15161148
_symmetry_Int_Tables_number   1
_chemical_formula_structural   Ti6Re5Si6Ru
_chemical_formula_sum   'Ti6 Re5 Si6 Ru1'
_cell_volume   259.64339475
_cell_formula_units_Z   1
loop_
 _symmetry_equiv_pos_site_id
 _symmetry_equiv_pos_as_xyz
  1  'x, y, z'
loop_
 _atom_site_type_symbol
 _atom_site_label
 _atom_site_symmetry_multiplicity
 _atom_site_fract_x
 _atom_site_fract_y
 _atom_site_fract_z
 _atom_site_occupancy
  Ti  Ti0  1  0.248073  0.900157  0.154666  1
  Ti  Ti1  1  0.951032  0.491383  0.038625  1
  Ti  Ti2  1  0.049302  0.099509  0.546393  1
  Ti  Ti3  1  0.453153  0.491112  0.540724  1
  Ti  Ti4  1  0.745414  0.900272  0.651155  1
  Ti  Ti5  1  0.553591  0.100415  0.050685  1
  Re  Re6  1  0.498601  0.234776  0.735046  1
  Re  Re7  1  0.000198  0.235548  0.235229  1
  Re  Re8  1  0.869294  0.495912  0.626702  1
  Re  Re9  1  0.630888  0.759562  0.127391  1
  Re  Re10  1  0.370111  0.496194  0.127987  1
  Si  Si11  1  0.753733  0.501764  0.250224  1
  Si  Si12  1  0.166309  0.158504  0.992530  1
  Si  Si13  1  0.665654  0.160322  0.494431  1
  Si  Si14  1  0.330709  0.828579  0.498299  1
  Si  Si15  1  0.251152  0.501429  0.748069  1
  Si  Si16  1  0.831980  0.829207  0.996711  1
  Ru  Ru17  1  0.130807  0.757565  0.627345  1
