# generated using pymatgen
data_Y3Ho4Er(SiPd)8
_symmetry_space_group_name_H-M   'P 1'
_cell_length_a   4.33117900
_cell_length_b   7.49555800
_cell_length_c   13.89189100
_cell_angle_alpha   89.99985823
_cell_angle_beta   89.99980841
_cell_angle_gamma   90.00034014
_symmetry_Int_Tables_number   1
_chemical_formula_structural   Y3Ho4Er(SiPd)8
_chemical_formula_sum   'Y3 Ho4 Er1 Si8 Pd8'
_cell_volume   450.99473184
_cell_formula_units_Z   1
loop_
 _symmetry_equiv_pos_site_id
 _symmetry_equiv_pos_as_xyz
  1  'x, y, z'
loop_
 _atom_site_type_symbol
 _atom_site_label
 _atom_site_symmetry_multiplicity
 _atom_site_fract_x
 _atom_site_fract_y
 _atom_site_fract_z
 _atom_site_occupancy
  Y  Y0  1  0.999998  0.299790  0.999894  1
  Y  Y1  1  0.499993  0.700563  0.500133  1
  Y  Y2  1  0.999992  0.290699  0.500051  1
  Ho  Ho3  1  0.500005  0.709738  0.999897  1
  Ho  Ho4  1  0.000004  0.210038  0.248946  1
  Ho  Ho5  1  0.499999  0.789881  0.250875  1
  Ho  Ho6  1  0.999995  0.209772  0.751047  1
  Er  Er7  1  0.499974  0.789312  0.749150  1
  Si  Si8  1  0.000002  0.909185  0.594082  1
  Si  Si9  1  0.499999  0.090415  0.906044  1
  Si  Si10  1  0.000004  0.909205  0.406241  1
  Si  Si11  1  0.500001  0.090485  0.093720  1
  Si  Si12  1  0.000001  0.591732  0.144340  1
  Si  Si13  1  0.500005  0.408449  0.355421  1
  Si  Si14  1  0.000001  0.592092  0.855498  1
  Si  Si15  1  0.500003  0.408517  0.644601  1
  Pd  Pd16  1  0.500002  0.075476  0.609304  1
  Pd  Pd17  1  0.000003  0.923410  0.890975  1
  Pd  Pd18  1  0.500003  0.075889  0.391067  1
  Pd  Pd19  1  0.999998  0.923621  0.108611  1
  Pd  Pd20  1  0.500007  0.420585  0.156630  1
  Pd  Pd21  1  0.000007  0.579828  0.343021  1
  Pd  Pd22  1  0.500005  0.420993  0.843186  1
  Pd  Pd23  1  0.000001  0.580325  0.657267  1
