# generated using pymatgen
data_SrTb5PrIrBr12
_symmetry_space_group_name_H-M   'P 1'
_cell_length_a   9.37324148
_cell_length_b   9.34940465
_cell_length_c   9.40616386
_cell_angle_alpha   105.83874939
_cell_angle_beta   105.92858286
_cell_angle_gamma   106.55814648
_symmetry_Int_Tables_number   1
_chemical_formula_structural   SrTb5PrIrBr12
_chemical_formula_sum   'Sr1 Tb5 Pr1 Ir1 Br12'
_cell_volume   702.48745908
_cell_formula_units_Z   1
loop_
 _symmetry_equiv_pos_site_id
 _symmetry_equiv_pos_as_xyz
  1  'x, y, z'
loop_
 _atom_site_type_symbol
 _atom_site_label
 _atom_site_symmetry_multiplicity
 _atom_site_fract_x
 _atom_site_fract_y
 _atom_site_fract_z
 _atom_site_occupancy
  Sr  Sr0  1  0.499618  0.501135  0.498119  1
  Tb  Tb1  1  0.098788  0.298231  0.017634  1
  Tb  Tb2  1  0.312252  0.018799  0.103148  1
  Tb  Tb3  1  0.018870  0.103897  0.310859  1
  Tb  Tb4  1  0.982556  0.900966  0.691636  1
  Tb  Tb5  1  0.687827  0.978757  0.897129  1
  Pr  Pr6  1  0.898765  0.689919  0.983416  1
  Ir  Ir7  1  0.000126  0.998729  0.001645  1
  Br  Br8  1  0.229354  0.680663  0.076651  1
  Br  Br9  1  0.444148  0.362321  0.141842  1
  Br  Br10  1  0.676403  0.073358  0.215588  1
  Br  Br11  1  0.929350  0.791713  0.334076  1
  Br  Br12  1  0.141668  0.444294  0.359512  1
  Br  Br13  1  0.362173  0.142410  0.444471  1
  Br  Br14  1  0.638467  0.860741  0.556705  1
  Br  Br15  1  0.856309  0.555983  0.627744  1
  Br  Br16  1  0.074685  0.219015  0.680152  1
  Br  Br17  1  0.323733  0.928969  0.785090  1
  Br  Br18  1  0.543226  0.637008  0.850076  1
  Br  Br19  1  0.781683  0.313095  0.924509  1
