# generated using pymatgen
data_La4Ag2IrPt
_symmetry_space_group_name_H-M   'P 1'
_cell_length_a   4.74684600
_cell_length_b   5.88003669
_cell_length_c   7.56542500
_cell_angle_alpha   92.38386546
_cell_angle_beta   90.00000000
_cell_angle_gamma   90.00000000
_symmetry_Int_Tables_number   1
_chemical_formula_structural   La4Ag2IrPt
_chemical_formula_sum   'La4 Ag2 Ir1 Pt1'
_cell_volume   210.98058855
_cell_formula_units_Z   1
loop_
 _symmetry_equiv_pos_site_id
 _symmetry_equiv_pos_as_xyz
  1  'x, y, z'
loop_
 _atom_site_type_symbol
 _atom_site_label
 _atom_site_symmetry_multiplicity
 _atom_site_fract_x
 _atom_site_fract_y
 _atom_site_fract_z
 _atom_site_occupancy
  La  La0  1  0.250000  0.645595  0.164610  1
  La  La1  1  0.750000  0.343614  0.837453  1
  La  La2  1  0.750000  0.138056  0.286126  1
  La  La3  1  0.250000  0.865045  0.712886  1
  Ag  Ag4  1  0.750000  0.640984  0.467746  1
  Ag  Ag5  1  0.250000  0.359581  0.533842  1
  Ir  Ir6  1  0.250000  0.177829  0.044140  1
  Pt  Pt7  1  0.750000  0.829296  0.953197  1
