# generated using pymatgen
data_Gd3Cd3Ag2Pt
_symmetry_space_group_name_H-M   'P 1'
_cell_length_a   8.15978700
_cell_length_b   8.15978740
_cell_length_c   3.79182500
_cell_angle_alpha   90.00000000
_cell_angle_beta   90.00000000
_cell_angle_gamma   120.00000245
_symmetry_Int_Tables_number   1
_chemical_formula_structural   Gd3Cd3Ag2Pt
_chemical_formula_sum   'Gd3 Cd3 Ag2 Pt1'
_cell_volume   218.64350066
_cell_formula_units_Z   1
loop_
 _symmetry_equiv_pos_site_id
 _symmetry_equiv_pos_as_xyz
  1  'x, y, z'
loop_
 _atom_site_type_symbol
 _atom_site_label
 _atom_site_symmetry_multiplicity
 _atom_site_fract_x
 _atom_site_fract_y
 _atom_site_fract_z
 _atom_site_occupancy
  Gd  Gd0  1  0.611565  0.029118  0.500000  1
  Gd  Gd1  1  0.417552  0.388435  0.500000  1
  Gd  Gd2  1  0.970882  0.582448  0.500000  1
  Cd  Cd3  1  0.724157  0.736729  0.000000  1
  Cd  Cd4  1  0.012572  0.275843  0.000000  1
  Cd  Cd5  1  0.263271  0.987428  0.000000  1
  Ag  Ag6  1  0.333333  0.666667  0.000000  1
  Ag  Ag7  1  0.000000  0.000000  0.500000  1
  Pt  Pt8  1  0.666667  0.333333  0.000000  1
