# generated using pymatgen
data_Sr4ScRhO8
_symmetry_space_group_name_H-M   'P 1'
_cell_length_a   5.65597271
_cell_length_b   5.65597302
_cell_length_c   13.45903934
_cell_angle_alpha   102.08633064
_cell_angle_beta   102.08632978
_cell_angle_gamma   89.93693224
_symmetry_Int_Tables_number   1
_chemical_formula_structural   Sr4ScRhO8
_chemical_formula_sum   'Sr8 Sc2 Rh2 O16'
_cell_volume   411.26706691
_cell_formula_units_Z   2
loop_
 _symmetry_equiv_pos_site_id
 _symmetry_equiv_pos_as_xyz
  1  'x, y, z'
loop_
 _atom_site_type_symbol
 _atom_site_label
 _atom_site_symmetry_multiplicity
 _atom_site_fract_x
 _atom_site_fract_y
 _atom_site_fract_z
 _atom_site_occupancy
  Sr  Sr0  1  0.828149  0.826409  0.646107  1
  Sr  Sr1  1  0.076409  0.578149  0.146107  1
  Sr  Sr2  1  0.178492  0.179248  0.353894  1
  Sr  Sr3  1  0.429248  0.928492  0.853894  1
  Sr  Sr4  1  0.321586  0.321670  0.646011  1
  Sr  Sr5  1  0.571670  0.071586  0.146011  1
  Sr  Sr6  1  0.672204  0.673157  0.353991  1
  Sr  Sr7  1  0.923157  0.422204  0.853991  1
  Sc  Sc8  1  0.999854  0.000261  0.999989  1
  Sc  Sc9  1  0.250261  0.749854  0.499989  1
  Rh  Rh10  1  0.500380  0.500499  0.999980  1
  Rh  Rh11  1  0.750499  0.250380  0.499980  1
  O  O12  1  0.017302  0.470559  0.500239  1
  O  O13  1  0.908520  0.926461  0.835161  1
  O  O14  1  0.086864  0.071072  0.164842  1
  O  O15  1  0.176461  0.658520  0.335161  1
  O  O16  1  0.321072  0.836864  0.664842  1
  O  O17  1  0.230942  0.718152  0.995116  1
  O  O18  1  0.279726  0.233599  0.000718  1
  O  O19  1  0.483599  0.029726  0.500718  1
  O  O20  1  0.531869  0.518753  0.503947  1
  O  O21  1  0.428069  0.415784  0.840572  1
  O  O22  1  0.574566  0.585854  0.159435  1
  O  O23  1  0.665784  0.178069  0.340572  1
  O  O24  1  0.835854  0.324566  0.659435  1
  O  O25  1  0.720559  0.767302  0.000239  1
  O  O26  1  0.768753  0.281869  0.003947  1
  O  O27  1  0.968152  0.980942  0.495116  1
