# generated using pymatgen
data_Y3Er11Th2(CdNi)4
_symmetry_space_group_name_H-M   'P 1'
_cell_length_a   9.53861247
_cell_length_b   9.53403438
_cell_length_c   9.53342535
_cell_angle_alpha   60.03295256
_cell_angle_beta   60.02508791
_cell_angle_gamma   60.09383856
_symmetry_Int_Tables_number   1
_chemical_formula_structural   Y3Er11Th2(CdNi)4
_chemical_formula_sum   'Y3 Er11 Th2 Cd4 Ni4'
_cell_volume   613.75291282
_cell_formula_units_Z   1
loop_
 _symmetry_equiv_pos_site_id
 _symmetry_equiv_pos_as_xyz
  1  'x, y, z'
loop_
 _atom_site_type_symbol
 _atom_site_label
 _atom_site_symmetry_multiplicity
 _atom_site_fract_x
 _atom_site_fract_y
 _atom_site_fract_z
 _atom_site_occupancy
  Y  Y0  1  0.186453  0.813415  0.184281  1
  Y  Y1  1  0.814597  0.815419  0.185167  1
  Y  Y2  1  0.184944  0.185656  0.812558  1
  Er  Er3  1  0.599333  0.199967  0.600917  1
  Er  Er4  1  0.199910  0.599232  0.601567  1
  Er  Er5  1  0.062324  0.438673  0.439050  1
  Er  Er6  1  0.439999  0.063664  0.061190  1
  Er  Er7  1  0.439327  0.062571  0.438587  1
  Er  Er8  1  0.063519  0.439206  0.061584  1
  Er  Er9  1  0.438216  0.436964  0.063441  1
  Er  Er10  1  0.062287  0.062717  0.438876  1
  Er  Er11  1  0.187232  0.814369  0.814389  1
  Er  Er12  1  0.812381  0.187293  0.184746  1
  Er  Er13  1  0.814369  0.187082  0.815293  1
  Th  Th14  1  0.593979  0.594056  0.600046  1
  Th  Th15  1  0.594351  0.593280  0.208976  1
  Cd  Cd16  1  0.833518  0.833344  0.829258  1
  Cd  Cd17  1  0.832560  0.833145  0.504620  1
  Cd  Cd18  1  0.833824  0.503860  0.830937  1
  Cd  Cd19  1  0.504543  0.833969  0.830207  1
  Ni  Ni20  1  0.393535  0.393216  0.389993  1
  Ni  Ni21  1  0.392404  0.392447  0.821635  1
  Ni  Ni22  1  0.395253  0.821213  0.391412  1
  Ni  Ni23  1  0.821137  0.395240  0.391271  1
