# generated using pymatgen
data_Nb6V6Si9As
_symmetry_space_group_name_H-M   'P 1'
_cell_length_a   4.99436514
_cell_length_b   7.78476147
_cell_length_c   9.40156866
_cell_angle_alpha   65.07218207
_cell_angle_beta   74.59659591
_cell_angle_gamma   89.99999475
_symmetry_Int_Tables_number   1
_chemical_formula_structural   Nb6V6Si9As
_chemical_formula_sum   'Nb6 V6 Si9 As1'
_cell_volume   316.94158205
_cell_formula_units_Z   1
loop_
 _symmetry_equiv_pos_site_id
 _symmetry_equiv_pos_as_xyz
  1  'x, y, z'
loop_
 _atom_site_type_symbol
 _atom_site_label
 _atom_site_symmetry_multiplicity
 _atom_site_fract_x
 _atom_site_fract_y
 _atom_site_fract_z
 _atom_site_occupancy
  Nb  Nb0  1  0.355480  0.744188  0.289041  1
  Nb  Nb1  1  0.643645  0.257481  0.712710  1
  Nb  Nb2  1  0.143666  0.025944  0.712669  1
  Nb  Nb3  1  0.856321  0.973447  0.287358  1
  Nb  Nb4  1  0.063615  0.320059  0.872770  1
  Nb  Nb5  1  0.936767  0.681236  0.126467  1
  V  V6  1  0.942013  0.692324  0.617463  1
  V  V7  1  0.560775  0.306790  0.383951  1
  V  V8  1  0.055275  0.306790  0.383951  1
  V  V9  1  0.440523  0.692324  0.617463  1
  V  V10  1  0.438417  0.192556  0.123166  1
  V  V11  1  0.562160  0.808197  0.875681  1
  Si  Si12  1  0.567270  0.483019  0.865459  1
  Si  Si13  1  0.068151  0.653749  0.863700  1
  Si  Si14  1  0.932249  0.343196  0.135500  1
  Si  Si15  1  0.257010  0.000712  0.999706  1
  Si  Si16  1  0.743283  0.000712  0.999706  1
  Si  Si17  1  0.216856  0.421272  0.566287  1
  Si  Si18  1  0.782805  0.579166  0.434391  1
  Si  Si19  1  0.287168  0.993119  0.425663  1
  Si  Si20  1  0.712261  0.006801  0.575479  1
  As  As21  1  0.434290  0.516921  0.131420  1
