# generated using pymatgen
data_Tm5(CoB3)2
_symmetry_space_group_name_H-M   'P 1'
_cell_length_a   5.36696445
_cell_length_b   5.36696432
_cell_length_c   8.20247833
_cell_angle_alpha   70.90381186
_cell_angle_beta   70.90380892
_cell_angle_gamma   59.99999042
_symmetry_Int_Tables_number   1
_chemical_formula_structural   Tm5(CoB3)2
_chemical_formula_sum   'Tm5 Co2 B6'
_cell_volume   189.45134358
_cell_formula_units_Z   1
loop_
 _symmetry_equiv_pos_site_id
 _symmetry_equiv_pos_as_xyz
  1  'x, y, z'
loop_
 _atom_site_type_symbol
 _atom_site_label
 _atom_site_symmetry_multiplicity
 _atom_site_fract_x
 _atom_site_fract_y
 _atom_site_fract_z
 _atom_site_occupancy
  Tm  Tm0  1  0.000000  0.000000  0.000000  1
  Tm  Tm1  1  0.251400  0.251400  0.245801  1
  Tm  Tm2  1  0.748600  0.748600  0.754199  1
  Tm  Tm3  1  0.416165  0.416165  0.751504  1
  Tm  Tm4  1  0.583835  0.583835  0.248496  1
  Co  Co5  1  0.118359  0.118359  0.644922  1
  Co  Co6  1  0.881641  0.881641  0.355078  1
  B  B7  1  0.168952  0.831048  0.500000  1
  B  B8  1  0.831048  0.500000  0.500000  1
  B  B9  1  0.500000  0.168952  0.500000  1
  B  B10  1  0.168952  0.500000  0.500000  1
  B  B11  1  0.500000  0.831048  0.500000  1
  B  B12  1  0.831048  0.168952  0.500000  1
