# generated using pymatgen
data_Ho2Lu2TcB12Ru
_symmetry_space_group_name_H-M   'P 1'
_cell_length_a   3.62638100
_cell_length_b   9.07194300
_cell_length_c   11.45927303
_cell_angle_alpha   89.86671256
_cell_angle_beta   90.00000000
_cell_angle_gamma   90.00000000
_symmetry_Int_Tables_number   1
_chemical_formula_structural   Ho2Lu2TcB12Ru
_chemical_formula_sum   'Ho4 Lu4 Tc2 B24 Ru2'
_cell_volume   376.98983076
_cell_formula_units_Z   2
loop_
 _symmetry_equiv_pos_site_id
 _symmetry_equiv_pos_as_xyz
  1  'x, y, z'
loop_
 _atom_site_type_symbol
 _atom_site_label
 _atom_site_symmetry_multiplicity
 _atom_site_fract_x
 _atom_site_fract_y
 _atom_site_fract_z
 _atom_site_occupancy
  Ho  Ho0  1  0.000000  0.324027  0.415585  1
  Ho  Ho1  1  0.000000  0.675973  0.584415  1
  Ho  Ho2  1  0.000000  0.820254  0.087277  1
  Ho  Ho3  1  0.000000  0.179746  0.912723  1
  Lu  Lu4  1  0.000000  0.942198  0.370904  1
  Lu  Lu5  1  0.000000  0.057802  0.629096  1
  Lu  Lu6  1  0.000000  0.443258  0.129739  1
  Lu  Lu7  1  0.000000  0.556742  0.870261  1
  Tc  Tc8  1  0.000000  0.638566  0.319578  1
  Tc  Tc9  1  0.000000  0.361434  0.680422  1
  B  B10  1  0.500000  0.553261  0.432984  1
  B  B11  1  0.500000  0.446739  0.567016  1
  B  B12  1  0.500000  0.054072  0.066904  1
  B  B13  1  0.500000  0.945928  0.933096  1
  B  B14  1  0.500000  0.749780  0.418745  1
  B  B15  1  0.500000  0.250220  0.581255  1
  B  B16  1  0.500000  0.249881  0.081213  1
  B  B17  1  0.500000  0.750119  0.918787  1
  B  B18  1  0.500000  0.792162  0.264968  1
  B  B19  1  0.500000  0.207838  0.735032  1
  B  B20  1  0.500000  0.291193  0.234602  1
  B  B21  1  0.500000  0.708807  0.765398  1
  B  B22  1  0.500000  0.630177  0.184449  1
  B  B23  1  0.500000  0.369823  0.815551  1
  B  B24  1  0.500000  0.129861  0.314852  1
  B  B25  1  0.500000  0.870139  0.685148  1
  B  B26  1  0.500000  0.982163  0.212372  1
  B  B27  1  0.500000  0.017837  0.787628  1
  B  B28  1  0.500000  0.481380  0.287092  1
  B  B29  1  0.500000  0.518620  0.712908  1
  B  B30  1  0.500000  0.601251  0.027749  1
  B  B31  1  0.500000  0.398749  0.972251  1
  B  B32  1  0.500000  0.101372  0.471826  1
  B  B33  1  0.500000  0.898628  0.528174  1
  Ru  Ru34  1  0.000000  0.138118  0.179237  1
  Ru  Ru35  1  0.000000  0.861882  0.820763  1
