# generated using pymatgen
data_Li3Zn(SiPd3)2
_symmetry_space_group_name_H-M   'P 1'
_cell_length_a   4.24915800
_cell_length_b   5.92642500
_cell_length_c   12.83850400
_cell_angle_alpha   90.00000000
_cell_angle_beta   90.00000000
_cell_angle_gamma   90.00000000
_symmetry_Int_Tables_number   1
_chemical_formula_structural   Li3Zn(SiPd3)2
_chemical_formula_sum   'Li6 Zn2 Si4 Pd12'
_cell_volume   323.30326726
_cell_formula_units_Z   2
loop_
 _symmetry_equiv_pos_site_id
 _symmetry_equiv_pos_as_xyz
  1  'x, y, z'
loop_
 _atom_site_type_symbol
 _atom_site_label
 _atom_site_symmetry_multiplicity
 _atom_site_fract_x
 _atom_site_fract_y
 _atom_site_fract_z
 _atom_site_occupancy
  Li  Li0  1  0.999977  0.500000  0.000193  1
  Li  Li1  1  0.499723  0.000000  0.169655  1
  Li  Li2  1  0.999723  0.500000  0.330345  1
  Li  Li3  1  0.499978  0.000000  0.499807  1
  Li  Li4  1  0.000253  0.500000  0.669506  1
  Li  Li5  1  0.500254  0.000000  0.830493  1
  Zn  Zn6  1  0.000262  0.000000  0.666509  1
  Zn  Zn7  1  0.500263  0.500000  0.833491  1
  Si  Si8  1  0.999996  0.000000  0.000959  1
  Si  Si9  1  0.499779  0.500000  0.167397  1
  Si  Si10  1  0.999779  0.000000  0.332602  1
  Si  Si11  1  0.499997  0.500000  0.499041  1
  Pd  Pd12  1  0.499996  0.245542  0.006766  1
  Pd  Pd13  1  0.499996  0.754458  0.006766  1
  Pd  Pd14  1  0.999753  0.249048  0.166438  1
  Pd  Pd15  1  0.999753  0.750952  0.166438  1
  Pd  Pd16  1  0.499752  0.250952  0.333563  1
  Pd  Pd17  1  0.499752  0.749048  0.333563  1
  Pd  Pd18  1  0.999996  0.254458  0.493234  1
  Pd  Pd19  1  0.999996  0.745542  0.493234  1
  Pd  Pd20  1  0.500256  0.256334  0.659614  1
  Pd  Pd21  1  0.500256  0.743666  0.659614  1
  Pd  Pd22  1  0.000256  0.243666  0.840387  1
  Pd  Pd23  1  0.000256  0.756334  0.840387  1
