# generated using pymatgen
data_Hf5ScAl2(Ga2Pt3)2
_symmetry_space_group_name_H-M   'P 1'
_cell_length_a   7.13125437
_cell_length_b   7.18354026
_cell_length_c   7.10441500
_cell_angle_alpha   90.00000000
_cell_angle_beta   90.00000000
_cell_angle_gamma   119.72234372
_symmetry_Int_Tables_number   1
_chemical_formula_structural   Hf5ScAl2(Ga2Pt3)2
_chemical_formula_sum   'Hf5 Sc1 Al2 Ga4 Pt6'
_cell_volume   316.06158687
_cell_formula_units_Z   1
loop_
 _symmetry_equiv_pos_site_id
 _symmetry_equiv_pos_as_xyz
  1  'x, y, z'
loop_
 _atom_site_type_symbol
 _atom_site_label
 _atom_site_symmetry_multiplicity
 _atom_site_fract_x
 _atom_site_fract_y
 _atom_site_fract_z
 _atom_site_occupancy
  Hf  Hf0  1  0.593655  0.979345  0.750000  1
  Hf  Hf1  1  0.389487  0.409343  0.750000  1
  Hf  Hf2  1  0.020617  0.610086  0.750000  1
  Hf  Hf3  1  0.977951  0.586440  0.250000  1
  Hf  Hf4  1  0.613585  0.023316  0.250000  1
  Sc  Sc5  1  0.411532  0.392482  0.250000  1
  Al  Al6  1  0.262152  0.002456  0.001697  1
  Al  Al7  1  0.262152  0.002456  0.498303  1
  Ga  Ga8  1  0.004730  0.268190  0.498561  1
  Ga  Ga9  1  0.004730  0.268190  0.001439  1
  Ga  Ga10  1  0.733226  0.729441  0.998620  1
  Ga  Ga11  1  0.733226  0.729441  0.501380  1
  Pt  Pt12  1  0.662881  0.327403  0.532510  1
  Pt  Pt13  1  0.004920  0.000042  0.750000  1
  Pt  Pt14  1  0.662881  0.327403  0.967490  1
  Pt  Pt15  1  0.332031  0.674558  0.027188  1
  Pt  Pt16  1  0.332031  0.674558  0.472812  1
  Pt  Pt17  1  0.998214  0.994850  0.250000  1
