# generated using pymatgen
data_YbEr(Si2Rh3)2
_symmetry_space_group_name_H-M   'P 1'
_cell_length_a   6.62547175
_cell_length_b   6.62547144
_cell_length_c   6.62547070
_cell_angle_alpha   130.17791378
_cell_angle_beta   114.76515477
_cell_angle_gamma   86.32692985
_symmetry_Int_Tables_number   1
_chemical_formula_structural   YbEr(Si2Rh3)2
_chemical_formula_sum   'Yb1 Er1 Si4 Rh6'
_cell_volume   192.65879413
_cell_formula_units_Z   1
loop_
 _symmetry_equiv_pos_site_id
 _symmetry_equiv_pos_as_xyz
  1  'x, y, z'
loop_
 _atom_site_type_symbol
 _atom_site_label
 _atom_site_symmetry_multiplicity
 _atom_site_fract_x
 _atom_site_fract_y
 _atom_site_fract_z
 _atom_site_occupancy
  Yb  Yb0  1  0.750000  0.043688  0.293688  1
  Er  Er1  1  0.250000  0.949570  0.699570  1
  Si  Si2  1  0.578406  0.384227  0.805821  1
  Si  Si3  1  0.921594  0.727415  0.805821  1
  Si  Si4  1  0.422518  0.616120  0.193602  1
  Si  Si5  1  0.077482  0.271085  0.193602  1
  Rh  Rh6  1  0.215430  0.502857  0.715734  1
  Rh  Rh7  1  0.787122  0.502857  0.287426  1
  Rh  Rh8  1  0.499051  0.500787  0.499837  1
  Rh  Rh9  1  0.000949  0.500787  0.001736  1
  Rh  Rh10  1  0.712878  0.000304  0.715734  1
  Rh  Rh11  1  0.284570  0.000304  0.287426  1
