# generated using pymatgen
data_Tb9HoOsRu3
_symmetry_space_group_name_H-M   'P 1'
_cell_length_a   6.41183970
_cell_length_b   7.30627571
_cell_length_c   8.53347341
_cell_angle_alpha   96.73490638
_cell_angle_beta   112.16664304
_cell_angle_gamma   89.81201869
_symmetry_Int_Tables_number   1
_chemical_formula_structural   Tb9HoOsRu3
_chemical_formula_sum   'Tb9 Ho1 Os1 Ru3'
_cell_volume   367.29867085
_cell_formula_units_Z   1
loop_
 _symmetry_equiv_pos_site_id
 _symmetry_equiv_pos_as_xyz
  1  'x, y, z'
loop_
 _atom_site_type_symbol
 _atom_site_label
 _atom_site_symmetry_multiplicity
 _atom_site_fract_x
 _atom_site_fract_y
 _atom_site_fract_z
 _atom_site_occupancy
  Tb  Tb0  1  0.979490  0.916529  0.186173  1
  Tb  Tb1  1  0.793603  0.584386  0.815377  1
  Tb  Tb2  1  0.020631  0.085465  0.814110  1
  Tb  Tb3  1  0.206877  0.415023  0.186351  1
  Tb  Tb4  1  0.641319  0.814126  0.433256  1
  Tb  Tb5  1  0.204761  0.685012  0.565267  1
  Tb  Tb6  1  0.360225  0.185614  0.566821  1
  Tb  Tb7  1  0.793285  0.314044  0.433435  1
  Tb  Tb8  1  0.423460  0.749362  0.000505  1
  Ho  Ho9  1  0.577021  0.250908  0.000587  1
  Os  Os10  1  0.822811  0.575359  0.218706  1
  Ru  Ru11  1  0.604559  0.925804  0.779290  1
  Ru  Ru12  1  0.175722  0.423200  0.779522  1
  Ru  Ru13  1  0.396238  0.075168  0.220598  1
