# generated using pymatgen
data_Sr6CaRh2PbO12
_symmetry_space_group_name_H-M   'P 1'
_cell_length_a   6.86853567
_cell_length_b   6.86853533
_cell_length_c   6.86853572
_cell_angle_alpha   90.38401411
_cell_angle_beta   90.38401834
_cell_angle_gamma   90.38401152
_symmetry_Int_Tables_number   1
_chemical_formula_structural   Sr6CaRh2PbO12
_chemical_formula_sum   'Sr6 Ca1 Rh2 Pb1 O12'
_cell_volume   324.01346598
_cell_formula_units_Z   1
loop_
 _symmetry_equiv_pos_site_id
 _symmetry_equiv_pos_as_xyz
  1  'x, y, z'
loop_
 _atom_site_type_symbol
 _atom_site_label
 _atom_site_symmetry_multiplicity
 _atom_site_fract_x
 _atom_site_fract_y
 _atom_site_fract_z
 _atom_site_occupancy
  Sr  Sr0  1  0.885578  0.614422  0.250000  1
  Sr  Sr1  1  0.122051  0.377949  0.750000  1
  Sr  Sr2  1  0.250000  0.885578  0.614422  1
  Sr  Sr3  1  0.614422  0.250000  0.885578  1
  Sr  Sr4  1  0.377949  0.750000  0.122051  1
  Sr  Sr5  1  0.750000  0.122051  0.377949  1
  Ca  Ca6  1  0.250000  0.250000  0.250000  1
  Rh  Rh7  1  0.003753  0.003753  0.003753  1
  Rh  Rh8  1  0.496247  0.496247  0.496247  1
  Pb  Pb9  1  0.750000  0.750000  0.750000  1
  O  O10  1  0.453106  0.587156  0.783081  1
  O  O11  1  0.587156  0.783081  0.453106  1
  O  O12  1  0.951615  0.290889  0.084764  1
  O  O13  1  0.548385  0.415236  0.209111  1
  O  O14  1  0.209111  0.548385  0.415236  1
  O  O15  1  0.046894  0.716919  0.912844  1
  O  O16  1  0.783081  0.453106  0.587156  1
  O  O17  1  0.716919  0.912844  0.046894  1
  O  O18  1  0.084764  0.951615  0.290889  1
  O  O19  1  0.912844  0.046894  0.716919  1
  O  O20  1  0.415236  0.209111  0.548385  1
  O  O21  1  0.290889  0.084764  0.951615  1
