# generated using pymatgen
data_TbZr3(Ta3Si4)2
_symmetry_space_group_name_H-M   'P 1'
_cell_length_a   6.91073601
_cell_length_b   6.91442200
_cell_length_c   12.83352900
_cell_angle_alpha   90.00000000
_cell_angle_beta   90.00000000
_cell_angle_gamma   89.89312643
_symmetry_Int_Tables_number   1
_chemical_formula_structural   TbZr3(Ta3Si4)2
_chemical_formula_sum   'Tb2 Zr6 Ta12 Si16'
_cell_volume   613.23301194
_cell_formula_units_Z   2
loop_
 _symmetry_equiv_pos_site_id
 _symmetry_equiv_pos_as_xyz
  1  'x, y, z'
loop_
 _atom_site_type_symbol
 _atom_site_label
 _atom_site_symmetry_multiplicity
 _atom_site_fract_x
 _atom_site_fract_y
 _atom_site_fract_z
 _atom_site_occupancy
  Tb  Tb0  1  0.997429  0.661712  0.031112  1
  Tb  Tb1  1  0.002571  0.338288  0.531112  1
  Zr  Zr2  1  0.656667  0.004756  0.968258  1
  Zr  Zr3  1  0.161183  0.497798  0.781862  1
  Zr  Zr4  1  0.838817  0.502202  0.281862  1
  Zr  Zr5  1  0.497936  0.160462  0.219394  1
  Zr  Zr6  1  0.502064  0.839538  0.719394  1
  Zr  Zr7  1  0.343333  0.995244  0.468258  1
  Ta  Ta8  1  0.347391  0.507530  0.375099  1
  Ta  Ta9  1  0.844284  0.996381  0.372824  1
  Ta  Ta10  1  0.006493  0.153284  0.126268  1
  Ta  Ta11  1  0.993507  0.846716  0.626268  1
  Ta  Ta12  1  0.652609  0.492470  0.875099  1
  Ta  Ta13  1  0.504004  0.347026  0.624225  1
  Ta  Ta14  1  0.495996  0.652974  0.124225  1
  Ta  Ta15  1  0.155716  0.003619  0.872824  1
  Ta  Ta16  1  0.667877  0.671851  0.500268  1
  Ta  Ta17  1  0.828999  0.168917  0.750411  1
  Ta  Ta18  1  0.171001  0.831083  0.250411  1
  Ta  Ta19  1  0.332123  0.328149  0.000268  1
  Si  Si20  1  0.044507  0.706319  0.435996  1
  Si  Si21  1  0.955493  0.293681  0.935996  1
  Si  Si22  1  0.699682  0.043343  0.563526  1
  Si  Si23  1  0.203590  0.454499  0.187718  1
  Si  Si24  1  0.796410  0.545501  0.687718  1
  Si  Si25  1  0.455633  0.201717  0.813145  1
  Si  Si26  1  0.544367  0.798283  0.313145  1
  Si  Si27  1  0.300318  0.956657  0.063526  1
  Si  Si28  1  0.863803  0.794672  0.820512  1
  Si  Si29  1  0.136197  0.205328  0.320512  1
  Si  Si30  1  0.789643  0.869101  0.180194  1
  Si  Si31  1  0.294989  0.638295  0.572452  1
  Si  Si32  1  0.705011  0.361705  0.072452  1
  Si  Si33  1  0.631301  0.292644  0.426735  1
  Si  Si34  1  0.368699  0.707356  0.926735  1
  Si  Si35  1  0.210357  0.130899  0.680194  1
