# generated using pymatgen
data_LuZrReB6
_symmetry_space_group_name_H-M   'P 1'
_cell_length_a   3.59725900
_cell_length_b   9.01168300
_cell_length_c   11.38081200
_cell_angle_alpha   90.00000000
_cell_angle_beta   90.00000000
_cell_angle_gamma   90.00000000
_symmetry_Int_Tables_number   1
_chemical_formula_structural   LuZrReB6
_chemical_formula_sum   'Lu4 Zr4 Re4 B24'
_cell_volume   368.93585440
_cell_formula_units_Z   4
loop_
 _symmetry_equiv_pos_site_id
 _symmetry_equiv_pos_as_xyz
  1  'x, y, z'
loop_
 _atom_site_type_symbol
 _atom_site_label
 _atom_site_symmetry_multiplicity
 _atom_site_fract_x
 _atom_site_fract_y
 _atom_site_fract_z
 _atom_site_occupancy
  Lu  Lu0  1  0.000000  0.321639  0.413339  1
  Lu  Lu1  1  0.000000  0.678361  0.586661  1
  Lu  Lu2  1  0.000000  0.821639  0.086661  1
  Lu  Lu3  1  0.000000  0.178361  0.913339  1
  Zr  Zr4  1  0.000000  0.944379  0.373263  1
  Zr  Zr5  1  0.000000  0.055621  0.626737  1
  Zr  Zr6  1  0.000000  0.444379  0.126737  1
  Zr  Zr7  1  0.000000  0.555621  0.873263  1
  Re  Re8  1  0.000000  0.640160  0.319087  1
  Re  Re9  1  0.000000  0.359840  0.680913  1
  Re  Re10  1  0.000000  0.140160  0.180913  1
  Re  Re11  1  0.000000  0.859840  0.819087  1
  B  B12  1  0.500000  0.553208  0.433919  1
  B  B13  1  0.500000  0.446792  0.566081  1
  B  B14  1  0.500000  0.053208  0.066081  1
  B  B15  1  0.500000  0.946792  0.933919  1
  B  B16  1  0.500000  0.751319  0.419387  1
  B  B17  1  0.500000  0.248681  0.580613  1
  B  B18  1  0.500000  0.251319  0.080613  1
  B  B19  1  0.500000  0.748681  0.919387  1
  B  B20  1  0.500000  0.794190  0.264347  1
  B  B21  1  0.500000  0.205810  0.735653  1
  B  B22  1  0.500000  0.294190  0.235653  1
  B  B23  1  0.500000  0.705810  0.764347  1
  B  B24  1  0.500000  0.630757  0.183236  1
  B  B25  1  0.500000  0.369243  0.816764  1
  B  B26  1  0.500000  0.130757  0.316764  1
  B  B27  1  0.500000  0.869243  0.683236  1
  B  B28  1  0.500000  0.981020  0.212322  1
  B  B29  1  0.500000  0.018980  0.787678  1
  B  B30  1  0.500000  0.481020  0.287678  1
  B  B31  1  0.500000  0.518980  0.712322  1
  B  B32  1  0.500000  0.601985  0.027567  1
  B  B33  1  0.500000  0.398015  0.972433  1
  B  B34  1  0.500000  0.101985  0.472433  1
  B  B35  1  0.500000  0.898015  0.527567  1
