# generated using pymatgen
data_Tb4Al18(FeCu)3
_symmetry_space_group_name_H-M   'P 1'
_cell_length_a   7.48374574
_cell_length_b   7.48374621
_cell_length_c   9.37619962
_cell_angle_alpha   90.01832519
_cell_angle_beta   90.01832518
_cell_angle_gamma   119.48720373
_symmetry_Int_Tables_number   1
_chemical_formula_structural   Tb4Al18(FeCu)3
_chemical_formula_sum   'Tb4 Al18 Fe3 Cu3'
_cell_volume   457.10552539
_cell_formula_units_Z   1
loop_
 _symmetry_equiv_pos_site_id
 _symmetry_equiv_pos_as_xyz
  1  'x, y, z'
loop_
 _atom_site_type_symbol
 _atom_site_label
 _atom_site_symmetry_multiplicity
 _atom_site_fract_x
 _atom_site_fract_y
 _atom_site_fract_z
 _atom_site_occupancy
  Tb  Tb0  1  0.995628  0.668425  0.248920  1
  Tb  Tb1  1  0.008971  0.334840  0.750588  1
  Tb  Tb2  1  0.665160  0.991029  0.249412  1
  Tb  Tb3  1  0.331575  0.004372  0.751080  1
  Al  Al4  1  0.116902  0.118844  0.248083  1
  Al  Al5  1  0.881156  0.883098  0.751917  1
  Al  Al6  1  0.988654  0.324862  0.070463  1
  Al  Al7  1  0.993379  0.664742  0.929157  1
  Al  Al8  1  0.998571  0.674711  0.575141  1
  Al  Al9  1  0.325289  0.001429  0.424859  1
  Al  Al10  1  0.999118  0.325881  0.426219  1
  Al  Al11  1  0.674119  0.000882  0.573781  1
  Al  Al12  1  0.675138  0.011346  0.929537  1
  Al  Al13  1  0.335258  0.006621  0.070843  1
  Al  Al14  1  0.326089  0.326558  0.551896  1
  Al  Al15  1  0.673442  0.673911  0.448104  1
  Al  Al16  1  0.675725  0.668551  0.043513  1
  Al  Al17  1  0.331449  0.324275  0.956487  1
  Al  Al18  1  0.340007  0.543712  0.248858  1
  Al  Al19  1  0.658802  0.448123  0.759393  1
  Al  Al20  1  0.551877  0.341198  0.240607  1
  Al  Al21  1  0.456288  0.659993  0.751142  1
  Fe  Fe22  1  0.670985  0.329015  0.000000  1
  Fe  Fe23  1  0.000835  0.999165  0.000000  1
  Fe  Fe24  1  0.999398  0.000602  0.500000  1
  Cu  Cu25  1  0.327699  0.672301  0.000000  1
  Cu  Cu26  1  0.327422  0.672578  0.500000  1
  Cu  Cu27  1  0.671063  0.328937  0.500000  1
