# generated using pymatgen
data_Er16In4PdRh3
_symmetry_space_group_name_H-M   'P 1'
_cell_length_a   9.58390371
_cell_length_b   9.59168506
_cell_length_c   9.58390400
_cell_angle_alpha   60.02683163
_cell_angle_beta   59.99999901
_cell_angle_gamma   60.02683594
_symmetry_Int_Tables_number   1
_chemical_formula_structural   Er16In4PdRh3
_chemical_formula_sum   'Er16 In4 Pd1 Rh3'
_cell_volume   623.21921271
_cell_formula_units_Z   1
loop_
 _symmetry_equiv_pos_site_id
 _symmetry_equiv_pos_as_xyz
  1  'x, y, z'
loop_
 _atom_site_type_symbol
 _atom_site_label
 _atom_site_symmetry_multiplicity
 _atom_site_fract_x
 _atom_site_fract_y
 _atom_site_fract_z
 _atom_site_occupancy
  Er  Er0  1  0.192723  0.184277  0.811500  1
  Er  Er1  1  0.437896  0.062940  0.061268  1
  Er  Er2  1  0.437896  0.062940  0.437896  1
  Er  Er3  1  0.061607  0.440383  0.061607  1
  Er  Er4  1  0.650474  0.048579  0.650474  1
  Er  Er5  1  0.188150  0.811700  0.811999  1
  Er  Er6  1  0.061268  0.062940  0.437896  1
  Er  Er7  1  0.811500  0.184277  0.192723  1
  Er  Er8  1  0.811999  0.811700  0.188150  1
  Er  Er9  1  0.646488  0.652956  0.054069  1
  Er  Er10  1  0.646488  0.652956  0.646488  1
  Er  Er11  1  0.061607  0.440383  0.436404  1
  Er  Er12  1  0.054069  0.652956  0.646488  1
  Er  Er13  1  0.811500  0.184277  0.811500  1
  Er  Er14  1  0.436404  0.440383  0.061607  1
  Er  Er15  1  0.188150  0.811700  0.188150  1
  In  In16  1  0.416073  0.751782  0.416073  1
  In  In17  1  0.416832  0.415160  0.751176  1
  In  In18  1  0.751176  0.415160  0.416832  1
  In  In19  1  0.416832  0.415160  0.416832  1
  Pd  Pd20  1  0.856447  0.430658  0.856447  1
  Rh  Rh21  1  0.857231  0.855577  0.429960  1
  Rh  Rh22  1  0.429960  0.855577  0.857231  1
  Rh  Rh23  1  0.857231  0.855577  0.857231  1
