# generated using pymatgen
data_La15Nd5Si15S
_symmetry_space_group_name_H-M   'P 1'
_cell_length_a   8.07405309
_cell_length_b   8.00365064
_cell_length_c   15.47389900
_cell_angle_alpha   89.62855364
_cell_angle_beta   89.16612163
_cell_angle_gamma   90.03943161
_symmetry_Int_Tables_number   1
_chemical_formula_structural   La15Nd5Si15S
_chemical_formula_sum   'La15 Nd5 Si15 S1'
_cell_volume   999.82553867
_cell_formula_units_Z   1
loop_
 _symmetry_equiv_pos_site_id
 _symmetry_equiv_pos_as_xyz
  1  'x, y, z'
loop_
 _atom_site_type_symbol
 _atom_site_label
 _atom_site_symmetry_multiplicity
 _atom_site_fract_x
 _atom_site_fract_y
 _atom_site_fract_z
 _atom_site_occupancy
  La  La0  1  0.309265  0.311145  0.000409  1
  La  La1  1  0.188740  0.807507  0.249051  1
  La  La2  1  0.803060  0.189312  0.751545  1
  La  La3  1  0.685940  0.687736  0.496711  1
  La  La4  1  0.380776  0.005609  0.443109  1
  La  La5  1  0.494952  0.871732  0.699357  1
  La  La6  1  0.510796  0.122173  0.197491  1
  La  La7  1  0.874938  0.486640  0.300205  1
  La  La8  1  0.122462  0.510205  0.801429  1
  La  La9  1  0.633183  0.984958  0.952638  1
  La  La10  1  0.999676  0.378659  0.547540  1
  La  La11  1  0.992886  0.622179  0.052679  1
  La  La12  1  0.140809  0.994273  0.870951  1
  La  La13  1  0.516363  0.628724  0.126725  1
  La  La14  1  0.477244  0.366996  0.632020  1
  Nd  Nd15  1  0.635868  0.520788  0.877649  1
  Nd  Nd16  1  0.367660  0.480425  0.374901  1
  Nd  Nd17  1  0.870720  0.016922  0.375767  1
  Nd  Nd18  1  0.985078  0.128103  0.125528  1
  Nd  Nd19  1  0.014634  0.870015  0.622409  1
  Si  Si20  1  0.334319  0.699872  0.948963  1
  Si  Si21  1  0.660675  0.301689  0.451635  1
  Si  Si22  1  0.705335  0.334620  0.051383  1
  Si  Si23  1  0.299279  0.667220  0.550191  1
  Si  Si24  1  0.803086  0.835311  0.202042  1
  Si  Si25  1  0.165172  0.196206  0.299890  1
  Si  Si26  1  0.842244  0.801603  0.797666  1
  Si  Si27  1  0.288272  0.922693  0.057150  1
  Si  Si28  1  0.577950  0.787981  0.308549  1
  Si  Si29  1  0.453010  0.212879  0.824337  1
  Si  Si30  1  0.790299  0.580005  0.690066  1
  Si  Si31  1  0.210462  0.419686  0.192799  1
  Si  Si32  1  0.704260  0.075111  0.558964  1
  Si  Si33  1  0.925886  0.290882  0.941742  1
  Si  Si34  1  0.076585  0.712888  0.441464  1
  S  S35  1  0.158118  0.177256  0.685046  1
