# generated using pymatgen
data_DyFeNi4P3
_symmetry_space_group_name_H-M   'P 1'
_cell_length_a   3.69708400
_cell_length_b   10.31914800
_cell_length_c   11.87860300
_cell_angle_alpha   90.00000000
_cell_angle_beta   90.00000000
_cell_angle_gamma   90.00000000
_symmetry_Int_Tables_number   1
_chemical_formula_structural   DyFeNi4P3
_chemical_formula_sum   'Dy4 Fe4 Ni16 P12'
_cell_volume   453.17769613
_cell_formula_units_Z   4
loop_
 _symmetry_equiv_pos_site_id
 _symmetry_equiv_pos_as_xyz
  1  'x, y, z'
loop_
 _atom_site_type_symbol
 _atom_site_label
 _atom_site_symmetry_multiplicity
 _atom_site_fract_x
 _atom_site_fract_y
 _atom_site_fract_z
 _atom_site_occupancy
  Dy  Dy0  1  0.250000  0.579443  0.704910  1
  Dy  Dy1  1  0.250000  0.920557  0.204910  1
  Dy  Dy2  1  0.750000  0.420557  0.295090  1
  Dy  Dy3  1  0.750000  0.079443  0.795090  1
  Fe  Fe4  1  0.250000  0.463816  0.931838  1
  Fe  Fe5  1  0.250000  0.036184  0.431838  1
  Fe  Fe6  1  0.750000  0.536184  0.068162  1
  Fe  Fe7  1  0.750000  0.963816  0.568162  1
  Ni  Ni8  1  0.250000  0.713577  0.994387  1
  Ni  Ni9  1  0.250000  0.786423  0.494387  1
  Ni  Ni10  1  0.750000  0.286423  0.005613  1
  Ni  Ni11  1  0.750000  0.213577  0.505613  1
  Ni  Ni12  1  0.250000  0.407473  0.487607  1
  Ni  Ni13  1  0.250000  0.092527  0.987607  1
  Ni  Ni14  1  0.750000  0.592527  0.512393  1
  Ni  Ni15  1  0.750000  0.907473  0.012393  1
  Ni  Ni16  1  0.250000  0.224710  0.176766  1
  Ni  Ni17  1  0.250000  0.275290  0.676766  1
  Ni  Ni18  1  0.750000  0.775290  0.823234  1
  Ni  Ni19  1  0.750000  0.724710  0.323234  1
  Ni  Ni20  1  0.250000  0.877484  0.701627  1
  Ni  Ni21  1  0.250000  0.622516  0.201627  1
  Ni  Ni22  1  0.750000  0.122516  0.298373  1
  Ni  Ni23  1  0.750000  0.377484  0.798373  1
  P  P24  1  0.250000  0.425588  0.111679  1
  P  P25  1  0.250000  0.074412  0.611679  1
  P  P26  1  0.750000  0.574412  0.888321  1
  P  P27  1  0.750000  0.925588  0.388321  1
  P  P28  1  0.250000  0.268979  0.869038  1
  P  P29  1  0.250000  0.231021  0.369038  1
  P  P30  1  0.750000  0.731021  0.130962  1
  P  P31  1  0.750000  0.768979  0.630962  1
  P  P32  1  0.250000  0.603931  0.392862  1
  P  P33  1  0.250000  0.896069  0.892862  1
  P  P34  1  0.750000  0.396069  0.607138  1
  P  P35  1  0.750000  0.103931  0.107138  1
