# generated using pymatgen
data_ErTm(Hf4Sn3)2
_symmetry_space_group_name_H-M   'P 1'
_cell_length_a   8.59707982
_cell_length_b   8.59708033
_cell_length_c   5.82115700
_cell_angle_alpha   90.00000000
_cell_angle_beta   90.00000000
_cell_angle_gamma   121.22215158
_symmetry_Int_Tables_number   1
_chemical_formula_structural   ErTm(Hf4Sn3)2
_chemical_formula_sum   'Er1 Tm1 Hf8 Sn6'
_cell_volume   367.92612324
_cell_formula_units_Z   1
loop_
 _symmetry_equiv_pos_site_id
 _symmetry_equiv_pos_as_xyz
  1  'x, y, z'
loop_
 _atom_site_type_symbol
 _atom_site_label
 _atom_site_symmetry_multiplicity
 _atom_site_fract_x
 _atom_site_fract_y
 _atom_site_fract_z
 _atom_site_occupancy
  Er  Er0  1  0.228869  0.228869  0.250000  1
  Tm  Tm1  1  0.771165  0.771165  0.750000  1
  Hf  Hf2  1  0.251189  0.000373  0.750000  1
  Hf  Hf3  1  0.000373  0.251189  0.750000  1
  Hf  Hf4  1  0.748900  0.999526  0.250000  1
  Hf  Hf5  1  0.999526  0.748900  0.250000  1
  Hf  Hf6  1  0.665650  0.334083  0.999952  1
  Hf  Hf7  1  0.334083  0.665650  0.999952  1
  Hf  Hf8  1  0.334083  0.665650  0.500048  1
  Hf  Hf9  1  0.665650  0.334083  0.500048  1
  Sn  Sn10  1  0.391883  0.391883  0.750000  1
  Sn  Sn11  1  0.606591  0.002838  0.750000  1
  Sn  Sn12  1  0.002838  0.606591  0.750000  1
  Sn  Sn13  1  0.608869  0.608869  0.250000  1
  Sn  Sn14  1  0.393686  0.996648  0.250000  1
  Sn  Sn15  1  0.996648  0.393686  0.250000  1
