# generated using pymatgen
data_Ho3Sn3PdPtRh
_symmetry_space_group_name_H-M   'P 1'
_cell_length_a   7.67008200
_cell_length_b   7.67008075
_cell_length_c   3.79726200
_cell_angle_alpha   90.00000000
_cell_angle_beta   90.00000000
_cell_angle_gamma   119.99999675
_symmetry_Int_Tables_number   1
_chemical_formula_structural   Ho3Sn3PdPtRh
_chemical_formula_sum   'Ho3 Sn3 Pd1 Pt1 Rh1'
_cell_volume   193.46444088
_cell_formula_units_Z   1
loop_
 _symmetry_equiv_pos_site_id
 _symmetry_equiv_pos_as_xyz
  1  'x, y, z'
loop_
 _atom_site_type_symbol
 _atom_site_label
 _atom_site_symmetry_multiplicity
 _atom_site_fract_x
 _atom_site_fract_y
 _atom_site_fract_z
 _atom_site_occupancy
  Ho  Ho0  1  0.002970  0.402950  0.000000  1
  Ho  Ho1  1  0.597050  0.600020  0.000000  1
  Ho  Ho2  1  0.399980  0.997030  0.000000  1
  Sn  Sn3  1  0.261314  0.259229  0.500000  1
  Sn  Sn4  1  0.997915  0.738686  0.500000  1
  Sn  Sn5  1  0.740771  0.002085  0.500000  1
  Pd  Pd6  1  0.666667  0.333333  0.500000  1
  Pt  Pt7  1  0.333333  0.666667  0.500000  1
  Rh  Rh8  1  0.000000  0.000000  0.000000  1
