# generated using pymatgen
data_La16Ho4Ir11Pt
_symmetry_space_group_name_H-M   'P 1'
_cell_length_a   11.34564223
_cell_length_b   11.34564249
_cell_length_c   6.56297800
_cell_angle_alpha   90.06901366
_cell_angle_beta   90.06901366
_cell_angle_gamma   89.62937906
_symmetry_Int_Tables_number   1
_chemical_formula_structural   La16Ho4Ir11Pt
_chemical_formula_sum   'La16 Ho4 Ir11 Pt1'
_cell_volume   844.79126628
_cell_formula_units_Z   1
loop_
 _symmetry_equiv_pos_site_id
 _symmetry_equiv_pos_as_xyz
  1  'x, y, z'
loop_
 _atom_site_type_symbol
 _atom_site_label
 _atom_site_symmetry_multiplicity
 _atom_site_fract_x
 _atom_site_fract_y
 _atom_site_fract_z
 _atom_site_occupancy
  La  La0  1  0.287045  0.087883  0.388136  1
  La  La1  1  0.288030  0.911709  0.887667  1
  La  La2  1  0.709961  0.086030  0.880797  1
  La  La3  1  0.710455  0.908565  0.388971  1
  La  La4  1  0.587482  0.787055  0.889828  1
  La  La5  1  0.585044  0.213075  0.388621  1
  La  La6  1  0.411091  0.787424  0.388858  1
  La  La7  1  0.411844  0.212519  0.889061  1
  La  La8  1  0.212945  0.412518  0.610172  1
  La  La9  1  0.212576  0.588909  0.111142  1
  La  La10  1  0.786925  0.414956  0.111379  1
  La  La11  1  0.787481  0.588156  0.610939  1
  La  La12  1  0.912117  0.712955  0.111864  1
  La  La13  1  0.913970  0.290039  0.619203  1
  La  La14  1  0.088291  0.711970  0.612333  1
  La  La15  1  0.091435  0.289545  0.111029  1
  Ho  Ho16  1  0.001177  0.998466  0.501352  1
  Ho  Ho17  1  0.001534  0.998823  0.998648  1
  Ho  Ho18  1  0.499686  0.500027  0.999678  1
  Ho  Ho19  1  0.499973  0.500314  0.500322  1
  Ir  Ir20  1  0.852235  0.853185  0.749567  1
  Ir  Ir21  1  0.146815  0.147765  0.750433  1
  Ir  Ir22  1  0.148206  0.851794  0.250000  1
  Ir  Ir23  1  0.648528  0.351472  0.750000  1
  Ir  Ir24  1  0.648158  0.647800  0.250274  1
  Ir  Ir25  1  0.352200  0.351842  0.249726  1
  Ir  Ir26  1  0.351634  0.648366  0.750000  1
  Ir  Ir27  1  0.501147  0.000113  0.121654  1
  Ir  Ir28  1  0.499971  0.000349  0.620315  1
  Ir  Ir29  1  0.999651  0.500029  0.879685  1
  Ir  Ir30  1  0.999887  0.498853  0.378346  1
  Pt  Pt31  1  0.852508  0.147492  0.250000  1
