# generated using pymatgen
data_La4Ga4Pd3Rh
_symmetry_space_group_name_H-M   'P 1'
_cell_length_a   4.58489100
_cell_length_b   7.20895136
_cell_length_c   7.91959962
_cell_angle_alpha   89.92807861
_cell_angle_beta   90.00000000
_cell_angle_gamma   90.00000000
_symmetry_Int_Tables_number   1
_chemical_formula_structural   La4Ga4Pd3Rh
_chemical_formula_sum   'La4 Ga4 Pd3 Rh1'
_cell_volume   261.76042972
_cell_formula_units_Z   1
loop_
 _symmetry_equiv_pos_site_id
 _symmetry_equiv_pos_as_xyz
  1  'x, y, z'
loop_
 _atom_site_type_symbol
 _atom_site_label
 _atom_site_symmetry_multiplicity
 _atom_site_fract_x
 _atom_site_fract_y
 _atom_site_fract_z
 _atom_site_occupancy
  La  La0  1  0.250000  0.037121  0.684621  1
  La  La1  1  0.250000  0.532135  0.810026  1
  La  La2  1  0.750000  0.974153  0.310413  1
  La  La3  1  0.750000  0.466152  0.193434  1
  Ga  Ga4  1  0.250000  0.161360  0.072372  1
  Ga  Ga5  1  0.250000  0.653963  0.430054  1
  Ga  Ga6  1  0.750000  0.840996  0.930778  1
  Ga  Ga7  1  0.750000  0.338992  0.567823  1
  Pd  Pd8  1  0.250000  0.782550  0.107253  1
  Pd  Pd9  1  0.750000  0.718230  0.607655  1
  Pd  Pd10  1  0.750000  0.217339  0.891737  1
  Rh  Rh11  1  0.250000  0.277008  0.393834  1
