# generated using pymatgen
data_Y7Ho3(Bi2Ir)2
_symmetry_space_group_name_H-M   'P 1'
_cell_length_a   8.02655143
_cell_length_b   8.98340706
_cell_length_c   12.55516440
_cell_angle_alpha   90.00481467
_cell_angle_beta   89.92946265
_cell_angle_gamma   90.05509205
_symmetry_Int_Tables_number   1
_chemical_formula_structural   Y7Ho3(Bi2Ir)2
_chemical_formula_sum   'Y14 Ho6 Bi8 Ir4'
_cell_volume   905.29879906
_cell_formula_units_Z   2
loop_
 _symmetry_equiv_pos_site_id
 _symmetry_equiv_pos_as_xyz
  1  'x, y, z'
loop_
 _atom_site_type_symbol
 _atom_site_label
 _atom_site_symmetry_multiplicity
 _atom_site_fract_x
 _atom_site_fract_y
 _atom_site_fract_z
 _atom_site_occupancy
  Y  Y0  1  0.839507  0.749792  0.793324  1
  Y  Y1  1  0.160493  0.250208  0.206676  1
  Y  Y2  1  0.339174  0.250358  0.706813  1
  Y  Y3  1  0.660826  0.749642  0.293187  1
  Y  Y4  1  0.374739  0.749600  0.692325  1
  Y  Y5  1  0.625261  0.250400  0.307675  1
  Y  Y6  1  0.874778  0.250133  0.807912  1
  Y  Y7  1  0.125222  0.749867  0.192088  1
  Y  Y8  1  0.948471  0.749063  0.501593  1
  Y  Y9  1  0.051529  0.250937  0.498407  1
  Y  Y10  1  0.448336  0.250074  0.998330  1
  Y  Y11  1  0.551664  0.749926  0.001670  1
  Y  Y12  1  0.676573  0.041901  0.566676  1
  Y  Y13  1  0.323427  0.958099  0.433324  1
  Ho  Ho14  1  0.174383  0.958308  0.934215  1
  Ho  Ho15  1  0.325474  0.541601  0.434089  1
  Ho  Ho16  1  0.825617  0.041692  0.065785  1
  Ho  Ho17  1  0.674526  0.458399  0.565911  1
  Ho  Ho18  1  0.825609  0.458298  0.065838  1
  Ho  Ho19  1  0.174391  0.541702  0.934162  1
  Bi  Bi20  1  0.566497  0.491553  0.826740  1
  Bi  Bi21  1  0.433503  0.508447  0.173260  1
  Bi  Bi22  1  0.066476  0.508486  0.673398  1
  Bi  Bi23  1  0.433728  0.991567  0.173219  1
  Bi  Bi24  1  0.933524  0.491514  0.326602  1
  Bi  Bi25  1  0.566272  0.008433  0.826781  1
  Bi  Bi26  1  0.933182  0.008481  0.326811  1
  Bi  Bi27  1  0.066818  0.991519  0.673189  1
  Ir  Ir28  1  0.570815  0.747896  0.508813  1
  Ir  Ir29  1  0.429185  0.252104  0.491187  1
  Ir  Ir30  1  0.070092  0.249982  0.991378  1
  Ir  Ir31  1  0.929908  0.750018  0.008622  1
