# generated using pymatgen
data_Th2TaAl19Re4
_symmetry_space_group_name_H-M   'P 1'
_cell_length_a   6.96377037
_cell_length_b   6.96377156
_cell_length_c   9.26970614
_cell_angle_alpha   89.94148829
_cell_angle_beta   90.05850907
_cell_angle_gamma   97.18158496
_symmetry_Int_Tables_number   1
_chemical_formula_structural   Th2TaAl19Re4
_chemical_formula_sum   'Th2 Ta1 Al19 Re4'
_cell_volume   445.99913635
_cell_formula_units_Z   1
loop_
 _symmetry_equiv_pos_site_id
 _symmetry_equiv_pos_as_xyz
  1  'x, y, z'
loop_
 _atom_site_type_symbol
 _atom_site_label
 _atom_site_symmetry_multiplicity
 _atom_site_fract_x
 _atom_site_fract_y
 _atom_site_fract_z
 _atom_site_occupancy
  Th  Th0  1  0.871554  0.127089  0.747866  1
  Th  Th1  1  0.127089  0.871554  0.252134  1
  Ta  Ta2  1  0.764914  0.764914  0.000000  1
  Al  Al3  1  0.516898  0.782148  0.754184  1
  Al  Al4  1  0.481393  0.218100  0.252320  1
  Al  Al5  1  0.593327  0.861544  0.249740  1
  Al  Al6  1  0.162333  0.842495  0.601280  1
  Al  Al7  1  0.226987  0.226987  0.000000  1
  Al  Al8  1  0.142263  0.404918  0.251813  1
  Al  Al9  1  0.626129  0.378725  0.953762  1
  Al  Al10  1  0.843131  0.151924  0.100888  1
  Al  Al11  1  0.376569  0.620048  0.455092  1
  Al  Al12  1  0.151924  0.843131  0.899112  1
  Al  Al13  1  0.218100  0.481393  0.747680  1
  Al  Al14  1  0.378725  0.626129  0.046238  1
  Al  Al15  1  0.842495  0.162333  0.398720  1
  Al  Al16  1  0.620048  0.376569  0.544908  1
  Al  Al17  1  0.404918  0.142263  0.748187  1
  Al  Al18  1  0.782148  0.516898  0.245816  1
  Al  Al19  1  0.775519  0.775519  0.500000  1
  Al  Al20  1  0.227073  0.227073  0.500000  1
  Al  Al21  1  0.861544  0.593327  0.750260  1
  Re  Re22  1  0.996823  0.504332  0.499125  1
  Re  Re23  1  0.008866  0.494898  0.000214  1
  Re  Re24  1  0.494898  0.008866  0.999786  1
  Re  Re25  1  0.504332  0.996823  0.500875  1
