# generated using pymatgen
data_Tb8Ga(Si4Ni)3
_symmetry_space_group_name_H-M   'P 1'
_cell_length_a   7.99092200
_cell_length_b   7.99092074
_cell_length_c   8.16777000
_cell_angle_alpha   90.00000000
_cell_angle_beta   90.00000000
_cell_angle_gamma   120.00000520
_symmetry_Int_Tables_number   1
_chemical_formula_structural   Tb8Ga(Si4Ni)3
_chemical_formula_sum   'Tb8 Ga1 Si12 Ni3'
_cell_volume   451.67684097
_cell_formula_units_Z   1
loop_
 _symmetry_equiv_pos_site_id
 _symmetry_equiv_pos_as_xyz
  1  'x, y, z'
loop_
 _atom_site_type_symbol
 _atom_site_label
 _atom_site_symmetry_multiplicity
 _atom_site_fract_x
 _atom_site_fract_y
 _atom_site_fract_z
 _atom_site_occupancy
  Tb  Tb0  1  0.501862  0.003723  0.247288  1
  Tb  Tb1  1  0.501527  0.003055  0.752695  1
  Tb  Tb2  1  0.996277  0.498138  0.247288  1
  Tb  Tb3  1  0.996945  0.498473  0.752695  1
  Tb  Tb4  1  0.501862  0.498138  0.247288  1
  Tb  Tb5  1  0.501527  0.498473  0.752695  1
  Tb  Tb6  1  0.000000  0.000000  0.246689  1
  Tb  Tb7  1  0.000000  0.000000  0.753285  1
  Ga  Ga8  1  0.333333  0.666667  0.499561  1
  Si  Si9  1  0.171546  0.343094  0.000260  1
  Si  Si10  1  0.828955  0.657910  0.999816  1
  Si  Si11  1  0.656906  0.828454  0.000260  1
  Si  Si12  1  0.825193  0.650387  0.500069  1
  Si  Si13  1  0.342090  0.171045  0.999816  1
  Si  Si14  1  0.161333  0.322665  0.499853  1
  Si  Si15  1  0.171546  0.828454  0.000260  1
  Si  Si16  1  0.349613  0.174807  0.500069  1
  Si  Si17  1  0.828955  0.171045  0.999816  1
  Si  Si18  1  0.677335  0.838667  0.499853  1
  Si  Si19  1  0.825193  0.174807  0.500069  1
  Si  Si20  1  0.161333  0.838667  0.499853  1
  Ni  Ni21  1  0.333333  0.666667  0.000269  1
  Ni  Ni22  1  0.666667  0.333333  0.999169  1
  Ni  Ni23  1  0.666667  0.333333  0.501080  1
