# generated using pymatgen
data_Pr2Al8SiIr3
_symmetry_space_group_name_H-M   'P 1'
_cell_length_a   7.60744765
_cell_length_b   7.59264703
_cell_length_c   9.61063910
_cell_angle_alpha   89.91954206
_cell_angle_beta   89.97989638
_cell_angle_gamma   119.75256228
_symmetry_Int_Tables_number   1
_chemical_formula_structural   Pr2Al8SiIr3
_chemical_formula_sum   'Pr4 Al16 Si2 Ir6'
_cell_volume   481.93869286
_cell_formula_units_Z   2
loop_
 _symmetry_equiv_pos_site_id
 _symmetry_equiv_pos_as_xyz
  1  'x, y, z'
loop_
 _atom_site_type_symbol
 _atom_site_label
 _atom_site_symmetry_multiplicity
 _atom_site_fract_x
 _atom_site_fract_y
 _atom_site_fract_z
 _atom_site_occupancy
  Pr  Pr0  1  0.995164  0.665851  0.244564  1
  Pr  Pr1  1  0.004836  0.334149  0.755436  1
  Pr  Pr2  1  0.673391  0.999342  0.247046  1
  Pr  Pr3  1  0.326609  0.000658  0.752954  1
  Al  Al4  1  0.131487  0.130140  0.250276  1
  Al  Al5  1  0.868513  0.869860  0.749724  1
  Al  Al6  1  0.997292  0.665750  0.567315  1
  Al  Al7  1  0.334861  0.001430  0.427942  1
  Al  Al8  1  0.002708  0.334250  0.432685  1
  Al  Al9  1  0.665139  0.998570  0.572058  1
  Al  Al10  1  0.661610  0.993977  0.924589  1
  Al  Al11  1  0.338390  0.006023  0.075411  1
  Al  Al12  1  0.334619  0.333715  0.550072  1
  Al  Al13  1  0.665381  0.666285  0.449928  1
  Al  Al14  1  0.662052  0.664956  0.051157  1
  Al  Al15  1  0.337948  0.335044  0.948843  1
  Al  Al16  1  0.340407  0.546507  0.249735  1
  Al  Al17  1  0.659593  0.453493  0.750265  1
  Al  Al18  1  0.545484  0.341166  0.250111  1
  Al  Al19  1  0.454516  0.658834  0.749889  1
  Si  Si20  1  0.004307  0.328832  0.073573  1
  Si  Si21  1  0.995693  0.671168  0.926427  1
  Ir  Ir22  1  0.688002  0.337873  0.001057  1
  Ir  Ir23  1  0.311998  0.662127  0.998943  1
  Ir  Ir24  1  0.328275  0.669737  0.500110  1
  Ir  Ir25  1  0.671725  0.330263  0.499890  1
  Ir  Ir26  1  0.000000  0.000000  0.000000  1
  Ir  Ir27  1  0.000000  0.000000  0.500000  1
