# generated using pymatgen
data_ErLu3(SeO4)6
_symmetry_space_group_name_H-M   'P 1'
_cell_length_a   9.34030172
_cell_length_b   9.33980248
_cell_length_c   9.90121948
_cell_angle_alpha   61.85558871
_cell_angle_beta   118.14117676
_cell_angle_gamma   120.00037223
_symmetry_Int_Tables_number   1
_chemical_formula_structural   ErLu3(SeO4)6
_chemical_formula_sum   'Er1 Lu3 Se6 O24'
_cell_volume   627.34765470
_cell_formula_units_Z   1
loop_
 _symmetry_equiv_pos_site_id
 _symmetry_equiv_pos_as_xyz
  1  'x, y, z'
loop_
 _atom_site_type_symbol
 _atom_site_label
 _atom_site_symmetry_multiplicity
 _atom_site_fract_x
 _atom_site_fract_y
 _atom_site_fract_z
 _atom_site_occupancy
  Er  Er0  1  0.353145  0.646560  0.059892  1
  Lu  Lu1  1  0.856162  0.143727  0.568870  1
  Lu  Lu2  1  0.647468  0.352505  0.942397  1
  Lu  Lu3  1  0.144488  0.855533  0.433251  1
  Se  Se4  1  0.463260  0.970565  0.248787  1
  Se  Se5  1  0.756095  0.536922  0.248743  1
  Se  Se6  1  0.029586  0.243774  0.249100  1
  Se  Se7  1  0.537160  0.034452  0.750817  1
  Se  Se8  1  0.248047  0.462638  0.750844  1
  Se  Se9  1  0.965528  0.752054  0.750709  1
  O  O10  1  0.821727  0.552419  0.799264  1
  O  O11  1  0.529797  0.178075  0.799463  1
  O  O12  1  0.447536  0.469852  0.799319  1
  O  O13  1  0.174162  0.443093  0.202613  1
  O  O14  1  0.471647  0.826045  0.202254  1
  O  O15  1  0.556793  0.528615  0.202449  1
  O  O16  1  0.891881  0.895100  0.724113  1
  O  O17  1  0.727607  0.108223  0.724382  1
  O  O18  1  0.104734  0.272254  0.724385  1
  O  O19  1  0.102146  0.100739  0.273651  1
  O  O20  1  0.899312  0.727976  0.273393  1
  O  O21  1  0.272314  0.897940  0.273560  1
  O  O22  1  0.792699  0.379018  0.419611  1
  O  O23  1  0.621160  0.994114  0.419710  1
  O  O24  1  0.006214  0.207320  0.420061  1
  O  O25  1  0.213962  0.622707  0.580787  1
  O  O26  1  0.377210  0.010488  0.580649  1
  O  O27  1  0.989468  0.785997  0.580552  1
  O  O28  1  0.776005  0.514522  0.101820  1
  O  O29  1  0.485595  0.159814  0.101954  1
  O  O30  1  0.840362  0.223901  0.102222  1
  O  O31  1  0.225549  0.483762  0.896908  1
  O  O32  1  0.515938  0.844663  0.896731  1
  O  O33  1  0.155242  0.774641  0.896739  1
