# generated using pymatgen
data_LiTb13Th3Mg2CdIr4
_symmetry_space_group_name_H-M   'P 1'
_cell_length_a   9.78107437
_cell_length_b   9.78700845
_cell_length_c   9.79554800
_cell_angle_alpha   59.97112565
_cell_angle_beta   59.95103112
_cell_angle_gamma   59.92016003
_symmetry_Int_Tables_number   1
_chemical_formula_structural   LiTb13Th3Mg2CdIr4
_chemical_formula_sum   'Li1 Tb13 Th3 Mg2 Cd1 Ir4'
_cell_volume   662.26539748
_cell_formula_units_Z   1
loop_
 _symmetry_equiv_pos_site_id
 _symmetry_equiv_pos_as_xyz
  1  'x, y, z'
loop_
 _atom_site_type_symbol
 _atom_site_label
 _atom_site_symmetry_multiplicity
 _atom_site_fract_x
 _atom_site_fract_y
 _atom_site_fract_z
 _atom_site_occupancy
  Li  Li0  1  0.824802  0.515860  0.829670  1
  Tb  Tb1  1  0.204337  0.599222  0.598221  1
  Tb  Tb2  1  0.063237  0.437308  0.437316  1
  Tb  Tb3  1  0.438388  0.061823  0.062274  1
  Tb  Tb4  1  0.438388  0.061823  0.437515  1
  Tb  Tb5  1  0.063237  0.437308  0.062139  1
  Tb  Tb6  1  0.437775  0.437845  0.062190  1
  Tb  Tb7  1  0.062781  0.061252  0.437984  1
  Tb  Tb8  1  0.189290  0.814198  0.813317  1
  Tb  Tb9  1  0.815445  0.186040  0.184115  1
  Tb  Tb10  1  0.815445  0.186040  0.814400  1
  Tb  Tb11  1  0.189290  0.814198  0.183196  1
  Tb  Tb12  1  0.816574  0.815718  0.183855  1
  Tb  Tb13  1  0.188271  0.186425  0.812652  1
  Th  Th14  1  0.596635  0.598368  0.597841  1
  Th  Th15  1  0.596635  0.598368  0.207158  1
  Th  Th16  1  0.597056  0.205229  0.598859  1
  Mg  Mg17  1  0.827768  0.826849  0.831166  1
  Mg  Mg18  1  0.827768  0.826849  0.514219  1
  Cd  Cd19  1  0.502102  0.831053  0.833423  1
  Ir  Ir20  1  0.394971  0.392180  0.391971  1
  Ir  Ir21  1  0.394971  0.392180  0.820879  1
  Ir  Ir22  1  0.394989  0.820847  0.392082  1
  Ir  Ir23  1  0.819846  0.393027  0.393564  1
