# generated using pymatgen
data_Tb16MgHg3Ru4
_symmetry_space_group_name_H-M   'P 1'
_cell_length_a   9.67467858
_cell_length_b   9.66682237
_cell_length_c   9.66682300
_cell_angle_alpha   59.99999442
_cell_angle_beta   60.02685279
_cell_angle_gamma   60.02685724
_symmetry_Int_Tables_number   1
_chemical_formula_structural   Tb16MgHg3Ru4
_chemical_formula_sum   'Tb16 Mg1 Hg3 Ru4'
_cell_volume   639.53630125
_cell_formula_units_Z   1
loop_
 _symmetry_equiv_pos_site_id
 _symmetry_equiv_pos_as_xyz
  1  'x, y, z'
loop_
 _atom_site_type_symbol
 _atom_site_label
 _atom_site_symmetry_multiplicity
 _atom_site_fract_x
 _atom_site_fract_y
 _atom_site_fract_z
 _atom_site_occupancy
  Tb  Tb0  1  0.596057  0.595069  0.595069  1
  Tb  Tb1  1  0.596057  0.595069  0.213805  1
  Tb  Tb2  1  0.596057  0.213805  0.595069  1
  Tb  Tb3  1  0.203661  0.598780  0.598780  1
  Tb  Tb4  1  0.058105  0.441663  0.441663  1
  Tb  Tb5  1  0.438618  0.061375  0.061375  1
  Tb  Tb6  1  0.438618  0.061375  0.438631  1
  Tb  Tb7  1  0.058105  0.441663  0.058569  1
  Tb  Tb8  1  0.438618  0.438631  0.061375  1
  Tb  Tb9  1  0.058105  0.058569  0.441663  1
  Tb  Tb10  1  0.187210  0.812294  0.812294  1
  Tb  Tb11  1  0.811490  0.187724  0.187724  1
  Tb  Tb12  1  0.811490  0.187724  0.813063  1
  Tb  Tb13  1  0.187210  0.812294  0.188201  1
  Tb  Tb14  1  0.811490  0.813063  0.187724  1
  Tb  Tb15  1  0.187210  0.188201  0.812294  1
  Mg  Mg16  1  0.536978  0.821007  0.821007  1
  Hg  Hg17  1  0.830729  0.835727  0.835727  1
  Hg  Hg18  1  0.830729  0.835727  0.497815  1
  Hg  Hg19  1  0.830729  0.497815  0.835727  1
  Ru  Ru20  1  0.386074  0.390045  0.390045  1
  Ru  Ru21  1  0.386074  0.390045  0.833835  1
  Ru  Ru22  1  0.386074  0.833835  0.390045  1
  Ru  Ru23  1  0.834508  0.388497  0.388497  1
