# generated using pymatgen
data_V6Cl11F
_symmetry_space_group_name_H-M   'P 1'
_cell_length_a   13.00583713
_cell_length_b   13.00583652
_cell_length_c   3.77621600
_cell_angle_alpha   90.00000000
_cell_angle_beta   90.00000000
_cell_angle_gamma   141.84268302
_symmetry_Int_Tables_number   1
_chemical_formula_structural   V6Cl11F
_chemical_formula_sum   'V6 Cl11 F1'
_cell_volume   394.63659541
_cell_formula_units_Z   1
loop_
 _symmetry_equiv_pos_site_id
 _symmetry_equiv_pos_as_xyz
  1  'x, y, z'
loop_
 _atom_site_type_symbol
 _atom_site_label
 _atom_site_symmetry_multiplicity
 _atom_site_fract_x
 _atom_site_fract_y
 _atom_site_fract_z
 _atom_site_occupancy
  V  V0  1  0.987515  0.012485  0.000000  1
  V  V1  1  0.161652  0.838348  0.500000  1
  V  V2  1  0.499077  0.500923  0.500000  1
  V  V3  1  0.670223  0.329777  0.000000  1
  V  V4  1  0.332568  0.667432  0.000000  1
  V  V5  1  0.845645  0.154355  0.500000  1
  Cl  Cl6  1  0.056749  0.943251  0.500000  1
  Cl  Cl7  1  0.694860  0.702526  0.000000  1
  Cl  Cl8  1  0.297474  0.305140  0.000000  1
  Cl  Cl9  1  0.967010  0.638403  0.000000  1
  Cl  Cl10  1  0.645821  0.960717  0.000000  1
  Cl  Cl11  1  0.602185  0.397815  0.500000  1
  Cl  Cl12  1  0.265457  0.734543  0.500000  1
  Cl  Cl13  1  0.738652  0.261348  0.500000  1
  Cl  Cl14  1  0.398050  0.601950  0.500000  1
  Cl  Cl15  1  0.361597  0.032990  0.000000  1
  Cl  Cl16  1  0.039283  0.354179  0.000000  1
  F  F17  1  0.934453  0.065547  0.500000  1
