# generated using pymatgen
data_DyTa5NbSn6
_symmetry_space_group_name_H-M   'P 1'
_cell_length_a   5.79621700
_cell_length_b   5.79621716
_cell_length_c   9.60323000
_cell_angle_alpha   90.00000000
_cell_angle_beta   90.00000000
_cell_angle_gamma   120.01293325
_symmetry_Int_Tables_number   1
_chemical_formula_structural   DyTa5NbSn6
_chemical_formula_sum   'Dy1 Ta5 Nb1 Sn6'
_cell_volume   279.37055667
_cell_formula_units_Z   1
loop_
 _symmetry_equiv_pos_site_id
 _symmetry_equiv_pos_as_xyz
  1  'x, y, z'
loop_
 _atom_site_type_symbol
 _atom_site_label
 _atom_site_symmetry_multiplicity
 _atom_site_fract_x
 _atom_site_fract_y
 _atom_site_fract_z
 _atom_site_occupancy
  Dy  Dy0  1  0.000000  0.000000  0.999932  1
  Ta  Ta1  1  0.000000  0.500000  0.750786  1
  Ta  Ta2  1  0.500000  0.500000  0.750598  1
  Ta  Ta3  1  0.500000  0.000000  0.750786  1
  Ta  Ta4  1  0.000000  0.500000  0.249380  1
  Ta  Ta5  1  0.500000  0.000000  0.249380  1
  Nb  Nb6  1  0.500000  0.500000  0.249503  1
  Sn  Sn7  1  0.666927  0.333073  0.500017  1
  Sn  Sn8  1  0.333073  0.666927  0.500017  1
  Sn  Sn9  1  0.666671  0.333329  0.000068  1
  Sn  Sn10  1  0.333329  0.666671  0.000068  1
  Sn  Sn11  1  0.000000  0.000000  0.668221  1
  Sn  Sn12  1  0.000000  0.000000  0.331241  1
