# generated using pymatgen
data_Ca2Yb5DyBi6
_symmetry_space_group_name_H-M   'P 1'
_cell_length_a   8.28859483
_cell_length_b   8.35787987
_cell_length_c   8.37504728
_cell_angle_alpha   109.63511991
_cell_angle_beta   109.32948780
_cell_angle_gamma   109.27375444
_symmetry_Int_Tables_number   1
_chemical_formula_structural   Ca2Yb5DyBi6
_chemical_formula_sum   'Ca2 Yb5 Dy1 Bi6'
_cell_volume   447.58412350
_cell_formula_units_Z   1
loop_
 _symmetry_equiv_pos_site_id
 _symmetry_equiv_pos_as_xyz
  1  'x, y, z'
loop_
 _atom_site_type_symbol
 _atom_site_label
 _atom_site_symmetry_multiplicity
 _atom_site_fract_x
 _atom_site_fract_y
 _atom_site_fract_z
 _atom_site_occupancy
  Ca  Ca0  1  0.649060  0.500305  0.000199  1
  Ca  Ca1  1  0.499642  0.000699  0.650592  1
  Yb  Yb2  1  0.355586  0.352136  0.356541  1
  Yb  Yb3  1  0.503246  0.004171  0.147818  1
  Yb  Yb4  1  0.998712  0.649978  0.499556  1
  Yb  Yb5  1  0.849102  0.849143  0.849952  1
  Yb  Yb6  1  0.998965  0.143530  0.495748  1
  Dy  Dy7  1  0.146724  0.500117  0.000480  1
  Bi  Bi8  1  0.370220  0.623822  0.754273  1
  Bi  Bi9  1  0.883081  0.254864  0.126682  1
  Bi  Bi10  1  0.616203  0.745454  0.369602  1
  Bi  Bi11  1  0.127127  0.871255  0.244578  1
  Bi  Bi12  1  0.245915  0.130235  0.875982  1
  Bi  Bi13  1  0.756417  0.374291  0.627999  1
