# generated using pymatgen
data_Y4Ta2Ir5Ru
_symmetry_space_group_name_H-M   'P 1'
_cell_length_a   5.64820696
_cell_length_b   5.64820780
_cell_length_c   8.25582400
_cell_angle_alpha   90.00000000
_cell_angle_beta   90.00000000
_cell_angle_gamma   119.96459624
_symmetry_Int_Tables_number   1
_chemical_formula_structural   Y4Ta2Ir5Ru
_chemical_formula_sum   'Y4 Ta2 Ir5 Ru1'
_cell_volume   228.17452284
_cell_formula_units_Z   1
loop_
 _symmetry_equiv_pos_site_id
 _symmetry_equiv_pos_as_xyz
  1  'x, y, z'
loop_
 _atom_site_type_symbol
 _atom_site_label
 _atom_site_symmetry_multiplicity
 _atom_site_fract_x
 _atom_site_fract_y
 _atom_site_fract_z
 _atom_site_occupancy
  Y  Y0  1  0.333157  0.666843  0.437992  1
  Y  Y1  1  0.667079  0.332921  0.562513  1
  Y  Y2  1  0.667079  0.332921  0.937487  1
  Y  Y3  1  0.333157  0.666843  0.062008  1
  Ta  Ta4  1  0.998957  0.001043  0.002622  1
  Ta  Ta5  1  0.998957  0.001043  0.497378  1
  Ir  Ir6  1  0.171956  0.343587  0.750000  1
  Ir  Ir7  1  0.171695  0.828305  0.750000  1
  Ir  Ir8  1  0.345681  0.172042  0.250000  1
  Ir  Ir9  1  0.827958  0.654319  0.250000  1
  Ir  Ir10  1  0.656413  0.828044  0.750000  1
  Ru  Ru11  1  0.827911  0.172089  0.250000  1
