# generated using pymatgen
data_Tb3Y3(ScAu5)2
_symmetry_space_group_name_H-M   'P 1'
_cell_length_a   7.93742873
_cell_length_b   7.93742865
_cell_length_c   7.93742761
_cell_angle_alpha   66.31784799
_cell_angle_beta   66.31784828
_cell_angle_gamma   66.31783505
_symmetry_Int_Tables_number   1
_chemical_formula_structural   Tb3Y3(ScAu5)2
_chemical_formula_sum   'Tb3 Y3 Sc2 Au10'
_cell_volume   401.81174926
_cell_formula_units_Z   1
loop_
 _symmetry_equiv_pos_site_id
 _symmetry_equiv_pos_as_xyz
  1  'x, y, z'
loop_
 _atom_site_type_symbol
 _atom_site_label
 _atom_site_symmetry_multiplicity
 _atom_site_fract_x
 _atom_site_fract_y
 _atom_site_fract_z
 _atom_site_occupancy
  Tb  Tb0  1  0.891448  0.189117  0.619190  1
  Tb  Tb1  1  0.619190  0.891448  0.189117  1
  Tb  Tb2  1  0.189117  0.619190  0.891448  1
  Y  Y3  1  0.108683  0.811005  0.380739  1
  Y  Y4  1  0.380739  0.108683  0.811005  1
  Y  Y5  1  0.811005  0.380739  0.108683  1
  Sc  Sc6  1  0.659191  0.659191  0.659191  1
  Sc  Sc7  1  0.340822  0.340822  0.340822  1
  Au  Au8  1  0.999996  0.999996  0.999996  1
  Au  Au9  1  0.500089  0.500089  0.500089  1
  Au  Au10  1  0.806645  0.806645  0.806645  1
  Au  Au11  1  0.193301  0.193301  0.193301  1
  Au  Au12  1  0.937138  0.550080  0.320056  1
  Au  Au13  1  0.320056  0.937138  0.550080  1
  Au  Au14  1  0.550080  0.320056  0.937138  1
  Au  Au15  1  0.062853  0.449776  0.679873  1
  Au  Au16  1  0.679873  0.062853  0.449776  1
  Au  Au17  1  0.449776  0.679873  0.062853  1
