# generated using pymatgen
data_Nb8Mo2Ir5
_symmetry_space_group_name_H-M   'P 1'
_cell_length_a   9.93901300
_cell_length_b   9.93901300
_cell_length_c   5.07299600
_cell_angle_alpha   90.00000000
_cell_angle_beta   90.00000000
_cell_angle_gamma   90.00000000
_symmetry_Int_Tables_number   1
_chemical_formula_structural   Nb8Mo2Ir5
_chemical_formula_sum   'Nb16 Mo4 Ir10'
_cell_volume   501.13073243
_cell_formula_units_Z   2
loop_
 _symmetry_equiv_pos_site_id
 _symmetry_equiv_pos_as_xyz
  1  'x, y, z'
loop_
 _atom_site_type_symbol
 _atom_site_label
 _atom_site_symmetry_multiplicity
 _atom_site_fract_x
 _atom_site_fract_y
 _atom_site_fract_z
 _atom_site_occupancy
  Nb  Nb0  1  0.395466  0.395466  0.997066  1
  Nb  Nb1  1  0.895466  0.104534  0.497066  1
  Nb  Nb2  1  0.104534  0.895466  0.497066  1
  Nb  Nb3  1  0.604534  0.604534  0.997066  1
  Nb  Nb4  1  0.128066  0.461075  0.000068  1
  Nb  Nb5  1  0.961075  0.371934  0.500068  1
  Nb  Nb6  1  0.038925  0.628066  0.500068  1
  Nb  Nb7  1  0.871934  0.538925  0.000068  1
  Nb  Nb8  1  0.371934  0.961075  0.500068  1
  Nb  Nb9  1  0.628066  0.038925  0.500068  1
  Nb  Nb10  1  0.461075  0.128066  0.000068  1
  Nb  Nb11  1  0.538925  0.871934  0.000068  1
  Nb  Nb12  1  0.321696  0.678304  0.247480  1
  Nb  Nb13  1  0.678304  0.321696  0.247480  1
  Nb  Nb14  1  0.178304  0.178304  0.747480  1
  Nb  Nb15  1  0.821696  0.821696  0.747480  1
  Mo  Mo16  1  0.178014  0.178014  0.253781  1
  Mo  Mo17  1  0.678014  0.321986  0.753781  1
  Mo  Mo18  1  0.321986  0.678014  0.753781  1
  Mo  Mo19  1  0.821986  0.821986  0.253781  1
  Ir  Ir20  1  0.000000  0.000000  0.006285  1
  Ir  Ir21  1  0.500000  0.500000  0.506285  1
  Ir  Ir22  1  0.262291  0.930127  0.999198  1
  Ir  Ir23  1  0.430127  0.237709  0.499198  1
  Ir  Ir24  1  0.569873  0.762291  0.499198  1
  Ir  Ir25  1  0.737709  0.069873  0.999198  1
  Ir  Ir26  1  0.237709  0.430127  0.499198  1
  Ir  Ir27  1  0.762291  0.569873  0.499198  1
  Ir  Ir28  1  0.930127  0.262291  0.999198  1
  Ir  Ir29  1  0.069873  0.737709  0.999198  1
