# generated using pymatgen
data_Dy4HoTa2BiO14
_symmetry_space_group_name_H-M   'P 1'
_cell_length_a   6.52180493
_cell_length_b   6.52147575
_cell_length_c   7.50364814
_cell_angle_alpha   90.10673622
_cell_angle_beta   89.87513930
_cell_angle_gamma   108.12945878
_symmetry_Int_Tables_number   1
_chemical_formula_structural   Dy4HoTa2BiO14
_chemical_formula_sum   'Dy4 Ho1 Ta2 Bi1 O14'
_cell_volume   303.29904491
_cell_formula_units_Z   1
loop_
 _symmetry_equiv_pos_site_id
 _symmetry_equiv_pos_as_xyz
  1  'x, y, z'
loop_
 _atom_site_type_symbol
 _atom_site_label
 _atom_site_symmetry_multiplicity
 _atom_site_fract_x
 _atom_site_fract_y
 _atom_site_fract_z
 _atom_site_occupancy
  Dy  Dy0  1  0.457819  0.457702  0.000092  1
  Dy  Dy1  1  0.999284  0.536461  0.238146  1
  Dy  Dy2  1  0.000288  0.464736  0.743603  1
  Dy  Dy3  1  0.536321  0.999250  0.761863  1
  Ho  Ho4  1  0.465154  0.999815  0.256101  1
  Ta  Ta5  1  0.006078  0.005962  0.499866  1
  Ta  Ta6  1  0.997588  0.997701  0.000149  1
  Bi  Bi7  1  0.538156  0.538193  0.499926  1
  O  O8  1  0.932461  0.068266  0.749774  1
  O  O9  1  0.068683  0.932555  0.250220  1
  O  O10  1  0.357690  0.644987  0.238818  1
  O  O11  1  0.643885  0.357512  0.761253  1
  O  O12  1  0.367929  0.634366  0.761904  1
  O  O13  1  0.633903  0.366910  0.238220  1
  O  O14  1  0.327171  0.081242  0.976643  1
  O  O15  1  0.671586  0.919003  0.474824  1
  O  O16  1  0.304445  0.041087  0.546361  1
  O  O17  1  0.695404  0.955193  0.045949  1
  O  O18  1  0.041168  0.304357  0.453252  1
  O  O19  1  0.954914  0.695669  0.954621  1
  O  O20  1  0.918625  0.671936  0.524608  1
  O  O21  1  0.081446  0.327094  0.023807  1
