# generated using pymatgen
data_Dy5Ho(SiNi3)4
_symmetry_space_group_name_H-M   'P 1'
_cell_length_a   7.59638696
_cell_length_b   7.59638707
_cell_length_c   7.59638703
_cell_angle_alpha   109.47670450
_cell_angle_beta   109.47670305
_cell_angle_gamma   109.46025307
_symmetry_Int_Tables_number   1
_chemical_formula_structural   Dy5Ho(SiNi3)4
_chemical_formula_sum   'Dy5 Ho1 Si4 Ni12'
_cell_volume   337.44217099
_cell_formula_units_Z   1
loop_
 _symmetry_equiv_pos_site_id
 _symmetry_equiv_pos_as_xyz
  1  'x, y, z'
loop_
 _atom_site_type_symbol
 _atom_site_label
 _atom_site_symmetry_multiplicity
 _atom_site_fract_x
 _atom_site_fract_y
 _atom_site_fract_z
 _atom_site_occupancy
  Dy  Dy0  1  0.714691  0.714691  0.000000  1
  Dy  Dy1  1  0.285653  0.000131  0.285523  1
  Dy  Dy2  1  0.000131  0.285653  0.285523  1
  Dy  Dy3  1  0.714608  0.000131  0.714477  1
  Dy  Dy4  1  0.000131  0.714608  0.714477  1
  Ho  Ho5  1  0.286022  0.286022  0.000000  1
  Si  Si6  1  0.499598  0.000285  0.000000  1
  Si  Si7  1  0.000285  0.499598  0.000000  1
  Si  Si8  1  0.000285  0.000285  0.500689  1
  Si  Si9  1  0.499598  0.499598  0.499313  1
  Ni  Ni10  1  0.668942  0.331002  0.000000  1
  Ni  Ni11  1  0.331002  0.668942  0.000000  1
  Ni  Ni12  1  0.669495  0.999637  0.330142  1
  Ni  Ni13  1  0.660734  0.330283  0.330450  1
  Ni  Ni14  1  0.330283  0.660734  0.330450  1
  Ni  Ni15  1  0.999637  0.669495  0.330142  1
  Ni  Ni16  1  0.668942  0.668942  0.337939  1
  Ni  Ni17  1  0.331002  0.331002  0.662061  1
  Ni  Ni18  1  0.330283  0.999834  0.669550  1
  Ni  Ni19  1  0.999834  0.330283  0.669550  1
  Ni  Ni20  1  0.669495  0.339352  0.669858  1
  Ni  Ni21  1  0.339352  0.669495  0.669858  1
