# generated using pymatgen
data_Tb2Er5Tm3(CoSb2)2
_symmetry_space_group_name_H-M   'P 1'
_cell_length_a   7.81391100
_cell_length_b   8.76063716
_cell_length_c   12.09958122
_cell_angle_alpha   89.97811720
_cell_angle_beta   90.00000000
_cell_angle_gamma   90.00000000
_symmetry_Int_Tables_number   1
_chemical_formula_structural   Tb2Er5Tm3(CoSb2)2
_chemical_formula_sum   'Tb4 Er10 Tm6 Co4 Sb8'
_cell_volume   828.27482486
_cell_formula_units_Z   2
loop_
 _symmetry_equiv_pos_site_id
 _symmetry_equiv_pos_as_xyz
  1  'x, y, z'
loop_
 _atom_site_type_symbol
 _atom_site_label
 _atom_site_symmetry_multiplicity
 _atom_site_fract_x
 _atom_site_fract_y
 _atom_site_fract_z
 _atom_site_occupancy
  Tb  Tb0  1  0.622040  0.749931  0.306570  1
  Tb  Tb1  1  0.122040  0.250069  0.193430  1
  Tb  Tb2  1  0.378157  0.250105  0.693463  1
  Tb  Tb3  1  0.878157  0.749895  0.806537  1
  Er  Er4  1  0.154847  0.749917  0.203488  1
  Er  Er5  1  0.654847  0.250083  0.296512  1
  Er  Er6  1  0.845305  0.250026  0.796397  1
  Er  Er7  1  0.345305  0.749974  0.703603  1
  Er  Er8  1  0.450319  0.749917  0.997698  1
  Er  Er9  1  0.950319  0.250083  0.502302  1
  Er  Er10  1  0.549348  0.250137  0.002252  1
  Er  Er11  1  0.049348  0.749863  0.497748  1
  Er  Er12  1  0.822526  0.963534  0.065189  1
  Er  Er13  1  0.322526  0.036466  0.434811  1
  Tm  Tm14  1  0.176870  0.463386  0.934930  1
  Tm  Tm15  1  0.676870  0.536614  0.565070  1
  Tm  Tm16  1  0.177021  0.036588  0.934876  1
  Tm  Tm17  1  0.677021  0.963412  0.565124  1
  Tm  Tm18  1  0.823121  0.536555  0.065038  1
  Tm  Tm19  1  0.323121  0.463445  0.434962  1
  Co  Co20  1  0.432435  0.749850  0.490900  1
  Co  Co21  1  0.932435  0.250150  0.009100  1
  Co  Co22  1  0.568020  0.250186  0.509195  1
  Co  Co23  1  0.068020  0.749814  0.990805  1
  Sb  Sb24  1  0.929383  0.991440  0.328211  1
  Sb  Sb25  1  0.429383  0.008560  0.171789  1
  Sb  Sb26  1  0.070528  0.491483  0.671800  1
  Sb  Sb27  1  0.570528  0.508517  0.828200  1
  Sb  Sb28  1  0.070544  0.008518  0.671825  1
  Sb  Sb29  1  0.570544  0.991482  0.828175  1
  Sb  Sb30  1  0.929536  0.508516  0.328180  1
  Sb  Sb31  1  0.429536  0.491484  0.171820  1
