# generated using pymatgen
data_DyLu3Fe4(Ni4P3)4
_symmetry_space_group_name_H-M   'P 1'
_cell_length_a   3.67453000
_cell_length_b   10.27299756
_cell_length_c   11.83019579
_cell_angle_alpha   89.93694715
_cell_angle_beta   90.00000000
_cell_angle_gamma   90.00000000
_symmetry_Int_Tables_number   1
_chemical_formula_structural   DyLu3Fe4(Ni4P3)4
_chemical_formula_sum   'Dy1 Lu3 Fe4 Ni16 P12'
_cell_volume   446.57113845
_cell_formula_units_Z   1
loop_
 _symmetry_equiv_pos_site_id
 _symmetry_equiv_pos_as_xyz
  1  'x, y, z'
loop_
 _atom_site_type_symbol
 _atom_site_label
 _atom_site_symmetry_multiplicity
 _atom_site_fract_x
 _atom_site_fract_y
 _atom_site_fract_z
 _atom_site_occupancy
  Dy  Dy0  1  0.750000  0.079452  0.795184  1
  Lu  Lu1  1  0.250000  0.579248  0.704750  1
  Lu  Lu2  1  0.250000  0.920733  0.204917  1
  Lu  Lu3  1  0.750000  0.420752  0.295208  1
  Fe  Fe4  1  0.250000  0.464516  0.931336  1
  Fe  Fe5  1  0.250000  0.036031  0.430572  1
  Fe  Fe6  1  0.750000  0.536136  0.068968  1
  Fe  Fe7  1  0.750000  0.963452  0.567954  1
  Ni  Ni8  1  0.250000  0.713980  0.994999  1
  Ni  Ni9  1  0.250000  0.785660  0.494665  1
  Ni  Ni10  1  0.750000  0.286131  0.005246  1
  Ni  Ni11  1  0.750000  0.214104  0.505344  1
  Ni  Ni12  1  0.250000  0.407497  0.486410  1
  Ni  Ni13  1  0.250000  0.092584  0.988296  1
  Ni  Ni14  1  0.750000  0.592549  0.513416  1
  Ni  Ni15  1  0.750000  0.907001  0.013816  1
  Ni  Ni16  1  0.250000  0.225556  0.177231  1
  Ni  Ni17  1  0.250000  0.275592  0.676508  1
  Ni  Ni18  1  0.750000  0.774128  0.823105  1
  Ni  Ni19  1  0.750000  0.725388  0.322912  1
  Ni  Ni20  1  0.250000  0.876494  0.701511  1
  Ni  Ni21  1  0.250000  0.622155  0.202290  1
  Ni  Ni22  1  0.750000  0.122260  0.297679  1
  Ni  Ni23  1  0.750000  0.378618  0.797870  1
  P  P24  1  0.250000  0.425586  0.112761  1
  P  P25  1  0.250000  0.074214  0.611473  1
  P  P26  1  0.750000  0.574418  0.887336  1
  P  P27  1  0.750000  0.925533  0.386993  1
  P  P28  1  0.250000  0.268659  0.869361  1
  P  P29  1  0.250000  0.232818  0.368703  1
  P  P30  1  0.750000  0.732706  0.131277  1
  P  P31  1  0.750000  0.767333  0.631349  1
  P  P32  1  0.250000  0.602488  0.392371  1
  P  P33  1  0.250000  0.896401  0.892918  1
  P  P34  1  0.750000  0.397382  0.607728  1
  P  P35  1  0.750000  0.102447  0.107539  1
