# generated using pymatgen
data_Yb10HgBiPt4
_symmetry_space_group_name_H-M   'P 1'
_cell_length_a   8.99846180
_cell_length_b   8.99846290
_cell_length_c   8.99846170
_cell_angle_alpha   128.37954304
_cell_angle_beta   128.37954967
_cell_angle_gamma   76.01097875
_symmetry_Int_Tables_number   1
_chemical_formula_structural   Yb10HgBiPt4
_chemical_formula_sum   'Yb10 Hg1 Bi1 Pt4'
_cell_volume   435.33639779
_cell_formula_units_Z   1
loop_
 _symmetry_equiv_pos_site_id
 _symmetry_equiv_pos_as_xyz
  1  'x, y, z'
loop_
 _atom_site_type_symbol
 _atom_site_label
 _atom_site_symmetry_multiplicity
 _atom_site_fract_x
 _atom_site_fract_y
 _atom_site_fract_z
 _atom_site_occupancy
  Yb  Yb0  1  0.999800  0.999800  0.000000  1
  Yb  Yb1  1  0.500200  0.500200  0.000000  1
  Yb  Yb2  1  0.797608  0.294584  0.830525  1
  Yb  Yb3  1  0.205416  0.702392  0.169475  1
  Yb  Yb4  1  0.464059  0.967083  0.169475  1
  Yb  Yb5  1  0.294584  0.464059  0.496976  1
  Yb  Yb6  1  0.035941  0.205416  0.503024  1
  Yb  Yb7  1  0.532917  0.035941  0.830525  1
  Yb  Yb8  1  0.702392  0.532917  0.496976  1
  Yb  Yb9  1  0.967083  0.797608  0.503024  1
  Hg  Hg10  1  0.250000  0.250000  0.000000  1
  Bi  Bi11  1  0.750000  0.750000  0.000000  1
  Pt  Pt12  1  0.132185  0.632185  0.764371  1
  Pt  Pt13  1  0.867815  0.367815  0.235629  1
  Pt  Pt14  1  0.632185  0.867815  0.500000  1
  Pt  Pt15  1  0.367815  0.132185  0.500000  1
