# generated using pymatgen
data_NdY9(In2Au)4
_symmetry_space_group_name_H-M   'P 1'
_cell_length_a   3.68346700
_cell_length_b   8.25906849
_cell_length_c   18.54838895
_cell_angle_alpha   90.05272523
_cell_angle_beta   90.00000000
_cell_angle_gamma   90.00000000
_symmetry_Int_Tables_number   1
_chemical_formula_structural   NdY9(In2Au)4
_chemical_formula_sum   'Nd1 Y9 In8 Au4'
_cell_volume   564.27896527
_cell_formula_units_Z   1
loop_
 _symmetry_equiv_pos_site_id
 _symmetry_equiv_pos_as_xyz
  1  'x, y, z'
loop_
 _atom_site_type_symbol
 _atom_site_label
 _atom_site_symmetry_multiplicity
 _atom_site_fract_x
 _atom_site_fract_y
 _atom_site_fract_z
 _atom_site_occupancy
  Nd  Nd0  1  0.500000  0.000000  0.000000  1
  Y  Y1  1  0.500000  0.237051  0.782978  1
  Y  Y2  1  0.500000  0.762949  0.217022  1
  Y  Y3  1  0.500000  0.264038  0.284601  1
  Y  Y4  1  0.500000  0.735962  0.715399  1
  Y  Y5  1  0.500000  0.121485  0.579588  1
  Y  Y6  1  0.500000  0.878515  0.420412  1
  Y  Y7  1  0.500000  0.375872  0.080338  1
  Y  Y8  1  0.500000  0.624128  0.919662  1
  Y  Y9  1  0.500000  0.500000  0.500000  1
  In  In10  1  0.000000  0.082048  0.150350  1
  In  In11  1  0.000000  0.917952  0.849650  1
  In  In12  1  0.000000  0.419265  0.647153  1
  In  In13  1  0.000000  0.580735  0.352847  1
  In  In14  1  0.000000  0.209016  0.433462  1
  In  In15  1  0.000000  0.790984  0.566538  1
  In  In16  1  0.000000  0.297121  0.932219  1
  In  In17  1  0.000000  0.702879  0.067781  1
  Au  Au18  1  0.000000  0.027328  0.696184  1
  Au  Au19  1  0.000000  0.972672  0.303816  1
  Au  Au20  1  0.000000  0.472159  0.197579  1
  Au  Au21  1  0.000000  0.527841  0.802421  1
