# generated using pymatgen
data_Ho4Mg3ZnRuRh3
_symmetry_space_group_name_H-M   'P 1'
_cell_length_a   4.07823400
_cell_length_b   7.03346863
_cell_length_c   8.39312001
_cell_angle_alpha   90.07453672
_cell_angle_beta   90.00000000
_cell_angle_gamma   90.00000000
_symmetry_Int_Tables_number   1
_chemical_formula_structural   Ho4Mg3ZnRuRh3
_chemical_formula_sum   'Ho4 Mg3 Zn1 Ru1 Rh3'
_cell_volume   240.74914908
_cell_formula_units_Z   1
loop_
 _symmetry_equiv_pos_site_id
 _symmetry_equiv_pos_as_xyz
  1  'x, y, z'
loop_
 _atom_site_type_symbol
 _atom_site_label
 _atom_site_symmetry_multiplicity
 _atom_site_fract_x
 _atom_site_fract_y
 _atom_site_fract_z
 _atom_site_occupancy
  Ho  Ho0  1  0.250000  0.534238  0.182433  1
  Ho  Ho1  1  0.750000  0.457066  0.818359  1
  Ho  Ho2  1  0.250000  0.049444  0.331434  1
  Ho  Ho3  1  0.750000  0.966742  0.672201  1
  Mg  Mg4  1  0.250000  0.135598  0.939683  1
  Mg  Mg5  1  0.750000  0.862939  0.060257  1
  Mg  Mg6  1  0.250000  0.631228  0.555839  1
  Zn  Zn7  1  0.750000  0.365168  0.442911  1
  Ru  Ru8  1  0.250000  0.251504  0.624723  1
  Rh  Rh9  1  0.750000  0.748379  0.369530  1
  Rh  Rh10  1  0.750000  0.250054  0.133388  1
  Rh  Rh11  1  0.250000  0.747638  0.869239  1
