# generated using pymatgen
data_Ce10CoBi6P
_symmetry_space_group_name_H-M   'P 1'
_cell_length_a   6.55908503
_cell_length_b   9.57549601
_cell_length_c   9.57342419
_cell_angle_alpha   120.00717406
_cell_angle_beta   89.99598431
_cell_angle_gamma   90.00804627
_symmetry_Int_Tables_number   1
_chemical_formula_structural   Ce10CoBi6P
_chemical_formula_sum   'Ce10 Co1 Bi6 P1'
_cell_volume   520.68020964
_cell_formula_units_Z   1
loop_
 _symmetry_equiv_pos_site_id
 _symmetry_equiv_pos_as_xyz
  1  'x, y, z'
loop_
 _atom_site_type_symbol
 _atom_site_label
 _atom_site_symmetry_multiplicity
 _atom_site_fract_x
 _atom_site_fract_y
 _atom_site_fract_z
 _atom_site_occupancy
  Ce  Ce0  1  0.499934  0.333084  0.666053  1
  Ce  Ce1  1  0.499934  0.667031  0.333947  1
  Ce  Ce2  1  0.000131  0.666776  0.333843  1
  Ce  Ce3  1  0.000131  0.332934  0.666157  1
  Ce  Ce4  1  0.758161  0.240182  0.000000  1
  Ce  Ce5  1  0.757841  0.759949  0.759786  1
  Ce  Ce6  1  0.757841  0.000163  0.240214  1
  Ce  Ce7  1  0.241942  0.759686  0.000000  1
  Ce  Ce8  1  0.242113  0.240350  0.240447  1
  Ce  Ce9  1  0.242113  0.999904  0.759553  1
  Co  Co10  1  0.999968  0.999841  0.000000  1
  Bi  Bi11  1  0.749231  0.609000  0.000000  1
  Bi  Bi12  1  0.749247  0.390933  0.390842  1
  Bi  Bi13  1  0.749247  0.000093  0.609158  1
  Bi  Bi14  1  0.251014  0.390898  0.000000  1
  Bi  Bi15  1  0.250741  0.609217  0.609329  1
  Bi  Bi16  1  0.250741  0.999886  0.390671  1
  P  P17  1  0.499670  0.000072  0.000000  1
