# generated using pymatgen
data_Th2Pa(AlCo)3
_symmetry_space_group_name_H-M   'P 1'
_cell_length_a   6.98687000
_cell_length_b   6.97445013
_cell_length_c   3.96130800
_cell_angle_alpha   90.00000000
_cell_angle_beta   90.00000000
_cell_angle_gamma   120.05891532
_symmetry_Int_Tables_number   1
_chemical_formula_structural   Th2Pa(AlCo)3
_chemical_formula_sum   'Th2 Pa1 Al3 Co3'
_cell_volume   167.07202818
_cell_formula_units_Z   1
loop_
 _symmetry_equiv_pos_site_id
 _symmetry_equiv_pos_as_xyz
  1  'x, y, z'
loop_
 _atom_site_type_symbol
 _atom_site_label
 _atom_site_symmetry_multiplicity
 _atom_site_fract_x
 _atom_site_fract_y
 _atom_site_fract_z
 _atom_site_occupancy
  Th  Th0  1  0.001015  0.580655  0.000000  1
  Th  Th1  1  0.420359  0.419345  0.000000  1
  Pa  Pa2  1  0.578729  0.000000  0.000000  1
  Al  Al3  1  0.228703  0.000000  0.500000  1
  Al  Al4  1  0.993500  0.224838  0.500000  1
  Al  Al5  1  0.768662  0.775162  0.500000  1
  Co  Co6  1  0.358817  0.696665  0.500000  1
  Co  Co7  1  0.662154  0.303335  0.500000  1
  Co  Co8  1  0.988061  0.000000  0.000000  1
