# generated using pymatgen
data_BaLi4Nd3Si8
_symmetry_space_group_name_H-M   'P 1'
_cell_length_a   3.88957300
_cell_length_b   7.92532356
_cell_length_c   10.77384258
_cell_angle_alpha   89.49013481
_cell_angle_beta   90.00000000
_cell_angle_gamma   90.00000000
_symmetry_Int_Tables_number   1
_chemical_formula_structural   BaLi4Nd3Si8
_chemical_formula_sum   'Ba1 Li4 Nd3 Si8'
_cell_volume   332.10266324
_cell_formula_units_Z   1
loop_
 _symmetry_equiv_pos_site_id
 _symmetry_equiv_pos_as_xyz
  1  'x, y, z'
loop_
 _atom_site_type_symbol
 _atom_site_label
 _atom_site_symmetry_multiplicity
 _atom_site_fract_x
 _atom_site_fract_y
 _atom_site_fract_z
 _atom_site_occupancy
  Ba  Ba0  1  0.750000  0.360102  0.365704  1
  Li  Li1  1  0.250000  0.003323  0.391457  1
  Li  Li2  1  0.750000  0.004533  0.614456  1
  Li  Li3  1  0.250000  0.492744  0.106051  1
  Li  Li4  1  0.750000  0.504889  0.891526  1
  Nd  Nd5  1  0.250000  0.127261  0.864555  1
  Nd  Nd6  1  0.750000  0.864735  0.130818  1
  Nd  Nd7  1  0.250000  0.635095  0.637129  1
  Si  Si8  1  0.750000  0.262348  0.060286  1
  Si  Si9  1  0.250000  0.727841  0.928138  1
  Si  Si10  1  0.750000  0.782541  0.430905  1
  Si  Si11  1  0.250000  0.228433  0.585811  1
  Si  Si12  1  0.750000  0.830848  0.821015  1
  Si  Si13  1  0.250000  0.153742  0.161882  1
  Si  Si14  1  0.750000  0.334483  0.688534  1
  Si  Si15  1  0.250000  0.687083  0.321732  1
