# generated using pymatgen
data_Pr10Ge3Te7
_symmetry_space_group_name_H-M   'P 1'
_cell_length_a   11.91848024
_cell_length_b   11.91847936
_cell_length_c   7.85199000
_cell_angle_alpha   83.64925340
_cell_angle_beta   83.64925387
_cell_angle_gamma   141.93495770
_symmetry_Int_Tables_number   1
_chemical_formula_structural   Pr10Ge3Te7
_chemical_formula_sum   'Pr10 Ge3 Te7'
_cell_volume   646.92143221
_cell_formula_units_Z   1
loop_
 _symmetry_equiv_pos_site_id
 _symmetry_equiv_pos_as_xyz
  1  'x, y, z'
loop_
 _atom_site_type_symbol
 _atom_site_label
 _atom_site_symmetry_multiplicity
 _atom_site_fract_x
 _atom_site_fract_y
 _atom_site_fract_z
 _atom_site_occupancy
  Pr  Pr0  1  0.261984  0.261984  0.772818  1
  Pr  Pr1  1  0.850661  0.650846  0.750691  1
  Pr  Pr2  1  0.738016  0.738016  0.227182  1
  Pr  Pr3  1  0.457112  0.044867  0.722716  1
  Pr  Pr4  1  0.349154  0.149339  0.249309  1
  Pr  Pr5  1  0.044867  0.457112  0.722716  1
  Pr  Pr6  1  0.955133  0.542888  0.277284  1
  Pr  Pr7  1  0.650846  0.850661  0.750691  1
  Pr  Pr8  1  0.542888  0.955133  0.277284  1
  Pr  Pr9  1  0.149339  0.349154  0.249309  1
  Ge  Ge10  1  0.500000  0.500000  0.000000  1
  Ge  Ge11  1  0.197030  0.802970  0.500000  1
  Ge  Ge12  1  0.802970  0.197030  0.500000  1
  Te  Te13  1  0.896067  0.103933  0.000000  1
  Te  Te14  1  0.400786  0.599214  0.500000  1
  Te  Te15  1  0.000000  0.000000  0.500000  1
  Te  Te16  1  0.599214  0.400786  0.500000  1
  Te  Te17  1  0.103933  0.896067  0.000000  1
  Te  Te18  1  0.700415  0.299585  0.000000  1
  Te  Te19  1  0.299585  0.700415  0.000000  1
