# generated using pymatgen
data_Ce3Lu13(CdRu)4
_symmetry_space_group_name_H-M   'P 1'
_cell_length_a   9.49901740
_cell_length_b   9.49901765
_cell_length_c   9.47282367
_cell_angle_alpha   59.90848686
_cell_angle_beta   59.90848314
_cell_angle_gamma   59.99999658
_symmetry_Int_Tables_number   1
_chemical_formula_structural   Ce3Lu13(CdRu)4
_chemical_formula_sum   'Ce3 Lu13 Cd4 Ru4'
_cell_volume   603.55895493
_cell_formula_units_Z   1
loop_
 _symmetry_equiv_pos_site_id
 _symmetry_equiv_pos_as_xyz
  1  'x, y, z'
loop_
 _atom_site_type_symbol
 _atom_site_label
 _atom_site_symmetry_multiplicity
 _atom_site_fract_x
 _atom_site_fract_y
 _atom_site_fract_z
 _atom_site_occupancy
  Ce  Ce0  1  0.347809  0.961315  0.343067  1
  Ce  Ce1  1  0.961315  0.347809  0.343067  1
  Ce  Ce2  1  0.347809  0.347809  0.343067  1
  Lu  Lu3  1  0.563577  0.563577  0.935588  1
  Lu  Lu4  1  0.937256  0.563577  0.935588  1
  Lu  Lu5  1  0.563577  0.937256  0.935588  1
  Lu  Lu6  1  0.936536  0.936536  0.563801  1
  Lu  Lu7  1  0.563126  0.936536  0.563801  1
  Lu  Lu8  1  0.936536  0.563126  0.563801  1
  Lu  Lu9  1  0.187146  0.187146  0.814816  1
  Lu  Lu10  1  0.810891  0.187146  0.814816  1
  Lu  Lu11  1  0.187145  0.810892  0.814816  1
  Lu  Lu12  1  0.813120  0.813121  0.185532  1
  Lu  Lu13  1  0.188228  0.813120  0.185531  1
  Lu  Lu14  1  0.813120  0.188229  0.185532  1
  Lu  Lu15  1  0.350877  0.350877  0.947370  1
  Cd  Cd16  1  0.582438  0.582438  0.252686  1
  Cd  Cd17  1  0.580722  0.256555  0.582000  1
  Cd  Cd18  1  0.256555  0.580722  0.582000  1
  Cd  Cd19  1  0.580722  0.580722  0.582000  1
  Ru  Ru20  1  0.143295  0.143295  0.570114  1
  Ru  Ru21  1  0.139248  0.569700  0.151805  1
  Ru  Ru22  1  0.569700  0.139248  0.151805  1
  Ru  Ru23  1  0.139248  0.139248  0.151805  1
