# generated using pymatgen
data_PaGaNi3Pd
_symmetry_space_group_name_H-M   'P 1'
_cell_length_a   4.91200869
_cell_length_b   4.91200935
_cell_length_c   4.91200804
_cell_angle_alpha   62.05328191
_cell_angle_beta   62.05327552
_cell_angle_gamma   62.05328234
_symmetry_Int_Tables_number   1
_chemical_formula_structural   PaGaNi3Pd
_chemical_formula_sum   'Pa1 Ga1 Ni3 Pd1'
_cell_volume   87.65088945
_cell_formula_units_Z   1
loop_
 _symmetry_equiv_pos_site_id
 _symmetry_equiv_pos_as_xyz
  1  'x, y, z'
loop_
 _atom_site_type_symbol
 _atom_site_label
 _atom_site_symmetry_multiplicity
 _atom_site_fract_x
 _atom_site_fract_y
 _atom_site_fract_z
 _atom_site_occupancy
  Pa  Pa0  1  0.990950  0.990950  0.990950  1
  Ga  Ga1  1  0.382891  0.382891  0.382891  1
  Ni  Ni2  1  0.879789  0.376055  0.376055  1
  Ni  Ni3  1  0.376055  0.879789  0.376055  1
  Ni  Ni4  1  0.376055  0.376055  0.879789  1
  Pd  Pd5  1  0.744260  0.744260  0.744260  1
