# generated using pymatgen
data_KZrIO6
_symmetry_space_group_name_H-M   'P 1'
_cell_length_a   5.48389000
_cell_length_b   5.48387007
_cell_length_c   11.97708000
_cell_angle_alpha   89.99966737
_cell_angle_beta   90.00023652
_cell_angle_gamma   120.00027779
_symmetry_Int_Tables_number   1
_chemical_formula_structural   KZrIO6
_chemical_formula_sum   'K2 Zr2 I2 O12'
_cell_volume   311.92936267
_cell_formula_units_Z   2
loop_
 _symmetry_equiv_pos_site_id
 _symmetry_equiv_pos_as_xyz
  1  'x, y, z'
loop_
 _atom_site_type_symbol
 _atom_site_label
 _atom_site_symmetry_multiplicity
 _atom_site_fract_x
 _atom_site_fract_y
 _atom_site_fract_z
 _atom_site_occupancy
  K  K0  1  0.999972  0.999977  0.000000  1
  K  K1  1  0.999985  0.999979  0.500001  1
  Zr  Zr2  1  0.666663  0.333326  0.250007  1
  Zr  Zr3  1  0.333322  0.666658  0.749991  1
  I  I4  1  0.333324  0.666661  0.250015  1
  I  I5  1  0.666658  0.333323  0.749984  1
  O  O6  1  0.598389  0.969882  0.158558  1
  O  O7  1  0.371480  0.401586  0.158558  1
  O  O8  1  0.030093  0.628497  0.158559  1
  O  O9  1  0.371487  0.969882  0.341438  1
  O  O10  1  0.030102  0.401595  0.341437  1
  O  O11  1  0.598389  0.628494  0.341438  1
  O  O12  1  0.628490  0.598389  0.658562  1
  O  O13  1  0.401590  0.030094  0.658562  1
  O  O14  1  0.969877  0.371484  0.658562  1
  O  O15  1  0.628497  0.030092  0.841442  1
  O  O16  1  0.401593  0.371483  0.841443  1
  O  O17  1  0.969890  0.598396  0.841442  1
