# generated using pymatgen
data_Ho2Ga9Co2Pt
_symmetry_space_group_name_H-M   'P 1'
_cell_length_a   7.46930263
_cell_length_b   7.46930130
_cell_length_c   9.38772900
_cell_angle_alpha   90.00000000
_cell_angle_beta   90.00000000
_cell_angle_gamma   119.58162151
_symmetry_Int_Tables_number   1
_chemical_formula_structural   Ho2Ga9Co2Pt
_chemical_formula_sum   'Ho4 Ga18 Co4 Pt2'
_cell_volume   455.47730259
_cell_formula_units_Z   2
loop_
 _symmetry_equiv_pos_site_id
 _symmetry_equiv_pos_as_xyz
  1  'x, y, z'
loop_
 _atom_site_type_symbol
 _atom_site_label
 _atom_site_symmetry_multiplicity
 _atom_site_fract_x
 _atom_site_fract_y
 _atom_site_fract_z
 _atom_site_occupancy
  Ho  Ho0  1  0.322201  0.003801  0.750000  1
  Ho  Ho1  1  0.003801  0.322201  0.750000  1
  Ho  Ho2  1  0.677799  0.996199  0.250000  1
  Ho  Ho3  1  0.996199  0.677799  0.250000  1
  Ga  Ga4  1  0.654398  0.003044  0.923539  1
  Ga  Ga5  1  0.345602  0.996956  0.423539  1
  Ga  Ga6  1  0.996956  0.345602  0.423538  1
  Ga  Ga7  1  0.345602  0.996956  0.076461  1
  Ga  Ga8  1  0.003044  0.654398  0.923539  1
  Ga  Ga9  1  0.996956  0.345602  0.076461  1
  Ga  Ga10  1  0.344012  0.344012  0.565287  1
  Ga  Ga11  1  0.344012  0.344012  0.934713  1
  Ga  Ga12  1  0.655988  0.655988  0.065287  1
  Ga  Ga13  1  0.655988  0.655988  0.434713  1
  Ga  Ga14  1  0.855290  0.855290  0.750000  1
  Ga  Ga15  1  0.144710  0.144710  0.250000  1
  Ga  Ga16  1  0.333345  0.557786  0.250000  1
  Ga  Ga17  1  0.557786  0.333345  0.250000  1
  Ga  Ga18  1  0.666655  0.442214  0.750000  1
  Ga  Ga19  1  0.442214  0.666655  0.750000  1
  Ga  Ga20  1  0.654398  0.003044  0.576462  1
  Ga  Ga21  1  0.003044  0.654398  0.576461  1
  Co  Co22  1  0.329766  0.670234  0.000000  1
  Co  Co23  1  0.670234  0.329766  0.500000  1
  Co  Co24  1  0.670234  0.329766  0.000000  1
  Co  Co25  1  0.329766  0.670234  0.500000  1
  Pt  Pt26  1  0.000000  0.000000  0.000000  1
  Pt  Pt27  1  0.000000  0.000000  0.500000  1
