# generated using pymatgen
data_SrGa2Au5
_symmetry_space_group_name_H-M   'P 1'
_cell_length_a   7.41203300
_cell_length_b   8.92626700
_cell_length_c   10.09995200
_cell_angle_alpha   90.00000000
_cell_angle_beta   90.00000000
_cell_angle_gamma   90.00000000
_symmetry_Int_Tables_number   1
_chemical_formula_structural   SrGa2Au5
_chemical_formula_sum   'Sr4 Ga8 Au20'
_cell_volume   668.23085850
_cell_formula_units_Z   4
loop_
 _symmetry_equiv_pos_site_id
 _symmetry_equiv_pos_as_xyz
  1  'x, y, z'
loop_
 _atom_site_type_symbol
 _atom_site_label
 _atom_site_symmetry_multiplicity
 _atom_site_fract_x
 _atom_site_fract_y
 _atom_site_fract_z
 _atom_site_occupancy
  Sr  Sr0  1  0.250000  0.253404  0.123847  1
  Sr  Sr1  1  0.250000  0.753404  0.376153  1
  Sr  Sr2  1  0.750000  0.746596  0.876153  1
  Sr  Sr3  1  0.750000  0.246596  0.623847  1
  Ga  Ga4  1  0.250000  0.046369  0.613526  1
  Ga  Ga5  1  0.250000  0.546369  0.886474  1
  Ga  Ga6  1  0.750000  0.953631  0.386474  1
  Ga  Ga7  1  0.750000  0.453631  0.113526  1
  Ga  Ga8  1  0.250000  0.356849  0.480290  1
  Ga  Ga9  1  0.250000  0.856849  0.019710  1
  Ga  Ga10  1  0.750000  0.643151  0.519710  1
  Ga  Ga11  1  0.750000  0.143151  0.980290  1
  Au  Au12  1  0.058119  0.106457  0.392710  1
  Au  Au13  1  0.441881  0.606457  0.107290  1
  Au  Au14  1  0.558119  0.893543  0.607290  1
  Au  Au15  1  0.941881  0.393543  0.892710  1
  Au  Au16  1  0.941881  0.893543  0.607290  1
  Au  Au17  1  0.558119  0.393543  0.892710  1
  Au  Au18  1  0.441881  0.106457  0.392710  1
  Au  Au19  1  0.058119  0.606457  0.107290  1
  Au  Au20  1  0.036741  0.057394  0.861653  1
  Au  Au21  1  0.463259  0.557394  0.638347  1
  Au  Au22  1  0.536741  0.942606  0.138347  1
  Au  Au23  1  0.963259  0.442606  0.361653  1
  Au  Au24  1  0.963259  0.942606  0.138347  1
  Au  Au25  1  0.536741  0.442606  0.361653  1
  Au  Au26  1  0.463259  0.057394  0.861653  1
  Au  Au27  1  0.036741  0.557394  0.638347  1
  Au  Au28  1  0.250000  0.298051  0.734330  1
  Au  Au29  1  0.250000  0.798051  0.765670  1
  Au  Au30  1  0.750000  0.701949  0.265670  1
  Au  Au31  1  0.750000  0.201949  0.234330  1
