# generated using pymatgen
data_Ba4Sr8Si15Ge
_symmetry_space_group_name_H-M   'P 1'
_cell_length_a   8.41032122
_cell_length_b   8.41032061
_cell_length_c   11.26227234
_cell_angle_alpha   89.95927015
_cell_angle_beta   89.95926784
_cell_angle_gamma   90.01047477
_symmetry_Int_Tables_number   1
_chemical_formula_structural   Ba4Sr8Si15Ge
_chemical_formula_sum   'Ba4 Sr8 Si15 Ge1'
_cell_volume   796.61949988
_cell_formula_units_Z   1
loop_
 _symmetry_equiv_pos_site_id
 _symmetry_equiv_pos_as_xyz
  1  'x, y, z'
loop_
 _atom_site_type_symbol
 _atom_site_label
 _atom_site_symmetry_multiplicity
 _atom_site_fract_x
 _atom_site_fract_y
 _atom_site_fract_z
 _atom_site_occupancy
  Ba  Ba0  1  0.666643  0.666643  0.000092  1
  Ba  Ba1  1  0.833559  0.167060  0.499190  1
  Ba  Ba2  1  0.167060  0.833559  0.499190  1
  Ba  Ba3  1  0.334002  0.334002  0.000418  1
  Sr  Sr4  1  0.498467  0.001261  0.750386  1
  Sr  Sr5  1  0.499912  0.999986  0.249742  1
  Sr  Sr6  1  0.001261  0.498467  0.750386  1
  Sr  Sr7  1  0.999986  0.499912  0.249742  1
  Sr  Sr8  1  0.001983  0.001983  0.833161  1
  Sr  Sr9  1  0.499116  0.499116  0.331096  1
  Sr  Sr10  1  0.499764  0.499764  0.667991  1
  Sr  Sr11  1  0.000071  0.000071  0.168337  1
  Si  Si12  1  0.203121  0.203121  0.655332  1
  Si  Si13  1  0.796221  0.796221  0.343525  1
  Si  Si14  1  0.296256  0.703739  0.156099  1
  Si  Si15  1  0.703739  0.296256  0.156099  1
  Si  Si16  1  0.703512  0.296544  0.844128  1
  Si  Si17  1  0.296544  0.703512  0.844128  1
  Si  Si18  1  0.203772  0.203772  0.343794  1
  Si  Si19  1  0.702544  0.095327  0.000050  1
  Si  Si20  1  0.297825  0.904141  0.000103  1
  Si  Si21  1  0.095327  0.702544  0.000050  1
  Si  Si22  1  0.594121  0.796282  0.498036  1
  Si  Si23  1  0.904141  0.297825  0.000103  1
  Si  Si24  1  0.202358  0.404449  0.499811  1
  Si  Si25  1  0.796282  0.594121  0.498036  1
  Si  Si26  1  0.404449  0.202358  0.499811  1
  Ge  Ge27  1  0.797961  0.797961  0.661160  1
