# generated using pymatgen
data_La5Mo3(P3Ir4)4
_symmetry_space_group_name_H-M   'P 1'
_cell_length_a   12.84365800
_cell_length_b   12.84365791
_cell_length_c   4.04164700
_cell_angle_alpha   90.00000000
_cell_angle_beta   90.00000000
_cell_angle_gamma   120.00000024
_symmetry_Int_Tables_number   1
_chemical_formula_structural   La5Mo3(P3Ir4)4
_chemical_formula_sum   'La5 Mo3 P12 Ir16'
_cell_volume   577.38629646
_cell_formula_units_Z   1
loop_
 _symmetry_equiv_pos_site_id
 _symmetry_equiv_pos_as_xyz
  1  'x, y, z'
loop_
 _atom_site_type_symbol
 _atom_site_label
 _atom_site_symmetry_multiplicity
 _atom_site_fract_x
 _atom_site_fract_y
 _atom_site_fract_z
 _atom_site_occupancy
  La  La0  1  0.188519  0.188519  0.500000  1
  La  La1  1  0.811481  0.000000  0.500000  1
  La  La2  1  0.000000  0.811481  0.500000  1
  La  La3  1  0.333333  0.666667  0.000000  1
  La  La4  1  0.666667  0.333333  0.000000  1
  Mo  Mo5  1  0.549245  0.549245  0.000000  1
  Mo  Mo6  1  0.450755  0.000000  0.000000  1
  Mo  Mo7  1  0.000000  0.450755  0.000000  1
  P  P8  1  0.820730  0.820730  0.000000  1
  P  P9  1  0.179270  0.000000  0.000000  1
  P  P10  1  0.000000  0.179270  0.000000  1
  P  P11  1  0.167288  0.480668  0.500000  1
  P  P12  1  0.519332  0.686621  0.500000  1
  P  P13  1  0.313379  0.832712  0.500000  1
  P  P14  1  0.686621  0.519332  0.500000  1
  P  P15  1  0.832712  0.313379  0.500000  1
  P  P16  1  0.480668  0.167288  0.500000  1
  P  P17  1  0.367353  0.367353  0.000000  1
  P  P18  1  0.632647  0.000000  0.000000  1
  P  P19  1  0.000000  0.632647  0.000000  1
  Ir  Ir20  1  0.713276  0.713276  0.500000  1
  Ir  Ir21  1  0.286724  0.000000  0.500000  1
  Ir  Ir22  1  0.000000  0.286724  0.500000  1
  Ir  Ir23  1  0.178721  0.377992  0.000000  1
  Ir  Ir24  1  0.622008  0.800729  0.000000  1
  Ir  Ir25  1  0.199271  0.821279  0.000000  1
  Ir  Ir26  1  0.800729  0.622008  0.000000  1
  Ir  Ir27  1  0.821279  0.199271  0.000000  1
  Ir  Ir28  1  0.377992  0.178721  0.000000  1
  Ir  Ir29  1  0.360776  0.490639  0.500000  1
  Ir  Ir30  1  0.509361  0.870137  0.500000  1
  Ir  Ir31  1  0.129863  0.639224  0.500000  1
  Ir  Ir32  1  0.870137  0.509361  0.500000  1
  Ir  Ir33  1  0.639224  0.129863  0.500000  1
  Ir  Ir34  1  0.490639  0.360776  0.500000  1
  Ir  Ir35  1  0.000000  0.000000  0.000000  1
