# generated using pymatgen
data_YHo4Tm15Pt16
_symmetry_space_group_name_H-M   'P 1'
_cell_length_a   7.40689101
_cell_length_b   7.48822128
_cell_length_c   14.59962503
_cell_angle_alpha   90.01832026
_cell_angle_beta   90.00265863
_cell_angle_gamma   89.95998644
_symmetry_Int_Tables_number   1
_chemical_formula_structural   YHo4Tm15Pt16
_chemical_formula_sum   'Y1 Ho4 Tm15 Pt16'
_cell_volume   809.75976986
_cell_formula_units_Z   1
loop_
 _symmetry_equiv_pos_site_id
 _symmetry_equiv_pos_as_xyz
  1  'x, y, z'
loop_
 _atom_site_type_symbol
 _atom_site_label
 _atom_site_symmetry_multiplicity
 _atom_site_fract_x
 _atom_site_fract_y
 _atom_site_fract_z
 _atom_site_occupancy
  Y  Y0  1  0.999323  0.179095  0.407160  1
  Ho  Ho1  1  0.499104  0.321457  0.407471  1
  Ho  Ho2  1  0.998923  0.178698  0.092506  1
  Ho  Ho3  1  0.500855  0.678935  0.907600  1
  Ho  Ho4  1  0.001291  0.820319  0.592734  1
  Tm  Tm5  1  0.655936  0.167481  0.622645  1
  Tm  Tm6  1  0.156026  0.332740  0.877490  1
  Tm  Tm7  1  0.343963  0.832778  0.122439  1
  Tm  Tm8  1  0.843914  0.667257  0.377376  1
  Tm  Tm9  1  0.344895  0.831970  0.377653  1
  Tm  Tm10  1  0.844130  0.667529  0.121964  1
  Tm  Tm11  1  0.655850  0.167496  0.877806  1
  Tm  Tm12  1  0.156471  0.332834  0.622473  1
  Tm  Tm13  1  0.501496  0.680080  0.593111  1
  Tm  Tm14  1  0.001642  0.819927  0.906917  1
  Tm  Tm15  1  0.498311  0.319905  0.092927  1
  Tm  Tm16  1  0.818989  0.510257  0.750061  1
  Tm  Tm17  1  0.318995  0.989660  0.750117  1
  Tm  Tm18  1  0.180977  0.489901  0.249583  1
  Tm  Tm19  1  0.680840  0.010284  0.249692  1
  Pt  Pt20  1  0.682521  0.965345  0.458851  1
  Pt  Pt21  1  0.184962  0.533305  0.041519  1
  Pt  Pt22  1  0.315101  0.033166  0.958407  1
  Pt  Pt23  1  0.814915  0.467773  0.542008  1
  Pt  Pt24  1  0.317053  0.032329  0.542215  1
  Pt  Pt25  1  0.816685  0.466984  0.958319  1
  Pt  Pt26  1  0.683327  0.967110  0.041628  1
  Pt  Pt27  1  0.183987  0.534842  0.459011  1
  Pt  Pt28  1  0.453615  0.386815  0.749885  1
  Pt  Pt29  1  0.953488  0.113299  0.750306  1
  Pt  Pt30  1  0.546261  0.613483  0.249572  1
  Pt  Pt31  1  0.046784  0.885959  0.249765  1
  Pt  Pt32  1  0.681598  0.856009  0.749895  1
  Pt  Pt33  1  0.181602  0.644100  0.750437  1
  Pt  Pt34  1  0.318999  0.144029  0.249298  1
  Pt  Pt35  1  0.817170  0.356849  0.249158  1
