# generated using pymatgen
data_Hf8In2CoCu7Hg2
_symmetry_space_group_name_H-M   'P 1'
_cell_length_a   7.16754198
_cell_length_b   7.17315631
_cell_length_c   6.78099319
_cell_angle_alpha   90.15988046
_cell_angle_beta   90.04755123
_cell_angle_gamma   90.31638068
_symmetry_Int_Tables_number   1
_chemical_formula_structural   Hf8In2CoCu7Hg2
_chemical_formula_sum   'Hf8 In2 Co1 Cu7 Hg2'
_cell_volume   348.63050157
_cell_formula_units_Z   1
loop_
 _symmetry_equiv_pos_site_id
 _symmetry_equiv_pos_as_xyz
  1  'x, y, z'
loop_
 _atom_site_type_symbol
 _atom_site_label
 _atom_site_symmetry_multiplicity
 _atom_site_fract_x
 _atom_site_fract_y
 _atom_site_fract_z
 _atom_site_occupancy
  Hf  Hf0  1  0.161375  0.156115  0.007222  1
  Hf  Hf1  1  0.854217  0.855027  0.997077  1
  Hf  Hf2  1  0.643033  0.346472  0.489831  1
  Hf  Hf3  1  0.348198  0.644279  0.490401  1
  Hf  Hf4  1  0.675959  0.305092  0.006304  1
  Hf  Hf5  1  0.312953  0.684574  0.005849  1
  Hf  Hf6  1  0.804098  0.812761  0.501785  1
  Hf  Hf7  1  0.199211  0.192640  0.492450  1
  In  In8  1  0.998525  0.500721  0.247638  1
  In  In9  1  0.996559  0.498578  0.749779  1
  Co  Co10  1  0.375475  0.379342  0.222539  1
  Cu  Cu11  1  0.625129  0.621963  0.793227  1
  Cu  Cu12  1  0.629668  0.625716  0.202139  1
  Cu  Cu13  1  0.878293  0.127394  0.706455  1
  Cu  Cu14  1  0.878139  0.124370  0.294747  1
  Cu  Cu15  1  0.374275  0.378399  0.792792  1
  Cu  Cu16  1  0.121134  0.875795  0.296183  1
  Cu  Cu17  1  0.124285  0.876229  0.705468  1
  Hg  Hg18  1  0.500757  0.996843  0.248854  1
  Hg  Hg19  1  0.498717  0.997689  0.749261  1
