# generated using pymatgen
data_Ac3Si3Cl2
_symmetry_space_group_name_H-M   'P 1'
_cell_length_a   9.64083988
_cell_length_b   9.64084010
_cell_length_c   10.93677151
_cell_angle_alpha   82.61906896
_cell_angle_beta   82.61906789
_cell_angle_gamma   26.49559612
_symmetry_Int_Tables_number   1
_chemical_formula_structural   Ac3Si3Cl2
_chemical_formula_sum   'Ac6 Si6 Cl4'
_cell_volume   449.53524034
_cell_formula_units_Z   2
loop_
 _symmetry_equiv_pos_site_id
 _symmetry_equiv_pos_as_xyz
  1  'x, y, z'
loop_
 _atom_site_type_symbol
 _atom_site_label
 _atom_site_symmetry_multiplicity
 _atom_site_fract_x
 _atom_site_fract_y
 _atom_site_fract_z
 _atom_site_occupancy
  Ac  Ac0  1  0.679997  0.679997  0.850966  1
  Ac  Ac1  1  0.320003  0.320003  0.149034  1
  Ac  Ac2  1  0.385065  0.385065  0.490217  1
  Ac  Ac3  1  0.614935  0.614935  0.509783  1
  Ac  Ac4  1  0.464747  0.464747  0.831001  1
  Ac  Ac5  1  0.535253  0.535253  0.168999  1
  Si  Si6  1  0.936531  0.936531  0.051845  1
  Si  Si7  1  0.063469  0.063469  0.948155  1
  Si  Si8  1  0.087698  0.087698  0.722400  1
  Si  Si9  1  0.912302  0.912302  0.277600  1
  Si  Si10  1  0.982733  0.982733  0.610057  1
  Si  Si11  1  0.017267  0.017267  0.389943  1
  Cl  Cl12  1  0.226352  0.226352  0.391861  1
  Cl  Cl13  1  0.773648  0.773648  0.608139  1
  Cl  Cl14  1  0.296747  0.296747  0.873996  1
  Cl  Cl15  1  0.703253  0.703253  0.126004  1
