# generated using pymatgen
data_Mn3Sb12Os
_symmetry_space_group_name_H-M   'P 1'
_cell_length_a   8.13118971
_cell_length_b   8.12346441
_cell_length_c   8.12346391
_cell_angle_alpha   109.45194610
_cell_angle_beta   109.49049239
_cell_angle_gamma   109.49048551
_symmetry_Int_Tables_number   1
_chemical_formula_structural   Mn3Sb12Os
_chemical_formula_sum   'Mn3 Sb12 Os1'
_cell_volume   412.96325264
_cell_formula_units_Z   1
loop_
 _symmetry_equiv_pos_site_id
 _symmetry_equiv_pos_as_xyz
  1  'x, y, z'
loop_
 _atom_site_type_symbol
 _atom_site_label
 _atom_site_symmetry_multiplicity
 _atom_site_fract_x
 _atom_site_fract_y
 _atom_site_fract_z
 _atom_site_occupancy
  Mn  Mn0  1  0.000000  0.000000  0.500000  1
  Mn  Mn1  1  0.000000  0.500000  0.000000  1
  Mn  Mn2  1  0.500000  0.500000  0.500000  1
  Sb  Sb3  1  0.155575  0.820043  0.664516  1
  Sb  Sb4  1  0.844425  0.179957  0.335484  1
  Sb  Sb5  1  0.844866  0.504768  0.660277  1
  Sb  Sb6  1  0.155134  0.495232  0.339723  1
  Sb  Sb7  1  0.815412  0.660277  0.155509  1
  Sb  Sb8  1  0.184588  0.339723  0.844491  1
  Sb  Sb9  1  0.508940  0.664516  0.844473  1
  Sb  Sb10  1  0.491060  0.335484  0.155527  1
  Sb  Sb11  1  0.664468  0.155527  0.820043  1
  Sb  Sb12  1  0.335532  0.844473  0.179957  1
  Sb  Sb13  1  0.659903  0.844491  0.504768  1
  Sb  Sb14  1  0.340097  0.155509  0.495232  1
  Os  Os15  1  0.500000  0.000000  0.000000  1
