# generated using pymatgen
data_TbEr4Al2Ru3
_symmetry_space_group_name_H-M   'P 1'
_cell_length_a   8.29806468
_cell_length_b   8.29690692
_cell_length_c   8.29742207
_cell_angle_alpha   109.36953318
_cell_angle_beta   109.68452579
_cell_angle_gamma   109.38007768
_symmetry_Int_Tables_number   1
_chemical_formula_structural   TbEr4Al2Ru3
_chemical_formula_sum   'Tb2 Er8 Al4 Ru6'
_cell_volume   439.64421096
_cell_formula_units_Z   2
loop_
 _symmetry_equiv_pos_site_id
 _symmetry_equiv_pos_as_xyz
  1  'x, y, z'
loop_
 _atom_site_type_symbol
 _atom_site_label
 _atom_site_symmetry_multiplicity
 _atom_site_fract_x
 _atom_site_fract_y
 _atom_site_fract_z
 _atom_site_occupancy
  Tb  Tb0  1  0.931620  0.250535  0.182218  1
  Tb  Tb1  1  0.180869  0.929574  0.250432  1
  Er  Er2  1  0.785810  0.785909  0.784891  1
  Er  Er3  1  0.320434  0.570131  0.751266  1
  Er  Er4  1  0.750371  0.320538  0.570587  1
  Er  Er5  1  0.568286  0.749051  0.317598  1
  Er  Er6  1  0.713171  0.500214  0.998885  1
  Er  Er7  1  0.000427  0.714732  0.502540  1
  Er  Er8  1  0.499932  0.998593  0.713310  1
  Er  Er9  1  0.251149  0.181400  0.929292  1
  Al  Al10  1  0.412162  0.411037  0.410957  1
  Al  Al11  1  0.089944  0.497592  0.998739  1
  Al  Al12  1  0.998526  0.089404  0.500027  1
  Al  Al13  1  0.499820  0.002326  0.090497  1
  Ru  Ru14  1  0.875373  0.124521  0.748168  1
  Ru  Ru15  1  0.747029  0.875095  0.124323  1
  Ru  Ru16  1  0.126728  0.748948  0.876565  1
  Ru  Ru17  1  0.251204  0.623838  0.374807  1
  Ru  Ru18  1  0.372892  0.250352  0.623859  1
  Ru  Ru19  1  0.624254  0.376210  0.251039  1
