# generated using pymatgen
data_La2Gd3Ir2
_symmetry_space_group_name_H-M   'P 1'
_cell_length_a   6.56544529
_cell_length_b   7.26593298
_cell_length_c   8.78328100
_cell_angle_alpha   97.18610773
_cell_angle_beta   111.94686759
_cell_angle_gamma   89.99999702
_symmetry_Int_Tables_number   1
_chemical_formula_structural   La2Gd3Ir2
_chemical_formula_sum   'La4 Gd6 Ir4'
_cell_volume   385.08329193
_cell_formula_units_Z   2
loop_
 _symmetry_equiv_pos_site_id
 _symmetry_equiv_pos_as_xyz
  1  'x, y, z'
loop_
 _atom_site_type_symbol
 _atom_site_label
 _atom_site_symmetry_multiplicity
 _atom_site_fract_x
 _atom_site_fract_y
 _atom_site_fract_z
 _atom_site_occupancy
  La  La0  1  0.977064  0.920069  0.190077  1
  La  La1  1  0.786988  0.579931  0.809923  1
  La  La2  1  0.022936  0.079931  0.809923  1
  La  La3  1  0.213012  0.420069  0.190077  1
  Gd  Gd4  1  0.642377  0.815444  0.436135  1
  Gd  Gd5  1  0.206243  0.684556  0.563865  1
  Gd  Gd6  1  0.357623  0.184556  0.563865  1
  Gd  Gd7  1  0.793757  0.315444  0.436135  1
  Gd  Gd8  1  0.425954  0.750000  0.000000  1
  Gd  Gd9  1  0.574046  0.250000  0.000000  1
  Ir  Ir10  1  0.815400  0.576617  0.225552  1
  Ir  Ir11  1  0.589848  0.923383  0.774448  1
  Ir  Ir12  1  0.184600  0.423383  0.774448  1
  Ir  Ir13  1  0.410152  0.076617  0.225552  1
