# generated using pymatgen
data_Yb2DyPaPt4
_symmetry_space_group_name_H-M   'P 1'
_cell_length_a   4.40039200
_cell_length_b   5.66819272
_cell_length_c   7.20172825
_cell_angle_alpha   88.45861016
_cell_angle_beta   90.00000000
_cell_angle_gamma   90.00000000
_symmetry_Int_Tables_number   1
_chemical_formula_structural   Yb2DyPaPt4
_chemical_formula_sum   'Yb2 Dy1 Pa1 Pt4'
_cell_volume   179.56245218
_cell_formula_units_Z   1
loop_
 _symmetry_equiv_pos_site_id
 _symmetry_equiv_pos_as_xyz
  1  'x, y, z'
loop_
 _atom_site_type_symbol
 _atom_site_label
 _atom_site_symmetry_multiplicity
 _atom_site_fract_x
 _atom_site_fract_y
 _atom_site_fract_z
 _atom_site_occupancy
  Yb  Yb0  1  0.750000  0.856105  0.815705  1
  Yb  Yb1  1  0.250000  0.356822  0.683837  1
  Dy  Dy2  1  0.750000  0.641744  0.322240  1
  Pa  Pa3  1  0.250000  0.141626  0.182395  1
  Pt  Pt4  1  0.750000  0.155923  0.435463  1
  Pt  Pt5  1  0.250000  0.849923  0.529653  1
  Pt  Pt6  1  0.250000  0.664383  0.057630  1
  Pt  Pt7  1  0.750000  0.333473  0.973078  1
