# generated using pymatgen
data_Hf5Co16Si7Pd
_symmetry_space_group_name_H-M   'P 1'
_cell_length_a   7.99429032
_cell_length_b   8.00490200
_cell_length_c   8.00490331
_cell_angle_alpha   59.91230516
_cell_angle_beta   60.04385506
_cell_angle_gamma   60.04385168
_symmetry_Int_Tables_number   1
_chemical_formula_structural   Hf5Co16Si7Pd
_chemical_formula_sum   'Hf5 Co16 Si7 Pd1'
_cell_volume   362.22259888
_cell_formula_units_Z   1
loop_
 _symmetry_equiv_pos_site_id
 _symmetry_equiv_pos_as_xyz
  1  'x, y, z'
loop_
 _atom_site_type_symbol
 _atom_site_label
 _atom_site_symmetry_multiplicity
 _atom_site_fract_x
 _atom_site_fract_y
 _atom_site_fract_z
 _atom_site_occupancy
  Hf  Hf0  1  0.795100  0.789671  0.204900  1
  Hf  Hf1  1  0.788060  0.211940  0.211940  1
  Hf  Hf2  1  0.210329  0.204900  0.789671  1
  Hf  Hf3  1  0.795100  0.204900  0.789671  1
  Hf  Hf4  1  0.210329  0.789671  0.204900  1
  Co  Co5  1  0.620996  0.617734  0.140273  1
  Co  Co6  1  0.170735  0.483382  0.175149  1
  Co  Co7  1  0.859727  0.379004  0.379004  1
  Co  Co8  1  0.516618  0.829265  0.829265  1
  Co  Co9  1  0.497490  0.167858  0.167858  1
  Co  Co10  1  0.832142  0.833206  0.502510  1
  Co  Co11  1  0.170735  0.175149  0.483382  1
  Co  Co12  1  0.144869  0.619749  0.619749  1
  Co  Co13  1  0.166794  0.167858  0.167858  1
  Co  Co14  1  0.380251  0.384366  0.855131  1
  Co  Co15  1  0.615634  0.619749  0.619749  1
  Co  Co16  1  0.380251  0.855131  0.384366  1
  Co  Co17  1  0.382266  0.379004  0.379004  1
  Co  Co18  1  0.824851  0.829265  0.829265  1
  Co  Co19  1  0.620996  0.140273  0.617734  1
  Co  Co20  1  0.832142  0.502510  0.833206  1
  Si  Si21  1  0.495899  0.992417  0.504101  1
  Si  Si22  1  0.495899  0.504101  0.992417  1
  Si  Si23  1  0.503399  0.496601  0.496601  1
  Si  Si24  1  0.007583  0.992417  0.504101  1
  Si  Si25  1  0.007583  0.504101  0.992417  1
  Si  Si26  1  0.997764  0.502236  0.502236  1
  Si  Si27  1  0.497764  0.002236  0.002236  1
  Pd  Pd28  1  0.178694  0.821306  0.821306  1
