# generated using pymatgen
data_TmLuZn2IrRh
_symmetry_space_group_name_H-M   'P 1'
_cell_length_a   4.01759100
_cell_length_b   6.90618965
_cell_length_c   8.03577014
_cell_angle_alpha   89.87746937
_cell_angle_beta   90.00000000
_cell_angle_gamma   90.00000000
_symmetry_Int_Tables_number   1
_chemical_formula_structural   TmLuZn2IrRh
_chemical_formula_sum   'Tm2 Lu2 Zn4 Ir2 Rh2'
_cell_volume   222.96194016
_cell_formula_units_Z   2
loop_
 _symmetry_equiv_pos_site_id
 _symmetry_equiv_pos_as_xyz
  1  'x, y, z'
loop_
 _atom_site_type_symbol
 _atom_site_label
 _atom_site_symmetry_multiplicity
 _atom_site_fract_x
 _atom_site_fract_y
 _atom_site_fract_z
 _atom_site_occupancy
  Tm  Tm0  1  0.750000  0.962395  0.684166  1
  Tm  Tm1  1  0.250000  0.037605  0.315834  1
  Lu  Lu2  1  0.250000  0.534862  0.180813  1
  Lu  Lu3  1  0.750000  0.465138  0.819187  1
  Zn  Zn4  1  0.250000  0.636899  0.565199  1
  Zn  Zn5  1  0.750000  0.363101  0.434801  1
  Zn  Zn6  1  0.750000  0.861022  0.066162  1
  Zn  Zn7  1  0.250000  0.138978  0.933838  1
  Ir  Ir8  1  0.250000  0.754562  0.876598  1
  Ir  Ir9  1  0.750000  0.245438  0.123402  1
  Rh  Rh10  1  0.750000  0.743855  0.378088  1
  Rh  Rh11  1  0.250000  0.256145  0.621912  1
