# generated using pymatgen
data_HoH6Rh
_symmetry_space_group_name_H-M   'P 1'
_cell_length_a   4.12060747
_cell_length_b   4.12060880
_cell_length_c   4.12060867
_cell_angle_alpha   99.11088974
_cell_angle_beta   99.11089367
_cell_angle_gamma   99.11091046
_symmetry_Int_Tables_number   1
_chemical_formula_structural   HoH6Rh
_chemical_formula_sum   'Ho1 H6 Rh1'
_cell_volume   66.99317970
_cell_formula_units_Z   1
loop_
 _symmetry_equiv_pos_site_id
 _symmetry_equiv_pos_as_xyz
  1  'x, y, z'
loop_
 _atom_site_type_symbol
 _atom_site_label
 _atom_site_symmetry_multiplicity
 _atom_site_fract_x
 _atom_site_fract_y
 _atom_site_fract_z
 _atom_site_occupancy
  Ho  Ho0  1  0.500000  0.500000  0.500000  1
  H  H1  1  0.294612  0.930309  0.294612  1
  H  H2  1  0.294612  0.294612  0.930309  1
  H  H3  1  0.930309  0.294612  0.294612  1
  H  H4  1  0.705388  0.069691  0.705388  1
  H  H5  1  0.705388  0.705388  0.069691  1
  H  H6  1  0.069691  0.705388  0.705388  1
  Rh  Rh7  1  0.000000  0.000000  0.000000  1
