# generated using pymatgen
data_Hf6CuBiPb
_symmetry_space_group_name_H-M   'P 1'
_cell_length_a   7.78606400
_cell_length_b   7.78606331
_cell_length_c   3.74572600
_cell_angle_alpha   90.00000000
_cell_angle_beta   90.00000000
_cell_angle_gamma   119.99999443
_symmetry_Int_Tables_number   1
_chemical_formula_structural   Hf6CuBiPb
_chemical_formula_sum   'Hf6 Cu1 Bi1 Pb1'
_cell_volume   196.65389903
_cell_formula_units_Z   1
loop_
 _symmetry_equiv_pos_site_id
 _symmetry_equiv_pos_as_xyz
  1  'x, y, z'
loop_
 _atom_site_type_symbol
 _atom_site_label
 _atom_site_symmetry_multiplicity
 _atom_site_fract_x
 _atom_site_fract_y
 _atom_site_fract_z
 _atom_site_occupancy
  Hf  Hf0  1  0.611601  0.999452  0.500000  1
  Hf  Hf1  1  0.387851  0.388399  0.500000  1
  Hf  Hf2  1  0.000548  0.612149  0.500000  1
  Hf  Hf3  1  0.236879  0.997400  0.000000  1
  Hf  Hf4  1  0.760521  0.763121  0.000000  1
  Hf  Hf5  1  0.002600  0.239479  0.000000  1
  Cu  Cu6  1  0.000000  0.000000  0.500000  1
  Bi  Bi7  1  0.666667  0.333333  0.000000  1
  Pb  Pb8  1  0.333333  0.666667  0.000000  1
