# generated using pymatgen
data_Nd2Sm4OsBr10
_symmetry_space_group_name_H-M   'P 1'
_cell_length_a   7.62272661
_cell_length_b   9.37646112
_cell_length_c   9.60257507
_cell_angle_alpha   108.41549199
_cell_angle_beta   96.66391971
_cell_angle_gamma   104.84378654
_symmetry_Int_Tables_number   1
_chemical_formula_structural   Nd2Sm4OsBr10
_chemical_formula_sum   'Nd2 Sm4 Os1 Br10'
_cell_volume   614.76873067
_cell_formula_units_Z   1
loop_
 _symmetry_equiv_pos_site_id
 _symmetry_equiv_pos_as_xyz
  1  'x, y, z'
loop_
 _atom_site_type_symbol
 _atom_site_label
 _atom_site_symmetry_multiplicity
 _atom_site_fract_x
 _atom_site_fract_y
 _atom_site_fract_z
 _atom_site_occupancy
  Nd  Nd0  1  0.533377  0.212729  0.410926  1
  Nd  Nd1  1  0.466623  0.787271  0.589074  1
  Sm  Sm2  1  0.133969  0.361370  0.315056  1
  Sm  Sm3  1  0.866031  0.638630  0.684944  1
  Sm  Sm4  1  0.629771  0.550708  0.250353  1
  Sm  Sm5  1  0.370229  0.449292  0.749647  1
  Os  Os6  1  0.500000  0.500000  0.500000  1
  Br  Br7  1  0.150184  0.049550  0.227836  1
  Br  Br8  1  0.849816  0.950450  0.772164  1
  Br  Br9  1  0.254781  0.418505  0.047980  1
  Br  Br10  1  0.745219  0.581495  0.952020  1
  Br  Br11  1  0.715564  0.250914  0.153209  1
  Br  Br12  1  0.284436  0.749086  0.846791  1
  Br  Br13  1  0.046649  0.674819  0.418744  1
  Br  Br14  1  0.953351  0.325181  0.581256  1
  Br  Br15  1  0.410764  0.133370  0.672748  1
  Br  Br16  1  0.589236  0.866630  0.327252  1
