# generated using pymatgen
data_LaY2(ZnPt)4
_symmetry_space_group_name_H-M   'P 1'
_cell_length_a   8.31836009
_cell_length_b   8.31835985
_cell_length_c   8.31835947
_cell_angle_alpha   151.70046915
_cell_angle_beta   126.22448346
_cell_angle_gamma   61.87273020
_symmetry_Int_Tables_number   1
_chemical_formula_structural   LaY2(ZnPt)4
_chemical_formula_sum   'La1 Y2 Zn4 Pt4'
_cell_volume   218.32534935
_cell_formula_units_Z   1
loop_
 _symmetry_equiv_pos_site_id
 _symmetry_equiv_pos_as_xyz
  1  'x, y, z'
loop_
 _atom_site_type_symbol
 _atom_site_label
 _atom_site_symmetry_multiplicity
 _atom_site_fract_x
 _atom_site_fract_y
 _atom_site_fract_z
 _atom_site_occupancy
  La  La0  1  0.500000  0.000000  0.500000  1
  Y  Y1  1  0.873505  0.873505  0.000000  1
  Y  Y2  1  0.126495  0.126495  0.000000  1
  Zn  Zn3  1  0.477059  0.674375  0.802684  1
  Zn  Zn4  1  0.871692  0.674375  0.197316  1
  Zn  Zn5  1  0.128308  0.325625  0.802684  1
  Zn  Zn6  1  0.522941  0.325625  0.197316  1
  Pt  Pt7  1  0.277490  0.777490  0.500000  1
  Pt  Pt8  1  0.722510  0.222510  0.500000  1
  Pt  Pt9  1  0.809658  0.500000  0.309658  1
  Pt  Pt10  1  0.190342  0.500000  0.690342  1
