# generated using pymatgen
data_AcSi2Au5
_symmetry_space_group_name_H-M   'P 1'
_cell_length_a   7.07875200
_cell_length_b   8.89653600
_cell_length_c   10.34098300
_cell_angle_alpha   90.00000000
_cell_angle_beta   90.00000000
_cell_angle_gamma   90.00000000
_symmetry_Int_Tables_number   1
_chemical_formula_structural   AcSi2Au5
_chemical_formula_sum   'Ac4 Si8 Au20'
_cell_volume   651.23759229
_cell_formula_units_Z   4
loop_
 _symmetry_equiv_pos_site_id
 _symmetry_equiv_pos_as_xyz
  1  'x, y, z'
loop_
 _atom_site_type_symbol
 _atom_site_label
 _atom_site_symmetry_multiplicity
 _atom_site_fract_x
 _atom_site_fract_y
 _atom_site_fract_z
 _atom_site_occupancy
  Ac  Ac0  1  0.250000  0.246823  0.118568  1
  Ac  Ac1  1  0.250000  0.746823  0.381432  1
  Ac  Ac2  1  0.750000  0.753177  0.881432  1
  Ac  Ac3  1  0.750000  0.253177  0.618568  1
  Si  Si4  1  0.250000  0.041730  0.628792  1
  Si  Si5  1  0.250000  0.541730  0.871208  1
  Si  Si6  1  0.750000  0.958270  0.371208  1
  Si  Si7  1  0.750000  0.458270  0.128792  1
  Si  Si8  1  0.250000  0.331027  0.463899  1
  Si  Si9  1  0.250000  0.831027  0.036101  1
  Si  Si10  1  0.750000  0.668973  0.536101  1
  Si  Si11  1  0.750000  0.168973  0.963899  1
  Au  Au12  1  0.051515  0.095068  0.387719  1
  Au  Au13  1  0.448485  0.595068  0.112281  1
  Au  Au14  1  0.551515  0.904932  0.612281  1
  Au  Au15  1  0.948485  0.404932  0.887719  1
  Au  Au16  1  0.948485  0.904932  0.612281  1
  Au  Au17  1  0.551515  0.404932  0.887719  1
  Au  Au18  1  0.448485  0.095068  0.387719  1
  Au  Au19  1  0.051515  0.595068  0.112281  1
  Au  Au20  1  0.032367  0.071595  0.860165  1
  Au  Au21  1  0.467633  0.571595  0.639835  1
  Au  Au22  1  0.532367  0.928405  0.139835  1
  Au  Au23  1  0.967633  0.428405  0.360165  1
  Au  Au24  1  0.967633  0.928405  0.139835  1
  Au  Au25  1  0.532367  0.428405  0.360165  1
  Au  Au26  1  0.467633  0.071595  0.860165  1
  Au  Au27  1  0.032367  0.571595  0.639835  1
  Au  Au28  1  0.250000  0.304277  0.698144  1
  Au  Au29  1  0.250000  0.804277  0.801856  1
  Au  Au30  1  0.750000  0.695723  0.301856  1
  Au  Au31  1  0.750000  0.195723  0.198144  1
