# generated using pymatgen
data_La7NdZn8(PdRh)4
_symmetry_space_group_name_H-M   'P 1'
_cell_length_a   4.08963600
_cell_length_b   7.52040144
_cell_length_c   16.84437201
_cell_angle_alpha   89.83635504
_cell_angle_beta   90.00000000
_cell_angle_gamma   90.00000000
_symmetry_Int_Tables_number   1
_chemical_formula_structural   La7NdZn8(PdRh)4
_chemical_formula_sum   'La7 Nd1 Zn8 Pd4 Rh4'
_cell_volume   518.05841466
_cell_formula_units_Z   1
loop_
 _symmetry_equiv_pos_site_id
 _symmetry_equiv_pos_as_xyz
  1  'x, y, z'
loop_
 _atom_site_type_symbol
 _atom_site_label
 _atom_site_symmetry_multiplicity
 _atom_site_fract_x
 _atom_site_fract_y
 _atom_site_fract_z
 _atom_site_occupancy
  La  La0  1  0.250000  0.040924  0.715932  1
  La  La1  1  0.250000  0.555193  0.779912  1
  La  La2  1  0.250000  0.676969  0.556948  1
  La  La3  1  0.750000  0.827232  0.064279  1
  La  La4  1  0.250000  0.174690  0.946711  1
  La  La5  1  0.750000  0.453446  0.213090  1
  La  La6  1  0.750000  0.942098  0.284660  1
  Nd  Nd7  1  0.750000  0.331492  0.439984  1
  Zn  Zn8  1  0.250000  0.122914  0.149933  1
  Zn  Zn9  1  0.250000  0.000282  0.438535  1
  Zn  Zn10  1  0.750000  0.874668  0.849074  1
  Zn  Zn11  1  0.750000  0.000889  0.558260  1
  Zn  Zn12  1  0.250000  0.498482  0.061512  1
  Zn  Zn13  1  0.750000  0.378801  0.649529  1
  Zn  Zn14  1  0.750000  0.500922  0.940717  1
  Zn  Zn15  1  0.250000  0.622863  0.351305  1
  Pd  Pd16  1  0.750000  0.252195  0.814219  1
  Pd  Pd17  1  0.250000  0.247325  0.314849  1
  Pd  Pd18  1  0.250000  0.740485  0.933936  1
  Pd  Pd19  1  0.250000  0.240498  0.566330  1
  Rh  Rh20  1  0.250000  0.749319  0.184195  1
  Rh  Rh21  1  0.750000  0.757818  0.434457  1
  Rh  Rh22  1  0.750000  0.260534  0.065841  1
  Rh  Rh23  1  0.750000  0.749960  0.685795  1
