# generated using pymatgen
data_Pr2B(Rh3Pb)2
_symmetry_space_group_name_H-M   'P 1'
_cell_length_a   5.95717700
_cell_length_b   5.95717622
_cell_length_c   13.87470900
_cell_angle_alpha   90.00000000
_cell_angle_beta   90.00000000
_cell_angle_gamma   119.99999880
_symmetry_Int_Tables_number   1
_chemical_formula_structural   Pr2B(Rh3Pb)2
_chemical_formula_sum   'Pr4 B2 Rh12 Pb4'
_cell_volume   426.41794333
_cell_formula_units_Z   2
loop_
 _symmetry_equiv_pos_site_id
 _symmetry_equiv_pos_as_xyz
  1  'x, y, z'
loop_
 _atom_site_type_symbol
 _atom_site_label
 _atom_site_symmetry_multiplicity
 _atom_site_fract_x
 _atom_site_fract_y
 _atom_site_fract_z
 _atom_site_occupancy
  Pr  Pr0  1  0.333333  0.666667  0.408294  1
  Pr  Pr1  1  0.666667  0.333333  0.908294  1
  Pr  Pr2  1  0.666667  0.333333  0.591706  1
  Pr  Pr3  1  0.333333  0.666667  0.091706  1
  B  B4  1  0.000000  0.000000  0.500000  1
  B  B5  1  0.000000  0.000000  0.000000  1
  Rh  Rh6  1  0.337400  0.168701  0.412002  1
  Rh  Rh7  1  0.831299  0.168701  0.412002  1
  Rh  Rh8  1  0.831299  0.662600  0.412002  1
  Rh  Rh9  1  0.168701  0.337400  0.912002  1
  Rh  Rh10  1  0.662600  0.831299  0.587998  1
  Rh  Rh11  1  0.662600  0.831299  0.912002  1
  Rh  Rh12  1  0.337400  0.168701  0.087998  1
  Rh  Rh13  1  0.168701  0.337400  0.587998  1
  Rh  Rh14  1  0.168701  0.831299  0.587998  1
  Rh  Rh15  1  0.831299  0.168701  0.087998  1
  Rh  Rh16  1  0.831299  0.662600  0.087998  1
  Rh  Rh17  1  0.168701  0.831299  0.912002  1
  Pb  Pb18  1  0.000000  0.000000  0.750000  1
  Pb  Pb19  1  0.000000  0.000000  0.250000  1
  Pb  Pb20  1  0.333333  0.666667  0.750000  1
  Pb  Pb21  1  0.666667  0.333333  0.250000  1
