# generated using pymatgen
data_Yb3Cd5Pt
_symmetry_space_group_name_H-M   'P 1'
_cell_length_a   8.21046700
_cell_length_b   8.21046862
_cell_length_c   3.83436600
_cell_angle_alpha   90.00000000
_cell_angle_beta   90.00000000
_cell_angle_gamma   120.00000557
_symmetry_Int_Tables_number   1
_chemical_formula_structural   Yb3Cd5Pt
_chemical_formula_sum   'Yb3 Cd5 Pt1'
_cell_volume   223.85148391
_cell_formula_units_Z   1
loop_
 _symmetry_equiv_pos_site_id
 _symmetry_equiv_pos_as_xyz
  1  'x, y, z'
loop_
 _atom_site_type_symbol
 _atom_site_label
 _atom_site_symmetry_multiplicity
 _atom_site_fract_x
 _atom_site_fract_y
 _atom_site_fract_z
 _atom_site_occupancy
  Yb  Yb0  1  0.578348  0.957366  0.000000  1
  Yb  Yb1  1  0.042634  0.620983  0.000000  1
  Yb  Yb2  1  0.379017  0.421652  0.000000  1
  Cd  Cd3  1  0.284128  0.003147  0.500000  1
  Cd  Cd4  1  0.996853  0.280980  0.500000  1
  Cd  Cd5  1  0.719020  0.715872  0.500000  1
  Cd  Cd6  1  0.666667  0.333333  0.500000  1
  Cd  Cd7  1  0.000000  0.000000  0.000000  1
  Pt  Pt8  1  0.333333  0.666667  0.500000  1
