# generated using pymatgen
data_Y3ErMnAl18Pd5
_symmetry_space_group_name_H-M   'P 1'
_cell_length_a   7.60342361
_cell_length_b   7.60049768
_cell_length_c   9.48042926
_cell_angle_alpha   89.94894043
_cell_angle_beta   89.98366070
_cell_angle_gamma   119.54180370
_symmetry_Int_Tables_number   1
_chemical_formula_structural   Y3ErMnAl18Pd5
_chemical_formula_sum   'Y3 Er1 Mn1 Al18 Pd5'
_cell_volume   476.64632046
_cell_formula_units_Z   1
loop_
 _symmetry_equiv_pos_site_id
 _symmetry_equiv_pos_as_xyz
  1  'x, y, z'
loop_
 _atom_site_type_symbol
 _atom_site_label
 _atom_site_symmetry_multiplicity
 _atom_site_fract_x
 _atom_site_fract_y
 _atom_site_fract_z
 _atom_site_occupancy
  Y  Y0  1  0.005778  0.330508  0.751399  1
  Y  Y1  1  0.669759  0.994643  0.248525  1
  Y  Y2  1  0.330254  0.005252  0.751570  1
  Er  Er3  1  0.994657  0.670170  0.248242  1
  Mn  Mn4  1  0.999854  0.999737  0.000565  1
  Al  Al5  1  0.123653  0.123351  0.241895  1
  Al  Al6  1  0.876297  0.875875  0.758375  1
  Al  Al7  1  0.998584  0.324632  0.072960  1
  Al  Al8  1  0.001243  0.675903  0.928706  1
  Al  Al9  1  0.998013  0.664794  0.577231  1
  Al  Al10  1  0.334827  0.001355  0.420924  1
  Al  Al11  1  0.001715  0.336039  0.420862  1
  Al  Al12  1  0.664704  0.997905  0.578182  1
  Al  Al13  1  0.676230  0.001277  0.927861  1
  Al  Al14  1  0.323592  0.997988  0.073109  1
  Al  Al15  1  0.334187  0.334154  0.556416  1
  Al  Al16  1  0.666347  0.665951  0.441734  1
  Al  Al17  1  0.677083  0.676679  0.051281  1
  Al  Al18  1  0.323246  0.323146  0.950619  1
  Al  Al19  1  0.339787  0.546141  0.248440  1
  Al  Al20  1  0.659903  0.454212  0.751505  1
  Al  Al21  1  0.546644  0.341257  0.248414  1
  Al  Al22  1  0.454324  0.659328  0.751561  1
  Pd  Pd23  1  0.671991  0.327966  0.000288  1
  Pd  Pd24  1  0.327891  0.672029  0.000123  1
  Pd  Pd25  1  0.327457  0.672323  0.499757  1
  Pd  Pd26  1  0.672220  0.327514  0.499787  1
  Pd  Pd27  1  0.999759  0.999871  0.499669  1
