# generated using pymatgen
data_Tm3Si3Pt
_symmetry_space_group_name_H-M   'P 1'
_cell_length_a   4.21450600
_cell_length_b   10.58450500
_cell_length_c   12.17416300
_cell_angle_alpha   90.00000000
_cell_angle_beta   90.00000000
_cell_angle_gamma   90.00000000
_symmetry_Int_Tables_number   1
_chemical_formula_structural   Tm3Si3Pt
_chemical_formula_sum   'Tm12 Si12 Pt4'
_cell_volume   543.07066114
_cell_formula_units_Z   4
loop_
 _symmetry_equiv_pos_site_id
 _symmetry_equiv_pos_as_xyz
  1  'x, y, z'
loop_
 _atom_site_type_symbol
 _atom_site_label
 _atom_site_symmetry_multiplicity
 _atom_site_fract_x
 _atom_site_fract_y
 _atom_site_fract_z
 _atom_site_occupancy
  Tm  Tm0  1  0.250000  0.877658  0.020558  1
  Tm  Tm1  1  0.250000  0.622342  0.520558  1
  Tm  Tm2  1  0.750000  0.122342  0.979442  1
  Tm  Tm3  1  0.750000  0.377658  0.479442  1
  Tm  Tm4  1  0.250000  0.919620  0.601402  1
  Tm  Tm5  1  0.250000  0.580380  0.101402  1
  Tm  Tm6  1  0.750000  0.080380  0.398598  1
  Tm  Tm7  1  0.750000  0.419620  0.898598  1
  Tm  Tm8  1  0.250000  0.659889  0.800788  1
  Tm  Tm9  1  0.250000  0.840111  0.300788  1
  Tm  Tm10  1  0.750000  0.340111  0.199212  1
  Tm  Tm11  1  0.750000  0.159889  0.699212  1
  Si  Si12  1  0.250000  0.016181  0.823727  1
  Si  Si13  1  0.250000  0.483819  0.323727  1
  Si  Si14  1  0.750000  0.983819  0.176273  1
  Si  Si15  1  0.750000  0.516181  0.676273  1
  Si  Si16  1  0.250000  0.246078  0.843514  1
  Si  Si17  1  0.250000  0.253922  0.343514  1
  Si  Si18  1  0.750000  0.753922  0.156486  1
  Si  Si19  1  0.750000  0.746078  0.656486  1
  Si  Si20  1  0.250000  0.192123  0.541625  1
  Si  Si21  1  0.250000  0.307877  0.041625  1
  Si  Si22  1  0.750000  0.807877  0.458375  1
  Si  Si23  1  0.750000  0.692123  0.958375  1
  Pt  Pt24  1  0.250000  0.388708  0.679909  1
  Pt  Pt25  1  0.250000  0.111292  0.179909  1
  Pt  Pt26  1  0.750000  0.611292  0.320091  1
  Pt  Pt27  1  0.750000  0.888708  0.820091  1
