# generated using pymatgen
data_NdYCo9Tc3P7
_symmetry_space_group_name_H-M   'P 1'
_cell_length_a   3.72630200
_cell_length_b   9.08768072
_cell_length_c   9.08768200
_cell_angle_alpha   120.00000465
_cell_angle_beta   90.00000000
_cell_angle_gamma   90.00000000
_symmetry_Int_Tables_number   1
_chemical_formula_structural   NdYCo9Tc3P7
_chemical_formula_sum   'Nd1 Y1 Co9 Tc3 P7'
_cell_volume   266.51081858
_cell_formula_units_Z   1
loop_
 _symmetry_equiv_pos_site_id
 _symmetry_equiv_pos_as_xyz
  1  'x, y, z'
loop_
 _atom_site_type_symbol
 _atom_site_label
 _atom_site_symmetry_multiplicity
 _atom_site_fract_x
 _atom_site_fract_y
 _atom_site_fract_z
 _atom_site_occupancy
  Nd  Nd0  1  0.500000  0.333333  0.666667  1
  Y  Y1  1  0.000000  0.666667  0.333333  1
  Co  Co2  1  0.000000  0.568153  0.942259  1
  Co  Co3  1  0.000000  0.374106  0.431847  1
  Co  Co4  1  0.000000  0.057741  0.625894  1
  Co  Co5  1  0.000000  0.876787  0.156291  1
  Co  Co6  1  0.000000  0.279503  0.123213  1
  Co  Co7  1  0.000000  0.843709  0.720497  1
  Co  Co8  1  0.500000  0.943786  0.380878  1
  Co  Co9  1  0.500000  0.437091  0.056214  1
  Co  Co10  1  0.500000  0.619122  0.562909  1
  Tc  Tc11  1  0.500000  0.781354  0.902176  1
  Tc  Tc12  1  0.500000  0.120822  0.218646  1
  Tc  Tc13  1  0.500000  0.097824  0.879178  1
  P  P14  1  0.000000  0.000000  0.000000  1
  P  P15  1  0.500000  0.706448  0.114535  1
  P  P16  1  0.500000  0.408088  0.293552  1
  P  P17  1  0.500000  0.885465  0.591912  1
  P  P18  1  0.000000  0.593313  0.701033  1
  P  P19  1  0.000000  0.107721  0.406687  1
  P  P20  1  0.000000  0.298967  0.892279  1
