# generated using pymatgen
data_TmNb8CdSe16
_symmetry_space_group_name_H-M   'P 1'
_cell_length_a   7.01622200
_cell_length_b   7.01622244
_cell_length_c   14.23585500
_cell_angle_alpha   90.00000000
_cell_angle_beta   90.00000000
_cell_angle_gamma   119.99999792
_symmetry_Int_Tables_number   1
_chemical_formula_structural   TmNb8CdSe16
_chemical_formula_sum   'Tm1 Nb8 Cd1 Se16'
_cell_volume   606.90521328
_cell_formula_units_Z   1
loop_
 _symmetry_equiv_pos_site_id
 _symmetry_equiv_pos_as_xyz
  1  'x, y, z'
loop_
 _atom_site_type_symbol
 _atom_site_label
 _atom_site_symmetry_multiplicity
 _atom_site_fract_x
 _atom_site_fract_y
 _atom_site_fract_z
 _atom_site_occupancy
  Tm  Tm0  1  0.000000  0.000000  0.500000  1
  Nb  Nb1  1  0.000000  0.000000  0.251302  1
  Nb  Nb2  1  0.000000  0.000000  0.748698  1
  Nb  Nb3  1  0.507282  0.014565  0.248939  1
  Nb  Nb4  1  0.985435  0.492718  0.248939  1
  Nb  Nb5  1  0.507282  0.492718  0.248939  1
  Nb  Nb6  1  0.492718  0.985435  0.751061  1
  Nb  Nb7  1  0.014565  0.507282  0.751061  1
  Nb  Nb8  1  0.492718  0.507282  0.751061  1
  Cd  Cd9  1  0.000000  0.000000  0.000000  1
  Se  Se10  1  0.333333  0.666667  0.872187  1
  Se  Se11  1  0.666667  0.333333  0.127813  1
  Se  Se12  1  0.666667  0.333333  0.370909  1
  Se  Se13  1  0.333333  0.666667  0.629091  1
  Se  Se14  1  0.169734  0.830266  0.366534  1
  Se  Se15  1  0.169734  0.339468  0.366534  1
  Se  Se16  1  0.660532  0.830266  0.366534  1
  Se  Se17  1  0.830266  0.169734  0.633466  1
  Se  Se18  1  0.830266  0.660532  0.633466  1
  Se  Se19  1  0.339468  0.169734  0.633466  1
  Se  Se20  1  0.831333  0.168667  0.865976  1
  Se  Se21  1  0.831333  0.662668  0.865976  1
  Se  Se22  1  0.337332  0.168667  0.865976  1
  Se  Se23  1  0.168667  0.831333  0.134024  1
  Se  Se24  1  0.168667  0.337332  0.134024  1
  Se  Se25  1  0.662668  0.831333  0.134024  1
