# generated using pymatgen
data_Nd2Dy14Cd4IrPt3
_symmetry_space_group_name_H-M   'P 1'
_cell_length_a   9.72530319
_cell_length_b   9.69608610
_cell_length_c   9.67946400
_cell_angle_alpha   60.05669273
_cell_angle_beta   60.15579572
_cell_angle_gamma   59.95405739
_symmetry_Int_Tables_number   1
_chemical_formula_structural   Nd2Dy14Cd4IrPt3
_chemical_formula_sum   'Nd2 Dy14 Cd4 Ir1 Pt3'
_cell_volume   646.21842156
_cell_formula_units_Z   1
loop_
 _symmetry_equiv_pos_site_id
 _symmetry_equiv_pos_as_xyz
  1  'x, y, z'
loop_
 _atom_site_type_symbol
 _atom_site_label
 _atom_site_symmetry_multiplicity
 _atom_site_fract_x
 _atom_site_fract_y
 _atom_site_fract_z
 _atom_site_occupancy
  Nd  Nd0  1  0.569378  0.566382  0.932120  1
  Nd  Nd1  1  0.934728  0.934453  0.565410  1
  Dy  Dy2  1  0.353330  0.349420  0.346372  1
  Dy  Dy3  1  0.353330  0.349420  0.950878  1
  Dy  Dy4  1  0.354499  0.945216  0.350142  1
  Dy  Dy5  1  0.938609  0.354384  0.353503  1
  Dy  Dy6  1  0.808624  0.188758  0.188611  1
  Dy  Dy7  1  0.190434  0.810952  0.809571  1
  Dy  Dy8  1  0.190434  0.810952  0.189044  1
  Dy  Dy9  1  0.808624  0.188758  0.814006  1
  Dy  Dy10  1  0.191792  0.189237  0.809486  1
  Dy  Dy11  1  0.808608  0.814483  0.188454  1
  Dy  Dy12  1  0.940502  0.560042  0.561310  1
  Dy  Dy13  1  0.562287  0.940083  0.938990  1
  Dy  Dy14  1  0.562287  0.940083  0.558640  1
  Dy  Dy15  1  0.940502  0.560042  0.938147  1
  Cd  Cd16  1  0.581314  0.581942  0.579307  1
  Cd  Cd17  1  0.581314  0.581942  0.257435  1
  Cd  Cd18  1  0.577453  0.255527  0.583509  1
  Cd  Cd19  1  0.256953  0.577536  0.582755  1
  Ir  Ir20  1  0.572950  0.138275  0.144387  1
  Pt  Pt21  1  0.142107  0.145253  0.142985  1
  Pt  Pt22  1  0.142107  0.145253  0.569654  1
  Pt  Pt23  1  0.137835  0.571606  0.145279  1
