# generated using pymatgen
data_Er4Al16Si2(OsPd)3
_symmetry_space_group_name_H-M   'P 1'
_cell_length_a   7.56650768
_cell_length_b   7.56651697
_cell_length_c   9.36209200
_cell_angle_alpha   90.07812775
_cell_angle_beta   90.07825819
_cell_angle_gamma   119.48371998
_symmetry_Int_Tables_number   1
_chemical_formula_structural   Er4Al16Si2(OsPd)3
_chemical_formula_sum   'Er4 Al16 Si2 Os3 Pd3'
_cell_volume   466.58349130
_cell_formula_units_Z   1
loop_
 _symmetry_equiv_pos_site_id
 _symmetry_equiv_pos_as_xyz
  1  'x, y, z'
loop_
 _atom_site_type_symbol
 _atom_site_label
 _atom_site_symmetry_multiplicity
 _atom_site_fract_x
 _atom_site_fract_y
 _atom_site_fract_z
 _atom_site_occupancy
  Er  Er0  1  0.994613  0.676831  0.248300  1
  Er  Er1  1  0.004767  0.322406  0.751266  1
  Er  Er2  1  0.677595  0.995234  0.248737  1
  Er  Er3  1  0.323164  0.005382  0.751700  1
  Al  Al4  1  0.996922  0.332091  0.077305  1
  Al  Al5  1  0.994407  0.661373  0.921974  1
  Al  Al6  1  0.998197  0.668360  0.580132  1
  Al  Al7  1  0.331640  0.001803  0.419868  1
  Al  Al8  1  0.001365  0.333210  0.421337  1
  Al  Al9  1  0.666791  0.998635  0.578663  1
  Al  Al10  1  0.667909  0.003079  0.922695  1
  Al  Al11  1  0.338628  0.005594  0.078025  1
  Al  Al12  1  0.331152  0.331908  0.559003  1
  Al  Al13  1  0.668092  0.668849  0.440996  1
  Al  Al14  1  0.670781  0.664406  0.052604  1
  Al  Al15  1  0.335595  0.329219  0.947396  1
  Al  Al16  1  0.337220  0.548151  0.249367  1
  Al  Al17  1  0.661211  0.450494  0.752891  1
  Al  Al18  1  0.549506  0.338789  0.247109  1
  Al  Al19  1  0.451850  0.662780  0.750632  1
  Si  Si20  1  0.125296  0.126366  0.249820  1
  Si  Si21  1  0.873634  0.874704  0.750180  1
  Os  Os22  1  0.672284  0.327713  0.000000  1
  Os  Os23  1  0.000878  0.999125  0.999998  1
  Os  Os24  1  0.999602  0.000400  0.500000  1
  Pd  Pd25  1  0.327958  0.672041  0.000000  1
  Pd  Pd26  1  0.327011  0.672989  0.500001  1
  Pd  Pd27  1  0.671930  0.328071  0.499999  1
