# generated using pymatgen
data_PrHo2PtO7
_symmetry_space_group_name_H-M   'P 1'
_cell_length_a   6.45871943
_cell_length_b   6.45872009
_cell_length_c   7.53848600
_cell_angle_alpha   90.00000000
_cell_angle_beta   90.00000000
_cell_angle_gamma   109.35108478
_symmetry_Int_Tables_number   1
_chemical_formula_structural   PrHo2PtO7
_chemical_formula_sum   'Pr2 Ho4 Pt2 O14'
_cell_volume   296.70279059
_cell_formula_units_Z   2
loop_
 _symmetry_equiv_pos_site_id
 _symmetry_equiv_pos_as_xyz
  1  'x, y, z'
loop_
 _atom_site_type_symbol
 _atom_site_label
 _atom_site_symmetry_multiplicity
 _atom_site_fract_x
 _atom_site_fract_y
 _atom_site_fract_z
 _atom_site_occupancy
  Pr  Pr0  1  0.000000  0.000000  0.500000  1
  Pr  Pr1  1  0.000000  0.000000  0.000000  1
  Ho  Ho2  1  0.486810  0.936308  0.750000  1
  Ho  Ho3  1  0.513190  0.063692  0.250000  1
  Ho  Ho4  1  0.936308  0.486810  0.750000  1
  Ho  Ho5  1  0.063692  0.513190  0.250000  1
  Pt  Pt6  1  0.500000  0.500000  0.500000  1
  Pt  Pt7  1  0.500000  0.500000  0.000000  1
  O  O8  1  0.603830  0.603830  0.750000  1
  O  O9  1  0.396170  0.396170  0.250000  1
  O  O10  1  0.838867  0.124152  0.750000  1
  O  O11  1  0.161133  0.875848  0.250000  1
  O  O12  1  0.124152  0.838867  0.750000  1
  O  O13  1  0.875848  0.161133  0.250000  1
  O  O14  1  0.438569  0.177065  0.966096  1
  O  O15  1  0.561431  0.822935  0.466096  1
  O  O16  1  0.177065  0.438569  0.966096  1
  O  O17  1  0.822935  0.561431  0.466096  1
  O  O18  1  0.438569  0.177065  0.533904  1
  O  O19  1  0.561431  0.822935  0.033904  1
  O  O20  1  0.822935  0.561431  0.033904  1
  O  O21  1  0.177065  0.438569  0.533904  1
