# generated using pymatgen
data_Th4Pd2PtAu
_symmetry_space_group_name_H-M   'P 1'
_cell_length_a   4.57537400
_cell_length_b   5.88530215
_cell_length_c   7.50984918
_cell_angle_alpha   90.19480663
_cell_angle_beta   90.00000000
_cell_angle_gamma   90.00000000
_symmetry_Int_Tables_number   1
_chemical_formula_structural   Th4Pd2PtAu
_chemical_formula_sum   'Th4 Pd2 Pt1 Au1'
_cell_volume   202.21998280
_cell_formula_units_Z   1
loop_
 _symmetry_equiv_pos_site_id
 _symmetry_equiv_pos_as_xyz
  1  'x, y, z'
loop_
 _atom_site_type_symbol
 _atom_site_label
 _atom_site_symmetry_multiplicity
 _atom_site_fract_x
 _atom_site_fract_y
 _atom_site_fract_z
 _atom_site_occupancy
  Th  Th0  1  0.000000  0.113536  0.688381  1
  Th  Th1  1  0.000000  0.894859  0.171420  1
  Th  Th2  1  0.500000  0.390064  0.315820  1
  Th  Th3  1  0.500000  0.609710  0.822020  1
  Pd  Pd4  1  0.000000  0.593395  0.546011  1
  Pd  Pd5  1  0.000000  0.408502  0.046169  1
  Pt  Pt6  1  0.500000  0.095309  0.953112  1
  Au  Au7  1  0.500000  0.894624  0.457067  1
