# generated using pymatgen
data_Sc8Zn4IrAu3
_symmetry_space_group_name_H-M   'P 1'
_cell_length_a   6.67893907
_cell_length_b   6.78160600
_cell_length_c   6.67981308
_cell_angle_alpha   90.00000000
_cell_angle_beta   89.98304130
_cell_angle_gamma   90.00000000
_symmetry_Int_Tables_number   1
_chemical_formula_structural   Sc8Zn4IrAu3
_chemical_formula_sum   'Sc8 Zn4 Ir1 Au3'
_cell_volume   302.55499449
_cell_formula_units_Z   1
loop_
 _symmetry_equiv_pos_site_id
 _symmetry_equiv_pos_as_xyz
  1  'x, y, z'
loop_
 _atom_site_type_symbol
 _atom_site_label
 _atom_site_symmetry_multiplicity
 _atom_site_fract_x
 _atom_site_fract_y
 _atom_site_fract_z
 _atom_site_occupancy
  Sc  Sc0  1  0.254166  0.995940  0.245806  1
  Sc  Sc1  1  0.254166  0.504060  0.245806  1
  Sc  Sc2  1  0.745884  0.505095  0.245914  1
  Sc  Sc3  1  0.745884  0.994905  0.245914  1
  Sc  Sc4  1  0.254128  0.995940  0.754162  1
  Sc  Sc5  1  0.254128  0.504060  0.754162  1
  Sc  Sc6  1  0.745864  0.505119  0.754109  1
  Sc  Sc7  1  0.745864  0.994881  0.754109  1
  Zn  Zn8  1  0.998978  0.249999  0.000004  1
  Zn  Zn9  1  0.001067  0.749999  0.999996  1
  Zn  Zn10  1  0.498952  0.749999  0.499947  1
  Zn  Zn11  1  0.501018  0.249999  0.500053  1
  Ir  Ir12  1  0.498795  0.749999  0.000089  1
  Au  Au13  1  0.998619  0.249999  0.499929  1
  Au  Au14  1  0.001219  0.749999  0.500086  1
  Au  Au15  1  0.501268  0.249999  0.999913  1
