# generated using pymatgen
data_TbErLu6In3Co
_symmetry_space_group_name_H-M   'P 1'
_cell_length_a   10.14063600
_cell_length_b   10.13445092
_cell_length_c   7.00519001
_cell_angle_alpha   90.01540322
_cell_angle_beta   90.00000000
_cell_angle_gamma   120.02018418
_symmetry_Int_Tables_number   1
_chemical_formula_structural   TbErLu6In3Co
_chemical_formula_sum   'Tb2 Er2 Lu12 In6 Co2'
_cell_volume   623.34370923
_cell_formula_units_Z   2
loop_
 _symmetry_equiv_pos_site_id
 _symmetry_equiv_pos_as_xyz
  1  'x, y, z'
loop_
 _atom_site_type_symbol
 _atom_site_label
 _atom_site_symmetry_multiplicity
 _atom_site_fract_x
 _atom_site_fract_y
 _atom_site_fract_z
 _atom_site_occupancy
  Tb  Tb0  1  0.000020  0.000040  0.773730  1
  Tb  Tb1  1  0.000077  0.000153  0.273418  1
  Er  Er2  1  0.070584  0.535348  0.286028  1
  Er  Er3  1  0.464762  0.535348  0.286028  1
  Lu  Lu4  1  0.820328  0.640659  0.491920  1
  Lu  Lu5  1  0.359707  0.179142  0.491638  1
  Lu  Lu6  1  0.819435  0.179142  0.491638  1
  Lu  Lu7  1  0.179859  0.359716  0.988659  1
  Lu  Lu8  1  0.640591  0.820864  0.989823  1
  Lu  Lu9  1  0.180274  0.820864  0.989823  1
  Lu  Lu10  1  0.666317  0.332634  0.179030  1
  Lu  Lu11  1  0.333612  0.667224  0.678960  1
  Lu  Lu12  1  0.536174  0.072347  0.787508  1
  Lu  Lu13  1  0.927032  0.463556  0.786994  1
  Lu  Lu14  1  0.536524  0.463556  0.786994  1
  Lu  Lu15  1  0.464032  0.928064  0.286899  1
  In  In16  1  0.835817  0.671634  0.039125  1
  In  In17  1  0.328284  0.164576  0.039683  1
  In  In18  1  0.836291  0.164576  0.039683  1
  In  In19  1  0.163729  0.327455  0.539395  1
  In  In20  1  0.671830  0.835991  0.539297  1
  In  In21  1  0.164161  0.835991  0.539297  1
  Co  Co22  1  0.666626  0.333250  0.560769  1
  Co  Co23  1  0.333934  0.667870  0.059732  1
