# generated using pymatgen
data_Yb12Ho7TmSi16
_symmetry_space_group_name_H-M   'P 1'
_cell_length_a   7.38141415
_cell_length_b   7.79313208
_cell_length_c   15.08002815
_cell_angle_alpha   90.00261835
_cell_angle_beta   89.98399179
_cell_angle_gamma   89.98385494
_symmetry_Int_Tables_number   1
_chemical_formula_structural   Yb12Ho7TmSi16
_chemical_formula_sum   'Yb12 Ho7 Tm1 Si16'
_cell_volume   867.46852750
_cell_formula_units_Z   1
loop_
 _symmetry_equiv_pos_site_id
 _symmetry_equiv_pos_as_xyz
  1  'x, y, z'
loop_
 _atom_site_type_symbol
 _atom_site_label
 _atom_site_symmetry_multiplicity
 _atom_site_fract_x
 _atom_site_fract_y
 _atom_site_fract_z
 _atom_site_occupancy
  Yb  Yb0  1  0.972843  0.816296  0.403721  1
  Yb  Yb1  1  0.472902  0.683735  0.096228  1
  Yb  Yb2  1  0.527169  0.316300  0.596300  1
  Yb  Yb3  1  0.027056  0.183624  0.903703  1
  Yb  Yb4  1  0.027138  0.183675  0.596305  1
  Yb  Yb5  1  0.527270  0.316266  0.903716  1
  Yb  Yb6  1  0.472818  0.683718  0.403720  1
  Yb  Yb7  1  0.972761  0.816331  0.096241  1
  Yb  Yb8  1  0.352619  0.019864  0.750047  1
  Yb  Yb9  1  0.852453  0.480197  0.750064  1
  Yb  Yb10  1  0.147481  0.519916  0.250011  1
  Yb  Yb11  1  0.647500  0.980066  0.249993  1
  Ho  Ho12  1  0.314346  0.176380  0.121026  1
  Ho  Ho13  1  0.814268  0.323586  0.378909  1
  Ho  Ho14  1  0.185718  0.676568  0.878869  1
  Ho  Ho15  1  0.685692  0.823532  0.621179  1
  Ho  Ho16  1  0.314265  0.176420  0.378907  1
  Ho  Ho17  1  0.814271  0.323588  0.121068  1
  Ho  Ho18  1  0.185766  0.676462  0.621137  1
  Tm  Tm19  1  0.685690  0.823715  0.878890  1
  Si  Si20  1  0.857370  0.533683  0.538315  1
  Si  Si21  1  0.357799  0.966073  0.961536  1
  Si  Si22  1  0.642636  0.033708  0.461690  1
  Si  Si23  1  0.142577  0.466404  0.038292  1
  Si  Si24  1  0.142650  0.466307  0.461687  1
  Si  Si25  1  0.642862  0.033406  0.038073  1
  Si  Si26  1  0.357322  0.966283  0.538305  1
  Si  Si27  1  0.856881  0.534010  0.961523  1
  Si  Si28  1  0.977376  0.880932  0.750208  1
  Si  Si29  1  0.477968  0.619230  0.750111  1
  Si  Si30  1  0.522339  0.381100  0.249993  1
  Si  Si31  1  0.022352  0.118899  0.249996  1
  Si  Si32  1  0.249530  0.395776  0.750040  1
  Si  Si33  1  0.749230  0.103966  0.750215  1
  Si  Si34  1  0.250550  0.895735  0.249993  1
  Si  Si35  1  0.750534  0.604246  0.249992  1
