# generated using pymatgen
data_Zr6Ti2Al15Os5Au2
_symmetry_space_group_name_H-M   'P 1'
_cell_length_a   8.92204539
_cell_length_b   8.92204396
_cell_length_c   8.92204399
_cell_angle_alpha   120.63052333
_cell_angle_beta   119.98579543
_cell_angle_gamma   89.46799105
_symmetry_Int_Tables_number   1
_chemical_formula_structural   Zr6Ti2Al15Os5Au2
_chemical_formula_sum   'Zr6 Ti2 Al15 Os5 Au2'
_cell_volume   499.81913641
_cell_formula_units_Z   1
loop_
 _symmetry_equiv_pos_site_id
 _symmetry_equiv_pos_as_xyz
  1  'x, y, z'
loop_
 _atom_site_type_symbol
 _atom_site_label
 _atom_site_symmetry_multiplicity
 _atom_site_fract_x
 _atom_site_fract_y
 _atom_site_fract_z
 _atom_site_occupancy
  Zr  Zr0  1  0.788670  0.290985  0.072998  1
  Zr  Zr1  1  0.217987  0.290985  0.502316  1
  Zr  Zr2  1  0.204689  0.704689  0.500000  1
  Zr  Zr3  1  0.217987  0.715672  0.927002  1
  Zr  Zr4  1  0.788670  0.715672  0.497684  1
  Zr  Zr5  1  0.787635  0.287635  0.500000  1
  Ti  Ti6  1  0.374392  0.124082  0.749691  1
  Ti  Ti7  1  0.374392  0.624700  0.250309  1
  Al  Al8  1  0.996238  0.496238  0.500000  1
  Al  Al9  1  0.161743  0.345531  0.183786  1
  Al  Al10  1  0.161743  0.977955  0.816214  1
  Al  Al11  1  0.159036  0.342429  0.816608  1
  Al  Al12  1  0.525819  0.342429  0.183392  1
  Al  Al13  1  0.838148  0.652119  0.813972  1
  Al  Al14  1  0.838148  0.024178  0.186028  1
  Al  Al15  1  0.836318  0.659464  0.176853  1
  Al  Al16  1  0.482611  0.659464  0.823147  1
  Al  Al17  1  0.390286  0.132532  0.257754  1
  Al  Al18  1  0.874781  0.132532  0.742246  1
  Al  Al19  1  0.624005  0.872921  0.248917  1
  Al  Al20  1  0.624005  0.375088  0.751083  1
  Al  Al21  1  0.604374  0.867308  0.737066  1
  Al  Al22  1  0.130240  0.867308  0.262934  1
  Os  Os23  1  0.002539  0.000623  0.502659  1
  Os  Os24  1  0.497964  0.000623  0.998084  1
  Os  Os25  1  0.497278  0.497278  0.000000  1
  Os  Os26  1  0.497964  0.499880  0.497341  1
  Os  Os27  1  0.002539  0.499880  0.001916  1
  Au  Au28  1  0.999298  0.999298  0.000000  1
  Au  Au29  1  0.500495  0.000495  0.500000  1
