# generated using pymatgen
data_K3Ba3ErSb4
_symmetry_space_group_name_H-M   'P 1'
_cell_length_a   11.37735100
_cell_length_b   11.37735126
_cell_length_c   8.56691000
_cell_angle_alpha   90.00000000
_cell_angle_beta   90.00000000
_cell_angle_gamma   120.00000216
_symmetry_Int_Tables_number   1
_chemical_formula_structural   K3Ba3ErSb4
_chemical_formula_sum   'K6 Ba6 Er2 Sb8'
_cell_volume   960.36682563
_cell_formula_units_Z   2
loop_
 _symmetry_equiv_pos_site_id
 _symmetry_equiv_pos_as_xyz
  1  'x, y, z'
loop_
 _atom_site_type_symbol
 _atom_site_label
 _atom_site_symmetry_multiplicity
 _atom_site_fract_x
 _atom_site_fract_y
 _atom_site_fract_z
 _atom_site_occupancy
  K  K0  1  0.861873  0.723747  0.957664  1
  K  K1  1  0.861873  0.138127  0.957664  1
  K  K2  1  0.138127  0.276253  0.457664  1
  K  K3  1  0.276253  0.138127  0.957664  1
  K  K4  1  0.138127  0.861873  0.457664  1
  K  K5  1  0.723747  0.861873  0.457664  1
  Ba  Ba6  1  0.473845  0.947689  0.778054  1
  Ba  Ba7  1  0.473845  0.526155  0.778054  1
  Ba  Ba8  1  0.526155  0.052311  0.278054  1
  Ba  Ba9  1  0.052311  0.526155  0.778054  1
  Ba  Ba10  1  0.526155  0.473845  0.278054  1
  Ba  Ba11  1  0.947689  0.473845  0.278054  1
  Er  Er12  1  0.666667  0.333333  0.661087  1
  Er  Er13  1  0.333333  0.666667  0.161087  1
  Sb  Sb14  1  0.666667  0.333333  0.012381  1
  Sb  Sb15  1  0.333333  0.666667  0.512381  1
  Sb  Sb16  1  0.808195  0.616392  0.548594  1
  Sb  Sb17  1  0.808195  0.191805  0.548594  1
  Sb  Sb18  1  0.191805  0.383608  0.048594  1
  Sb  Sb19  1  0.383608  0.191805  0.548594  1
  Sb  Sb20  1  0.191805  0.808195  0.048594  1
  Sb  Sb21  1  0.616392  0.808195  0.048594  1
