# generated using pymatgen
data_Th2CdSn5
_symmetry_space_group_name_H-M   'P 1'
_cell_length_a   6.68890603
_cell_length_b   6.68890558
_cell_length_c   9.58775900
_cell_angle_alpha   90.00000000
_cell_angle_beta   90.00000000
_cell_angle_gamma   91.91648799
_symmetry_Int_Tables_number   1
_chemical_formula_structural   Th2CdSn5
_chemical_formula_sum   'Th4 Cd2 Sn10'
_cell_volume   428.73039203
_cell_formula_units_Z   2
loop_
 _symmetry_equiv_pos_site_id
 _symmetry_equiv_pos_as_xyz
  1  'x, y, z'
loop_
 _atom_site_type_symbol
 _atom_site_label
 _atom_site_symmetry_multiplicity
 _atom_site_fract_x
 _atom_site_fract_y
 _atom_site_fract_z
 _atom_site_occupancy
  Th  Th0  1  0.232962  0.767038  0.500000  1
  Th  Th1  1  0.232962  0.767038  0.000000  1
  Th  Th2  1  0.767038  0.232962  0.500000  1
  Th  Th3  1  0.767038  0.232962  0.000000  1
  Cd  Cd4  1  0.497606  0.497606  0.250000  1
  Cd  Cd5  1  0.502394  0.502394  0.750000  1
  Sn  Sn6  1  0.000634  0.000634  0.250000  1
  Sn  Sn7  1  0.999366  0.999366  0.750000  1
  Sn  Sn8  1  0.269249  0.269249  0.000741  1
  Sn  Sn9  1  0.730751  0.730751  0.999259  1
  Sn  Sn10  1  0.269249  0.269249  0.499259  1
  Sn  Sn11  1  0.730751  0.730751  0.500741  1
  Sn  Sn12  1  0.501098  0.996760  0.250000  1
  Sn  Sn13  1  0.003240  0.498902  0.750000  1
  Sn  Sn14  1  0.498902  0.003240  0.750000  1
  Sn  Sn15  1  0.996760  0.501098  0.250000  1
