# generated using pymatgen
data_Dy8Sc2IrPt5
_symmetry_space_group_name_H-M   'P 1'
_cell_length_a   10.91733400
_cell_length_b   10.91733400
_cell_length_c   6.31531000
_cell_angle_alpha   90.00000000
_cell_angle_beta   90.00000000
_cell_angle_gamma   90.00000000
_symmetry_Int_Tables_number   1
_chemical_formula_structural   Dy8Sc2IrPt5
_chemical_formula_sum   'Dy16 Sc4 Ir2 Pt10'
_cell_volume   752.71031557
_cell_formula_units_Z   2
loop_
 _symmetry_equiv_pos_site_id
 _symmetry_equiv_pos_as_xyz
  1  'x, y, z'
loop_
 _atom_site_type_symbol
 _atom_site_label
 _atom_site_symmetry_multiplicity
 _atom_site_fract_x
 _atom_site_fract_y
 _atom_site_fract_z
 _atom_site_occupancy
  Dy  Dy0  1  0.287986  0.087473  0.377708  1
  Dy  Dy1  1  0.287986  0.912527  0.877708  1
  Dy  Dy2  1  0.712014  0.087473  0.877708  1
  Dy  Dy3  1  0.712014  0.912527  0.377708  1
  Dy  Dy4  1  0.587473  0.787986  0.877708  1
  Dy  Dy5  1  0.587473  0.212014  0.377708  1
  Dy  Dy6  1  0.412527  0.787986  0.377708  1
  Dy  Dy7  1  0.412527  0.212014  0.877708  1
  Dy  Dy8  1  0.209627  0.413993  0.622239  1
  Dy  Dy9  1  0.209627  0.586007  0.122239  1
  Dy  Dy10  1  0.790373  0.413993  0.122239  1
  Dy  Dy11  1  0.790373  0.586007  0.622239  1
  Dy  Dy12  1  0.913993  0.709627  0.122239  1
  Dy  Dy13  1  0.913993  0.290373  0.622239  1
  Dy  Dy14  1  0.086007  0.709627  0.622239  1
  Dy  Dy15  1  0.086007  0.290373  0.122239  1
  Sc  Sc16  1  0.000000  0.000000  0.500690  1
  Sc  Sc17  1  0.000000  0.000000  0.000690  1
  Sc  Sc18  1  0.500000  0.500000  0.000690  1
  Sc  Sc19  1  0.500000  0.500000  0.500690  1
  Ir  Ir20  1  0.000000  0.500000  0.877958  1
  Ir  Ir21  1  0.000000  0.500000  0.377958  1
  Pt  Pt22  1  0.852154  0.146718  0.250468  1
  Pt  Pt23  1  0.852154  0.853282  0.750468  1
  Pt  Pt24  1  0.147846  0.146718  0.750468  1
  Pt  Pt25  1  0.147846  0.853282  0.250468  1
  Pt  Pt26  1  0.646718  0.352154  0.750468  1
  Pt  Pt27  1  0.646718  0.647846  0.250468  1
  Pt  Pt28  1  0.353282  0.352154  0.250468  1
  Pt  Pt29  1  0.353282  0.647846  0.750468  1
  Pt  Pt30  1  0.500000  0.000000  0.119002  1
  Pt  Pt31  1  0.500000  0.000000  0.619002  1
