# generated using pymatgen
data_Nd16Cd4Co2IrPt
_symmetry_space_group_name_H-M   'P 1'
_cell_length_a   9.91763556
_cell_length_b   9.90848795
_cell_length_c   9.88955100
_cell_angle_alpha   60.06319803
_cell_angle_beta   60.09362706
_cell_angle_gamma   60.26384382
_symmetry_Int_Tables_number   1
_chemical_formula_structural   Nd16Cd4Co2IrPt
_chemical_formula_sum   'Nd16 Cd4 Co2 Ir1 Pt1'
_cell_volume   689.36832198
_cell_formula_units_Z   1
loop_
 _symmetry_equiv_pos_site_id
 _symmetry_equiv_pos_as_xyz
  1  'x, y, z'
loop_
 _atom_site_type_symbol
 _atom_site_label
 _atom_site_symmetry_multiplicity
 _atom_site_fract_x
 _atom_site_fract_y
 _atom_site_fract_z
 _atom_site_occupancy
  Nd  Nd0  1  0.347574  0.342720  0.354624  1
  Nd  Nd1  1  0.347574  0.342720  0.955081  1
  Nd  Nd2  1  0.342846  0.958831  0.349161  1
  Nd  Nd3  1  0.956630  0.340630  0.351369  1
  Nd  Nd4  1  0.814997  0.189626  0.189580  1
  Nd  Nd5  1  0.190412  0.818121  0.801267  1
  Nd  Nd6  1  0.190412  0.818121  0.190201  1
  Nd  Nd7  1  0.814997  0.189626  0.805797  1
  Nd  Nd8  1  0.188736  0.188927  0.811169  1
  Nd  Nd9  1  0.804965  0.812408  0.191314  1
  Nd  Nd10  1  0.938386  0.561646  0.562261  1
  Nd  Nd11  1  0.562143  0.938863  0.938490  1
  Nd  Nd12  1  0.562143  0.938863  0.560505  1
  Nd  Nd13  1  0.938386  0.561646  0.937708  1
  Nd  Nd14  1  0.562111  0.559647  0.939121  1
  Nd  Nd15  1  0.937396  0.937088  0.562758  1
  Cd  Cd16  1  0.579881  0.579904  0.579487  1
  Cd  Cd17  1  0.579881  0.579904  0.260729  1
  Cd  Cd18  1  0.580595  0.259099  0.580153  1
  Cd  Cd19  1  0.259237  0.580572  0.580095  1
  Co  Co20  1  0.141429  0.141961  0.140897  1
  Co  Co21  1  0.141429  0.141961  0.575710  1
  Ir  Ir22  1  0.574984  0.143037  0.140989  1
  Pt  Pt23  1  0.142855  0.574079  0.141533  1
