# generated using pymatgen
data_Tm12Co3Os2Pb
_symmetry_space_group_name_H-M   'P 1'
_cell_length_a   8.23147984
_cell_length_b   8.23147976
_cell_length_c   8.23147882
_cell_angle_alpha   111.22161570
_cell_angle_beta   111.99404339
_cell_angle_gamma   105.27863138
_symmetry_Int_Tables_number   1
_chemical_formula_structural   Tm12Co3Os2Pb
_chemical_formula_sum   'Tm12 Co3 Os2 Pb1'
_cell_volume   427.62164606
_cell_formula_units_Z   1
loop_
 _symmetry_equiv_pos_site_id
 _symmetry_equiv_pos_as_xyz
  1  'x, y, z'
loop_
 _atom_site_type_symbol
 _atom_site_label
 _atom_site_symmetry_multiplicity
 _atom_site_fract_x
 _atom_site_fract_y
 _atom_site_fract_z
 _atom_site_occupancy
  Tm  Tm0  1  0.274890  0.182559  0.457447  1
  Tm  Tm1  1  0.723591  0.817902  0.541493  1
  Tm  Tm2  1  0.276409  0.817902  0.094310  1
  Tm  Tm3  1  0.725110  0.182559  0.907670  1
  Tm  Tm4  1  0.618170  0.308496  0.305448  1
  Tm  Tm5  1  0.381830  0.687278  0.690326  1
  Tm  Tm6  1  0.003048  0.308496  0.690326  1
  Tm  Tm7  1  0.996952  0.687278  0.305448  1
  Tm  Tm8  1  0.224491  0.416773  0.192284  1
  Tm  Tm9  1  0.779318  0.583364  0.804045  1
  Tm  Tm10  1  0.220682  0.024727  0.804045  1
  Tm  Tm11  1  0.775509  0.967793  0.192284  1
  Co  Co12  1  0.000000  0.640113  0.640113  1
  Co  Co13  1  0.390017  0.889962  0.499944  1
  Co  Co14  1  0.609983  0.109928  0.499944  1
  Os  Os15  1  0.000000  0.377608  0.377608  1
  Os  Os16  1  0.000000  0.999673  0.999673  1
  Pb  Pb17  1  0.500000  0.497591  0.997591  1
