# generated using pymatgen
data_Hf5Ti8Al9Fe8
_symmetry_space_group_name_H-M   'P 1'
_cell_length_a   8.60800192
_cell_length_b   8.62037522
_cell_length_c   8.60800200
_cell_angle_alpha   59.89562416
_cell_angle_beta   59.99183172
_cell_angle_gamma   59.89564071
_symmetry_Int_Tables_number   1
_chemical_formula_structural   Hf5Ti8Al9Fe8
_chemical_formula_sum   'Hf5 Ti8 Al9 Fe8'
_cell_volume   450.92285026
_cell_formula_units_Z   1
loop_
 _symmetry_equiv_pos_site_id
 _symmetry_equiv_pos_as_xyz
  1  'x, y, z'
loop_
 _atom_site_type_symbol
 _atom_site_label
 _atom_site_symmetry_multiplicity
 _atom_site_fract_x
 _atom_site_fract_y
 _atom_site_fract_z
 _atom_site_occupancy
  Hf  Hf0  1  0.210768  0.210069  0.804673  1
  Hf  Hf1  1  0.804673  0.210069  0.210768  1
  Hf  Hf2  1  0.205283  0.803800  0.205283  1
  Hf  Hf3  1  0.799689  0.796068  0.186098  1
  Hf  Hf4  1  0.186098  0.796068  0.799689  1
  Ti  Ti5  1  0.799441  0.181058  0.799441  1
  Ti  Ti6  1  0.381902  0.381225  0.381902  1
  Ti  Ti7  1  0.384203  0.856986  0.384203  1
  Ti  Ti8  1  0.855106  0.382405  0.390970  1
  Ti  Ti9  1  0.390970  0.382405  0.855106  1
  Ti  Ti10  1  0.834022  0.476516  0.834022  1
  Ti  Ti11  1  0.485296  0.835941  0.831933  1
  Ti  Ti12  1  0.831933  0.835941  0.485296  1
  Al  Al13  1  0.172175  0.171040  0.172175  1
  Al  Al14  1  0.167273  0.502627  0.167273  1
  Al  Al15  1  0.517276  0.165802  0.161225  1
  Al  Al16  1  0.161225  0.165802  0.517276  1
  Al  Al17  1  0.616203  0.615931  0.616203  1
  Al  Al18  1  0.619441  0.146533  0.619441  1
  Al  Al19  1  0.144347  0.617612  0.617134  1
  Al  Al20  1  0.617134  0.617612  0.144347  1
  Al  Al21  1  0.825624  0.826330  0.825624  1
  Fe  Fe22  1  0.000311  0.003058  0.495887  1
  Fe  Fe23  1  0.495887  0.003058  0.000311  1
  Fe  Fe24  1  0.001063  0.493980  0.001063  1
  Fe  Fe25  1  0.499669  0.504856  0.996786  1
  Fe  Fe26  1  0.996786  0.504856  0.499669  1
  Fe  Fe27  1  0.501953  0.998491  0.501953  1
  Fe  Fe28  1  0.498680  0.500599  0.498680  1
  Fe  Fe29  1  0.995568  0.013260  0.995568  1
