# generated using pymatgen
data_Tm3NiSn3Rh2
_symmetry_space_group_name_H-M   'P 1'
_cell_length_a   7.51228000
_cell_length_b   7.51228059
_cell_length_c   3.71994100
_cell_angle_alpha   90.00000000
_cell_angle_beta   90.00000000
_cell_angle_gamma   119.99999741
_symmetry_Int_Tables_number   1
_chemical_formula_structural   Tm3NiSn3Rh2
_chemical_formula_sum   'Tm3 Ni1 Sn3 Rh2'
_cell_volume   181.80685840
_cell_formula_units_Z   1
loop_
 _symmetry_equiv_pos_site_id
 _symmetry_equiv_pos_as_xyz
  1  'x, y, z'
loop_
 _atom_site_type_symbol
 _atom_site_label
 _atom_site_symmetry_multiplicity
 _atom_site_fract_x
 _atom_site_fract_y
 _atom_site_fract_z
 _atom_site_occupancy
  Tm  Tm0  1  0.000000  0.402446  0.000000  1
  Tm  Tm1  1  0.597554  0.597554  0.000000  1
  Tm  Tm2  1  0.402446  0.000000  0.000000  1
  Ni  Ni3  1  0.000000  0.000000  0.000000  1
  Sn  Sn4  1  0.257555  0.257555  0.500000  1
  Sn  Sn5  1  0.000000  0.742445  0.500000  1
  Sn  Sn6  1  0.742445  0.000000  0.500000  1
  Rh  Rh7  1  0.666667  0.333333  0.500000  1
  Rh  Rh8  1  0.333333  0.666667  0.500000  1
