# generated using pymatgen
data_Pr10Sn5BiBr2
_symmetry_space_group_name_H-M   'P 1'
_cell_length_a   9.64317872
_cell_length_b   9.64317873
_cell_length_c   6.84971600
_cell_angle_alpha   90.00000000
_cell_angle_beta   90.00000000
_cell_angle_gamma   120.13525356
_symmetry_Int_Tables_number   1
_chemical_formula_structural   Pr10Sn5BiBr2
_chemical_formula_sum   'Pr10 Sn5 Bi1 Br2'
_cell_volume   550.87125632
_cell_formula_units_Z   1
loop_
 _symmetry_equiv_pos_site_id
 _symmetry_equiv_pos_as_xyz
  1  'x, y, z'
loop_
 _atom_site_type_symbol
 _atom_site_label
 _atom_site_symmetry_multiplicity
 _atom_site_fract_x
 _atom_site_fract_y
 _atom_site_fract_z
 _atom_site_occupancy
  Pr  Pr0  1  0.268937  0.000679  0.750000  1
  Pr  Pr1  1  0.732789  0.004559  0.250000  1
  Pr  Pr2  1  0.000679  0.268937  0.750000  1
  Pr  Pr3  1  0.004559  0.732789  0.250000  1
  Pr  Pr4  1  0.732247  0.732247  0.750000  1
  Pr  Pr5  1  0.264752  0.264752  0.250000  1
  Pr  Pr6  1  0.330741  0.667718  0.501129  1
  Pr  Pr7  1  0.667718  0.330741  0.501129  1
  Pr  Pr8  1  0.667718  0.330741  0.998871  1
  Pr  Pr9  1  0.330741  0.667718  0.998871  1
  Sn  Sn10  1  0.613994  0.999603  0.750000  1
  Sn  Sn11  1  0.386666  0.000512  0.250000  1
  Sn  Sn12  1  0.999603  0.613994  0.750000  1
  Sn  Sn13  1  0.000512  0.386666  0.250000  1
  Sn  Sn14  1  0.386187  0.386187  0.750000  1
  Bi  Bi15  1  0.614455  0.614455  0.250000  1
  Br  Br16  1  0.998851  0.998851  0.499802  1
  Br  Br17  1  0.998851  0.998851  0.000198  1
