# generated using pymatgen
data_La3Rh3O11
_symmetry_space_group_name_H-M   'P 1'
_cell_length_a   9.57647900
_cell_length_b   9.57647900
_cell_length_c   9.57647900
_cell_angle_alpha   90.00000000
_cell_angle_beta   90.00000000
_cell_angle_gamma   90.00000000
_symmetry_Int_Tables_number   1
_chemical_formula_structural   La3Rh3O11
_chemical_formula_sum   'La12 Rh12 O44'
_cell_volume   878.24883415
_cell_formula_units_Z   4
loop_
 _symmetry_equiv_pos_site_id
 _symmetry_equiv_pos_as_xyz
  1  'x, y, z'
loop_
 _atom_site_type_symbol
 _atom_site_label
 _atom_site_symmetry_multiplicity
 _atom_site_fract_x
 _atom_site_fract_y
 _atom_site_fract_z
 _atom_site_occupancy
  La  La0  1  0.750000  0.750000  0.750000  1
  La  La1  1  0.250000  0.250000  0.750000  1
  La  La2  1  0.750000  0.250000  0.250000  1
  La  La3  1  0.250000  0.750000  0.250000  1
  La  La4  1  0.135802  0.135802  0.135802  1
  La  La5  1  0.864198  0.864198  0.135802  1
  La  La6  1  0.135802  0.864198  0.864198  1
  La  La7  1  0.864198  0.135802  0.864198  1
  La  La8  1  0.364198  0.364198  0.364198  1
  La  La9  1  0.635802  0.635802  0.364198  1
  La  La10  1  0.364198  0.635802  0.635802  1
  La  La11  1  0.635802  0.364198  0.635802  1
  Rh  Rh12  1  0.157332  0.500000  0.000000  1
  Rh  Rh13  1  0.000000  0.157332  0.500000  1
  Rh  Rh14  1  0.500000  0.000000  0.157332  1
  Rh  Rh15  1  0.000000  0.842668  0.500000  1
  Rh  Rh16  1  0.500000  0.000000  0.842668  1
  Rh  Rh17  1  0.842668  0.500000  0.000000  1
  Rh  Rh18  1  0.342668  0.000000  0.500000  1
  Rh  Rh19  1  0.500000  0.342668  0.000000  1
  Rh  Rh20  1  0.000000  0.500000  0.342668  1
  Rh  Rh21  1  0.500000  0.657332  0.000000  1
  Rh  Rh22  1  0.000000  0.500000  0.657332  1
  Rh  Rh23  1  0.657332  0.000000  0.500000  1
  O  O24  1  0.831746  0.502192  0.211643  1
  O  O25  1  0.831746  0.497808  0.788357  1
  O  O26  1  0.168254  0.502192  0.788357  1
  O  O27  1  0.497808  0.788357  0.831746  1
  O  O28  1  0.788357  0.168254  0.502192  1
  O  O29  1  0.788357  0.831746  0.497808  1
  O  O30  1  0.502192  0.211643  0.831746  1
  O  O31  1  0.211643  0.831746  0.502192  1
  O  O32  1  0.502192  0.788357  0.168254  1
  O  O33  1  0.497808  0.211643  0.168254  1
  O  O34  1  0.211643  0.168254  0.497808  1
  O  O35  1  0.168254  0.497808  0.211643  1
  O  O36  1  0.668254  0.997808  0.288357  1
  O  O37  1  0.668254  0.002192  0.711643  1
  O  O38  1  0.331746  0.997808  0.711643  1
  O  O39  1  0.002192  0.711643  0.668254  1
  O  O40  1  0.394952  0.605048  0.394952  1
  O  O41  1  0.711643  0.331746  0.997808  1
  O  O42  1  0.997808  0.288357  0.668254  1
  O  O43  1  0.288357  0.668254  0.997808  1
  O  O44  1  0.997808  0.711643  0.331746  1
  O  O45  1  0.002192  0.288357  0.331746  1
  O  O46  1  0.288357  0.331746  0.002192  1
  O  O47  1  0.331746  0.002192  0.288357  1
  O  O48  1  0.365204  0.000000  0.000000  1
  O  O49  1  0.000000  0.365204  0.000000  1
  O  O50  1  0.000000  0.000000  0.365204  1
  O  O51  1  0.000000  0.634796  0.000000  1
  O  O52  1  0.000000  0.000000  0.634796  1
  O  O53  1  0.634796  0.000000  0.000000  1
  O  O54  1  0.134796  0.500000  0.500000  1
  O  O55  1  0.500000  0.134796  0.500000  1
  O  O56  1  0.500000  0.500000  0.134796  1
  O  O57  1  0.500000  0.865204  0.500000  1
  O  O58  1  0.500000  0.500000  0.865204  1
  O  O59  1  0.865204  0.500000  0.500000  1
  O  O60  1  0.894952  0.894952  0.894952  1
  O  O61  1  0.105048  0.105048  0.894952  1
  O  O62  1  0.894952  0.105048  0.105048  1
  O  O63  1  0.105048  0.894952  0.105048  1
  O  O64  1  0.605048  0.605048  0.605048  1
  O  O65  1  0.394952  0.394952  0.605048  1
  O  O66  1  0.605048  0.394952  0.394952  1
  O  O67  1  0.711643  0.668254  0.002192  1
