# generated using pymatgen
data_Pr17Sm(ErSn8)2
_symmetry_space_group_name_H-M   'P 1'
_cell_length_a   8.29194100
_cell_length_b   8.45637446
_cell_length_c   16.04664400
_cell_angle_alpha   90.00000000
_cell_angle_beta   90.00000000
_cell_angle_gamma   89.94817454
_symmetry_Int_Tables_number   1
_chemical_formula_structural   Pr17Sm(ErSn8)2
_chemical_formula_sum   'Pr17 Sm1 Er2 Sn16'
_cell_volume   1125.18633516
_cell_formula_units_Z   1
loop_
 _symmetry_equiv_pos_site_id
 _symmetry_equiv_pos_as_xyz
  1  'x, y, z'
loop_
 _atom_site_type_symbol
 _atom_site_label
 _atom_site_symmetry_multiplicity
 _atom_site_fract_x
 _atom_site_fract_y
 _atom_site_fract_z
 _atom_site_occupancy
  Pr  Pr0  1  0.368614  0.836851  0.879331  1
  Pr  Pr1  1  0.866705  0.664251  0.620383  1
  Pr  Pr2  1  0.633166  0.163882  0.379513  1
  Pr  Pr3  1  0.131673  0.336871  0.121441  1
  Pr  Pr4  1  0.633166  0.163882  0.120487  1
  Pr  Pr5  1  0.131673  0.336871  0.378559  1
  Pr  Pr6  1  0.368614  0.836851  0.620669  1
  Pr  Pr7  1  0.866705  0.664251  0.879617  1
  Pr  Pr8  1  0.518742  0.318087  0.901334  1
  Pr  Pr9  1  0.017610  0.180167  0.599146  1
  Pr  Pr10  1  0.482297  0.680380  0.400387  1
  Pr  Pr11  1  0.981511  0.818264  0.098995  1
  Pr  Pr12  1  0.482297  0.680380  0.099613  1
  Pr  Pr13  1  0.981511  0.818264  0.401005  1
  Pr  Pr14  1  0.518742  0.318087  0.598666  1
  Pr  Pr15  1  0.017610  0.180167  0.900854  1
  Pr  Pr16  1  0.196606  0.501211  0.750000  1
  Sm  Sm17  1  0.302163  0.000855  0.250000  1
  Er  Er18  1  0.698832  0.998016  0.750000  1
  Er  Er19  1  0.800852  0.498169  0.250000  1
  Sn  Sn20  1  0.292295  0.034970  0.043403  1
  Sn  Sn21  1  0.792739  0.466671  0.455444  1
  Sn  Sn22  1  0.707292  0.966810  0.544333  1
  Sn  Sn23  1  0.207638  0.536092  0.958602  1
  Sn  Sn24  1  0.707292  0.966810  0.955667  1
  Sn  Sn25  1  0.207638  0.536092  0.541398  1
  Sn  Sn26  1  0.292295  0.034970  0.456597  1
  Sn  Sn27  1  0.792739  0.466671  0.044556  1
  Sn  Sn28  1  0.568765  0.616695  0.750000  1
  Sn  Sn29  1  0.062588  0.886891  0.750000  1
  Sn  Sn30  1  0.436901  0.384574  0.250000  1
  Sn  Sn31  1  0.933215  0.116356  0.250000  1
  Sn  Sn32  1  0.325360  0.141437  0.750000  1
  Sn  Sn33  1  0.820284  0.352044  0.750000  1
  Sn  Sn34  1  0.678271  0.852879  0.250000  1
  Sn  Sn35  1  0.175602  0.644283  0.250000  1
