# generated using pymatgen
data_Ca3Ho(SbPt)4
_symmetry_space_group_name_H-M   'P 1'
_cell_length_a   4.63534800
_cell_length_b   7.36628070
_cell_length_c   7.95253839
_cell_angle_alpha   90.15540471
_cell_angle_beta   90.00000000
_cell_angle_gamma   90.00000000
_symmetry_Int_Tables_number   1
_chemical_formula_structural   Ca3Ho(SbPt)4
_chemical_formula_sum   'Ca3 Ho1 Sb4 Pt4'
_cell_volume   271.54060767
_cell_formula_units_Z   1
loop_
 _symmetry_equiv_pos_site_id
 _symmetry_equiv_pos_as_xyz
  1  'x, y, z'
loop_
 _atom_site_type_symbol
 _atom_site_label
 _atom_site_symmetry_multiplicity
 _atom_site_fract_x
 _atom_site_fract_y
 _atom_site_fract_z
 _atom_site_occupancy
  Ca  Ca0  1  0.250000  0.006113  0.302357  1
  Ca  Ca1  1  0.750000  0.492940  0.801279  1
  Ca  Ca2  1  0.250000  0.507262  0.199065  1
  Ho  Ho3  1  0.750000  0.992593  0.698603  1
  Sb  Sb4  1  0.750000  0.310481  0.408521  1
  Sb  Sb5  1  0.250000  0.187805  0.909590  1
  Sb  Sb6  1  0.250000  0.684409  0.590838  1
  Sb  Sb7  1  0.750000  0.810735  0.090148  1
  Pt  Pt8  1  0.250000  0.810356  0.910227  1
  Pt  Pt9  1  0.250000  0.293163  0.586040  1
  Pt  Pt10  1  0.750000  0.708992  0.423203  1
  Pt  Pt11  1  0.750000  0.195150  0.080129  1
