# generated using pymatgen
data_Tb3Dy7Os4
_symmetry_space_group_name_H-M   'P 1'
_cell_length_a   6.41339283
_cell_length_b   7.34302915
_cell_length_c   8.45742718
_cell_angle_alpha   96.78442436
_cell_angle_beta   112.29945704
_cell_angle_gamma   89.96893661
_symmetry_Int_Tables_number   1
_chemical_formula_structural   Tb3Dy7Os4
_chemical_formula_sum   'Tb3 Dy7 Os4'
_cell_volume   365.49915476
_cell_formula_units_Z   1
loop_
 _symmetry_equiv_pos_site_id
 _symmetry_equiv_pos_as_xyz
  1  'x, y, z'
loop_
 _atom_site_type_symbol
 _atom_site_label
 _atom_site_symmetry_multiplicity
 _atom_site_fract_x
 _atom_site_fract_y
 _atom_site_fract_z
 _atom_site_occupancy
  Tb  Tb0  1  0.793216  0.083147  0.815592  1
  Tb  Tb1  1  0.976274  0.416622  0.183517  1
  Tb  Tb2  1  0.207016  0.916776  0.184076  1
  Dy  Dy3  1  0.023385  0.583681  0.816679  1
  Dy  Dy4  1  0.205152  0.183910  0.564899  1
  Dy  Dy5  1  0.641613  0.316725  0.435956  1
  Dy  Dy6  1  0.794607  0.815851  0.435135  1
  Dy  Dy7  1  0.358253  0.683521  0.564324  1
  Dy  Dy8  1  0.423299  0.249978  0.999763  1
  Dy  Dy9  1  0.576706  0.750106  0.000069  1
  Os  Os10  1  0.604802  0.424574  0.780471  1
  Os  Os11  1  0.823299  0.076368  0.219505  1
  Os  Os12  1  0.395929  0.575458  0.219226  1
  Os  Os13  1  0.176448  0.923284  0.780790  1
