# generated using pymatgen
data_Ho8CdIn3Au8
_symmetry_space_group_name_H-M   'P 1'
_cell_length_a   8.02136800
_cell_length_b   8.02136800
_cell_length_c   7.29931100
_cell_angle_alpha   90.00000000
_cell_angle_beta   90.00000000
_cell_angle_gamma   90.00000000
_symmetry_Int_Tables_number   1
_chemical_formula_structural   Ho8CdIn3Au8
_chemical_formula_sum   'Ho8 Cd1 In3 Au8'
_cell_volume   469.65478364
_cell_formula_units_Z   1
loop_
 _symmetry_equiv_pos_site_id
 _symmetry_equiv_pos_as_xyz
  1  'x, y, z'
loop_
 _atom_site_type_symbol
 _atom_site_label
 _atom_site_symmetry_multiplicity
 _atom_site_fract_x
 _atom_site_fract_y
 _atom_site_fract_z
 _atom_site_occupancy
  Ho  Ho0  1  0.158876  0.158815  0.999470  1
  Ho  Ho1  1  0.841124  0.841185  0.999470  1
  Ho  Ho2  1  0.658815  0.341124  0.500530  1
  Ho  Ho3  1  0.341185  0.658876  0.500530  1
  Ho  Ho4  1  0.677040  0.322712  0.999833  1
  Ho  Ho5  1  0.322960  0.677288  0.999833  1
  Ho  Ho6  1  0.822712  0.822960  0.500167  1
  Ho  Ho7  1  0.177288  0.177040  0.500167  1
  Cd  Cd8  1  0.500000  0.000000  0.250000  1
  In  In9  1  0.500000  0.000000  0.750000  1
  In  In10  1  0.000000  0.500000  0.250000  1
  In  In11  1  0.000000  0.500000  0.750000  1
  Au  Au12  1  0.371730  0.368142  0.231976  1
  Au  Au13  1  0.629708  0.629814  0.768555  1
  Au  Au14  1  0.628270  0.631858  0.231976  1
  Au  Au15  1  0.870186  0.129708  0.731445  1
  Au  Au16  1  0.868142  0.128270  0.268024  1
  Au  Au17  1  0.370292  0.370186  0.768555  1
  Au  Au18  1  0.131858  0.871730  0.268024  1
  Au  Au19  1  0.129814  0.870292  0.731445  1
