# generated using pymatgen
data_Zr2GaPtRh4
_symmetry_space_group_name_H-M   'P 1'
_cell_length_a   5.60046672
_cell_length_b   5.60046659
_cell_length_c   8.21178100
_cell_angle_alpha   90.00000000
_cell_angle_beta   90.00000000
_cell_angle_gamma   97.83654921
_symmetry_Int_Tables_number   1
_chemical_formula_structural   Zr2GaPtRh4
_chemical_formula_sum   'Zr4 Ga2 Pt2 Rh8'
_cell_volume   255.15899614
_cell_formula_units_Z   2
loop_
 _symmetry_equiv_pos_site_id
 _symmetry_equiv_pos_as_xyz
  1  'x, y, z'
loop_
 _atom_site_type_symbol
 _atom_site_label
 _atom_site_symmetry_multiplicity
 _atom_site_fract_x
 _atom_site_fract_y
 _atom_site_fract_z
 _atom_site_occupancy
  Zr  Zr0  1  0.772559  0.227441  0.500000  1
  Zr  Zr1  1  0.227441  0.772559  0.000000  1
  Zr  Zr2  1  0.227441  0.772559  0.500000  1
  Zr  Zr3  1  0.772559  0.227441  0.000000  1
  Ga  Ga4  1  0.502448  0.502448  0.750000  1
  Ga  Ga5  1  0.497552  0.497552  0.250000  1
  Pt  Pt6  1  0.000171  0.000171  0.250000  1
  Pt  Pt7  1  0.999829  0.999829  0.750000  1
  Rh  Rh8  1  0.720968  0.720968  0.000959  1
  Rh  Rh9  1  0.720968  0.720968  0.499041  1
  Rh  Rh10  1  0.279032  0.279032  0.999041  1
  Rh  Rh11  1  0.279032  0.279032  0.500959  1
  Rh  Rh12  1  0.500033  0.000255  0.750000  1
  Rh  Rh13  1  0.499967  0.999745  0.250000  1
  Rh  Rh14  1  0.000255  0.500033  0.750000  1
  Rh  Rh15  1  0.999745  0.499967  0.250000  1
