# generated using pymatgen
data_Tb3YZr4F28
_symmetry_space_group_name_H-M   'P 1'
_cell_length_a   5.77320146
_cell_length_b   9.13782545
_cell_length_c   12.28907621
_cell_angle_alpha   62.34113001
_cell_angle_beta   90.01131399
_cell_angle_gamma   90.01292028
_symmetry_Int_Tables_number   1
_chemical_formula_structural   Tb3YZr4F28
_chemical_formula_sum   'Tb3 Y1 Zr4 F28'
_cell_volume   574.22053686
_cell_formula_units_Z   1
loop_
 _symmetry_equiv_pos_site_id
 _symmetry_equiv_pos_as_xyz
  1  'x, y, z'
loop_
 _atom_site_type_symbol
 _atom_site_label
 _atom_site_symmetry_multiplicity
 _atom_site_fract_x
 _atom_site_fract_y
 _atom_site_fract_z
 _atom_site_occupancy
  Tb  Tb0  1  0.743258  0.815414  0.266332  1
  Tb  Tb1  1  0.243387  0.184867  0.233701  1
  Tb  Tb2  1  0.257034  0.184330  0.733761  1
  Y  Y3  1  0.756671  0.815466  0.766114  1
  Zr  Zr4  1  0.744599  0.274350  0.454996  1
  Zr  Zr5  1  0.244309  0.725893  0.045045  1
  Zr  Zr6  1  0.254999  0.725859  0.544905  1
  Zr  Zr7  1  0.755291  0.274142  0.955064  1
  F  F8  1  0.466500  0.711595  0.921507  1
  F  F9  1  0.966699  0.288745  0.578524  1
  F  F10  1  0.533421  0.288361  0.078707  1
  F  F11  1  0.034166  0.711065  0.421067  1
  F  F12  1  0.454279  0.281445  0.549264  1
  F  F13  1  0.953590  0.718910  0.950853  1
  F  F14  1  0.545226  0.718554  0.450649  1
  F  F15  1  0.045407  0.280997  0.049547  1
  F  F16  1  0.767519  0.525251  0.858260  1
  F  F17  1  0.267215  0.474875  0.641310  1
  F  F18  1  0.233343  0.474992  0.142311  1
  F  F19  1  0.732922  0.525230  0.357827  1
  F  F20  1  0.759872  0.023623  0.057990  1
  F  F21  1  0.259937  0.976281  0.441583  1
  F  F22  1  0.240012  0.976340  0.941884  1
  F  F23  1  0.739715  0.023908  0.557983  1
  F  F24  1  0.983750  0.733710  0.648812  1
  F  F25  1  0.484630  0.266278  0.850899  1
  F  F26  1  0.014190  0.266320  0.350427  1
  F  F27  1  0.514107  0.733803  0.149685  1
  F  F28  1  0.034653  0.746232  0.172825  1
  F  F29  1  0.533621  0.254125  0.327609  1
  F  F30  1  0.966308  0.253162  0.828014  1
  F  F31  1  0.466401  0.746240  0.672311  1
  F  F32  1  0.428424  0.972971  0.234963  1
  F  F33  1  0.928304  0.027305  0.265154  1
  F  F34  1  0.574018  0.027364  0.765388  1
  F  F35  1  0.072225  0.971991  0.734728  1
