# generated using pymatgen
data_Tb5Er5InSb5
_symmetry_space_group_name_H-M   'P 1'
_cell_length_a   8.96850300
_cell_length_b   8.96349289
_cell_length_c   6.37009900
_cell_angle_alpha   90.00000000
_cell_angle_beta   90.00000000
_cell_angle_gamma   120.01848784
_symmetry_Int_Tables_number   1
_chemical_formula_structural   Tb5Er5InSb5
_chemical_formula_sum   'Tb5 Er5 In1 Sb5'
_cell_volume   443.39736933
_cell_formula_units_Z   1
loop_
 _symmetry_equiv_pos_site_id
 _symmetry_equiv_pos_as_xyz
  1  'x, y, z'
loop_
 _atom_site_type_symbol
 _atom_site_label
 _atom_site_symmetry_multiplicity
 _atom_site_fract_x
 _atom_site_fract_y
 _atom_site_fract_z
 _atom_site_occupancy
  Tb  Tb0  1  0.004624  0.757975  0.750000  1
  Tb  Tb1  1  0.997633  0.244319  0.250000  1
  Tb  Tb2  1  0.753314  0.755681  0.250000  1
  Tb  Tb3  1  0.755842  0.000000  0.750000  1
  Tb  Tb4  1  0.246648  0.242025  0.750000  1
  Er  Er5  1  0.243338  0.000000  0.250000  1
  Er  Er6  1  0.333578  0.668624  0.498876  1
  Er  Er7  1  0.664954  0.331376  0.001124  1
  Er  Er8  1  0.664954  0.331376  0.498876  1
  Er  Er9  1  0.333578  0.668624  0.001124  1
  In  In10  1  0.395754  0.000000  0.750000  1
  Sb  Sb11  1  0.389332  0.389411  0.250000  1
  Sb  Sb12  1  0.999920  0.610589  0.250000  1
  Sb  Sb13  1  0.000809  0.390925  0.750000  1
  Sb  Sb14  1  0.609884  0.609075  0.750000  1
  Sb  Sb15  1  0.605836  0.000000  0.250000  1
