# generated using pymatgen
data_CaNd3(Ga12Pt)2
_symmetry_space_group_name_H-M   'P 1'
_cell_length_a   6.20812300
_cell_length_b   6.20812312
_cell_length_c   15.45295600
_cell_angle_alpha   90.00000000
_cell_angle_beta   90.00000000
_cell_angle_gamma   89.64805289
_symmetry_Int_Tables_number   1
_chemical_formula_structural   CaNd3(Ga12Pt)2
_chemical_formula_sum   'Ca1 Nd3 Ga24 Pt2'
_cell_volume   595.55792610
_cell_formula_units_Z   1
loop_
 _symmetry_equiv_pos_site_id
 _symmetry_equiv_pos_as_xyz
  1  'x, y, z'
loop_
 _atom_site_type_symbol
 _atom_site_label
 _atom_site_symmetry_multiplicity
 _atom_site_fract_x
 _atom_site_fract_y
 _atom_site_fract_z
 _atom_site_occupancy
  Ca  Ca0  1  0.750000  0.250000  0.246571  1
  Nd  Nd1  1  0.250000  0.750000  0.242123  1
  Nd  Nd2  1  0.250000  0.750000  0.756331  1
  Nd  Nd3  1  0.750000  0.250000  0.757098  1
  Ga  Ga4  1  0.250000  0.250000  0.186363  1
  Ga  Ga5  1  0.750000  0.750000  0.186363  1
  Ga  Ga6  1  0.750000  0.750000  0.812502  1
  Ga  Ga7  1  0.250000  0.250000  0.812502  1
  Ga  Ga8  1  0.250000  0.250000  0.346669  1
  Ga  Ga9  1  0.750000  0.750000  0.346667  1
  Ga  Ga10  1  0.750000  0.750000  0.652786  1
  Ga  Ga11  1  0.250000  0.250000  0.652785  1
  Ga  Ga12  1  0.498997  0.998996  0.911371  1
  Ga  Ga13  1  0.000859  0.999142  0.910342  1
  Ga  Ga14  1  0.499141  0.500858  0.910342  1
  Ga  Ga15  1  0.001003  0.501004  0.911371  1
  Ga  Ga16  1  0.501641  0.001646  0.088757  1
  Ga  Ga17  1  0.998476  0.001524  0.089441  1
  Ga  Ga18  1  0.501524  0.498476  0.089441  1
  Ga  Ga19  1  0.998359  0.498354  0.088757  1
  Ga  Ga20  1  0.580380  0.080383  0.432107  1
  Ga  Ga21  1  0.079890  0.920106  0.431422  1
  Ga  Ga22  1  0.420110  0.579894  0.431422  1
  Ga  Ga23  1  0.919620  0.419617  0.432107  1
  Ga  Ga24  1  0.413841  0.913838  0.569109  1
  Ga  Ga25  1  0.915525  0.084477  0.569149  1
  Ga  Ga26  1  0.584475  0.415523  0.569149  1
  Ga  Ga27  1  0.086159  0.586162  0.569109  1
  Pt  Pt28  1  0.750000  0.250000  0.998045  1
  Pt  Pt29  1  0.250000  0.750000  0.999802  1
