# generated using pymatgen
data_Tb3Lu2In4CoPt
_symmetry_space_group_name_H-M   'P 1'
_cell_length_a   3.61913400
_cell_length_b   8.03895457
_cell_length_c   17.95894814
_cell_angle_alpha   89.84973857
_cell_angle_beta   90.00000000
_cell_angle_gamma   90.00000000
_symmetry_Int_Tables_number   1
_chemical_formula_structural   Tb3Lu2In4CoPt
_chemical_formula_sum   'Tb6 Lu4 In8 Co2 Pt2'
_cell_volume   522.49680647
_cell_formula_units_Z   2
loop_
 _symmetry_equiv_pos_site_id
 _symmetry_equiv_pos_as_xyz
  1  'x, y, z'
loop_
 _atom_site_type_symbol
 _atom_site_label
 _atom_site_symmetry_multiplicity
 _atom_site_fract_x
 _atom_site_fract_y
 _atom_site_fract_z
 _atom_site_occupancy
  Tb  Tb0  1  0.000000  0.232802  0.223123  1
  Tb  Tb1  1  0.000000  0.767198  0.776877  1
  Tb  Tb2  1  0.000000  0.245120  0.718139  1
  Tb  Tb3  1  0.000000  0.754880  0.281861  1
  Tb  Tb4  1  0.000000  0.000000  0.000000  1
  Tb  Tb5  1  0.000000  0.500000  0.500000  1
  Lu  Lu6  1  0.000000  0.112772  0.409287  1
  Lu  Lu7  1  0.000000  0.887228  0.590713  1
  Lu  Lu8  1  0.000000  0.382135  0.912001  1
  Lu  Lu9  1  0.000000  0.617865  0.087999  1
  In  In10  1  0.500000  0.420107  0.352034  1
  In  In11  1  0.500000  0.579893  0.647966  1
  In  In12  1  0.500000  0.072525  0.847925  1
  In  In13  1  0.500000  0.927475  0.152075  1
  In  In14  1  0.500000  0.296583  0.064548  1
  In  In15  1  0.500000  0.703417  0.935452  1
  In  In16  1  0.500000  0.198599  0.565835  1
  In  In17  1  0.500000  0.801401  0.434165  1
  Co  Co18  1  0.500000  0.019503  0.306995  1
  Co  Co19  1  0.500000  0.980497  0.693005  1
  Pt  Pt20  1  0.500000  0.477420  0.804418  1
  Pt  Pt21  1  0.500000  0.522580  0.195582  1
