# generated using pymatgen
data_Ti2Fe12P7
_symmetry_space_group_name_H-M   'P 1'
_cell_length_a   8.80011405
_cell_length_b   8.79997839
_cell_length_c   3.54416600
_cell_angle_alpha   90.00000000
_cell_angle_beta   90.00000000
_cell_angle_gamma   119.98766579
_symmetry_Int_Tables_number   1
_chemical_formula_structural   Ti2Fe12P7
_chemical_formula_sum   'Ti2 Fe12 P7'
_cell_volume   237.72155211
_cell_formula_units_Z   1
loop_
 _symmetry_equiv_pos_site_id
 _symmetry_equiv_pos_as_xyz
  1  'x, y, z'
loop_
 _atom_site_type_symbol
 _atom_site_label
 _atom_site_symmetry_multiplicity
 _atom_site_fract_x
 _atom_site_fract_y
 _atom_site_fract_z
 _atom_site_occupancy
  Ti  Ti0  1  0.000021  0.000108  0.000000  1
  Ti  Ti1  1  0.333382  0.666661  0.500000  1
  Fe  Fe2  1  0.098242  0.395964  0.000000  1
  Fe  Fe3  1  0.604058  0.702349  0.000000  1
  Fe  Fe4  1  0.297663  0.901816  0.000000  1
  Fe  Fe5  1  0.053603  0.772804  0.500000  1
  Fe  Fe6  1  0.227312  0.280718  0.500000  1
  Fe  Fe7  1  0.719258  0.946501  0.500000  1
  Fe  Fe8  1  0.824828  0.611662  0.000000  1
  Fe  Fe9  1  0.388142  0.213191  0.000000  1
  Fe  Fe10  1  0.786866  0.175025  0.000000  1
  Fe  Fe11  1  0.886815  0.430926  0.500000  1
  Fe  Fe12  1  0.568896  0.455892  0.500000  1
  Fe  Fe13  1  0.544149  0.113120  0.500000  1
  P  P14  1  0.786810  0.742200  0.500000  1
  P  P15  1  0.257852  0.044843  0.500000  1
  P  P16  1  0.955142  0.213027  0.500000  1
  P  P17  1  0.666677  0.333326  0.000000  1
  P  P18  1  0.084364  0.631783  0.000000  1
  P  P19  1  0.368224  0.452315  0.000000  1
  P  P20  1  0.547698  0.915772  0.000000  1
