# generated using pymatgen
data_Pr6PtRhCl6
_symmetry_space_group_name_H-M   'P 1'
_cell_length_a   10.30636953
_cell_length_b   10.30635943
_cell_length_c   10.36290393
_cell_angle_alpha   109.51934240
_cell_angle_beta   109.51948428
_cell_angle_gamma   109.16629235
_symmetry_Int_Tables_number   1
_chemical_formula_structural   Pr6PtRhCl6
_chemical_formula_sum   'Pr12 Pt2 Rh2 Cl12'
_cell_volume   849.53090195
_cell_formula_units_Z   2
loop_
 _symmetry_equiv_pos_site_id
 _symmetry_equiv_pos_as_xyz
  1  'x, y, z'
loop_
 _atom_site_type_symbol
 _atom_site_label
 _atom_site_symmetry_multiplicity
 _atom_site_fract_x
 _atom_site_fract_y
 _atom_site_fract_z
 _atom_site_occupancy
  Pr  Pr0  1  0.480151  0.487426  0.242161  1
  Pr  Pr1  1  0.745275  0.237982  0.257855  1
  Pr  Pr2  1  0.746032  0.007838  0.486593  1
  Pr  Pr3  1  0.240562  0.478747  0.486580  1
  Pr  Pr4  1  0.262019  0.754725  0.242146  1
  Pr  Pr5  1  0.021253  0.259437  0.013420  1
  Pr  Pr6  1  0.012574  0.019849  0.257839  1
  Pr  Pr7  1  0.492161  0.753967  0.013407  1
  Pr  Pr8  1  0.489371  0.239388  0.478763  1
  Pr  Pr9  1  0.009960  0.490041  0.750001  1
  Pr  Pr10  1  0.260612  0.010630  0.021238  1
  Pr  Pr11  1  0.240014  0.259984  0.749999  1
  Pt  Pt12  1  0.998992  0.248994  0.497990  1
  Pt  Pt13  1  0.251006  0.501008  0.002011  1
  Rh  Rh14  1  0.250756  0.249244  0.250000  1
  Rh  Rh15  1  0.499219  0.000782  0.250000  1
  Cl  Cl16  1  0.250965  0.749317  0.750942  1
  Cl  Cl17  1  0.498373  0.500008  0.749040  1
  Cl  Cl18  1  0.997961  0.747896  0.997777  1
  Cl  Cl19  1  0.750682  0.249036  0.749057  1
  Cl  Cl20  1  0.999992  0.001625  0.750959  1
  Cl  Cl21  1  0.250124  0.000188  0.502223  1
  Cl  Cl22  1  0.752104  0.502039  0.502223  1
  Cl  Cl23  1  0.499812  0.249876  0.997777  1
  Cl  Cl24  1  0.750492  0.749507  0.250000  1
  Cl  Cl25  1  0.750014  0.000001  0.000004  1
  Cl  Cl26  1  0.999523  0.500478  0.250000  1
  Cl  Cl27  1  0.499999  0.749986  0.499996  1
