# generated using pymatgen
data_La12Pr2Ir5Pd
_symmetry_space_group_name_H-M   'P 1'
_cell_length_a   10.26063800
_cell_length_b   10.25055071
_cell_length_c   6.55021629
_cell_angle_alpha   89.85088219
_cell_angle_beta   90.00000000
_cell_angle_gamma   120.03255820
_symmetry_Int_Tables_number   1
_chemical_formula_structural   La12Pr2Ir5Pd
_chemical_formula_sum   'La12 Pr2 Ir5 Pd1'
_cell_volume   596.43524364
_cell_formula_units_Z   1
loop_
 _symmetry_equiv_pos_site_id
 _symmetry_equiv_pos_as_xyz
  1  'x, y, z'
loop_
 _atom_site_type_symbol
 _atom_site_label
 _atom_site_symmetry_multiplicity
 _atom_site_fract_x
 _atom_site_fract_y
 _atom_site_fract_z
 _atom_site_occupancy
  La  La0  1  0.125967  0.874914  0.245394  1
  La  La1  1  0.748946  0.874914  0.245394  1
  La  La2  1  0.124087  0.248175  0.235471  1
  La  La3  1  0.864650  0.120229  0.745724  1
  La  La4  1  0.255579  0.120229  0.745724  1
  La  La5  1  0.874738  0.749477  0.746589  1
  La  La6  1  0.540995  0.462707  0.436230  1
  La  La7  1  0.921713  0.462707  0.436230  1
  La  La8  1  0.539473  0.078944  0.430733  1
  La  La9  1  0.470089  0.543680  0.940519  1
  La  La10  1  0.073591  0.543680  0.940519  1
  La  La11  1  0.459385  0.918771  0.936146  1
  Pr  Pr12  1  0.335436  0.670875  0.465017  1
  Pr  Pr13  1  0.666120  0.332239  0.970263  1
  Ir  Ir14  1  0.815384  0.188942  0.194489  1
  Ir  Ir15  1  0.373556  0.188942  0.194489  1
  Ir  Ir16  1  0.812061  0.624123  0.192755  1
  Ir  Ir17  1  0.186578  0.810538  0.695653  1
  Ir  Ir18  1  0.623960  0.810538  0.695653  1
  Pd  Pd19  1  0.187690  0.375378  0.692797  1
