# generated using pymatgen
data_Gd6Zn4Pd13
_symmetry_space_group_name_H-M   'P 1'
_cell_length_a   8.34123122
_cell_length_b   8.34123203
_cell_length_c   8.34123200
_cell_angle_alpha   109.47122300
_cell_angle_beta   109.47122496
_cell_angle_gamma   109.47122121
_symmetry_Int_Tables_number   1
_chemical_formula_structural   Gd6Zn4Pd13
_chemical_formula_sum   'Gd6 Zn4 Pd13'
_cell_volume   446.75418849
_cell_formula_units_Z   1
loop_
 _symmetry_equiv_pos_site_id
 _symmetry_equiv_pos_as_xyz
  1  'x, y, z'
loop_
 _atom_site_type_symbol
 _atom_site_label
 _atom_site_symmetry_multiplicity
 _atom_site_fract_x
 _atom_site_fract_y
 _atom_site_fract_z
 _atom_site_occupancy
  Gd  Gd0  1  0.696311  0.696311  0.000000  1
  Gd  Gd1  1  0.303689  0.000000  0.303689  1
  Gd  Gd2  1  0.000000  0.303689  0.303689  1
  Gd  Gd3  1  0.303689  0.303689  0.000000  1
  Gd  Gd4  1  0.696311  0.000000  0.696311  1
  Gd  Gd5  1  0.000000  0.696311  0.696311  1
  Zn  Zn6  1  0.000000  0.000000  0.500000  1
  Zn  Zn7  1  0.000000  0.500000  0.000000  1
  Zn  Zn8  1  0.500000  0.000000  0.000000  1
  Zn  Zn9  1  0.500000  0.500000  0.500000  1
  Pd  Pd10  1  0.330393  0.330393  0.660788  1
  Pd  Pd11  1  0.669607  0.000000  0.330393  1
  Pd  Pd12  1  0.000000  0.669607  0.330393  1
  Pd  Pd13  1  0.669607  0.330393  0.000000  1
  Pd  Pd14  1  0.330393  0.660788  0.330393  1
  Pd  Pd15  1  0.000000  0.330393  0.669607  1
  Pd  Pd16  1  0.330393  0.669607  0.000000  1
  Pd  Pd17  1  0.330393  0.000000  0.669607  1
  Pd  Pd18  1  0.660788  0.330393  0.330393  1
  Pd  Pd19  1  0.669607  0.669607  0.339212  1
  Pd  Pd20  1  0.669607  0.339212  0.669607  1
  Pd  Pd21  1  0.339212  0.669607  0.669607  1
  Pd  Pd22  1  0.000000  0.000000  0.000000  1
