# generated using pymatgen
data_Er8Cd2OsRh
_symmetry_space_group_name_H-M   'P 1'
_cell_length_a   9.56612801
_cell_length_b   9.56612771
_cell_length_c   9.61994700
_cell_angle_alpha   59.81371391
_cell_angle_beta   59.81371496
_cell_angle_gamma   59.62521800
_symmetry_Int_Tables_number   1
_chemical_formula_structural   Er8Cd2OsRh
_chemical_formula_sum   'Er16 Cd4 Os2 Rh2'
_cell_volume   618.96081056
_cell_formula_units_Z   2
loop_
 _symmetry_equiv_pos_site_id
 _symmetry_equiv_pos_as_xyz
  1  'x, y, z'
loop_
 _atom_site_type_symbol
 _atom_site_label
 _atom_site_symmetry_multiplicity
 _atom_site_fract_x
 _atom_site_fract_y
 _atom_site_fract_z
 _atom_site_occupancy
  Er  Er0  1  0.349489  0.349489  0.347422  1
  Er  Er1  1  0.349489  0.349489  0.953601  1
  Er  Er2  1  0.346695  0.959659  0.346822  1
  Er  Er3  1  0.959659  0.346695  0.346822  1
  Er  Er4  1  0.811700  0.187022  0.191258  1
  Er  Er5  1  0.187022  0.811700  0.810020  1
  Er  Er6  1  0.187022  0.811700  0.191258  1
  Er  Er7  1  0.811700  0.187022  0.810020  1
  Er  Er8  1  0.188767  0.188767  0.811233  1
  Er  Er9  1  0.809047  0.809047  0.190953  1
  Er  Er10  1  0.938584  0.556336  0.565104  1
  Er  Er11  1  0.556336  0.938584  0.939976  1
  Er  Er12  1  0.556336  0.938584  0.565104  1
  Er  Er13  1  0.938584  0.556336  0.939976  1
  Er  Er14  1  0.563411  0.563411  0.936589  1
  Er  Er15  1  0.939410  0.939410  0.560590  1
  Cd  Cd16  1  0.580229  0.580229  0.581336  1
  Cd  Cd17  1  0.580229  0.580229  0.258206  1
  Cd  Cd18  1  0.581015  0.256635  0.581175  1
  Cd  Cd19  1  0.256635  0.581015  0.581175  1
  Os  Os20  1  0.143333  0.143333  0.136655  1
  Os  Os21  1  0.143333  0.143333  0.576677  1
  Rh  Rh22  1  0.144013  0.577961  0.139012  1
  Rh  Rh23  1  0.577961  0.144013  0.139012  1
