# generated using pymatgen
data_BaIn6Ag3Ir
_symmetry_space_group_name_H-M   'P 1'
_cell_length_a   8.22983700
_cell_length_b   8.22983683
_cell_length_c   4.49622300
_cell_angle_alpha   90.00000000
_cell_angle_beta   90.00000000
_cell_angle_gamma   119.99999668
_symmetry_Int_Tables_number   1
_chemical_formula_structural   BaIn6Ag3Ir
_chemical_formula_sum   'Ba1 In6 Ag3 Ir1'
_cell_volume   263.73085779
_cell_formula_units_Z   1
loop_
 _symmetry_equiv_pos_site_id
 _symmetry_equiv_pos_as_xyz
  1  'x, y, z'
loop_
 _atom_site_type_symbol
 _atom_site_label
 _atom_site_symmetry_multiplicity
 _atom_site_fract_x
 _atom_site_fract_y
 _atom_site_fract_z
 _atom_site_occupancy
  Ba  Ba0  1  0.000000  0.000000  0.000000  1
  In  In1  1  0.527794  0.472206  0.000000  1
  In  In2  1  0.203862  0.796138  0.500000  1
  In  In3  1  0.527794  0.055587  0.000000  1
  In  In4  1  0.203862  0.407723  0.500000  1
  In  In5  1  0.944413  0.472206  0.000000  1
  In  In6  1  0.592277  0.796138  0.500000  1
  Ag  Ag7  1  0.792799  0.207201  0.500000  1
  Ag  Ag8  1  0.792799  0.585599  0.500000  1
  Ag  Ag9  1  0.414401  0.207201  0.500000  1
  Ir  Ir10  1  0.333333  0.666667  0.000000  1
