# generated using pymatgen
data_DyHo15(CoHg)4
_symmetry_space_group_name_H-M   'P 1'
_cell_length_a   9.43790099
_cell_length_b   9.43790001
_cell_length_c   9.43805200
_cell_angle_alpha   59.99947428
_cell_angle_beta   59.99947772
_cell_angle_gamma   59.99936565
_symmetry_Int_Tables_number   1
_chemical_formula_structural   DyHo15(CoHg)4
_chemical_formula_sum   'Dy1 Ho15 Co4 Hg4'
_cell_volume   594.44630925
_cell_formula_units_Z   1
loop_
 _symmetry_equiv_pos_site_id
 _symmetry_equiv_pos_as_xyz
  1  'x, y, z'
loop_
 _atom_site_type_symbol
 _atom_site_label
 _atom_site_symmetry_multiplicity
 _atom_site_fract_x
 _atom_site_fract_y
 _atom_site_fract_z
 _atom_site_occupancy
  Dy  Dy0  1  0.311166  0.311166  0.688834  1
  Ho  Ho1  1  0.152329  0.543012  0.152330  1
  Ho  Ho2  1  0.688864  0.311181  0.688814  1
  Ho  Ho3  1  0.688864  0.311181  0.311141  1
  Ho  Ho4  1  0.938501  0.561495  0.561465  1
  Ho  Ho5  1  0.543012  0.152329  0.152330  1
  Ho  Ho6  1  0.152315  0.152315  0.542986  1
  Ho  Ho7  1  0.938525  0.938525  0.561475  1
  Ho  Ho8  1  0.311181  0.688864  0.311141  1
  Ho  Ho9  1  0.561495  0.938501  0.938538  1
  Ho  Ho10  1  0.561495  0.938501  0.561465  1
  Ho  Ho11  1  0.688819  0.688819  0.311181  1
  Ho  Ho12  1  0.561473  0.561473  0.938527  1
  Ho  Ho13  1  0.938501  0.561495  0.938538  1
  Ho  Ho14  1  0.311181  0.688864  0.688814  1
  Ho  Ho15  1  0.152315  0.152315  0.152384  1
  Co  Co16  1  0.359038  0.359038  0.922894  1
  Co  Co17  1  0.359039  0.922875  0.359043  1
  Co  Co18  1  0.922875  0.359039  0.359043  1
  Co  Co19  1  0.359038  0.359038  0.359031  1
  Hg  Hg20  1  0.915691  0.252863  0.915723  1
  Hg  Hg21  1  0.915710  0.915710  0.915711  1
  Hg  Hg22  1  0.915710  0.915710  0.252870  1
  Hg  Hg23  1  0.252863  0.915691  0.915723  1
