# generated using pymatgen
data_Nb6VTcS12
_symmetry_space_group_name_H-M   'P 1'
_cell_length_a   5.81972000
_cell_length_b   5.81972019
_cell_length_c   12.14676300
_cell_angle_alpha   90.00000000
_cell_angle_beta   90.00000000
_cell_angle_gamma   120.00001031
_symmetry_Int_Tables_number   1
_chemical_formula_structural   Nb6VTcS12
_chemical_formula_sum   'Nb6 V1 Tc1 S12'
_cell_volume   356.28319548
_cell_formula_units_Z   1
loop_
 _symmetry_equiv_pos_site_id
 _symmetry_equiv_pos_as_xyz
  1  'x, y, z'
loop_
 _atom_site_type_symbol
 _atom_site_label
 _atom_site_symmetry_multiplicity
 _atom_site_fract_x
 _atom_site_fract_y
 _atom_site_fract_z
 _atom_site_occupancy
  Nb  Nb0  1  0.333333  0.666667  0.503936  1
  Nb  Nb1  1  0.666667  0.333333  0.001944  1
  Nb  Nb2  1  0.666667  0.333333  0.498056  1
  Nb  Nb3  1  0.333333  0.666667  0.996064  1
  Nb  Nb4  1  0.000000  0.000000  0.501799  1
  Nb  Nb5  1  0.000000  0.000000  0.998201  1
  V  V6  1  0.333333  0.666667  0.250000  1
  Tc  Tc7  1  0.666667  0.333333  0.750000  1
  S  S8  1  0.665604  0.669099  0.371083  1
  S  S9  1  0.330901  0.996506  0.371083  1
  S  S10  1  0.003494  0.334396  0.371083  1
  S  S11  1  0.995545  0.663717  0.869595  1
  S  S12  1  0.336283  0.004455  0.630405  1
  S  S13  1  0.336283  0.331826  0.869595  1
  S  S14  1  0.668174  0.004455  0.869595  1
  S  S15  1  0.330901  0.334396  0.128917  1
  S  S16  1  0.665604  0.996506  0.128917  1
  S  S17  1  0.668174  0.663717  0.630405  1
  S  S18  1  0.995545  0.331826  0.630405  1
  S  S19  1  0.003494  0.669099  0.128917  1
