# generated using pymatgen
data_Tm8B24RuW3
_symmetry_space_group_name_H-M   'P 1'
_cell_length_a   3.57859600
_cell_length_b   9.21073555
_cell_length_c   11.59984671
_cell_angle_alpha   89.88616543
_cell_angle_beta   90.00000000
_cell_angle_gamma   90.00000000
_symmetry_Int_Tables_number   1
_chemical_formula_structural   Tm8B24RuW3
_chemical_formula_sum   'Tm8 B24 Ru1 W3'
_cell_volume   382.34760913
_cell_formula_units_Z   1
loop_
 _symmetry_equiv_pos_site_id
 _symmetry_equiv_pos_as_xyz
  1  'x, y, z'
loop_
 _atom_site_type_symbol
 _atom_site_label
 _atom_site_symmetry_multiplicity
 _atom_site_fract_x
 _atom_site_fract_y
 _atom_site_fract_z
 _atom_site_occupancy
  Tm  Tm0  1  0.000000  0.320544  0.413262  1
  Tm  Tm1  1  0.000000  0.678441  0.585744  1
  Tm  Tm2  1  0.000000  0.820938  0.085314  1
  Tm  Tm3  1  0.000000  0.178280  0.913393  1
  Tm  Tm4  1  0.000000  0.944166  0.373180  1
  Tm  Tm5  1  0.000000  0.054437  0.630345  1
  Tm  Tm6  1  0.000000  0.445360  0.126410  1
  Tm  Tm7  1  0.000000  0.559380  0.870907  1
  B  B8  1  0.500000  0.550791  0.435321  1
  B  B9  1  0.500000  0.448221  0.565320  1
  B  B10  1  0.500000  0.049922  0.062949  1
  B  B11  1  0.500000  0.944990  0.932072  1
  B  B12  1  0.500000  0.751544  0.422994  1
  B  B13  1  0.500000  0.247610  0.578642  1
  B  B14  1  0.500000  0.252878  0.076810  1
  B  B15  1  0.500000  0.751842  0.918594  1
  B  B16  1  0.500000  0.795499  0.264413  1
  B  B17  1  0.500000  0.203839  0.737933  1
  B  B18  1  0.500000  0.294915  0.235798  1
  B  B19  1  0.500000  0.709392  0.765279  1
  B  B20  1  0.500000  0.632251  0.182304  1
  B  B21  1  0.500000  0.369427  0.818315  1
  B  B22  1  0.500000  0.130765  0.316948  1
  B  B23  1  0.500000  0.868547  0.686043  1
  B  B24  1  0.500000  0.977741  0.212409  1
  B  B25  1  0.500000  0.015993  0.788444  1
  B  B26  1  0.500000  0.478039  0.286843  1
  B  B27  1  0.500000  0.523122  0.712551  1
  B  B28  1  0.500000  0.604130  0.027158  1
  B  B29  1  0.500000  0.400285  0.971195  1
  B  B30  1  0.500000  0.101206  0.472729  1
  B  B31  1  0.500000  0.896831  0.530425  1
  Ru  Ru32  1  0.000000  0.861058  0.820722  1
  W  W33  1  0.000000  0.638910  0.320331  1
  W  W34  1  0.000000  0.360285  0.681050  1
  W  W35  1  0.000000  0.138420  0.177853  1
