# generated using pymatgen
data_Eu2HfMoO6
_symmetry_space_group_name_H-M   'P 1'
_cell_length_a   5.68833400
_cell_length_b   5.87046848
_cell_length_c   8.16985361
_cell_angle_alpha   90.43056958
_cell_angle_beta   90.00000000
_cell_angle_gamma   90.00000000
_symmetry_Int_Tables_number   1
_chemical_formula_structural   Eu2HfMoO6
_chemical_formula_sum   'Eu4 Hf2 Mo2 O12'
_cell_volume   272.80973355
_cell_formula_units_Z   2
loop_
 _symmetry_equiv_pos_site_id
 _symmetry_equiv_pos_as_xyz
  1  'x, y, z'
loop_
 _atom_site_type_symbol
 _atom_site_label
 _atom_site_symmetry_multiplicity
 _atom_site_fract_x
 _atom_site_fract_y
 _atom_site_fract_z
 _atom_site_occupancy
  Eu  Eu0  1  0.986174  0.052175  0.260371  1
  Eu  Eu1  1  0.513824  0.552173  0.260371  1
  Eu  Eu2  1  0.486176  0.447825  0.739629  1
  Eu  Eu3  1  0.013824  0.947825  0.739629  1
  Hf  Hf4  1  0.500000  0.000000  0.000000  1
  Hf  Hf5  1  0.000000  0.500000  0.000000  1
  Mo  Mo6  1  0.500000  0.000000  0.500001  1
  Mo  Mo7  1  0.000000  0.500000  0.500001  1
  O  O8  1  0.705858  0.292826  0.051961  1
  O  O9  1  0.794143  0.792826  0.051961  1
  O  O10  1  0.096689  0.468414  0.244410  1
  O  O11  1  0.403311  0.968416  0.244410  1
  O  O12  1  0.696587  0.300505  0.447989  1
  O  O13  1  0.803414  0.800505  0.447989  1
  O  O14  1  0.196589  0.199494  0.552011  1
  O  O15  1  0.303413  0.699494  0.552011  1
  O  O16  1  0.596689  0.031585  0.755590  1
  O  O17  1  0.903313  0.531585  0.755590  1
  O  O18  1  0.205860  0.207173  0.948039  1
  O  O19  1  0.294142  0.707173  0.948039  1
