# generated using pymatgen
data_Nd6Cd6PtRh5
_symmetry_space_group_name_H-M   'P 1'
_cell_length_a   7.66562100
_cell_length_b   7.66562130
_cell_length_c   8.06030000
_cell_angle_alpha   90.00000000
_cell_angle_beta   90.00000000
_cell_angle_gamma   120.00001166
_symmetry_Int_Tables_number   1
_chemical_formula_structural   Nd6Cd6PtRh5
_chemical_formula_sum   'Nd6 Cd6 Pt1 Rh5'
_cell_volume   410.18189808
_cell_formula_units_Z   1
loop_
 _symmetry_equiv_pos_site_id
 _symmetry_equiv_pos_as_xyz
  1  'x, y, z'
loop_
 _atom_site_type_symbol
 _atom_site_label
 _atom_site_symmetry_multiplicity
 _atom_site_fract_x
 _atom_site_fract_y
 _atom_site_fract_z
 _atom_site_occupancy
  Nd  Nd0  1  0.404301  0.997396  0.248453  1
  Nd  Nd1  1  0.593095  0.595699  0.248453  1
  Nd  Nd2  1  0.002604  0.406905  0.248453  1
  Nd  Nd3  1  0.404226  0.997240  0.751567  1
  Nd  Nd4  1  0.593014  0.595774  0.751567  1
  Nd  Nd5  1  0.002760  0.406986  0.751567  1
  Cd  Cd6  1  0.251852  0.250926  0.000007  1
  Cd  Cd7  1  0.999075  0.748148  0.000007  1
  Cd  Cd8  1  0.003526  0.753566  0.499994  1
  Cd  Cd9  1  0.750038  0.996474  0.499994  1
  Cd  Cd10  1  0.246434  0.249962  0.499994  1
  Cd  Cd11  1  0.749074  0.000925  0.000007  1
  Pt  Pt12  1  0.666667  0.333333  0.500163  1
  Rh  Rh13  1  0.000000  0.000000  0.751634  1
  Rh  Rh14  1  0.000000  0.000000  0.248348  1
  Rh  Rh15  1  0.666667  0.333333  0.999726  1
  Rh  Rh16  1  0.333333  0.666667  0.499788  1
  Rh  Rh17  1  0.333333  0.666667  0.000277  1
