# generated using pymatgen
data_ErSiGeRh4
_symmetry_space_group_name_H-M   'P 1'
_cell_length_a   4.14204200
_cell_length_b   9.17543000
_cell_length_c   11.39414000
_cell_angle_alpha   90.00000000
_cell_angle_beta   90.00000000
_cell_angle_gamma   90.00000000
_symmetry_Int_Tables_number   1
_chemical_formula_structural   ErSiGeRh4
_chemical_formula_sum   'Er4 Si4 Ge4 Rh16'
_cell_volume   433.03447788
_cell_formula_units_Z   4
loop_
 _symmetry_equiv_pos_site_id
 _symmetry_equiv_pos_as_xyz
  1  'x, y, z'
loop_
 _atom_site_type_symbol
 _atom_site_label
 _atom_site_symmetry_multiplicity
 _atom_site_fract_x
 _atom_site_fract_y
 _atom_site_fract_z
 _atom_site_occupancy
  Er  Er0  1  0.250000  0.147284  0.825157  1
  Er  Er1  1  0.250000  0.352716  0.325157  1
  Er  Er2  1  0.750000  0.852716  0.174843  1
  Er  Er3  1  0.750000  0.647284  0.674843  1
  Si  Si4  1  0.250000  0.412547  0.637333  1
  Si  Si5  1  0.250000  0.087453  0.137333  1
  Si  Si6  1  0.750000  0.587453  0.362667  1
  Si  Si7  1  0.750000  0.912547  0.862667  1
  Ge  Ge8  1  0.250000  0.619465  0.059393  1
  Ge  Ge9  1  0.250000  0.880535  0.559393  1
  Ge  Ge10  1  0.750000  0.380535  0.940607  1
  Ge  Ge11  1  0.750000  0.119465  0.440607  1
  Rh  Rh12  1  0.250000  0.609797  0.500101  1
  Rh  Rh13  1  0.250000  0.890203  0.000101  1
  Rh  Rh14  1  0.750000  0.390203  0.499899  1
  Rh  Rh15  1  0.750000  0.109797  0.999899  1
  Rh  Rh16  1  0.250000  0.686434  0.273120  1
  Rh  Rh17  1  0.250000  0.813566  0.773120  1
  Rh  Rh18  1  0.750000  0.313566  0.726880  1
  Rh  Rh19  1  0.750000  0.186434  0.226880  1
  Rh  Rh20  1  0.250000  0.176279  0.562868  1
  Rh  Rh21  1  0.250000  0.323721  0.062868  1
  Rh  Rh22  1  0.750000  0.823721  0.437132  1
  Rh  Rh23  1  0.750000  0.676279  0.937132  1
  Rh  Rh24  1  0.250000  0.005464  0.339472  1
  Rh  Rh25  1  0.250000  0.494536  0.839472  1
  Rh  Rh26  1  0.750000  0.994536  0.660528  1
  Rh  Rh27  1  0.750000  0.505464  0.160528  1
