# generated using pymatgen
data_DyY3Ti4(Fe4P3)4
_symmetry_space_group_name_H-M   'P 1'
_cell_length_a   3.68314100
_cell_length_b   10.43047405
_cell_length_c   12.27259005
_cell_angle_alpha   90.01077988
_cell_angle_beta   90.00000000
_cell_angle_gamma   90.00000000
_symmetry_Int_Tables_number   1
_chemical_formula_structural   DyY3Ti4(Fe4P3)4
_chemical_formula_sum   'Dy1 Y3 Ti4 Fe16 P12'
_cell_volume   471.47493762
_cell_formula_units_Z   1
loop_
 _symmetry_equiv_pos_site_id
 _symmetry_equiv_pos_as_xyz
  1  'x, y, z'
loop_
 _atom_site_type_symbol
 _atom_site_label
 _atom_site_symmetry_multiplicity
 _atom_site_fract_x
 _atom_site_fract_y
 _atom_site_fract_z
 _atom_site_occupancy
  Dy  Dy0  1  0.750000  0.082514  0.788027  1
  Y  Y1  1  0.250000  0.582250  0.711799  1
  Y  Y2  1  0.250000  0.917368  0.211871  1
  Y  Y3  1  0.750000  0.417607  0.288168  1
  Ti  Ti4  1  0.250000  0.699721  0.991721  1
  Ti  Ti5  1  0.250000  0.800506  0.491657  1
  Ti  Ti6  1  0.750000  0.300554  0.007938  1
  Ti  Ti7  1  0.750000  0.199360  0.508297  1
  Fe  Fe8  1  0.250000  0.415849  0.492040  1
  Fe  Fe9  1  0.250000  0.084318  0.991781  1
  Fe  Fe10  1  0.750000  0.584108  0.507968  1
  Fe  Fe11  1  0.750000  0.915916  0.007929  1
  Fe  Fe12  1  0.250000  0.217248  0.171742  1
  Fe  Fe13  1  0.250000  0.282581  0.671868  1
  Fe  Fe14  1  0.750000  0.782928  0.828227  1
  Fe  Fe15  1  0.750000  0.717245  0.328248  1
  Fe  Fe16  1  0.250000  0.875989  0.699028  1
  Fe  Fe17  1  0.250000  0.624187  0.198937  1
  Fe  Fe18  1  0.750000  0.124090  0.301205  1
  Fe  Fe19  1  0.750000  0.375544  0.801116  1
  Fe  Fe20  1  0.250000  0.463355  0.932665  1
  Fe  Fe21  1  0.250000  0.036547  0.432908  1
  Fe  Fe22  1  0.750000  0.536508  0.067280  1
  Fe  Fe23  1  0.750000  0.963632  0.567496  1
  P  P24  1  0.250000  0.427375  0.111758  1
  P  P25  1  0.250000  0.072814  0.612117  1
  P  P26  1  0.750000  0.572508  0.888190  1
  P  P27  1  0.750000  0.927415  0.388252  1
  P  P28  1  0.250000  0.270658  0.858886  1
  P  P29  1  0.250000  0.229115  0.359086  1
  P  P30  1  0.750000  0.729046  0.141040  1
  P  P31  1  0.750000  0.770832  0.640883  1
  P  P32  1  0.250000  0.599963  0.379913  1
  P  P33  1  0.250000  0.900533  0.879880  1
  P  P34  1  0.750000  0.399764  0.620070  1
  P  P35  1  0.750000  0.100052  0.120010  1
