# generated using pymatgen
data_DyY5Co14(P3Rh)4
_symmetry_space_group_name_H-M   'P 1'
_cell_length_a   3.73665800
_cell_length_b   10.68883516
_cell_length_c   12.41337919
_cell_angle_alpha   90.01991070
_cell_angle_beta   90.00000000
_cell_angle_gamma   90.00000000
_symmetry_Int_Tables_number   1
_chemical_formula_structural   DyY5Co14(P3Rh)4
_chemical_formula_sum   'Dy1 Y5 Co14 P12 Rh4'
_cell_volume   495.79680735
_cell_formula_units_Z   1
loop_
 _symmetry_equiv_pos_site_id
 _symmetry_equiv_pos_as_xyz
  1  'x, y, z'
loop_
 _atom_site_type_symbol
 _atom_site_label
 _atom_site_symmetry_multiplicity
 _atom_site_fract_x
 _atom_site_fract_y
 _atom_site_fract_z
 _atom_site_occupancy
  Dy  Dy0  1  0.500000  0.814037  0.205790  1
  Y  Y1  1  0.000000  0.500142  0.520317  1
  Y  Y2  1  0.500000  0.999864  0.479708  1
  Y  Y3  1  0.500000  0.186088  0.205531  1
  Y  Y4  1  0.000000  0.686123  0.794279  1
  Y  Y5  1  0.000000  0.313867  0.794482  1
  Co  Co6  1  0.000000  0.500099  0.988370  1
  Co  Co7  1  0.500000  0.999950  0.011797  1
  Co  Co8  1  0.500000  0.332196  0.993833  1
  Co  Co9  1  0.500000  0.667929  0.993930  1
  Co  Co10  1  0.000000  0.167771  0.006275  1
  Co  Co11  1  0.000000  0.832117  0.006249  1
  Co  Co12  1  0.500000  0.299940  0.429780  1
  Co  Co13  1  0.500000  0.700022  0.429623  1
  Co  Co14  1  0.000000  0.199940  0.570237  1
  Co  Co15  1  0.000000  0.800018  0.570147  1
  Co  Co16  1  0.500000  0.880568  0.709687  1
  Co  Co17  1  0.500000  0.119387  0.709681  1
  Co  Co18  1  0.000000  0.619642  0.290108  1
  Co  Co19  1  0.000000  0.380623  0.290291  1
  P  P20  1  0.500000  0.500005  0.890167  1
  P  P21  1  0.000000  0.999806  0.109919  1
  P  P22  1  0.500000  0.499980  0.349508  1
  P  P23  1  0.000000  0.999975  0.650471  1
  P  P24  1  0.500000  0.301878  0.613335  1
  P  P25  1  0.500000  0.698075  0.613256  1
  P  P26  1  0.000000  0.197971  0.386633  1
  P  P27  1  0.000000  0.801866  0.386540  1
  P  P28  1  0.500000  0.844774  0.894960  1
  P  P29  1  0.500000  0.155115  0.894990  1
  P  P30  1  0.000000  0.655480  0.105156  1
  P  P31  1  0.000000  0.344906  0.105035  1
  Rh  Rh32  1  0.500000  0.500233  0.159991  1
  Rh  Rh33  1  0.000000  0.000019  0.840080  1
  Rh  Rh34  1  0.500000  0.500013  0.703473  1
  Rh  Rh35  1  0.000000  0.999579  0.296370  1
