# generated using pymatgen
data_Ba2(AlAu)5
_symmetry_space_group_name_H-M   'P 1'
_cell_length_a   6.98427889
_cell_length_b   6.98427941
_cell_length_c   5.64576900
_cell_angle_alpha   90.00000000
_cell_angle_beta   90.00000000
_cell_angle_gamma   105.60255969
_symmetry_Int_Tables_number   1
_chemical_formula_structural   Ba2(AlAu)5
_chemical_formula_sum   'Ba2 Al5 Au5'
_cell_volume   265.25309529
_cell_formula_units_Z   1
loop_
 _symmetry_equiv_pos_site_id
 _symmetry_equiv_pos_as_xyz
  1  'x, y, z'
loop_
 _atom_site_type_symbol
 _atom_site_label
 _atom_site_symmetry_multiplicity
 _atom_site_fract_x
 _atom_site_fract_y
 _atom_site_fract_z
 _atom_site_occupancy
  Ba  Ba0  1  0.848999  0.848999  0.000000  1
  Ba  Ba1  1  0.179188  0.179188  0.500000  1
  Al  Al2  1  0.290822  0.692307  0.248439  1
  Al  Al3  1  0.290822  0.692307  0.751561  1
  Al  Al4  1  0.692307  0.290822  0.248439  1
  Al  Al5  1  0.692307  0.290822  0.751561  1
  Al  Al6  1  0.593054  0.593054  0.500000  1
  Au  Au7  1  0.399698  0.012182  0.000000  1
  Au  Au8  1  0.966859  0.589099  0.500000  1
  Au  Au9  1  0.589099  0.966859  0.500000  1
  Au  Au10  1  0.012182  0.399698  0.000000  1
  Au  Au11  1  0.444663  0.444663  0.000000  1
