# generated using pymatgen
data_ErGaNi3Sn
_symmetry_space_group_name_H-M   'P 1'
_cell_length_a   9.11440200
_cell_length_b   9.11440178
_cell_length_c   4.05674400
_cell_angle_alpha   90.00000000
_cell_angle_beta   90.00000000
_cell_angle_gamma   119.99999353
_symmetry_Int_Tables_number   1
_chemical_formula_structural   ErGaNi3Sn
_chemical_formula_sum   'Er3 Ga3 Ni9 Sn3'
_cell_volume   291.85330222
_cell_formula_units_Z   3
loop_
 _symmetry_equiv_pos_site_id
 _symmetry_equiv_pos_as_xyz
  1  'x, y, z'
loop_
 _atom_site_type_symbol
 _atom_site_label
 _atom_site_symmetry_multiplicity
 _atom_site_fract_x
 _atom_site_fract_y
 _atom_site_fract_z
 _atom_site_occupancy
  Er  Er0  1  0.666667  0.333333  0.500000  1
  Er  Er1  1  0.333333  0.666667  0.500000  1
  Er  Er2  1  0.000000  0.000000  0.000000  1
  Ga  Ga3  1  0.743475  0.743475  0.500000  1
  Ga  Ga4  1  0.256525  0.000000  0.500000  1
  Ga  Ga5  1  0.000000  0.256525  0.500000  1
  Ni  Ni6  1  0.835846  0.200434  0.000000  1
  Ni  Ni7  1  0.799566  0.635412  0.000000  1
  Ni  Ni8  1  0.364588  0.164154  0.000000  1
  Ni  Ni9  1  0.200434  0.835846  0.000000  1
  Ni  Ni10  1  0.635412  0.799566  0.000000  1
  Ni  Ni11  1  0.164154  0.364588  0.000000  1
  Ni  Ni12  1  0.283274  0.283274  0.500000  1
  Ni  Ni13  1  0.716726  0.000000  0.500000  1
  Ni  Ni14  1  0.000000  0.716726  0.500000  1
  Sn  Sn15  1  0.476123  0.476123  0.000000  1
  Sn  Sn16  1  0.523877  0.000000  0.000000  1
  Sn  Sn17  1  0.000000  0.523877  0.000000  1
