# generated using pymatgen
data_Dy3Y7Cd3Ru
_symmetry_space_group_name_H-M   'P 1'
_cell_length_a   9.63720800
_cell_length_b   9.63720804
_cell_length_c   9.87851600
_cell_angle_alpha   90.00000000
_cell_angle_beta   90.00000000
_cell_angle_gamma   119.99999985
_symmetry_Int_Tables_number   1
_chemical_formula_structural   Dy3Y7Cd3Ru
_chemical_formula_sum   'Dy6 Y14 Cd6 Ru2'
_cell_volume   794.55654032
_cell_formula_units_Z   2
loop_
 _symmetry_equiv_pos_site_id
 _symmetry_equiv_pos_as_xyz
  1  'x, y, z'
loop_
 _atom_site_type_symbol
 _atom_site_label
 _atom_site_symmetry_multiplicity
 _atom_site_fract_x
 _atom_site_fract_y
 _atom_site_fract_z
 _atom_site_occupancy
  Dy  Dy0  1  0.210141  0.789859  0.439737  1
  Dy  Dy1  1  0.210141  0.420284  0.439737  1
  Dy  Dy2  1  0.579716  0.789859  0.439737  1
  Dy  Dy3  1  0.789859  0.210141  0.560263  1
  Dy  Dy4  1  0.789859  0.579716  0.560263  1
  Dy  Dy5  1  0.420284  0.210141  0.560263  1
  Y  Y6  1  0.000000  0.000000  0.500000  1
  Y  Y7  1  0.000000  0.000000  0.000000  1
  Y  Y8  1  0.790266  0.209734  0.940149  1
  Y  Y9  1  0.790266  0.580531  0.940149  1
  Y  Y10  1  0.419469  0.209734  0.940149  1
  Y  Y11  1  0.209734  0.790266  0.059851  1
  Y  Y12  1  0.209734  0.419469  0.059851  1
  Y  Y13  1  0.580531  0.790266  0.059851  1
  Y  Y14  1  0.541314  0.458686  0.250351  1
  Y  Y15  1  0.541314  0.082628  0.250351  1
  Y  Y16  1  0.917372  0.458686  0.250351  1
  Y  Y17  1  0.458686  0.541314  0.749649  1
  Y  Y18  1  0.458686  0.917372  0.749649  1
  Y  Y19  1  0.082628  0.541314  0.749649  1
  Cd  Cd20  1  0.885275  0.114725  0.249892  1
  Cd  Cd21  1  0.885275  0.770551  0.249892  1
  Cd  Cd22  1  0.229449  0.114725  0.249892  1
  Cd  Cd23  1  0.114725  0.885275  0.750108  1
  Cd  Cd24  1  0.114725  0.229449  0.750108  1
  Cd  Cd25  1  0.770551  0.885275  0.750108  1
  Ru  Ru26  1  0.333333  0.666667  0.252009  1
  Ru  Ru27  1  0.666667  0.333333  0.747991  1
