# generated using pymatgen
data_La4Co3RuI2
_symmetry_space_group_name_H-M   'P 1'
_cell_length_a   4.13822200
_cell_length_b   4.13822254
_cell_length_c   17.93090000
_cell_angle_alpha   90.00000000
_cell_angle_beta   90.00000000
_cell_angle_gamma   119.99999570
_symmetry_Int_Tables_number   1
_chemical_formula_structural   La4Co3RuI2
_chemical_formula_sum   'La4 Co3 Ru1 I2'
_cell_volume   265.92573358
_cell_formula_units_Z   1
loop_
 _symmetry_equiv_pos_site_id
 _symmetry_equiv_pos_as_xyz
  1  'x, y, z'
loop_
 _atom_site_type_symbol
 _atom_site_label
 _atom_site_symmetry_multiplicity
 _atom_site_fract_x
 _atom_site_fract_y
 _atom_site_fract_z
 _atom_site_occupancy
  La  La0  1  0.000000  0.000000  0.103051  1
  La  La1  1  0.000000  0.000000  0.897253  1
  La  La2  1  0.000000  0.000000  0.605360  1
  La  La3  1  0.000000  0.000000  0.394166  1
  Co  Co4  1  0.666667  0.333333  0.499748  1
  Co  Co5  1  0.666667  0.333333  0.000035  1
  Co  Co6  1  0.333333  0.666667  0.000035  1
  Ru  Ru7  1  0.333333  0.666667  0.500299  1
  I  I8  1  0.333333  0.666667  0.247375  1
  I  I9  1  0.666667  0.333333  0.752678  1
