# generated using pymatgen
data_NaNdCd(P3Pd10)2
_symmetry_space_group_name_H-M   'P 1'
_cell_length_a   8.65570935
_cell_length_b   8.65570913
_cell_length_c   8.65570900
_cell_angle_alpha   59.99999669
_cell_angle_beta   59.99999753
_cell_angle_gamma   60.00000413
_symmetry_Int_Tables_number   1
_chemical_formula_structural   NaNdCd(P3Pd10)2
_chemical_formula_sum   'Na1 Nd1 Cd1 P6 Pd20'
_cell_volume   458.55661506
_cell_formula_units_Z   1
loop_
 _symmetry_equiv_pos_site_id
 _symmetry_equiv_pos_as_xyz
  1  'x, y, z'
loop_
 _atom_site_type_symbol
 _atom_site_label
 _atom_site_symmetry_multiplicity
 _atom_site_fract_x
 _atom_site_fract_y
 _atom_site_fract_z
 _atom_site_occupancy
  Na  Na0  1  0.000000  0.000000  0.000000  1
  Nd  Nd1  1  0.250000  0.250000  0.250000  1
  Cd  Cd2  1  0.750000  0.750000  0.750000  1
  P  P3  1  0.737949  0.262051  0.262051  1
  P  P4  1  0.737949  0.737949  0.262051  1
  P  P5  1  0.737949  0.262051  0.737949  1
  P  P6  1  0.262051  0.737949  0.262051  1
  P  P7  1  0.262051  0.737949  0.737949  1
  P  P8  1  0.262051  0.262051  0.737949  1
  Pd  Pd9  1  0.344543  0.000864  0.000864  1
  Pd  Pd10  1  0.000864  0.653730  0.344543  1
  Pd  Pd11  1  0.344543  0.000864  0.653730  1
  Pd  Pd12  1  0.000864  0.653730  0.000864  1
  Pd  Pd13  1  0.653730  0.344543  0.000864  1
  Pd  Pd14  1  0.617632  0.617632  0.147104  1
  Pd  Pd15  1  0.388334  0.835000  0.388334  1
  Pd  Pd16  1  0.147104  0.617632  0.617632  1
  Pd  Pd17  1  0.653730  0.000864  0.344543  1
  Pd  Pd18  1  0.000864  0.344543  0.653730  1
  Pd  Pd19  1  0.653730  0.000864  0.000864  1
  Pd  Pd20  1  0.000864  0.000864  0.344543  1
  Pd  Pd21  1  0.617632  0.147104  0.617632  1
  Pd  Pd22  1  0.344543  0.653730  0.000864  1
  Pd  Pd23  1  0.388334  0.388334  0.388334  1
  Pd  Pd24  1  0.617632  0.617632  0.617632  1
  Pd  Pd25  1  0.388334  0.388334  0.835000  1
  Pd  Pd26  1  0.000864  0.000864  0.653730  1
  Pd  Pd27  1  0.835000  0.388334  0.388334  1
  Pd  Pd28  1  0.000864  0.344543  0.000864  1
