# generated using pymatgen
data_GdZr3(InPd2)2
_symmetry_space_group_name_H-M   'P 1'
_cell_length_a   11.95815247
_cell_length_b   11.95815247
_cell_length_c   5.54534200
_cell_angle_alpha   90.00000000
_cell_angle_beta   90.00000000
_cell_angle_gamma   90.76499377
_symmetry_Int_Tables_number   1
_chemical_formula_structural   GdZr3(InPd2)2
_chemical_formula_sum   'Gd1 Zr3 In2 Pd4'
_cell_volume   792.89886685
_cell_formula_units_Z   1
loop_
 _symmetry_equiv_pos_site_id
 _symmetry_equiv_pos_as_xyz
  1  'x, y, z'
loop_
 _atom_site_type_symbol
 _atom_site_label
 _atom_site_symmetry_multiplicity
 _atom_site_fract_x
 _atom_site_fract_y
 _atom_site_fract_z
 _atom_site_occupancy
  Gd  Gd0  1  0.673398  0.173398  0.500000  1
  Zr  Zr1  1  0.325050  0.825050  0.500000  1
  Zr  Zr2  1  0.827218  0.674461  0.500000  1
  Zr  Zr3  1  0.174461  0.327218  0.500000  1
  In  In4  1  0.001548  0.998737  0.000000  1
  In  In5  1  0.498737  0.501548  0.000000  1
  Pd  Pd6  1  0.368412  0.128948  0.000000  1
  Pd  Pd7  1  0.873534  0.373534  0.000000  1
  Pd  Pd8  1  0.128694  0.628694  0.000000  1
  Pd  Pd9  1  0.628948  0.868412  0.000000  1
