# generated using pymatgen
data_La5Sm(Sb3Au2)2
_symmetry_space_group_name_H-M   'P 1'
_cell_length_a   4.66763500
_cell_length_b   4.66763570
_cell_length_c   24.39594900
_cell_angle_alpha   90.00000000
_cell_angle_beta   90.00000000
_cell_angle_gamma   120.00000216
_symmetry_Int_Tables_number   1
_chemical_formula_structural   La5Sm(Sb3Au2)2
_chemical_formula_sum   'La5 Sm1 Sb6 Au4'
_cell_volume   460.30127640
_cell_formula_units_Z   1
loop_
 _symmetry_equiv_pos_site_id
 _symmetry_equiv_pos_as_xyz
  1  'x, y, z'
loop_
 _atom_site_type_symbol
 _atom_site_label
 _atom_site_symmetry_multiplicity
 _atom_site_fract_x
 _atom_site_fract_y
 _atom_site_fract_z
 _atom_site_occupancy
  La  La0  1  0.666667  0.333333  0.924484  1
  La  La1  1  0.333333  0.666667  0.076422  1
  La  La2  1  0.333333  0.666667  0.423578  1
  La  La3  1  0.666667  0.333333  0.575516  1
  La  La4  1  0.666667  0.333333  0.750000  1
  Sm  Sm5  1  0.333333  0.666667  0.250000  1
  Sb  Sb6  1  0.333333  0.666667  0.652994  1
  Sb  Sb7  1  0.000000  0.000000  0.499795  1
  Sb  Sb8  1  0.666667  0.333333  0.346110  1
  Sb  Sb9  1  0.333333  0.666667  0.847006  1
  Sb  Sb10  1  0.666667  0.333333  0.153890  1
  Sb  Sb11  1  0.000000  0.000000  0.000205  1
  Au  Au12  1  0.000000  0.000000  0.813329  1
  Au  Au13  1  0.000000  0.000000  0.189301  1
  Au  Au14  1  0.000000  0.000000  0.310699  1
  Au  Au15  1  0.000000  0.000000  0.686671  1
