# generated using pymatgen
data_Dy6Lu4AlSb5
_symmetry_space_group_name_H-M   'P 1'
_cell_length_a   6.30006000
_cell_length_b   8.85050839
_cell_length_c   8.85878762
_cell_angle_alpha   119.96613068
_cell_angle_beta   89.99910290
_cell_angle_gamma   90.00312786
_symmetry_Int_Tables_number   1
_chemical_formula_structural   Dy6Lu4AlSb5
_chemical_formula_sum   'Dy6 Lu4 Al1 Sb5'
_cell_volume   427.92330972
_cell_formula_units_Z   1
loop_
 _symmetry_equiv_pos_site_id
 _symmetry_equiv_pos_as_xyz
  1  'x, y, z'
loop_
 _atom_site_type_symbol
 _atom_site_label
 _atom_site_symmetry_multiplicity
 _atom_site_fract_x
 _atom_site_fract_y
 _atom_site_fract_z
 _atom_site_occupancy
  Dy  Dy0  1  0.749985  0.247931  0.999998  1
  Dy  Dy1  1  0.750001  0.753263  0.761558  1
  Dy  Dy2  1  0.750015  0.991714  0.238420  1
  Dy  Dy3  1  0.250002  0.755958  0.000005  1
  Dy  Dy4  1  0.250014  0.245344  0.244658  1
  Dy  Dy5  1  0.249990  0.000674  0.755341  1
  Lu  Lu6  1  0.501665  0.338231  0.672868  1
  Lu  Lu7  1  0.501700  0.665379  0.327135  1
  Lu  Lu8  1  0.998310  0.665366  0.327127  1
  Lu  Lu9  1  0.998306  0.338247  0.672864  1
  Al  Al10  1  0.750009  0.602843  0.000001  1
  Sb  Sb11  1  0.749998  0.390685  0.392362  1
  Sb  Sb12  1  0.749994  0.998322  0.607633  1
  Sb  Sb13  1  0.249997  0.394768  0.000010  1
  Sb  Sb14  1  0.250015  0.608649  0.606030  1
  Sb  Sb15  1  0.250001  0.002625  0.393991  1
