# generated using pymatgen
data_Ca2La9In9Pt4
_symmetry_space_group_name_H-M   'P 1'
_cell_length_a   13.68045200
_cell_length_b   13.68045913
_cell_length_c   3.89565400
_cell_angle_alpha   90.00000000
_cell_angle_beta   90.00000000
_cell_angle_gamma   111.80337634
_symmetry_Int_Tables_number   1
_chemical_formula_structural   Ca2La9In9Pt4
_chemical_formula_sum   'Ca2 La9 In9 Pt4'
_cell_volume   676.93432854
_cell_formula_units_Z   1
loop_
 _symmetry_equiv_pos_site_id
 _symmetry_equiv_pos_as_xyz
  1  'x, y, z'
loop_
 _atom_site_type_symbol
 _atom_site_label
 _atom_site_symmetry_multiplicity
 _atom_site_fract_x
 _atom_site_fract_y
 _atom_site_fract_z
 _atom_site_occupancy
  Ca  Ca0  1  0.499942  0.500058  0.500000  1
  Ca  Ca1  1  0.659641  0.340360  0.500000  1
  La  La2  1  0.809461  0.809339  0.500000  1
  La  La3  1  0.190661  0.190539  0.500000  1
  La  La4  1  0.572376  0.918630  0.500000  1
  La  La5  1  0.427395  0.080872  0.500000  1
  La  La6  1  0.919129  0.572605  0.500000  1
  La  La7  1  0.081369  0.427624  0.500000  1
  La  La8  1  0.127386  0.872614  0.500000  1
  La  La9  1  0.872665  0.127335  0.500000  1
  La  La10  1  0.340629  0.659370  0.500000  1
  In  In11  1  0.337996  0.864983  0.000000  1
  In  In12  1  0.660901  0.135901  0.000000  1
  In  In13  1  0.864098  0.339099  0.000000  1
  In  In14  1  0.135018  0.662004  0.000000  1
  In  In15  1  0.574595  0.715501  0.000000  1
  In  In16  1  0.426422  0.284402  0.000000  1
  In  In17  1  0.715599  0.573578  0.000000  1
  In  In18  1  0.284498  0.425405  0.000000  1
  In  In19  1  0.000291  0.999709  0.000000  1
  Pt  Pt20  1  0.745814  0.948958  0.000000  1
  Pt  Pt21  1  0.253882  0.050808  0.000000  1
  Pt  Pt22  1  0.949193  0.746119  0.000000  1
  Pt  Pt23  1  0.051041  0.254185  0.000000  1
