# generated using pymatgen
data_Yb4Dy2Al15Si9Os8
_symmetry_space_group_name_H-M   'P 1'
_cell_length_a   8.66256019
_cell_length_b   8.67796178
_cell_length_c   9.46927000
_cell_angle_alpha   90.00000000
_cell_angle_beta   90.00000000
_cell_angle_gamma   120.07258955
_symmetry_Int_Tables_number   1
_chemical_formula_structural   Yb4Dy2Al15Si9Os8
_chemical_formula_sum   'Yb4 Dy2 Al15 Si9 Os8'
_cell_volume   616.01742334
_cell_formula_units_Z   1
loop_
 _symmetry_equiv_pos_site_id
 _symmetry_equiv_pos_as_xyz
  1  'x, y, z'
loop_
 _atom_site_type_symbol
 _atom_site_label
 _atom_site_symmetry_multiplicity
 _atom_site_fract_x
 _atom_site_fract_y
 _atom_site_fract_z
 _atom_site_occupancy
  Yb  Yb0  1  0.611517  0.807374  0.250000  1
  Yb  Yb1  1  0.388117  0.191152  0.750000  1
  Yb  Yb2  1  0.196097  0.806110  0.250000  1
  Yb  Yb3  1  0.804372  0.193469  0.750000  1
  Dy  Dy4  1  0.192609  0.386550  0.250000  1
  Dy  Dy5  1  0.809877  0.614535  0.750000  1
  Al  Al6  1  0.166751  0.331813  0.577737  1
  Al  Al7  1  0.835404  0.669352  0.419538  1
  Al  Al8  1  0.667528  0.832485  0.576564  1
  Al  Al9  1  0.835404  0.669352  0.080462  1
  Al  Al10  1  0.331216  0.164969  0.420676  1
  Al  Al11  1  0.166751  0.331813  0.922263  1
  Al  Al12  1  0.165311  0.834530  0.577398  1
  Al  Al13  1  0.331216  0.164969  0.079324  1
  Al  Al14  1  0.833920  0.166026  0.421858  1
  Al  Al15  1  0.667528  0.832485  0.923436  1
  Al  Al16  1  0.833920  0.166026  0.078142  1
  Al  Al17  1  0.165311  0.834530  0.922602  1
  Al  Al18  1  0.435739  0.563819  0.750000  1
  Al  Al19  1  0.999721  0.997778  0.250000  1
  Al  Al20  1  0.001371  0.001834  0.750000  1
  Si  Si21  1  0.334252  0.665901  0.043005  1
  Si  Si22  1  0.665823  0.333930  0.957344  1
  Si  Si23  1  0.665823  0.333930  0.542656  1
  Si  Si24  1  0.334252  0.665901  0.456995  1
  Si  Si25  1  0.562007  0.123893  0.250000  1
  Si  Si26  1  0.435121  0.875071  0.750000  1
  Si  Si27  1  0.874837  0.437760  0.250000  1
  Si  Si28  1  0.126362  0.565082  0.750000  1
  Si  Si29  1  0.563534  0.437324  0.250000  1
  Os  Os30  1  0.499890  0.000861  0.000463  1
  Os  Os31  1  0.999055  0.499984  0.000728  1
  Os  Os32  1  0.499890  0.000861  0.499537  1
  Os  Os33  1  0.500979  0.498787  0.006855  1
  Os  Os34  1  0.999055  0.499984  0.499272  1
  Os  Os35  1  0.500979  0.498787  0.493145  1
  Os  Os36  1  0.999233  0.000488  0.999710  1
  Os  Os37  1  0.999233  0.000488  0.500290  1
