# generated using pymatgen
data_NdSm7Te12(MoO12)4
_symmetry_space_group_name_H-M   'P 1'
_cell_length_a   5.35864118
_cell_length_b   11.33382673
_cell_length_c   18.26502783
_cell_angle_alpha   89.96871614
_cell_angle_beta   89.98522224
_cell_angle_gamma   90.02630659
_symmetry_Int_Tables_number   1
_chemical_formula_structural   NdSm7Te12(MoO12)4
_chemical_formula_sum   'Nd1 Sm7 Te12 Mo4 O48'
_cell_volume   1109.30624936
_cell_formula_units_Z   1
loop_
 _symmetry_equiv_pos_site_id
 _symmetry_equiv_pos_as_xyz
  1  'x, y, z'
loop_
 _atom_site_type_symbol
 _atom_site_label
 _atom_site_symmetry_multiplicity
 _atom_site_fract_x
 _atom_site_fract_y
 _atom_site_fract_z
 _atom_site_occupancy
  Nd  Nd0  1  0.245335  0.578041  0.438317  1
  Sm  Sm1  1  0.254879  0.922264  0.939148  1
  Sm  Sm2  1  0.754725  0.422415  0.561878  1
  Sm  Sm3  1  0.745009  0.422146  0.060868  1
  Sm  Sm4  1  0.745318  0.077612  0.060819  1
  Sm  Sm5  1  0.756145  0.077821  0.561658  1
  Sm  Sm6  1  0.243412  0.923350  0.438940  1
  Sm  Sm7  1  0.254988  0.577759  0.939138  1
  Te  Te8  1  0.227121  0.587152  0.166659  1
  Te  Te9  1  0.715283  0.751019  0.546926  1
  Te  Te10  1  0.216943  0.249985  0.953909  1
  Te  Te11  1  0.728119  0.410359  0.331857  1
  Te  Te12  1  0.783185  0.749965  0.046025  1
  Te  Te13  1  0.272085  0.587606  0.668086  1
  Te  Te14  1  0.273051  0.913083  0.667608  1
  Te  Te15  1  0.772833  0.087281  0.833264  1
  Te  Te16  1  0.772793  0.412751  0.833308  1
  Te  Te17  1  0.227319  0.912689  0.166695  1
  Te  Te18  1  0.725159  0.085976  0.332340  1
  Te  Te19  1  0.283970  0.249582  0.454265  1
  Mo  Mo20  1  0.742039  0.751986  0.320701  1
  Mo  Mo21  1  0.257797  0.249859  0.678350  1
  Mo  Mo22  1  0.758100  0.750053  0.822458  1
  Mo  Mo23  1  0.241733  0.249598  0.177465  1
  O  O24  1  0.514186  0.249851  0.535746  1
  O  O25  1  0.954294  0.880953  0.830601  1
  O  O26  1  0.602424  0.616088  0.009603  1
  O  O27  1  0.356508  0.249212  0.267425  1
  O  O28  1  0.985784  0.249967  0.035210  1
  O  O29  1  0.965518  0.987383  0.657435  1
  O  O30  1  0.045229  0.118815  0.169121  1
  O  O31  1  0.397580  0.116168  0.990399  1
  O  O32  1  0.542804  0.881917  0.329044  1
  O  O33  1  0.418930  0.934927  0.572087  1
  O  O34  1  0.521648  0.249864  0.119589  1
  O  O35  1  0.602476  0.883785  0.009555  1
  O  O36  1  0.019077  0.752199  0.379613  1
  O  O37  1  0.582549  0.065628  0.428483  1
  O  O38  1  0.465479  0.487068  0.843706  1
  O  O39  1  0.145630  0.750121  0.641691  1
  O  O40  1  0.397607  0.383838  0.990379  1
  O  O41  1  0.418273  0.566253  0.572669  1
  O  O42  1  0.548255  0.620959  0.329363  1
  O  O43  1  0.045656  0.380411  0.169231  1
  O  O44  1  0.035708  0.484877  0.341172  1
  O  O45  1  0.643051  0.749966  0.732535  1
  O  O46  1  0.918061  0.434059  0.928910  1
  O  O47  1  0.900439  0.884028  0.511100  1
  O  O48  1  0.142825  0.249984  0.768297  1
  O  O49  1  0.032935  0.012121  0.342770  1
  O  O50  1  0.534388  0.512802  0.156301  1
  O  O51  1  0.081898  0.565917  0.071037  1
  O  O52  1  0.454885  0.380355  0.670070  1
  O  O53  1  0.102840  0.115531  0.490479  1
  O  O54  1  0.465432  0.012898  0.843686  1
  O  O55  1  0.101204  0.382640  0.490724  1
  O  O56  1  0.534685  0.987133  0.156201  1
  O  O57  1  0.858424  0.752087  0.230841  1
  O  O58  1  0.454287  0.119199  0.670381  1
  O  O59  1  0.954516  0.619294  0.830575  1
  O  O60  1  0.978211  0.249603  0.620214  1
  O  O61  1  0.918145  0.065973  0.928875  1
  O  O62  1  0.892605  0.616350  0.510170  1
  O  O63  1  0.856144  0.248614  0.357280  1
  O  O64  1  0.645668  0.249989  0.859201  1
  O  O65  1  0.478371  0.749989  0.880418  1
  O  O66  1  0.354710  0.749869  0.140902  1
  O  O67  1  0.014115  0.749964  0.964633  1
  O  O68  1  0.965675  0.512197  0.657434  1
  O  O69  1  0.082049  0.933762  0.071028  1
  O  O70  1  0.585537  0.432071  0.427829  1
  O  O71  1  0.485940  0.752964  0.465306  1
