# generated using pymatgen
data_TbHo15Cd4Ru3Rh
_symmetry_space_group_name_H-M   'P 1'
_cell_length_a   9.57521501
_cell_length_b   9.57521501
_cell_length_c   9.57609048
_cell_angle_alpha   60.22567014
_cell_angle_beta   60.22566719
_cell_angle_gamma   60.21364117
_symmetry_Int_Tables_number   1
_chemical_formula_structural   TbHo15Cd4Ru3Rh
_chemical_formula_sum   'Tb1 Ho15 Cd4 Ru3 Rh1'
_cell_volume   623.94219748
_cell_formula_units_Z   1
loop_
 _symmetry_equiv_pos_site_id
 _symmetry_equiv_pos_as_xyz
  1  'x, y, z'
loop_
 _atom_site_type_symbol
 _atom_site_label
 _atom_site_symmetry_multiplicity
 _atom_site_fract_x
 _atom_site_fract_y
 _atom_site_fract_z
 _atom_site_occupancy
  Tb  Tb0  1  0.938102  0.938102  0.561400  1
  Ho  Ho1  1  0.562430  0.562430  0.935829  1
  Ho  Ho2  1  0.688895  0.688895  0.311207  1
  Ho  Ho3  1  0.151655  0.543526  0.151525  1
  Ho  Ho4  1  0.688642  0.311561  0.688924  1
  Ho  Ho5  1  0.152942  0.152942  0.152407  1
  Ho  Ho6  1  0.543526  0.151655  0.151525  1
  Ho  Ho7  1  0.690292  0.311618  0.310917  1
  Ho  Ho8  1  0.151795  0.151795  0.543406  1
  Ho  Ho9  1  0.311618  0.690292  0.310917  1
  Ho  Ho10  1  0.311561  0.688642  0.688924  1
  Ho  Ho11  1  0.935833  0.561840  0.562477  1
  Ho  Ho12  1  0.938078  0.560980  0.938495  1
  Ho  Ho13  1  0.561840  0.935833  0.562477  1
  Ho  Ho14  1  0.560980  0.938078  0.938495  1
  Ho  Ho15  1  0.311157  0.311157  0.690524  1
  Cd  Cd16  1  0.919807  0.919807  0.240332  1
  Cd  Cd17  1  0.240912  0.919819  0.919854  1
  Cd  Cd18  1  0.919282  0.919282  0.920047  1
  Cd  Cd19  1  0.919819  0.240912  0.919854  1
  Ru  Ru20  1  0.359855  0.359855  0.921434  1
  Ru  Ru21  1  0.360167  0.921450  0.359799  1
  Ru  Ru22  1  0.921450  0.360167  0.359799  1
  Rh  Rh23  1  0.359358  0.359358  0.359427  1
