# generated using pymatgen
data_CaY3ZrRh5
_symmetry_space_group_name_H-M   'P 1'
_cell_length_a   3.40483600
_cell_length_b   3.40483600
_cell_length_c   17.26630700
_cell_angle_alpha   90.00000000
_cell_angle_beta   90.00000000
_cell_angle_gamma   90.00000000
_symmetry_Int_Tables_number   1
_chemical_formula_structural   CaY3ZrRh5
_chemical_formula_sum   'Ca1 Y3 Zr1 Rh5'
_cell_volume   200.16671178
_cell_formula_units_Z   1
loop_
 _symmetry_equiv_pos_site_id
 _symmetry_equiv_pos_as_xyz
  1  'x, y, z'
loop_
 _atom_site_type_symbol
 _atom_site_label
 _atom_site_symmetry_multiplicity
 _atom_site_fract_x
 _atom_site_fract_y
 _atom_site_fract_z
 _atom_site_occupancy
  Ca  Ca0  1  0.000000  0.000000  0.200223  1
  Y  Y1  1  0.000000  0.000000  0.398847  1
  Y  Y2  1  0.000000  0.000000  0.600135  1
  Y  Y3  1  0.000000  0.000000  0.800600  1
  Zr  Zr4  1  0.000000  0.000000  0.000205  1
  Rh  Rh5  1  0.500000  0.500000  0.082632  1
  Rh  Rh6  1  0.500000  0.500000  0.305619  1
  Rh  Rh7  1  0.500000  0.500000  0.501808  1
  Rh  Rh8  1  0.500000  0.500000  0.702672  1
  Rh  Rh9  1  0.500000  0.500000  0.907258  1
