# generated using pymatgen
data_Dy2Ho4VFeB14
_symmetry_space_group_name_H-M   'P 1'
_cell_length_a   8.06109050
_cell_length_b   8.06109060
_cell_length_c   9.31489955
_cell_angle_alpha   90.03838814
_cell_angle_beta   89.96161148
_cell_angle_gamma   155.49761029
_symmetry_Int_Tables_number   1
_chemical_formula_structural   Dy2Ho4VFeB14
_chemical_formula_sum   'Dy2 Ho4 V1 Fe1 B14'
_cell_volume   251.03390165
_cell_formula_units_Z   1
loop_
 _symmetry_equiv_pos_site_id
 _symmetry_equiv_pos_as_xyz
  1  'x, y, z'
loop_
 _atom_site_type_symbol
 _atom_site_label
 _atom_site_symmetry_multiplicity
 _atom_site_fract_x
 _atom_site_fract_y
 _atom_site_fract_z
 _atom_site_occupancy
  Dy  Dy0  1  0.105227  0.894773  0.936488  1
  Dy  Dy1  1  0.244056  0.755944  0.250015  1
  Ho  Ho2  1  0.893927  0.106073  0.442073  1
  Ho  Ho3  1  0.105014  0.894986  0.562954  1
  Ho  Ho4  1  0.893960  0.106040  0.058002  1
  Ho  Ho5  1  0.758678  0.241322  0.750009  1
  V  V6  1  0.052431  0.947569  0.250160  1
  Fe  Fe7  1  0.945362  0.054638  0.749865  1
  B  B8  1  0.727955  0.272045  0.469356  1
  B  B9  1  0.273206  0.726794  0.534931  1
  B  B10  1  0.728153  0.271847  0.030869  1
  B  B11  1  0.273455  0.726545  0.965154  1
  B  B12  1  0.632931  0.367069  0.148997  1
  B  B13  1  0.370488  0.629512  0.847016  1
  B  B14  1  0.632887  0.367113  0.351378  1
  B  B15  1  0.370503  0.629497  0.652994  1
  B  B16  1  0.520281  0.479719  0.093423  1
  B  B17  1  0.478019  0.521981  0.902308  1
  B  B18  1  0.520354  0.479646  0.406855  1
  B  B19  1  0.478096  0.521904  0.597382  1
  B  B20  1  0.456957  0.543043  0.250086  1
  B  B21  1  0.538064  0.461936  0.749685  1
