# generated using pymatgen
data_HoLu(FeB)8
_symmetry_space_group_name_H-M   'P 1'
_cell_length_a   6.91054900
_cell_length_b   6.91054900
_cell_length_c   3.82753000
_cell_angle_alpha   90.00000000
_cell_angle_beta   90.00000000
_cell_angle_gamma   90.00000000
_symmetry_Int_Tables_number   1
_chemical_formula_structural   HoLu(FeB)8
_chemical_formula_sum   'Ho1 Lu1 Fe8 B8'
_cell_volume   182.78632651
_cell_formula_units_Z   1
loop_
 _symmetry_equiv_pos_site_id
 _symmetry_equiv_pos_as_xyz
  1  'x, y, z'
loop_
 _atom_site_type_symbol
 _atom_site_label
 _atom_site_symmetry_multiplicity
 _atom_site_fract_x
 _atom_site_fract_y
 _atom_site_fract_z
 _atom_site_occupancy
  Ho  Ho0  1  0.500000  0.500000  0.500000  1
  Lu  Lu1  1  0.000000  0.000000  0.000000  1
  Fe  Fe2  1  0.868336  0.383834  0.110126  1
  Fe  Fe3  1  0.131664  0.616166  0.110126  1
  Fe  Fe4  1  0.884687  0.632651  0.610246  1
  Fe  Fe5  1  0.115313  0.367349  0.610246  1
  Fe  Fe6  1  0.632651  0.115313  0.389754  1
  Fe  Fe7  1  0.367349  0.884687  0.389754  1
  Fe  Fe8  1  0.616166  0.868336  0.889874  1
  Fe  Fe9  1  0.383834  0.131664  0.889874  1
  B  B10  1  0.332344  0.802410  0.893235  1
  B  B11  1  0.667656  0.197590  0.893235  1
  B  B12  1  0.300671  0.166619  0.392626  1
  B  B13  1  0.699329  0.833381  0.392626  1
  B  B14  1  0.166619  0.699329  0.607374  1
  B  B15  1  0.833381  0.300671  0.607374  1
  B  B16  1  0.197590  0.332344  0.106765  1
  B  B17  1  0.802410  0.667656  0.106765  1
