# generated using pymatgen
data_U2VIr3
_symmetry_space_group_name_H-M   'P 1'
_cell_length_a   5.56653996
_cell_length_b   5.07674359
_cell_length_c   5.56653800
_cell_angle_alpha   56.75369947
_cell_angle_beta   59.99999974
_cell_angle_gamma   56.75370736
_symmetry_Int_Tables_number   1
_chemical_formula_structural   U2VIr3
_chemical_formula_sum   'U2 V1 Ir3'
_cell_volume   105.46020383
_cell_formula_units_Z   1
loop_
 _symmetry_equiv_pos_site_id
 _symmetry_equiv_pos_as_xyz
  1  'x, y, z'
loop_
 _atom_site_type_symbol
 _atom_site_label
 _atom_site_symmetry_multiplicity
 _atom_site_fract_x
 _atom_site_fract_y
 _atom_site_fract_z
 _atom_site_occupancy
  U  U0  1  0.740705  0.777885  0.740705  1
  U  U1  1  0.509295  0.472115  0.509295  1
  V  V2  1  0.125000  0.625000  0.125000  1
  Ir  Ir3  1  0.125000  0.125000  0.625000  1
  Ir  Ir4  1  0.625000  0.125000  0.125000  1
  Ir  Ir5  1  0.125000  0.125000  0.125000  1
