# generated using pymatgen
data_YHoFeCoSi2
_symmetry_space_group_name_H-M   'P 1'
_cell_length_a   3.97791000
_cell_length_b   3.97585900
_cell_length_c   6.58406700
_cell_angle_alpha   90.00000000
_cell_angle_beta   90.00000000
_cell_angle_gamma   90.00000000
_symmetry_Int_Tables_number   1
_chemical_formula_structural   YHoFeCoSi2
_chemical_formula_sum   'Y1 Ho1 Fe1 Co1 Si2'
_cell_volume   104.13103111
_cell_formula_units_Z   1
loop_
 _symmetry_equiv_pos_site_id
 _symmetry_equiv_pos_as_xyz
  1  'x, y, z'
loop_
 _atom_site_type_symbol
 _atom_site_label
 _atom_site_symmetry_multiplicity
 _atom_site_fract_x
 _atom_site_fract_y
 _atom_site_fract_z
 _atom_site_occupancy
  Y  Y0  1  0.000000  0.500000  0.320611  1
  Ho  Ho1  1  0.500000  0.000000  0.683530  1
  Fe  Fe2  1  0.500000  0.500000  0.998558  1
  Co  Co3  1  0.000000  0.000000  0.998580  1
  Si  Si4  1  0.000000  0.500000  0.815016  1
  Si  Si5  1  0.500000  0.000000  0.183705  1
