# generated using pymatgen
data_Pa2IrPdPb
_symmetry_space_group_name_H-M   'P 1'
_cell_length_a   7.87163600
_cell_length_b   7.89141200
_cell_length_c   3.64513400
_cell_angle_alpha   90.00000000
_cell_angle_beta   90.00000000
_cell_angle_gamma   90.00000000
_symmetry_Int_Tables_number   1
_chemical_formula_structural   Pa2IrPdPb
_chemical_formula_sum   'Pa4 Ir2 Pd2 Pb2'
_cell_volume   226.42961042
_cell_formula_units_Z   2
loop_
 _symmetry_equiv_pos_site_id
 _symmetry_equiv_pos_as_xyz
  1  'x, y, z'
loop_
 _atom_site_type_symbol
 _atom_site_label
 _atom_site_symmetry_multiplicity
 _atom_site_fract_x
 _atom_site_fract_y
 _atom_site_fract_z
 _atom_site_occupancy
  Pa  Pa0  1  0.656676  0.171923  0.500000  1
  Pa  Pa1  1  0.183960  0.328913  0.500000  1
  Pa  Pa2  1  0.843324  0.671923  0.500000  1
  Pa  Pa3  1  0.316040  0.828913  0.500000  1
  Ir  Ir4  1  0.375259  0.124760  0.000000  1
  Ir  Ir5  1  0.124741  0.624760  0.000000  1
  Pd  Pd6  1  0.631169  0.866444  0.000000  1
  Pd  Pd7  1  0.868831  0.366444  0.000000  1
  Pb  Pb8  1  0.994510  0.007959  0.000000  1
  Pb  Pb9  1  0.505490  0.507959  0.000000  1
