# generated using pymatgen
data_TbTm5C2Br7
_symmetry_space_group_name_H-M   'P 1'
_cell_length_a   10.36664040
_cell_length_b   10.36664077
_cell_length_c   11.79213802
_cell_angle_alpha   57.57853301
_cell_angle_beta   57.57853263
_cell_angle_gamma   20.91475263
_symmetry_Int_Tables_number   1
_chemical_formula_structural   TbTm5C2Br7
_chemical_formula_sum   'Tb1 Tm5 C2 Br7'
_cell_volume   379.23964625
_cell_formula_units_Z   1
loop_
 _symmetry_equiv_pos_site_id
 _symmetry_equiv_pos_as_xyz
  1  'x, y, z'
loop_
 _atom_site_type_symbol
 _atom_site_label
 _atom_site_symmetry_multiplicity
 _atom_site_fract_x
 _atom_site_fract_y
 _atom_site_fract_z
 _atom_site_occupancy
  Tb  Tb0  1  0.769715  0.769715  0.162465  1
  Tm  Tm1  1  0.230780  0.230780  0.834296  1
  Tm  Tm2  1  0.311674  0.311674  0.367199  1
  Tm  Tm3  1  0.132948  0.132948  0.441353  1
  Tm  Tm4  1  0.867303  0.867303  0.558531  1
  Tm  Tm5  1  0.687905  0.687905  0.633052  1
  C  C6  1  0.279697  0.279697  0.606039  1
  C  C7  1  0.719701  0.719701  0.397423  1
  Br  Br8  1  0.160864  0.160864  0.165099  1
  Br  Br9  1  0.836087  0.836087  0.834870  1
  Br  Br10  1  0.058974  0.058974  0.718728  1
  Br  Br11  1  0.940852  0.940852  0.282110  1
  Br  Br12  1  0.499787  0.499787  0.500300  1
  Br  Br13  1  0.392339  0.392339  0.067989  1
  Br  Br14  1  0.611375  0.611375  0.930546  1
