# generated using pymatgen
data_Ta3Si4MoIr4
_symmetry_space_group_name_H-M   'P 1'
_cell_length_a   3.82350800
_cell_length_b   6.39609091
_cell_length_c   7.28164531
_cell_angle_alpha   89.69262023
_cell_angle_beta   90.00000000
_cell_angle_gamma   90.00000000
_symmetry_Int_Tables_number   1
_chemical_formula_structural   Ta3Si4MoIr4
_chemical_formula_sum   'Ta3 Si4 Mo1 Ir4'
_cell_volume   178.07374900
_cell_formula_units_Z   1
loop_
 _symmetry_equiv_pos_site_id
 _symmetry_equiv_pos_as_xyz
  1  'x, y, z'
loop_
 _atom_site_type_symbol
 _atom_site_label
 _atom_site_symmetry_multiplicity
 _atom_site_fract_x
 _atom_site_fract_y
 _atom_site_fract_z
 _atom_site_occupancy
  Ta  Ta0  1  0.250000  0.973804  0.329745  1
  Ta  Ta1  1  0.750000  0.023039  0.672928  1
  Ta  Ta2  1  0.250000  0.476901  0.169390  1
  Si  Si3  1  0.250000  0.238383  0.874076  1
  Si  Si4  1  0.250000  0.725101  0.630192  1
  Si  Si5  1  0.750000  0.765293  0.118857  1
  Si  Si6  1  0.750000  0.268262  0.376049  1
  Mo  Mo7  1  0.750000  0.527143  0.830509  1
  Ir  Ir8  1  0.250000  0.856837  0.936849  1
  Ir  Ir9  1  0.250000  0.351129  0.561983  1
  Ir  Ir10  1  0.750000  0.647378  0.434201  1
  Ir  Ir11  1  0.750000  0.146730  0.065221  1
