# generated using pymatgen
data_Er3Mg3SnHg2
_symmetry_space_group_name_H-M   'P 1'
_cell_length_a   7.60381800
_cell_length_b   7.60381889
_cell_length_c   4.39130600
_cell_angle_alpha   90.00000000
_cell_angle_beta   90.00000000
_cell_angle_gamma   120.00000484
_symmetry_Int_Tables_number   1
_chemical_formula_structural   Er3Mg3SnHg2
_chemical_formula_sum   'Er3 Mg3 Sn1 Hg2'
_cell_volume   219.88104330
_cell_formula_units_Z   1
loop_
 _symmetry_equiv_pos_site_id
 _symmetry_equiv_pos_as_xyz
  1  'x, y, z'
loop_
 _atom_site_type_symbol
 _atom_site_label
 _atom_site_symmetry_multiplicity
 _atom_site_fract_x
 _atom_site_fract_y
 _atom_site_fract_z
 _atom_site_occupancy
  Er  Er0  1  0.414550  0.990993  0.000000  1
  Er  Er1  1  0.009007  0.423557  0.000000  1
  Er  Er2  1  0.576443  0.585450  0.000000  1
  Mg  Mg3  1  0.750651  0.994493  0.500000  1
  Mg  Mg4  1  0.243843  0.249350  0.500000  1
  Mg  Mg5  1  0.005507  0.756158  0.500000  1
  Sn  Sn6  1  0.666666  0.333333  0.500000  1
  Hg  Hg7  1  0.000000  0.000000  0.000000  1
  Hg  Hg8  1  0.333334  0.666667  0.500000  1
