# generated using pymatgen
data_Y2PaIr3
_symmetry_space_group_name_H-M   'P 1'
_cell_length_a   5.78238585
_cell_length_b   5.78238647
_cell_length_c   5.41101856
_cell_angle_alpha   57.70248181
_cell_angle_beta   57.70247555
_cell_angle_gamma   60.00000300
_symmetry_Int_Tables_number   1
_chemical_formula_structural   Y2PaIr3
_chemical_formula_sum   'Y2 Pa1 Ir3'
_cell_volume   123.30741171
_cell_formula_units_Z   1
loop_
 _symmetry_equiv_pos_site_id
 _symmetry_equiv_pos_as_xyz
  1  'x, y, z'
loop_
 _atom_site_type_symbol
 _atom_site_label
 _atom_site_symmetry_multiplicity
 _atom_site_fract_x
 _atom_site_fract_y
 _atom_site_fract_z
 _atom_site_occupancy
  Y  Y0  1  0.501389  0.501389  0.495833  1
  Y  Y1  1  0.748611  0.748611  0.754167  1
  Pa  Pa2  1  0.125000  0.125000  0.625000  1
  Ir  Ir3  1  0.625000  0.125000  0.125000  1
  Ir  Ir4  1  0.125000  0.125000  0.125000  1
  Ir  Ir5  1  0.125000  0.625000  0.125000  1
