# generated using pymatgen
data_Y8Zn(Si4Pt)3
_symmetry_space_group_name_H-M   'P 1'
_cell_length_a   8.13371900
_cell_length_b   8.13371901
_cell_length_c   8.20385900
_cell_angle_alpha   90.00000000
_cell_angle_beta   90.00000000
_cell_angle_gamma   120.00000404
_symmetry_Int_Tables_number   1
_chemical_formula_structural   Y8Zn(Si4Pt)3
_chemical_formula_sum   'Y8 Zn1 Si12 Pt3'
_cell_volume   470.03168073
_cell_formula_units_Z   1
loop_
 _symmetry_equiv_pos_site_id
 _symmetry_equiv_pos_as_xyz
  1  'x, y, z'
loop_
 _atom_site_type_symbol
 _atom_site_label
 _atom_site_symmetry_multiplicity
 _atom_site_fract_x
 _atom_site_fract_y
 _atom_site_fract_z
 _atom_site_occupancy
  Y  Y0  1  0.000000  0.000000  0.250053  1
  Y  Y1  1  0.000000  0.000000  0.749937  1
  Y  Y2  1  0.001663  0.500830  0.249164  1
  Y  Y3  1  0.499170  0.500830  0.249164  1
  Y  Y4  1  0.499798  0.999595  0.750873  1
  Y  Y5  1  0.499170  0.998337  0.249164  1
  Y  Y6  1  0.499798  0.500202  0.750873  1
  Y  Y7  1  0.000405  0.500202  0.750873  1
  Zn  Zn8  1  0.666667  0.333333  0.497682  1
  Si  Si9  1  0.165867  0.331736  0.000855  1
  Si  Si10  1  0.668264  0.834133  0.000855  1
  Si  Si11  1  0.166742  0.333484  0.499832  1
  Si  Si12  1  0.331571  0.165785  0.999025  1
  Si  Si13  1  0.165867  0.834133  0.000855  1
  Si  Si14  1  0.666516  0.833258  0.499832  1
  Si  Si15  1  0.834215  0.668429  0.999025  1
  Si  Si16  1  0.330854  0.165427  0.500317  1
  Si  Si17  1  0.166742  0.833258  0.499832  1
  Si  Si18  1  0.834573  0.669146  0.500317  1
  Si  Si19  1  0.834215  0.165785  0.999025  1
  Si  Si20  1  0.834573  0.165427  0.500317  1
  Pt  Pt21  1  0.333333  0.666667  0.999157  1
  Pt  Pt22  1  0.333333  0.666667  0.501578  1
  Pt  Pt23  1  0.666667  0.333333  0.001398  1
