# generated using pymatgen
data_Dy4Tm(GaSb)2
_symmetry_space_group_name_H-M   'P 1'
_cell_length_a   8.63819581
_cell_length_b   8.63819656
_cell_length_c   7.88221000
_cell_angle_alpha   90.00000000
_cell_angle_beta   90.00000000
_cell_angle_gamma   125.69702844
_symmetry_Int_Tables_number   1
_chemical_formula_structural   Dy4Tm(GaSb)2
_chemical_formula_sum   'Dy8 Tm2 Ga4 Sb4'
_cell_volume   477.65135336
_cell_formula_units_Z   2
loop_
 _symmetry_equiv_pos_site_id
 _symmetry_equiv_pos_as_xyz
  1  'x, y, z'
loop_
 _atom_site_type_symbol
 _atom_site_label
 _atom_site_symmetry_multiplicity
 _atom_site_fract_x
 _atom_site_fract_y
 _atom_site_fract_z
 _atom_site_occupancy
  Dy  Dy0  1  0.039543  0.301311  0.331830  1
  Dy  Dy1  1  0.960457  0.698689  0.668170  1
  Dy  Dy2  1  0.460457  0.198689  0.831830  1
  Dy  Dy3  1  0.801311  0.539543  0.168170  1
  Dy  Dy4  1  0.539543  0.801311  0.168170  1
  Dy  Dy5  1  0.198689  0.460457  0.831830  1
  Dy  Dy6  1  0.698689  0.960457  0.668170  1
  Dy  Dy7  1  0.301311  0.039543  0.331830  1
  Tm  Tm8  1  0.000000  0.000000  0.000000  1
  Tm  Tm9  1  0.500000  0.500000  0.500000  1
  Ga  Ga10  1  0.375777  0.375777  0.123557  1
  Ga  Ga11  1  0.624223  0.624223  0.876443  1
  Ga  Ga12  1  0.124223  0.124223  0.623557  1
  Ga  Ga13  1  0.875777  0.875777  0.376443  1
  Sb  Sb14  1  0.795315  0.204685  0.000000  1
  Sb  Sb15  1  0.204685  0.795315  0.000000  1
  Sb  Sb16  1  0.704685  0.295315  0.500000  1
  Sb  Sb17  1  0.295315  0.704685  0.500000  1
