# generated using pymatgen
data_Ca2TbYb(Si3Ni5)4
_symmetry_space_group_name_H-M   'P 1'
_cell_length_a   18.73904222
_cell_length_b   3.78545600
_cell_length_c   6.63728373
_cell_angle_alpha   90.00000000
_cell_angle_beta   90.21893057
_cell_angle_gamma   90.00000000
_symmetry_Int_Tables_number   1
_chemical_formula_structural   Ca2TbYb(Si3Ni5)4
_chemical_formula_sum   'Ca2 Tb1 Yb1 Si12 Ni20'
_cell_volume   470.81772579
_cell_formula_units_Z   1
loop_
 _symmetry_equiv_pos_site_id
 _symmetry_equiv_pos_as_xyz
  1  'x, y, z'
loop_
 _atom_site_type_symbol
 _atom_site_label
 _atom_site_symmetry_multiplicity
 _atom_site_fract_x
 _atom_site_fract_y
 _atom_site_fract_z
 _atom_site_occupancy
  Ca  Ca0  1  0.142698  0.250000  0.876858  1
  Ca  Ca1  1  0.357335  0.750000  0.376950  1
  Tb  Tb2  1  0.643406  0.250000  0.625128  1
  Yb  Yb3  1  0.856488  0.750000  0.122244  1
  Si  Si4  1  0.913595  0.250000  0.418806  1
  Si  Si5  1  0.413844  0.250000  0.079036  1
  Si  Si6  1  0.085704  0.750000  0.578626  1
  Si  Si7  1  0.586328  0.750000  0.921911  1
  Si  Si8  1  0.737800  0.250000  0.120087  1
  Si  Si9  1  0.238185  0.250000  0.377728  1
  Si  Si10  1  0.262038  0.750000  0.877691  1
  Si  Si11  1  0.762515  0.750000  0.620854  1
  Si  Si12  1  0.925740  0.250000  0.844258  1
  Si  Si13  1  0.425700  0.250000  0.657071  1
  Si  Si14  1  0.074354  0.750000  0.156949  1
  Si  Si15  1  0.574074  0.750000  0.345014  1
  Ni  Ni16  1  0.801193  0.250000  0.814205  1
  Ni  Ni17  1  0.300150  0.250000  0.686535  1
  Ni  Ni18  1  0.199672  0.750000  0.186134  1
  Ni  Ni19  1  0.699315  0.750000  0.313247  1
  Ni  Ni20  1  0.995398  0.250000  0.134335  1
  Ni  Ni21  1  0.495606  0.250000  0.367135  1
  Ni  Ni22  1  0.003848  0.750000  0.866770  1
  Ni  Ni23  1  0.505093  0.750000  0.635183  1
  Ni  Ni24  1  0.515323  0.250000  0.886503  1
  Ni  Ni25  1  0.015020  0.250000  0.614071  1
  Ni  Ni26  1  0.484677  0.750000  0.115336  1
  Ni  Ni27  1  0.983992  0.750000  0.383610  1
  Ni  Ni28  1  0.615490  0.250000  0.144618  1
  Ni  Ni29  1  0.116128  0.250000  0.359328  1
  Ni  Ni30  1  0.384193  0.750000  0.857534  1
  Ni  Ni31  1  0.884326  0.750000  0.642242  1
  Ni  Ni32  1  0.793224  0.250000  0.429177  1
  Ni  Ni33  1  0.292828  0.250000  0.067127  1
  Ni  Ni34  1  0.206700  0.750000  0.566710  1
  Ni  Ni35  1  0.708021  0.750000  0.930987  1
