# generated using pymatgen
data_Rb8Hf3Zr3BI20
_symmetry_space_group_name_H-M   'P 1'
_cell_length_a   12.91092820
_cell_length_b   12.90558081
_cell_length_c   12.90090811
_cell_angle_alpha   60.03939176
_cell_angle_beta   59.99825460
_cell_angle_gamma   59.96234829
_symmetry_Int_Tables_number   1
_chemical_formula_structural   Rb8Hf3Zr3BI20
_chemical_formula_sum   'Rb8 Hf3 Zr3 B1 I20'
_cell_volume   1519.98706969
_cell_formula_units_Z   1
loop_
 _symmetry_equiv_pos_site_id
 _symmetry_equiv_pos_as_xyz
  1  'x, y, z'
loop_
 _atom_site_type_symbol
 _atom_site_label
 _atom_site_symmetry_multiplicity
 _atom_site_fract_x
 _atom_site_fract_y
 _atom_site_fract_z
 _atom_site_occupancy
  Rb  Rb0  1  0.361854  0.361871  0.361354  1
  Rb  Rb1  1  0.638035  0.638547  0.638540  1
  Rb  Rb2  1  0.361453  0.361965  0.915123  1
  Rb  Rb3  1  0.361354  0.914922  0.361854  1
  Rb  Rb4  1  0.638129  0.638146  0.085078  1
  Rb  Rb5  1  0.638540  0.084877  0.638035  1
  Rb  Rb6  1  0.915123  0.361460  0.361453  1
  Rb  Rb7  1  0.085078  0.638646  0.638129  1
  Hf  Hf8  1  0.871279  0.128721  0.871279  1
  Hf  Hf9  1  0.128170  0.127338  0.872662  1
  Hf  Hf10  1  0.872662  0.871830  0.128170  1
  Zr  Zr11  1  0.870929  0.129071  0.129868  1
  Zr  Zr12  1  0.129868  0.870132  0.870929  1
  Zr  Zr13  1  0.128578  0.871422  0.128578  1
  B  B14  1  0.998415  0.001585  0.998415  1
  I  I15  1  0.315393  0.002420  0.997580  1
  I  I16  1  0.686950  0.999943  0.000057  1
  I  I17  1  0.000057  0.313050  0.686950  1
  I  I18  1  0.997580  0.684607  0.315393  1
  I  I19  1  0.002461  0.315487  0.997533  1
  I  I20  1  0.684513  0.997539  0.315481  1
  I  I21  1  0.997533  0.684519  0.002461  1
  I  I22  1  0.315481  0.002467  0.684513  1
  I  I23  1  0.000044  0.999956  0.317960  1
  I  I24  1  0.997597  0.002403  0.684407  1
  I  I25  1  0.684407  0.315593  0.997597  1
  I  I26  1  0.317960  0.682040  0.000044  1
  I  I27  1  0.691538  0.308462  0.308064  1
  I  I28  1  0.308064  0.691936  0.691538  1
  I  I29  1  0.308306  0.691694  0.308306  1
  I  I30  1  0.692978  0.307022  0.692978  1
  I  I31  1  0.306856  0.307295  0.692705  1
  I  I32  1  0.692705  0.693144  0.306856  1
  I  I33  1  0.250056  0.249944  0.250056  1
  I  I34  1  0.750056  0.749944  0.750056  1
