# generated using pymatgen
data_SmYGa2(BRh3)2
_symmetry_space_group_name_H-M   'P 1'
_cell_length_a   5.52585600
_cell_length_b   5.52585542
_cell_length_c   7.01124600
_cell_angle_alpha   90.00000000
_cell_angle_beta   90.00000000
_cell_angle_gamma   120.00000349
_symmetry_Int_Tables_number   1
_chemical_formula_structural   SmYGa2(BRh3)2
_chemical_formula_sum   'Sm1 Y1 Ga2 B2 Rh6'
_cell_volume   185.40647730
_cell_formula_units_Z   1
loop_
 _symmetry_equiv_pos_site_id
 _symmetry_equiv_pos_as_xyz
  1  'x, y, z'
loop_
 _atom_site_type_symbol
 _atom_site_label
 _atom_site_symmetry_multiplicity
 _atom_site_fract_x
 _atom_site_fract_y
 _atom_site_fract_z
 _atom_site_occupancy
  Sm  Sm0  1  0.000000  0.000000  0.000000  1
  Y  Y1  1  0.000000  0.000000  0.500000  1
  Ga  Ga2  1  0.666667  0.333333  0.000000  1
  Ga  Ga3  1  0.333333  0.666667  0.000000  1
  B  B4  1  0.666667  0.333333  0.500000  1
  B  B5  1  0.333333  0.666667  0.500000  1
  Rh  Rh6  1  0.500000  0.500000  0.709248  1
  Rh  Rh7  1  0.500000  0.000000  0.709248  1
  Rh  Rh8  1  0.000000  0.500000  0.709248  1
  Rh  Rh9  1  0.500000  0.500000  0.290752  1
  Rh  Rh10  1  0.500000  0.000000  0.290752  1
  Rh  Rh11  1  0.000000  0.500000  0.290752  1
