# generated using pymatgen
data_PrNdEu2(MgRh)4
_symmetry_space_group_name_H-M   'P 1'
_cell_length_a   4.28956600
_cell_length_b   7.27064400
_cell_length_c   8.64467382
_cell_angle_alpha   89.96355676
_cell_angle_beta   90.00000000
_cell_angle_gamma   90.00000000
_symmetry_Int_Tables_number   1
_chemical_formula_structural   PrNdEu2(MgRh)4
_chemical_formula_sum   'Pr1 Nd1 Eu2 Mg4 Rh4'
_cell_volume   269.60923126
_cell_formula_units_Z   1
loop_
 _symmetry_equiv_pos_site_id
 _symmetry_equiv_pos_as_xyz
  1  'x, y, z'
loop_
 _atom_site_type_symbol
 _atom_site_label
 _atom_site_symmetry_multiplicity
 _atom_site_fract_x
 _atom_site_fract_y
 _atom_site_fract_z
 _atom_site_occupancy
  Pr  Pr0  1  0.250000  0.536509  0.823457  1
  Nd  Nd1  1  0.750000  0.463058  0.177052  1
  Eu  Eu2  1  0.750000  0.965821  0.324152  1
  Eu  Eu3  1  0.250000  0.034269  0.675876  1
  Mg  Mg4  1  0.750000  0.866756  0.942287  1
  Mg  Mg5  1  0.250000  0.133687  0.058072  1
  Mg  Mg6  1  0.250000  0.635964  0.442272  1
  Mg  Mg7  1  0.750000  0.363665  0.556644  1
  Rh  Rh8  1  0.750000  0.732927  0.632234  1
  Rh  Rh9  1  0.250000  0.268429  0.366898  1
  Rh  Rh10  1  0.250000  0.752204  0.123711  1
  Rh  Rh11  1  0.750000  0.246711  0.877343  1
