# generated using pymatgen
data_Nd5Sn10IrRh3
_symmetry_space_group_name_H-M   'P 1'
_cell_length_a   14.22662862
_cell_length_b   14.21872162
_cell_length_c   4.63893100
_cell_angle_alpha   90.00000000
_cell_angle_beta   90.00000000
_cell_angle_gamma   89.91827016
_symmetry_Int_Tables_number   1
_chemical_formula_structural   Nd5Sn10IrRh3
_chemical_formula_sum   'Nd10 Sn20 Ir2 Rh6'
_cell_volume   938.38275267
_cell_formula_units_Z   2
loop_
 _symmetry_equiv_pos_site_id
 _symmetry_equiv_pos_as_xyz
  1  'x, y, z'
loop_
 _atom_site_type_symbol
 _atom_site_label
 _atom_site_symmetry_multiplicity
 _atom_site_fract_x
 _atom_site_fract_y
 _atom_site_fract_z
 _atom_site_occupancy
  Nd  Nd0  1  0.500000  0.500000  0.000000  1
  Nd  Nd1  1  0.000000  0.000000  0.000000  1
  Nd  Nd2  1  0.678172  0.178189  0.500000  1
  Nd  Nd3  1  0.321828  0.821811  0.500000  1
  Nd  Nd4  1  0.179454  0.322603  0.500000  1
  Nd  Nd5  1  0.820546  0.677397  0.500000  1
  Nd  Nd6  1  0.887366  0.388734  0.500000  1
  Nd  Nd7  1  0.112634  0.611266  0.500000  1
  Nd  Nd8  1  0.388655  0.111368  0.500000  1
  Nd  Nd9  1  0.611345  0.888632  0.500000  1
  Sn  Sn10  1  0.569529  0.069533  0.000000  1
  Sn  Sn11  1  0.430471  0.930467  0.000000  1
  Sn  Sn12  1  0.068845  0.429725  0.000000  1
  Sn  Sn13  1  0.931155  0.570275  0.000000  1
  Sn  Sn14  1  0.653203  0.699113  0.000000  1
  Sn  Sn15  1  0.346797  0.300887  0.000000  1
  Sn  Sn16  1  0.153197  0.801601  0.000000  1
  Sn  Sn17  1  0.846803  0.198399  0.000000  1
  Sn  Sn18  1  0.300759  0.654119  0.000000  1
  Sn  Sn19  1  0.699241  0.345881  0.000000  1
  Sn  Sn20  1  0.198488  0.153309  0.000000  1
  Sn  Sn21  1  0.801512  0.846691  0.000000  1
  Sn  Sn22  1  0.661796  0.504927  0.500000  1
  Sn  Sn23  1  0.338204  0.495073  0.500000  1
  Sn  Sn24  1  0.163649  0.995330  0.500000  1
  Sn  Sn25  1  0.836351  0.004670  0.500000  1
  Sn  Sn26  1  0.495273  0.663757  0.500000  1
  Sn  Sn27  1  0.504727  0.336243  0.500000  1
  Sn  Sn28  1  0.004836  0.163646  0.500000  1
  Sn  Sn29  1  0.995164  0.836354  0.500000  1
  Ir  Ir30  1  0.747188  0.529162  0.000000  1
  Ir  Ir31  1  0.252812  0.470838  0.000000  1
  Rh  Rh32  1  0.245832  0.971137  0.000000  1
  Rh  Rh33  1  0.754168  0.028863  0.000000  1
  Rh  Rh34  1  0.471250  0.745589  0.000000  1
  Rh  Rh35  1  0.528750  0.254411  0.000000  1
  Rh  Rh36  1  0.028397  0.246064  0.000000  1
  Rh  Rh37  1  0.971603  0.753936  0.000000  1
