# generated using pymatgen
data_Y5ScBi2Os
_symmetry_space_group_name_H-M   'P 1'
_cell_length_a   8.30480500
_cell_length_b   8.23912791
_cell_length_c   4.23505800
_cell_angle_alpha   90.00000000
_cell_angle_beta   90.00000000
_cell_angle_gamma   120.26403878
_symmetry_Int_Tables_number   1
_chemical_formula_structural   Y5ScBi2Os
_chemical_formula_sum   'Y5 Sc1 Bi2 Os1'
_cell_volume   250.28742045
_cell_formula_units_Z   1
loop_
 _symmetry_equiv_pos_site_id
 _symmetry_equiv_pos_as_xyz
  1  'x, y, z'
loop_
 _atom_site_type_symbol
 _atom_site_label
 _atom_site_symmetry_multiplicity
 _atom_site_fract_x
 _atom_site_fract_y
 _atom_site_fract_z
 _atom_site_occupancy
  Y  Y0  1  0.997536  0.228786  0.500000  1
  Y  Y1  1  0.768749  0.771214  0.500000  1
  Y  Y2  1  0.593730  0.000000  0.000000  1
  Y  Y3  1  0.001569  0.617314  0.000000  1
  Y  Y4  1  0.384255  0.382686  0.000000  1
  Sc  Sc5  1  0.231616  0.000000  0.500000  1
  Bi  Bi6  1  0.331015  0.669608  0.500000  1
  Bi  Bi7  1  0.661407  0.330392  0.500000  1
  Os  Os8  1  0.030122  0.000000  0.000000  1
