# generated using pymatgen
data_DyTh(MgRh)2
_symmetry_space_group_name_H-M   'P 1'
_cell_length_a   4.05328700
_cell_length_b   7.20976827
_cell_length_c   8.84392406
_cell_angle_alpha   91.79683047
_cell_angle_beta   90.00000000
_cell_angle_gamma   90.00000000
_symmetry_Int_Tables_number   1
_chemical_formula_structural   DyTh(MgRh)2
_chemical_formula_sum   'Dy2 Th2 Mg4 Rh4'
_cell_volume   258.32121230
_cell_formula_units_Z   2
loop_
 _symmetry_equiv_pos_site_id
 _symmetry_equiv_pos_as_xyz
  1  'x, y, z'
loop_
 _atom_site_type_symbol
 _atom_site_label
 _atom_site_symmetry_multiplicity
 _atom_site_fract_x
 _atom_site_fract_y
 _atom_site_fract_z
 _atom_site_occupancy
  Dy  Dy0  1  0.750000  0.963582  0.673949  1
  Dy  Dy1  1  0.250000  0.036418  0.326051  1
  Th  Th2  1  0.250000  0.535366  0.184901  1
  Th  Th3  1  0.750000  0.464634  0.815099  1
  Mg  Mg4  1  0.250000  0.642109  0.555704  1
  Mg  Mg5  1  0.750000  0.357891  0.444296  1
  Mg  Mg6  1  0.750000  0.873527  0.060306  1
  Mg  Mg7  1  0.250000  0.126473  0.939694  1
  Rh  Rh8  1  0.250000  0.733907  0.876585  1
  Rh  Rh9  1  0.750000  0.266093  0.123415  1
  Rh  Rh10  1  0.750000  0.747361  0.362566  1
  Rh  Rh11  1  0.250000  0.252639  0.637434  1
