# generated using pymatgen
data_CeTm8Pa(Al2Ru3)2
_symmetry_space_group_name_H-M   'P 1'
_cell_length_a   8.36153027
_cell_length_b   8.29965636
_cell_length_c   8.24706821
_cell_angle_alpha   110.02903168
_cell_angle_beta   109.19994111
_cell_angle_gamma   110.20675217
_symmetry_Int_Tables_number   1
_chemical_formula_structural   CeTm8Pa(Al2Ru3)2
_chemical_formula_sum   'Ce1 Tm8 Pa1 Al4 Ru6'
_cell_volume   434.90424476
_cell_formula_units_Z   1
loop_
 _symmetry_equiv_pos_site_id
 _symmetry_equiv_pos_as_xyz
  1  'x, y, z'
loop_
 _atom_site_type_symbol
 _atom_site_label
 _atom_site_symmetry_multiplicity
 _atom_site_fract_x
 _atom_site_fract_y
 _atom_site_fract_z
 _atom_site_occupancy
  Ce  Ce0  1  0.194819  0.943536  0.250917  1
  Tm  Tm1  1  0.778791  0.783154  0.775901  1
  Tm  Tm2  1  0.312898  0.562845  0.749003  1
  Tm  Tm3  1  0.752827  0.317897  0.569476  1
  Tm  Tm4  1  0.569741  0.747452  0.314876  1
  Tm  Tm5  1  0.718940  0.500727  0.995168  1
  Tm  Tm6  1  0.999316  0.721230  0.506238  1
  Tm  Tm7  1  0.500846  0.994298  0.718889  1
  Tm  Tm8  1  0.255121  0.188757  0.933267  1
  Pa  Pa9  1  0.941855  0.250425  0.193342  1
  Al  Al10  1  0.416095  0.407472  0.405463  1
  Al  Al11  1  0.094969  0.494045  0.996397  1
  Al  Al12  1  0.997558  0.096546  0.507982  1
  Al  Al13  1  0.500595  0.007159  0.094293  1
  Ru  Ru14  1  0.866673  0.118093  0.750031  1
  Ru  Ru15  1  0.757740  0.906535  0.123038  1
  Ru  Ru16  1  0.124635  0.761693  0.901948  1
  Ru  Ru17  1  0.222347  0.589977  0.364063  1
  Ru  Ru18  1  0.361113  0.224570  0.600824  1
  Ru  Ru19  1  0.633116  0.383592  0.248889  1
