# generated using pymatgen
data_Rb28Mn7FeO32
_symmetry_space_group_name_H-M   'P 1'
_cell_length_a   10.65344300
_cell_length_b   6.52820186
_cell_length_c   21.02570500
_cell_angle_alpha   87.04644455
_cell_angle_beta   90.00000000
_cell_angle_gamma   90.00000000
_symmetry_Int_Tables_number   1
_chemical_formula_structural   Rb28Mn7FeO32
_chemical_formula_sum   'Rb28 Mn7 Fe1 O32'
_cell_volume   1460.34961819
_cell_formula_units_Z   1
loop_
 _symmetry_equiv_pos_site_id
 _symmetry_equiv_pos_as_xyz
  1  'x, y, z'
loop_
 _atom_site_type_symbol
 _atom_site_label
 _atom_site_symmetry_multiplicity
 _atom_site_fract_x
 _atom_site_fract_y
 _atom_site_fract_z
 _atom_site_occupancy
  Rb  Rb0  1  0.549334  0.588004  0.861146  1
  Rb  Rb1  1  0.034621  0.428957  0.635806  1
  Rb  Rb2  1  0.444171  0.406436  0.134905  1
  Rb  Rb3  1  0.961351  0.579893  0.365157  1
  Rb  Rb4  1  0.886804  0.788722  0.532343  1
  Rb  Rb5  1  0.388696  0.204379  0.968046  1
  Rb  Rb6  1  0.115863  0.209565  0.468257  1
  Rb  Rb7  1  0.605960  0.784383  0.029145  1
  Rb  Rb8  1  0.844932  0.900475  0.886375  1
  Rb  Rb9  1  0.339506  0.104278  0.618091  1
  Rb  Rb10  1  0.162957  0.092172  0.114262  1
  Rb  Rb11  1  0.655996  0.890980  0.383696  1
  Rb  Rb12  1  0.826379  0.402792  0.799739  1
  Rb  Rb13  1  0.350750  0.596381  0.696697  1
  Rb  Rb14  1  0.168296  0.592386  0.192723  1
  Rb  Rb15  1  0.659499  0.396126  0.306088  1
  Rb  Rb16  1  0.565761  0.721282  0.552961  1
  Rb  Rb17  1  0.065694  0.283944  0.954624  1
  Rb  Rb18  1  0.442328  0.280732  0.452423  1
  Rb  Rb19  1  0.949090  0.721598  0.045304  1
  Rb  Rb20  1  0.980452  0.881288  0.718156  1
  Rb  Rb21  1  0.511001  0.099424  0.782947  1
  Rb  Rb22  1  0.007151  0.119951  0.284322  1
  Rb  Rb23  1  0.487945  0.882990  0.214173  1
  Rb  Rb24  1  0.702322  0.224802  0.638990  1
  Rb  Rb25  1  0.209910  0.790026  0.865563  1
  Rb  Rb26  1  0.295752  0.776145  0.361888  1
  Rb  Rb27  1  0.792483  0.221877  0.135868  1
  Mn  Mn28  1  0.222647  0.719374  0.524278  1
  Mn  Mn29  1  0.722487  0.286454  0.977378  1
  Mn  Mn30  1  0.781074  0.278702  0.470677  1
  Mn  Mn31  1  0.280901  0.716167  0.026214  1
  Mn  Mn32  1  0.332891  0.283397  0.296029  1
  Mn  Mn33  1  0.157586  0.289516  0.793974  1
  Mn  Mn34  1  0.837568  0.715768  0.205865  1
  Fe  Fe35  1  0.666133  0.715381  0.705454  1
  O  O36  1  0.734507  0.838217  0.778632  1
  O  O37  1  0.212835  0.174451  0.727737  1
  O  O38  1  0.255269  0.163231  0.231386  1
  O  O39  1  0.778499  0.828718  0.271723  1
  O  O40  1  0.801856  0.653093  0.649258  1
  O  O41  1  0.275631  0.325651  0.847896  1
  O  O42  1  0.197718  0.342340  0.345352  1
  O  O43  1  0.720420  0.676090  0.151997  1
  O  O44  1  0.586525  0.461625  0.734043  1
  O  O45  1  0.092785  0.524692  0.770170  1
  O  O46  1  0.417625  0.514745  0.269997  1
  O  O47  1  0.903400  0.481331  0.229925  1
  O  O48  1  0.535941  0.887835  0.667405  1
  O  O49  1  0.040203  0.137354  0.828327  1
  O  O50  1  0.463387  0.126140  0.328929  1
  O  O51  1  0.954149  0.871205  0.172479  1
  O  O52  1  0.790851  0.518517  0.953488  1
  O  O53  1  0.209780  0.477403  0.059591  1
  O  O54  1  0.711338  0.510175  0.446029  1
  O  O55  1  0.337176  0.890162  0.496845  1
  O  O56  1  0.889221  0.306996  0.529574  1
  O  O57  1  0.386860  0.711335  0.959135  1
  O  O58  1  0.115909  0.695174  0.463549  1
  O  O59  1  0.615902  0.315137  0.038002  1
  O  O60  1  0.146178  0.816682  0.588363  1
  O  O61  1  0.647095  0.186801  0.913585  1
  O  O62  1  0.855232  0.183351  0.404809  1
  O  O63  1  0.357187  0.798391  0.098524  1
  O  O64  1  0.166417  0.899763  0.992528  1
  O  O65  1  0.667657  0.106408  0.497447  1
  O  O66  1  0.836814  0.117198  0.006290  1
  O  O67  1  0.289341  0.485042  0.547420  1
