# generated using pymatgen
data_YEr15MgIn3Ir4
_symmetry_space_group_name_H-M   'P 1'
_cell_length_a   9.60466896
_cell_length_b   9.58122280
_cell_length_c   9.59158300
_cell_angle_alpha   59.96422091
_cell_angle_beta   60.04505608
_cell_angle_gamma   60.02789937
_symmetry_Int_Tables_number   1
_chemical_formula_structural   YEr15MgIn3Ir4
_chemical_formula_sum   'Y1 Er15 Mg1 In3 Ir4'
_cell_volume   624.30978925
_cell_formula_units_Z   1
loop_
 _symmetry_equiv_pos_site_id
 _symmetry_equiv_pos_as_xyz
  1  'x, y, z'
loop_
 _atom_site_type_symbol
 _atom_site_label
 _atom_site_symmetry_multiplicity
 _atom_site_fract_x
 _atom_site_fract_y
 _atom_site_fract_z
 _atom_site_occupancy
  Y  Y0  1  0.060048  0.062389  0.438781  1
  Er  Er1  1  0.650493  0.044372  0.652567  1
  Er  Er2  1  0.192528  0.809071  0.190751  1
  Er  Er3  1  0.438260  0.061236  0.439338  1
  Er  Er4  1  0.193297  0.192150  0.807276  1
  Er  Er5  1  0.650812  0.651662  0.655772  1
  Er  Er6  1  0.050154  0.649182  0.650332  1
  Er  Er7  1  0.438260  0.061236  0.061167  1
  Er  Er8  1  0.650812  0.651662  0.041754  1
  Er  Er9  1  0.192528  0.809071  0.807649  1
  Er  Er10  1  0.812254  0.189122  0.810448  1
  Er  Er11  1  0.812254  0.189122  0.188175  1
  Er  Er12  1  0.810886  0.810688  0.189213  1
  Er  Er13  1  0.059692  0.439944  0.438861  1
  Er  Er14  1  0.434059  0.437685  0.064128  1
  Er  Er15  1  0.059692  0.439944  0.061501  1
  Mg  Mg16  1  0.730302  0.425168  0.422264  1
  In  In17  1  0.419036  0.415863  0.749635  1
  In  In18  1  0.419508  0.748847  0.415822  1
  In  In19  1  0.419036  0.415863  0.415466  1
  Ir  Ir20  1  0.860563  0.856606  0.858722  1
  Ir  Ir21  1  0.422465  0.859683  0.858926  1
  Ir  Ir22  1  0.860563  0.856606  0.424110  1
  Ir  Ir23  1  0.862500  0.422824  0.857339  1
