# generated using pymatgen
data_DyScBe2AlIr5
_symmetry_space_group_name_H-M   'P 1'
_cell_length_a   9.63137692
_cell_length_b   9.63137692
_cell_length_c   3.12466500
_cell_angle_alpha   90.00000000
_cell_angle_beta   90.00000000
_cell_angle_gamma   89.23983631
_symmetry_Int_Tables_number   1
_chemical_formula_structural   DyScBe2AlIr5
_chemical_formula_sum   'Dy2 Sc2 Be4 Al2 Ir10'
_cell_volume   289.82910573
_cell_formula_units_Z   2
loop_
 _symmetry_equiv_pos_site_id
 _symmetry_equiv_pos_as_xyz
  1  'x, y, z'
loop_
 _atom_site_type_symbol
 _atom_site_label
 _atom_site_symmetry_multiplicity
 _atom_site_fract_x
 _atom_site_fract_y
 _atom_site_fract_z
 _atom_site_occupancy
  Dy  Dy0  1  0.677101  0.177101  0.000000  1
  Dy  Dy1  1  0.322899  0.822899  0.000000  1
  Sc  Sc2  1  0.174427  0.325573  0.000000  1
  Sc  Sc3  1  0.825573  0.674427  0.000000  1
  Be  Be4  1  0.121169  0.621169  0.000000  1
  Be  Be5  1  0.878831  0.378831  0.000000  1
  Be  Be6  1  0.624945  0.875055  0.000000  1
  Be  Be7  1  0.375055  0.124945  0.000000  1
  Al  Al8  1  0.000000  0.000000  0.000000  1
  Al  Al9  1  0.500000  0.500000  0.000000  1
  Ir  Ir10  1  0.207240  0.073322  0.500000  1
  Ir  Ir11  1  0.792760  0.926678  0.500000  1
  Ir  Ir12  1  0.059499  0.787243  0.500000  1
  Ir  Ir13  1  0.712757  0.440501  0.500000  1
  Ir  Ir14  1  0.940501  0.212757  0.500000  1
  Ir  Ir15  1  0.287243  0.559499  0.500000  1
  Ir  Ir16  1  0.573322  0.707240  0.500000  1
  Ir  Ir17  1  0.426678  0.292760  0.500000  1
  Ir  Ir18  1  0.500000  0.000000  0.500000  1
  Ir  Ir19  1  0.000000  0.500000  0.500000  1
