# generated using pymatgen
data_Li3NdNi9P7W
_symmetry_space_group_name_H-M   'P 1'
_cell_length_a   9.16809530
_cell_length_b   9.12428309
_cell_length_c   3.68320300
_cell_angle_alpha   90.00000000
_cell_angle_beta   90.00000000
_cell_angle_gamma   119.31366914
_symmetry_Int_Tables_number   1
_chemical_formula_structural   Li3NdNi9P7W
_chemical_formula_sum   'Li3 Nd1 Ni9 P7 W1'
_cell_volume   268.65587999
_cell_formula_units_Z   1
loop_
 _symmetry_equiv_pos_site_id
 _symmetry_equiv_pos_as_xyz
  1  'x, y, z'
loop_
 _atom_site_type_symbol
 _atom_site_label
 _atom_site_symmetry_multiplicity
 _atom_site_fract_x
 _atom_site_fract_y
 _atom_site_fract_z
 _atom_site_occupancy
  Li  Li0  1  0.891824  0.115585  0.500000  1
  Li  Li1  1  0.219696  0.107261  0.500000  1
  Li  Li2  1  0.662583  0.330620  0.500000  1
  Nd  Nd3  1  0.332762  0.663828  0.000000  1
  Ni  Ni4  1  0.719606  0.883614  0.000000  1
  Ni  Ni5  1  0.160336  0.278266  0.000000  1
  Ni  Ni6  1  0.126447  0.841374  0.000000  1
  Ni  Ni7  1  0.632539  0.568578  0.000000  1
  Ni  Ni8  1  0.934675  0.364304  0.000000  1
  Ni  Ni9  1  0.430093  0.061257  0.000000  1
  Ni  Ni10  1  0.568837  0.960912  0.500000  1
  Ni  Ni11  1  0.391871  0.430245  0.500000  1
  Ni  Ni12  1  0.044460  0.609454  0.500000  1
  P  P13  1  0.598376  0.711174  0.500000  1
  P  P14  1  0.113942  0.401008  0.500000  1
  P  P15  1  0.288752  0.885201  0.500000  1
  P  P16  1  0.000156  0.998767  0.000000  1
  P  P17  1  0.882097  0.578698  0.000000  1
  P  P18  1  0.693898  0.120458  0.000000  1
  P  P19  1  0.421701  0.303790  0.000000  1
  W  W20  1  0.885354  0.785604  0.500000  1
