# generated using pymatgen
data_Pr3Hg3Pd2Rh
_symmetry_space_group_name_H-M   'P 1'
_cell_length_a   7.80501600
_cell_length_b   7.80501625
_cell_length_c   4.02069700
_cell_angle_alpha   90.00000000
_cell_angle_beta   90.00000000
_cell_angle_gamma   119.99999046
_symmetry_Int_Tables_number   1
_chemical_formula_structural   Pr3Hg3Pd2Rh
_chemical_formula_sum   'Pr3 Hg3 Pd2 Rh1'
_cell_volume   212.11902814
_cell_formula_units_Z   1
loop_
 _symmetry_equiv_pos_site_id
 _symmetry_equiv_pos_as_xyz
  1  'x, y, z'
loop_
 _atom_site_type_symbol
 _atom_site_label
 _atom_site_symmetry_multiplicity
 _atom_site_fract_x
 _atom_site_fract_y
 _atom_site_fract_z
 _atom_site_occupancy
  Pr  Pr0  1  0.407989  0.395550  0.500000  1
  Pr  Pr1  1  0.604450  0.012439  0.500000  1
  Pr  Pr2  1  0.987561  0.592011  0.500000  1
  Hg  Hg3  1  0.737620  0.738837  0.000000  1
  Hg  Hg4  1  0.261163  0.998783  0.000000  1
  Hg  Hg5  1  0.001217  0.262380  0.000000  1
  Pd  Pd6  1  0.333333  0.666667  0.000000  1
  Pd  Pd7  1  0.000000  0.000000  0.500000  1
  Rh  Rh8  1  0.666667  0.333333  0.000000  1
