# generated using pymatgen
data_Ce10Si2(BiPb)3
_symmetry_space_group_name_H-M   'P 1'
_cell_length_a   9.66481400
_cell_length_b   9.66481311
_cell_length_c   6.52904700
_cell_angle_alpha   90.00000000
_cell_angle_beta   90.00000000
_cell_angle_gamma   119.99999619
_symmetry_Int_Tables_number   1
_chemical_formula_structural   Ce10Si2(BiPb)3
_chemical_formula_sum   'Ce10 Si2 Bi3 Pb3'
_cell_volume   528.16230736
_cell_formula_units_Z   1
loop_
 _symmetry_equiv_pos_site_id
 _symmetry_equiv_pos_as_xyz
  1  'x, y, z'
loop_
 _atom_site_type_symbol
 _atom_site_label
 _atom_site_symmetry_multiplicity
 _atom_site_fract_x
 _atom_site_fract_y
 _atom_site_fract_z
 _atom_site_occupancy
  Ce  Ce0  1  0.666667  0.333333  0.502649  1
  Ce  Ce1  1  0.333333  0.666667  0.502649  1
  Ce  Ce2  1  0.333333  0.666667  0.997351  1
  Ce  Ce3  1  0.666667  0.333333  0.997351  1
  Ce  Ce4  1  0.748386  0.748386  0.250000  1
  Ce  Ce5  1  0.251614  0.000000  0.250000  1
  Ce  Ce6  1  0.000000  0.251614  0.250000  1
  Ce  Ce7  1  0.251724  0.251724  0.750000  1
  Ce  Ce8  1  0.748276  0.000000  0.750000  1
  Ce  Ce9  1  0.000000  0.748276  0.750000  1
  Si  Si10  1  0.000000  0.000000  0.499487  1
  Si  Si11  1  0.000000  0.000000  0.000513  1
  Bi  Bi12  1  0.386925  0.386925  0.250000  1
  Bi  Bi13  1  0.613075  0.000000  0.250000  1
  Bi  Bi14  1  0.000000  0.613075  0.250000  1
  Pb  Pb15  1  0.614099  0.614099  0.750000  1
  Pb  Pb16  1  0.385901  0.000000  0.750000  1
  Pb  Pb17  1  0.000000  0.385901  0.750000  1
