# generated using pymatgen
data_Lu9Sc(In2Au)4
_symmetry_space_group_name_H-M   'P 1'
_cell_length_a   3.55970300
_cell_length_b   8.10756208
_cell_length_c   18.18057701
_cell_angle_alpha   89.93212255
_cell_angle_beta   90.00000000
_cell_angle_gamma   90.00000000
_symmetry_Int_Tables_number   1
_chemical_formula_structural   Lu9Sc(In2Au)4
_chemical_formula_sum   'Lu9 Sc1 In8 Au4'
_cell_volume   524.70041221
_cell_formula_units_Z   1
loop_
 _symmetry_equiv_pos_site_id
 _symmetry_equiv_pos_as_xyz
  1  'x, y, z'
loop_
 _atom_site_type_symbol
 _atom_site_label
 _atom_site_symmetry_multiplicity
 _atom_site_fract_x
 _atom_site_fract_y
 _atom_site_fract_z
 _atom_site_occupancy
  Lu  Lu0  1  0.500000  0.500000  0.500000  1
  Lu  Lu1  1  0.500000  0.876750  0.420307  1
  Lu  Lu2  1  0.500000  0.123250  0.579693  1
  Lu  Lu3  1  0.500000  0.622647  0.921572  1
  Lu  Lu4  1  0.500000  0.377353  0.078428  1
  Lu  Lu5  1  0.500000  0.256100  0.280498  1
  Lu  Lu6  1  0.500000  0.743900  0.719502  1
  Lu  Lu7  1  0.500000  0.242332  0.783193  1
  Lu  Lu8  1  0.500000  0.757668  0.216807  1
  Sc  Sc9  1  0.500000  0.000000  0.000000  1
  In  In10  1  0.000000  0.208020  0.434173  1
  In  In11  1  0.000000  0.791980  0.565827  1
  In  In12  1  0.000000  0.285145  0.935813  1
  In  In13  1  0.000000  0.714855  0.064187  1
  In  In14  1  0.000000  0.575223  0.353448  1
  In  In15  1  0.000000  0.424777  0.646552  1
  In  In16  1  0.000000  0.926366  0.857262  1
  In  In17  1  0.000000  0.073634  0.142738  1
  Au  Au18  1  0.000000  0.967956  0.303053  1
  Au  Au19  1  0.000000  0.032044  0.696947  1
  Au  Au20  1  0.000000  0.531158  0.804651  1
  Au  Au21  1  0.000000  0.468842  0.195349  1
