# generated using pymatgen
data_Lu5Zr3(Ta3Ge4)4
_symmetry_space_group_name_H-M   'P 1'
_cell_length_a   6.90329901
_cell_length_b   7.04136107
_cell_length_c   13.40705210
_cell_angle_alpha   90.20163852
_cell_angle_beta   89.83868419
_cell_angle_gamma   90.02678144
_symmetry_Int_Tables_number   1
_chemical_formula_structural   Lu5Zr3(Ta3Ge4)4
_chemical_formula_sum   'Lu5 Zr3 Ta12 Ge16'
_cell_volume   651.69162602
_cell_formula_units_Z   1
loop_
 _symmetry_equiv_pos_site_id
 _symmetry_equiv_pos_as_xyz
  1  'x, y, z'
loop_
 _atom_site_type_symbol
 _atom_site_label
 _atom_site_symmetry_multiplicity
 _atom_site_fract_x
 _atom_site_fract_y
 _atom_site_fract_z
 _atom_site_occupancy
  Lu  Lu0  1  0.490888  0.675066  0.592548  1
  Lu  Lu1  1  0.990474  0.826086  0.908212  1
  Lu  Lu2  1  0.509033  0.326371  0.091872  1
  Lu  Lu3  1  0.007523  0.172675  0.407920  1
  Lu  Lu4  1  0.506886  0.324730  0.407111  1
  Zr  Zr5  1  0.008889  0.175758  0.093424  1
  Zr  Zr6  1  0.490475  0.676606  0.906531  1
  Zr  Zr7  1  0.989627  0.821537  0.594842  1
  Ta  Ta8  1  0.660980  0.164392  0.626375  1
  Ta  Ta9  1  0.159599  0.333652  0.874686  1
  Ta  Ta10  1  0.340799  0.833462  0.123842  1
  Ta  Ta11  1  0.841925  0.668989  0.374384  1
  Ta  Ta12  1  0.340272  0.833294  0.373434  1
  Ta  Ta13  1  0.840979  0.668462  0.125218  1
  Ta  Ta14  1  0.660142  0.166999  0.874570  1
  Ta  Ta15  1  0.159995  0.334009  0.625630  1
  Ta  Ta16  1  0.836836  0.488897  0.749871  1
  Ta  Ta17  1  0.335906  0.010554  0.751395  1
  Ta  Ta18  1  0.164015  0.511506  0.248011  1
  Ta  Ta19  1  0.665531  0.987940  0.249129  1
  Ge  Ge20  1  0.679526  0.961226  0.459946  1
  Ge  Ge21  1  0.179615  0.538121  0.040384  1
  Ge  Ge22  1  0.320799  0.039121  0.959049  1
  Ge  Ge23  1  0.821879  0.461435  0.541618  1
  Ge  Ge24  1  0.316200  0.036051  0.541926  1
  Ge  Ge25  1  0.817595  0.461237  0.959549  1
  Ge  Ge26  1  0.681935  0.961512  0.040137  1
  Ge  Ge27  1  0.178212  0.540591  0.459344  1
  Ge  Ge28  1  0.461016  0.384277  0.750288  1
  Ge  Ge29  1  0.961015  0.114874  0.749856  1
  Ge  Ge30  1  0.539834  0.616774  0.249583  1
  Ge  Ge31  1  0.040554  0.884613  0.248959  1
  Ge  Ge32  1  0.693363  0.850873  0.750663  1
  Ge  Ge33  1  0.194280  0.648056  0.750303  1
  Ge  Ge34  1  0.306273  0.148218  0.249508  1
  Ge  Ge35  1  0.807129  0.352036  0.249883  1
