# generated using pymatgen
data_Eu4Zn3AgSn4
_symmetry_space_group_name_H-M   'P 1'
_cell_length_a   4.81702700
_cell_length_b   7.80341267
_cell_length_c   8.13839385
_cell_angle_alpha   89.80313372
_cell_angle_beta   90.00000000
_cell_angle_gamma   90.00000000
_symmetry_Int_Tables_number   1
_chemical_formula_structural   Eu4Zn3AgSn4
_chemical_formula_sum   'Eu4 Zn3 Ag1 Sn4'
_cell_volume   305.91431136
_cell_formula_units_Z   1
loop_
 _symmetry_equiv_pos_site_id
 _symmetry_equiv_pos_as_xyz
  1  'x, y, z'
loop_
 _atom_site_type_symbol
 _atom_site_label
 _atom_site_symmetry_multiplicity
 _atom_site_fract_x
 _atom_site_fract_y
 _atom_site_fract_z
 _atom_site_occupancy
  Eu  Eu0  1  0.250000  0.494507  0.210794  1
  Eu  Eu1  1  0.750000  0.503588  0.789197  1
  Eu  Eu2  1  0.250000  0.999722  0.289485  1
  Eu  Eu3  1  0.750000  0.005268  0.710616  1
  Zn  Zn4  1  0.250000  0.181476  0.916327  1
  Zn  Zn5  1  0.750000  0.823016  0.082781  1
  Zn  Zn6  1  0.250000  0.676058  0.581815  1
  Ag  Ag7  1  0.750000  0.312994  0.418526  1
  Sn  Sn8  1  0.250000  0.294829  0.596106  1
  Sn  Sn9  1  0.750000  0.205560  0.087179  1
  Sn  Sn10  1  0.250000  0.793401  0.908563  1
  Sn  Sn11  1  0.750000  0.709581  0.408613  1
