# generated using pymatgen
data_K3H7Ru
_symmetry_space_group_name_H-M   'P 1'
_cell_length_a   5.90301714
_cell_length_b   5.88147089
_cell_length_c   6.13193771
_cell_angle_alpha   60.61761141
_cell_angle_beta   119.45132388
_cell_angle_gamma   91.06926065
_symmetry_Int_Tables_number   1
_chemical_formula_structural   K3H7Ru
_chemical_formula_sum   'K3 H7 Ru1'
_cell_volume   154.42737386
_cell_formula_units_Z   1
loop_
 _symmetry_equiv_pos_site_id
 _symmetry_equiv_pos_as_xyz
  1  'x, y, z'
loop_
 _atom_site_type_symbol
 _atom_site_label
 _atom_site_symmetry_multiplicity
 _atom_site_fract_x
 _atom_site_fract_y
 _atom_site_fract_z
 _atom_site_occupancy
  K  K0  1  0.545045  0.401760  0.641889  1
  K  K1  1  0.781679  0.638859  0.144192  1
  K  K2  1  0.043336  0.897421  0.643996  1
  H  H3  1  0.095531  0.355538  0.754229  1
  H  H4  1  0.419620  0.908940  0.129748  1
  H  H5  1  0.069049  0.290612  0.162826  1
  H  H6  1  0.575020  0.198500  0.138466  1
  H  H7  1  0.092168  0.953936  0.148796  1
  H  H8  1  0.505568  0.950525  0.535585  1
  H  H9  1  0.367957  0.426681  0.146986  1
  Ru  Ru10  1  0.301169  0.153323  0.145066  1
