# generated using pymatgen
data_Pa4In2RePt3
_symmetry_space_group_name_H-M   'P 1'
_cell_length_a   7.84231804
_cell_length_b   7.84231804
_cell_length_c   3.62926000
_cell_angle_alpha   90.00000000
_cell_angle_beta   90.00000000
_cell_angle_gamma   89.76109444
_symmetry_Int_Tables_number   1
_chemical_formula_structural   Pa4In2RePt3
_chemical_formula_sum   'Pa4 In2 Re1 Pt3'
_cell_volume   223.20463503
_cell_formula_units_Z   1
loop_
 _symmetry_equiv_pos_site_id
 _symmetry_equiv_pos_as_xyz
  1  'x, y, z'
loop_
 _atom_site_type_symbol
 _atom_site_label
 _atom_site_symmetry_multiplicity
 _atom_site_fract_x
 _atom_site_fract_y
 _atom_site_fract_z
 _atom_site_occupancy
  Pa  Pa0  1  0.680347  0.180347  0.500000  1
  Pa  Pa1  1  0.159185  0.326610  0.500000  1
  Pa  Pa2  1  0.331913  0.831913  0.500000  1
  Pa  Pa3  1  0.826610  0.659185  0.500000  1
  In  In4  1  0.998663  0.998251  0.000000  1
  In  In5  1  0.498251  0.498663  0.000000  1
  Re  Re6  1  0.868548  0.368548  0.000000  1
  Pt  Pt7  1  0.630991  0.869914  0.000000  1
  Pt  Pt8  1  0.135578  0.635578  0.000000  1
  Pt  Pt9  1  0.369914  0.130991  0.000000  1
