# generated using pymatgen
data_TiMnTcPb2O9
_symmetry_space_group_name_H-M   'P 1'
_cell_length_a   5.49501759
_cell_length_b   7.85925021
_cell_length_c   10.78185385
_cell_angle_alpha   92.59040441
_cell_angle_beta   97.49194979
_cell_angle_gamma   109.23668413
_symmetry_Int_Tables_number   1
_chemical_formula_structural   TiMnTcPb2O9
_chemical_formula_sum   'Ti2 Mn2 Tc2 Pb4 O18'
_cell_volume   433.94442221
_cell_formula_units_Z   2
loop_
 _symmetry_equiv_pos_site_id
 _symmetry_equiv_pos_as_xyz
  1  'x, y, z'
loop_
 _atom_site_type_symbol
 _atom_site_label
 _atom_site_symmetry_multiplicity
 _atom_site_fract_x
 _atom_site_fract_y
 _atom_site_fract_z
 _atom_site_occupancy
  Ti  Ti0  1  0.385097  0.801534  0.488945  1
  Ti  Ti1  1  0.614903  0.198466  0.511055  1
  Mn  Mn2  1  0.804919  0.601127  0.514853  1
  Mn  Mn3  1  0.195081  0.398873  0.485147  1
  Tc  Tc4  1  0.190810  0.775384  0.044575  1
  Tc  Tc5  1  0.809190  0.224616  0.955425  1
  Pb  Pb6  1  0.918106  0.966481  0.285947  1
  Pb  Pb7  1  0.081894  0.033519  0.714053  1
  Pb  Pb8  1  0.489588  0.394513  0.232578  1
  Pb  Pb9  1  0.510412  0.605487  0.767422  1
  O  O10  1  0.448143  0.694075  0.077544  1
  O  O11  1  0.551857  0.305925  0.922456  1
  O  O12  1  0.939689  0.656894  0.123050  1
  O  O13  1  0.060311  0.343106  0.876950  1
  O  O14  1  0.082936  0.748748  0.881891  1
  O  O15  1  0.917064  0.251252  0.118109  1
  O  O16  1  0.287891  0.002994  0.102707  1
  O  O17  1  0.712109  0.997006  0.897293  1
  O  O18  1  0.199055  0.604411  0.598566  1
  O  O19  1  0.800945  0.395589  0.401434  1
  O  O20  1  0.578791  0.409843  0.604838  1
  O  O21  1  0.421209  0.590157  0.395162  1
  O  O22  1  0.574706  0.982083  0.393952  1
  O  O23  1  0.425294  0.017917  0.606048  1
  O  O24  1  0.731093  0.786424  0.614824  1
  O  O25  1  0.268907  0.213576  0.385176  1
  O  O26  1  0.041150  0.780427  0.423173  1
  O  O27  1  0.958850  0.219573  0.576827  1
