# generated using pymatgen
data_Tb3Y(Hg2O)4
_symmetry_space_group_name_H-M   'P 1'
_cell_length_a   5.58777600
_cell_length_b   5.60604966
_cell_length_c   11.06188351
_cell_angle_alpha   85.77745159
_cell_angle_beta   89.99871110
_cell_angle_gamma   89.99980757
_symmetry_Int_Tables_number   1
_chemical_formula_structural   Tb3Y(Hg2O)4
_chemical_formula_sum   'Tb3 Y1 Hg8 O4'
_cell_volume   345.57677511
_cell_formula_units_Z   1
loop_
 _symmetry_equiv_pos_site_id
 _symmetry_equiv_pos_as_xyz
  1  'x, y, z'
loop_
 _atom_site_type_symbol
 _atom_site_label
 _atom_site_symmetry_multiplicity
 _atom_site_fract_x
 _atom_site_fract_y
 _atom_site_fract_z
 _atom_site_occupancy
  Tb  Tb0  1  0.575007  0.485339  0.099076  1
  Tb  Tb1  1  0.075018  0.985862  0.099116  1
  Tb  Tb2  1  0.575024  0.015174  0.900293  1
  Y  Y3  1  0.075006  0.515581  0.901028  1
  Hg  Hg4  1  0.574457  0.959434  0.277129  1
  Hg  Hg5  1  0.074912  0.967948  0.418047  1
  Hg  Hg6  1  0.574896  0.030208  0.581623  1
  Hg  Hg7  1  0.074358  0.039562  0.722713  1
  Hg  Hg8  1  0.074908  0.456129  0.276843  1
  Hg  Hg9  1  0.575569  0.472125  0.417962  1
  Hg  Hg10  1  0.075670  0.527081  0.582978  1
  Hg  Hg11  1  0.574994  0.543600  0.723862  1
  O  O12  1  0.824987  0.250212  0.999550  1
  O  O13  1  0.824906  0.750748  0.000147  1
  O  O14  1  0.325120  0.250227  0.999513  1
  O  O15  1  0.325207  0.750769  0.000122  1
