# generated using pymatgen
data_Pr2Nd8Al4OsRu5
_symmetry_space_group_name_H-M   'P 1'
_cell_length_a   8.57450894
_cell_length_b   8.59152476
_cell_length_c   8.58950016
_cell_angle_alpha   109.51657356
_cell_angle_beta   109.65596711
_cell_angle_gamma   109.32430440
_symmetry_Int_Tables_number   1
_chemical_formula_structural   Pr2Nd8Al4OsRu5
_chemical_formula_sum   'Pr2 Nd8 Al4 Os1 Ru5'
_cell_volume   486.60448704
_cell_formula_units_Z   1
loop_
 _symmetry_equiv_pos_site_id
 _symmetry_equiv_pos_as_xyz
  1  'x, y, z'
loop_
 _atom_site_type_symbol
 _atom_site_label
 _atom_site_symmetry_multiplicity
 _atom_site_fract_x
 _atom_site_fract_y
 _atom_site_fract_z
 _atom_site_occupancy
  Pr  Pr0  1  0.285152  0.500324  0.000581  1
  Pr  Pr1  1  0.999875  0.285010  0.499394  1
  Nd  Nd2  1  0.250147  0.684477  0.434347  1
  Nd  Nd3  1  0.750137  0.816218  0.066066  1
  Nd  Nd4  1  0.434853  0.250236  0.683317  1
  Nd  Nd5  1  0.682018  0.432990  0.248523  1
  Nd  Nd6  1  0.065360  0.749326  0.815996  1
  Nd  Nd7  1  0.817607  0.066133  0.750976  1
  Nd  Nd8  1  0.214555  0.214494  0.214497  1
  Nd  Nd9  1  0.499745  0.999721  0.285657  1
  Al  Al10  1  0.589832  0.590340  0.589987  1
  Al  Al11  1  0.499151  0.999975  0.909707  1
  Al  Al12  1  0.909746  0.500203  0.000532  1
  Al  Al13  1  0.000857  0.910131  0.500799  1
  Os  Os14  1  0.250071  0.117389  0.867998  1
  Ru  Ru15  1  0.749518  0.382007  0.631935  1
  Ru  Ru16  1  0.867568  0.250117  0.117166  1
  Ru  Ru17  1  0.118006  0.867601  0.250169  1
  Ru  Ru18  1  0.632851  0.750186  0.382720  1
  Ru  Ru19  1  0.382947  0.633118  0.749630  1
