# generated using pymatgen
data_Ti7Tc5P6
_symmetry_space_group_name_H-M   'P 1'
_cell_length_a   7.38424427
_cell_length_b   7.37033048
_cell_length_c   7.37033046
_cell_angle_alpha   127.17331141
_cell_angle_beta   124.88465095
_cell_angle_gamma   79.81076943
_symmetry_Int_Tables_number   1
_chemical_formula_structural   Ti7Tc5P6
_chemical_formula_sum   'Ti7 Tc5 P6'
_cell_volume   253.30646899
_cell_formula_units_Z   1
loop_
 _symmetry_equiv_pos_site_id
 _symmetry_equiv_pos_as_xyz
  1  'x, y, z'
loop_
 _atom_site_type_symbol
 _atom_site_label
 _atom_site_symmetry_multiplicity
 _atom_site_fract_x
 _atom_site_fract_y
 _atom_site_fract_z
 _atom_site_occupancy
  Ti  Ti0  1  0.458452  0.245323  0.284341  1
  Ti  Ti1  1  0.541548  0.825889  0.786871  1
  Ti  Ti2  1  0.743854  0.650871  0.403108  1
  Ti  Ti3  1  0.256146  0.659255  0.907017  1
  Ti  Ti4  1  0.050742  0.844717  0.289711  1
  Ti  Ti5  1  0.949258  0.238970  0.793975  1
  Ti  Ti6  1  0.500000  0.995556  0.495556  1
  Tc  Tc7  1  0.659396  0.502315  0.906407  1
  Tc  Tc8  1  0.340604  0.247012  0.842922  1
  Tc  Tc9  1  0.898807  0.244519  0.398450  1
  Tc  Tc10  1  0.101193  0.499642  0.345713  1
  Tc  Tc11  1  0.000000  0.992532  0.992532  1
  P  P12  1  0.833848  0.576379  0.745365  1
  P  P13  1  0.166152  0.911515  0.742531  1
  P  P14  1  0.670674  0.913289  0.250869  1
  P  P15  1  0.329326  0.580194  0.242615  1
  P  P16  1  0.269725  0.277610  0.504532  1
  P  P17  1  0.730275  0.234807  0.007886  1
