# generated using pymatgen
data_Cr2IF18
_symmetry_space_group_name_H-M   'P 1'
_cell_length_a   5.20753118
_cell_length_b   8.52790259
_cell_length_c   8.59991054
_cell_angle_alpha   61.58909314
_cell_angle_beta   84.31140601
_cell_angle_gamma   84.50359814
_symmetry_Int_Tables_number   1
_chemical_formula_structural   Cr2IF18
_chemical_formula_sum   'Cr2 I1 F18'
_cell_volume   333.74694126
_cell_formula_units_Z   1
loop_
 _symmetry_equiv_pos_site_id
 _symmetry_equiv_pos_as_xyz
  1  'x, y, z'
loop_
 _atom_site_type_symbol
 _atom_site_label
 _atom_site_symmetry_multiplicity
 _atom_site_fract_x
 _atom_site_fract_y
 _atom_site_fract_z
 _atom_site_occupancy
  Cr  Cr0  1  0.561857  0.334337  0.334332  1
  Cr  Cr1  1  0.438303  0.664651  0.666068  1
  I  I2  1  0.999772  0.001168  0.999524  1
  F  F3  1  0.872590  0.773149  0.074278  1
  F  F4  1  0.678553  0.075976  0.076217  1
  F  F5  1  0.731042  0.409311  0.124999  1
  F  F6  1  0.124545  0.919954  0.227012  1
  F  F7  1  0.392660  0.544541  0.259050  1
  F  F8  1  0.318365  0.258580  0.262026  1
  F  F9  1  0.805480  0.410032  0.406635  1
  F  F10  1  0.731828  0.124424  0.409190  1
  F  F11  1  0.605988  0.739866  0.457175  1
  F  F12  1  0.393593  0.259235  0.544065  1
  F  F13  1  0.268613  0.873823  0.591891  1
  F  F14  1  0.195636  0.589140  0.593460  1
  F  F15  1  0.680815  0.740045  0.738807  1
  F  F16  1  0.607342  0.455005  0.740494  1
  F  F17  1  0.875102  0.082451  0.772020  1
  F  F18  1  0.269808  0.589208  0.874717  1
  F  F19  1  0.321170  0.926086  0.923185  1
  F  F20  1  0.126939  0.229018  0.924862  1
