# generated using pymatgen
data_YLu3Zr4F28
_symmetry_space_group_name_H-M   'P 1'
_cell_length_a   5.69572112
_cell_length_b   9.00862778
_cell_length_c   12.11747754
_cell_angle_alpha   62.54911827
_cell_angle_beta   89.98477652
_cell_angle_gamma   90.03497956
_symmetry_Int_Tables_number   1
_chemical_formula_structural   YLu3Zr4F28
_chemical_formula_sum   'Y1 Lu3 Zr4 F28'
_cell_volume   551.74950632
_cell_formula_units_Z   1
loop_
 _symmetry_equiv_pos_site_id
 _symmetry_equiv_pos_as_xyz
  1  'x, y, z'
loop_
 _atom_site_type_symbol
 _atom_site_label
 _atom_site_symmetry_multiplicity
 _atom_site_fract_x
 _atom_site_fract_y
 _atom_site_fract_z
 _atom_site_occupancy
  Y  Y0  1  0.756739  0.818472  0.765907  1
  Lu  Lu1  1  0.743800  0.819162  0.265666  1
  Lu  Lu2  1  0.243668  0.182346  0.234405  1
  Lu  Lu3  1  0.257513  0.185228  0.733962  1
  Zr  Zr4  1  0.743733  0.277184  0.452901  1
  Zr  Zr5  1  0.244325  0.724917  0.048652  1
  Zr  Zr6  1  0.255249  0.725225  0.542184  1
  Zr  Zr7  1  0.755722  0.271813  0.956108  1
  F  F8  1  0.465646  0.710041  0.922494  1
  F  F9  1  0.969095  0.288538  0.579138  1
  F  F10  1  0.528917  0.287163  0.080352  1
  F  F11  1  0.028581  0.711134  0.417749  1
  F  F12  1  0.450714  0.279615  0.551488  1
  F  F13  1  0.951268  0.718408  0.952865  1
  F  F14  1  0.551247  0.721400  0.446302  1
  F  F15  1  0.048887  0.277483  0.053475  1
  F  F16  1  0.769596  0.524712  0.858235  1
  F  F17  1  0.268081  0.471031  0.641607  1
  F  F18  1  0.233826  0.470475  0.144628  1
  F  F19  1  0.732246  0.530503  0.355534  1
  F  F20  1  0.759305  0.018589  0.060502  1
  F  F21  1  0.258805  0.978834  0.439207  1
  F  F22  1  0.240227  0.977541  0.941355  1
  F  F23  1  0.739808  0.023919  0.556300  1
  F  F24  1  0.982565  0.732841  0.648105  1
  F  F25  1  0.482453  0.265259  0.849085  1
  F  F26  1  0.015068  0.264440  0.346968  1
  F  F27  1  0.516817  0.735859  0.154076  1
  F  F28  1  0.029005  0.748058  0.176406  1
  F  F29  1  0.527500  0.252817  0.325420  1
  F  F30  1  0.971104  0.250771  0.826851  1
  F  F31  1  0.464650  0.745357  0.672564  1
  F  F32  1  0.433934  0.976423  0.235932  1
  F  F33  1  0.934216  0.024567  0.264175  1
  F  F34  1  0.567940  0.032161  0.765158  1
  F  F35  1  0.077748  0.977709  0.734243  1
