# generated using pymatgen
data_Y2Ti3Co9As3P4
_symmetry_space_group_name_H-M   'P 1'
_cell_length_a   3.71775400
_cell_length_b   9.32824326
_cell_length_c   9.32824400
_cell_angle_alpha   119.99999553
_cell_angle_beta   90.00000000
_cell_angle_gamma   90.00000000
_symmetry_Int_Tables_number   1
_chemical_formula_structural   Y2Ti3Co9As3P4
_chemical_formula_sum   'Y2 Ti3 Co9 As3 P4'
_cell_volume   280.16318197
_cell_formula_units_Z   1
loop_
 _symmetry_equiv_pos_site_id
 _symmetry_equiv_pos_as_xyz
  1  'x, y, z'
loop_
 _atom_site_type_symbol
 _atom_site_label
 _atom_site_symmetry_multiplicity
 _atom_site_fract_x
 _atom_site_fract_y
 _atom_site_fract_z
 _atom_site_occupancy
  Y  Y0  1  0.000000  0.666667  0.333333  1
  Y  Y1  1  0.500000  0.333333  0.666667  1
  Ti  Ti2  1  0.500000  0.779297  0.889185  1
  Ti  Ti3  1  0.500000  0.109889  0.220703  1
  Ti  Ti4  1  0.500000  0.110815  0.890111  1
  Co  Co5  1  0.000000  0.567292  0.931298  1
  Co  Co6  1  0.000000  0.364006  0.432708  1
  Co  Co7  1  0.000000  0.068702  0.635994  1
  Co  Co8  1  0.000000  0.887903  0.161952  1
  Co  Co9  1  0.000000  0.274049  0.112097  1
  Co  Co10  1  0.000000  0.838048  0.725951  1
  Co  Co11  1  0.500000  0.960220  0.389536  1
  Co  Co12  1  0.500000  0.429316  0.039780  1
  Co  Co13  1  0.500000  0.610464  0.570684  1
  As  As14  1  0.500000  0.710647  0.121769  1
  As  As15  1  0.500000  0.411121  0.289353  1
  As  As16  1  0.500000  0.878231  0.588879  1
  P  P17  1  0.000000  0.000000  0.000000  1
  P  P18  1  0.000000  0.580768  0.692950  1
  P  P19  1  0.000000  0.112183  0.419232  1
  P  P20  1  0.000000  0.307050  0.887817  1
