# generated using pymatgen
data_LiLu3Ga(AgGe)2
_symmetry_space_group_name_H-M   'P 1'
_cell_length_a   7.00768100
_cell_length_b   7.09324152
_cell_length_c   4.12482100
_cell_angle_alpha   90.00000000
_cell_angle_beta   90.00000000
_cell_angle_gamma   119.60177480
_symmetry_Int_Tables_number   1
_chemical_formula_structural   LiLu3Ga(AgGe)2
_chemical_formula_sum   'Li1 Lu3 Ga1 Ag2 Ge2'
_cell_volume   178.27218570
_cell_formula_units_Z   1
loop_
 _symmetry_equiv_pos_site_id
 _symmetry_equiv_pos_as_xyz
  1  'x, y, z'
loop_
 _atom_site_type_symbol
 _atom_site_label
 _atom_site_symmetry_multiplicity
 _atom_site_fract_x
 _atom_site_fract_y
 _atom_site_fract_z
 _atom_site_occupancy
  Li  Li0  1  0.242190  0.000000  0.500000  1
  Lu  Lu1  1  0.575563  0.000000  0.000000  1
  Lu  Lu2  1  0.995305  0.570497  0.000000  1
  Lu  Lu3  1  0.424808  0.429503  0.000000  1
  Ga  Ga4  1  0.018130  0.000000  0.000000  1
  Ag  Ag5  1  0.002084  0.245237  0.500000  1
  Ag  Ag6  1  0.756847  0.754763  0.500000  1
  Ge  Ge7  1  0.330667  0.676262  0.500000  1
  Ge  Ge8  1  0.654407  0.323738  0.500000  1
