# generated using pymatgen
data_HoTh(SbTe)2
_symmetry_space_group_name_H-M   'P 1'
_cell_length_a   4.36856100
_cell_length_b   4.36856100
_cell_length_c   9.23008300
_cell_angle_alpha   90.00000000
_cell_angle_beta   90.00000000
_cell_angle_gamma   90.00000000
_symmetry_Int_Tables_number   1
_chemical_formula_structural   HoTh(SbTe)2
_chemical_formula_sum   'Ho1 Th1 Sb2 Te2'
_cell_volume   176.14990569
_cell_formula_units_Z   1
loop_
 _symmetry_equiv_pos_site_id
 _symmetry_equiv_pos_as_xyz
  1  'x, y, z'
loop_
 _atom_site_type_symbol
 _atom_site_label
 _atom_site_symmetry_multiplicity
 _atom_site_fract_x
 _atom_site_fract_y
 _atom_site_fract_z
 _atom_site_occupancy
  Ho  Ho0  1  0.000000  0.500000  0.733210  1
  Th  Th1  1  0.500000  0.000000  0.267949  1
  Sb  Sb2  1  0.000000  0.000000  0.996439  1
  Sb  Sb3  1  0.500000  0.500000  0.996439  1
  Te  Te4  1  0.000000  0.500000  0.376466  1
  Te  Te5  1  0.500000  0.000000  0.629497  1
