# generated using pymatgen
data_Tb15Ho3(ErSn8)2
_symmetry_space_group_name_H-M   'P 1'
_cell_length_a   8.04690805
_cell_length_b   8.19974312
_cell_length_c   15.51231301
_cell_angle_alpha   90.00762587
_cell_angle_beta   90.00389893
_cell_angle_gamma   90.02556250
_symmetry_Int_Tables_number   1
_chemical_formula_structural   Tb15Ho3(ErSn8)2
_chemical_formula_sum   'Tb15 Ho3 Er2 Sn16'
_cell_volume   1023.54230468
_cell_formula_units_Z   1
loop_
 _symmetry_equiv_pos_site_id
 _symmetry_equiv_pos_as_xyz
  1  'x, y, z'
loop_
 _atom_site_type_symbol
 _atom_site_label
 _atom_site_symmetry_multiplicity
 _atom_site_fract_x
 _atom_site_fract_y
 _atom_site_fract_z
 _atom_site_occupancy
  Tb  Tb0  1  0.867374  0.663946  0.621916  1
  Tb  Tb1  1  0.632431  0.163840  0.378254  1
  Tb  Tb2  1  0.132635  0.336026  0.121372  1
  Tb  Tb3  1  0.632516  0.163987  0.121780  1
  Tb  Tb4  1  0.132457  0.336077  0.378257  1
  Tb  Tb5  1  0.367522  0.836146  0.621829  1
  Tb  Tb6  1  0.867658  0.663826  0.878394  1
  Tb  Tb7  1  0.520014  0.319839  0.902357  1
  Tb  Tb8  1  0.020135  0.179932  0.597797  1
  Tb  Tb9  1  0.479965  0.680063  0.402322  1
  Tb  Tb10  1  0.979745  0.819896  0.097725  1
  Tb  Tb11  1  0.479864  0.680141  0.097389  1
  Tb  Tb12  1  0.979942  0.820023  0.402275  1
  Tb  Tb13  1  0.520015  0.320030  0.597836  1
  Tb  Tb14  1  0.020202  0.179855  0.902245  1
  Ho  Ho15  1  0.367352  0.836375  0.877976  1
  Ho  Ho16  1  0.198636  0.502580  0.750256  1
  Ho  Ho17  1  0.698303  0.997478  0.750157  1
  Er  Er18  1  0.801574  0.497692  0.250006  1
  Er  Er19  1  0.301550  0.002259  0.249844  1
  Sn  Sn20  1  0.292616  0.034064  0.041663  1
  Sn  Sn21  1  0.792551  0.465223  0.457591  1
  Sn  Sn22  1  0.707528  0.965153  0.542382  1
  Sn  Sn23  1  0.208385  0.536077  0.957451  1
  Sn  Sn24  1  0.706116  0.964805  0.957500  1
  Sn  Sn25  1  0.207399  0.534871  0.542393  1
  Sn  Sn26  1  0.292497  0.034794  0.457541  1
  Sn  Sn27  1  0.792472  0.465253  0.042464  1
  Sn  Sn28  1  0.564521  0.619236  0.750363  1
  Sn  Sn29  1  0.065385  0.881206  0.750444  1
  Sn  Sn30  1  0.435279  0.381365  0.249943  1
  Sn  Sn31  1  0.935351  0.118641  0.249960  1
  Sn  Sn32  1  0.328424  0.146469  0.750291  1
  Sn  Sn33  1  0.828217  0.353077  0.750056  1
  Sn  Sn34  1  0.671713  0.852883  0.249971  1
  Sn  Sn35  1  0.171657  0.646872  0.249997  1
