# generated using pymatgen
data_Ta8PdS20
_symmetry_space_group_name_H-M   'P 1'
_cell_length_a   10.28163398
_cell_length_b   10.28163569
_cell_length_c   18.83348800
_cell_angle_alpha   76.93199371
_cell_angle_beta   76.93199148
_cell_angle_gamma   18.79298338
_symmetry_Int_Tables_number   1
_chemical_formula_structural   Ta8PdS20
_chemical_formula_sum   'Ta8 Pd1 S20'
_cell_volume   624.30510674
_cell_formula_units_Z   1
loop_
 _symmetry_equiv_pos_site_id
 _symmetry_equiv_pos_as_xyz
  1  'x, y, z'
loop_
 _atom_site_type_symbol
 _atom_site_label
 _atom_site_symmetry_multiplicity
 _atom_site_fract_x
 _atom_site_fract_y
 _atom_site_fract_z
 _atom_site_occupancy
  Ta  Ta0  1  0.079964  0.079964  0.093441  1
  Ta  Ta1  1  0.920036  0.920036  0.906559  1
  Ta  Ta2  1  0.329701  0.329701  0.809641  1
  Ta  Ta3  1  0.670299  0.670299  0.190359  1
  Ta  Ta4  1  0.267719  0.267719  0.281305  1
  Ta  Ta5  1  0.732281  0.732281  0.718695  1
  Ta  Ta6  1  0.160427  0.160427  0.553023  1
  Ta  Ta7  1  0.839573  0.839573  0.446977  1
  Pd  Pd8  1  0.500000  0.500000  0.000000  1
  S  S9  1  0.433393  0.433393  0.404011  1
  S  S10  1  0.566607  0.566607  0.595989  1
  S  S11  1  0.395832  0.395832  0.515512  1
  S  S12  1  0.604168  0.604168  0.484488  1
  S  S13  1  0.150674  0.150674  0.690369  1
  S  S14  1  0.849326  0.849326  0.309631  1
  S  S15  1  0.383917  0.383917  0.003904  1
  S  S16  1  0.616083  0.616083  0.996096  1
  S  S17  1  0.205773  0.205773  0.819008  1
  S  S18  1  0.794227  0.794227  0.180992  1
  S  S19  1  0.253208  0.253208  0.429894  1
  S  S20  1  0.746792  0.746792  0.570106  1
  S  S21  1  0.325127  0.325127  0.678992  1
  S  S22  1  0.674873  0.674873  0.321008  1
  S  S23  1  0.488872  0.488872  0.127247  1
  S  S24  1  0.511128  0.511128  0.872753  1
  S  S25  1  0.201815  0.201815  0.092389  1
  S  S26  1  0.798185  0.798185  0.907611  1
  S  S27  1  0.078866  0.078866  0.226026  1
  S  S28  1  0.921134  0.921134  0.773974  1
