# generated using pymatgen
data_CeMn2SiC
_symmetry_space_group_name_H-M   'P 1'
_cell_length_a   5.66295957
_cell_length_b   5.66296109
_cell_length_c   7.00804000
_cell_angle_alpha   90.00000000
_cell_angle_beta   90.00000000
_cell_angle_gamma   140.85126155
_symmetry_Int_Tables_number   1
_chemical_formula_structural   CeMn2SiC
_chemical_formula_sum   'Ce2 Mn4 Si2 C2'
_cell_volume   141.88744634
_cell_formula_units_Z   2
loop_
 _symmetry_equiv_pos_site_id
 _symmetry_equiv_pos_as_xyz
  1  'x, y, z'
loop_
 _atom_site_type_symbol
 _atom_site_label
 _atom_site_symmetry_multiplicity
 _atom_site_fract_x
 _atom_site_fract_y
 _atom_site_fract_z
 _atom_site_occupancy
  Ce  Ce0  1  0.546676  0.453324  0.250000  1
  Ce  Ce1  1  0.453324  0.546676  0.750000  1
  Mn  Mn2  1  0.831743  0.168257  0.061733  1
  Mn  Mn3  1  0.168257  0.831743  0.938267  1
  Mn  Mn4  1  0.168257  0.831743  0.561733  1
  Mn  Mn5  1  0.831743  0.168257  0.438267  1
  Si  Si6  1  0.266462  0.733538  0.250000  1
  Si  Si7  1  0.733538  0.266462  0.750000  1
  C  C8  1  0.000000  0.000000  0.000000  1
  C  C9  1  0.000000  0.000000  0.500000  1
