# generated using pymatgen
data_NdTmZn5Sn
_symmetry_space_group_name_H-M   'P 1'
_cell_length_a   8.43113200
_cell_length_b   8.43113301
_cell_length_c   9.01316900
_cell_angle_alpha   90.00000000
_cell_angle_beta   90.00000000
_cell_angle_gamma   149.79355687
_symmetry_Int_Tables_number   1
_chemical_formula_structural   NdTmZn5Sn
_chemical_formula_sum   'Nd2 Tm2 Zn10 Sn2'
_cell_volume   322.34315498
_cell_formula_units_Z   2
loop_
 _symmetry_equiv_pos_site_id
 _symmetry_equiv_pos_as_xyz
  1  'x, y, z'
loop_
 _atom_site_type_symbol
 _atom_site_label
 _atom_site_symmetry_multiplicity
 _atom_site_fract_x
 _atom_site_fract_y
 _atom_site_fract_z
 _atom_site_occupancy
  Nd  Nd0  1  0.000000  0.000000  0.500000  1
  Nd  Nd1  1  0.000000  0.000000  0.000000  1
  Tm  Tm2  1  0.204808  0.795192  0.250000  1
  Tm  Tm3  1  0.795192  0.204808  0.750000  1
  Zn  Zn4  1  0.811714  0.188286  0.390129  1
  Zn  Zn5  1  0.188286  0.811714  0.609871  1
  Zn  Zn6  1  0.811714  0.188286  0.109871  1
  Zn  Zn7  1  0.188286  0.811714  0.890129  1
  Zn  Zn8  1  0.658733  0.341267  0.482079  1
  Zn  Zn9  1  0.341267  0.658733  0.517921  1
  Zn  Zn10  1  0.658733  0.341267  0.017921  1
  Zn  Zn11  1  0.341267  0.658733  0.982079  1
  Zn  Zn12  1  0.393296  0.606704  0.250000  1
  Zn  Zn13  1  0.606704  0.393296  0.750000  1
  Sn  Sn14  1  0.557076  0.442924  0.250000  1
  Sn  Sn15  1  0.442924  0.557076  0.750000  1
