# generated using pymatgen
data_CsInSn3O8
_symmetry_space_group_name_H-M   'P 1'
_cell_length_a   3.29044804
_cell_length_b   7.78291860
_cell_length_c   7.94149722
_cell_angle_alpha   87.07621023
_cell_angle_beta   78.06241917
_cell_angle_gamma   77.81063874
_symmetry_Int_Tables_number   1
_chemical_formula_structural   CsInSn3O8
_chemical_formula_sum   'Cs1 In1 Sn3 O8'
_cell_volume   194.48614108
_cell_formula_units_Z   1
loop_
 _symmetry_equiv_pos_site_id
 _symmetry_equiv_pos_as_xyz
  1  'x, y, z'
loop_
 _atom_site_type_symbol
 _atom_site_label
 _atom_site_symmetry_multiplicity
 _atom_site_fract_x
 _atom_site_fract_y
 _atom_site_fract_z
 _atom_site_occupancy
  Cs  Cs0  1  0.047022  0.995803  0.002672  1
  In  In1  1  0.171076  0.510661  0.185147  1
  Sn  Sn2  1  0.865108  0.485876  0.820067  1
  Sn  Sn3  1  0.677633  0.190043  0.489409  1
  Sn  Sn4  1  0.353274  0.815066  0.513497  1
  O  O5  1  0.354638  0.623662  0.703626  1
  O  O6  1  0.685803  0.368318  0.296966  1
  O  O7  1  0.969230  0.715465  0.380944  1
  O  O8  1  0.057510  0.296496  0.624375  1
  O  O9  1  0.374838  0.353665  0.934080  1
  O  O10  1  0.679951  0.639975  0.040010  1
  O  O11  1  0.722480  0.952430  0.639651  1
  O  O12  1  0.306437  0.052539  0.369557  1
