# generated using pymatgen
data_Nd3Dy3TcTe2
_symmetry_space_group_name_H-M   'P 1'
_cell_length_a   8.46109500
_cell_length_b   8.46109370
_cell_length_c   4.15831500
_cell_angle_alpha   90.00000000
_cell_angle_beta   90.00000000
_cell_angle_gamma   120.00000118
_symmetry_Int_Tables_number   1
_chemical_formula_structural   Nd3Dy3TcTe2
_chemical_formula_sum   'Nd3 Dy3 Tc1 Te2'
_cell_volume   257.81078851
_cell_formula_units_Z   1
loop_
 _symmetry_equiv_pos_site_id
 _symmetry_equiv_pos_as_xyz
  1  'x, y, z'
loop_
 _atom_site_type_symbol
 _atom_site_label
 _atom_site_symmetry_multiplicity
 _atom_site_fract_x
 _atom_site_fract_y
 _atom_site_fract_z
 _atom_site_occupancy
  Nd  Nd0  1  0.603645  0.000000  0.500000  1
  Nd  Nd1  1  0.396355  0.396355  0.500000  1
  Nd  Nd2  1  0.000000  0.603645  0.500000  1
  Dy  Dy3  1  0.000000  0.234498  0.000000  1
  Dy  Dy4  1  0.765502  0.765502  0.000000  1
  Dy  Dy5  1  0.234498  0.000000  0.000000  1
  Tc  Tc6  1  0.000000  0.000000  0.500000  1
  Te  Te7  1  0.333333  0.666667  0.000000  1
  Te  Te8  1  0.666667  0.333333  0.000000  1
