# generated using pymatgen
data_Er2Si5SnAsRh12
_symmetry_space_group_name_H-M   'P 1'
_cell_length_a   9.86903250
_cell_length_b   9.93333853
_cell_length_c   3.86205617
_cell_angle_alpha   90.02745573
_cell_angle_beta   89.96940625
_cell_angle_gamma   120.16837758
_symmetry_Int_Tables_number   1
_chemical_formula_structural   Er2Si5SnAsRh12
_chemical_formula_sum   'Er2 Si5 Sn1 As1 Rh12'
_cell_volume   327.32531488
_cell_formula_units_Z   1
loop_
 _symmetry_equiv_pos_site_id
 _symmetry_equiv_pos_as_xyz
  1  'x, y, z'
loop_
 _atom_site_type_symbol
 _atom_site_label
 _atom_site_symmetry_multiplicity
 _atom_site_fract_x
 _atom_site_fract_y
 _atom_site_fract_z
 _atom_site_occupancy
  Er  Er0  1  0.673262  0.333621  0.744048  1
  Er  Er1  1  0.331931  0.667578  0.243534  1
  Si  Si2  1  0.289093  0.887198  0.743150  1
  Si  Si3  1  0.107753  0.401111  0.743330  1
  Si  Si4  1  0.600687  0.711828  0.742975  1
  Si  Si5  1  0.705302  0.106832  0.244342  1
  Si  Si6  1  0.890733  0.597125  0.243584  1
  Sn  Sn7  1  0.998511  0.999321  0.732388  1
  As  As8  1  0.408754  0.294285  0.244039  1
  Rh  Rh9  1  0.071355  0.622462  0.743255  1
  Rh  Rh10  1  0.374374  0.454369  0.743977  1
  Rh  Rh11  1  0.551160  0.926215  0.743683  1
  Rh  Rh12  1  0.939238  0.387115  0.243453  1
  Rh  Rh13  1  0.613833  0.559603  0.243646  1
  Rh  Rh14  1  0.444532  0.052207  0.243453  1
  Rh  Rh15  1  0.294151  0.130870  0.744423  1
  Rh  Rh16  1  0.863740  0.159761  0.744500  1
  Rh  Rh17  1  0.841091  0.704659  0.743503  1
  Rh  Rh18  1  0.743722  0.883620  0.242175  1
  Rh  Rh19  1  0.116535  0.858690  0.242556  1
  Rh  Rh20  1  0.140246  0.261529  0.243611  1
