# generated using pymatgen
data_Sm8Sc12Sn9Pb7
_symmetry_space_group_name_H-M   'P 1'
_cell_length_a   7.87611503
_cell_length_b   8.01186536
_cell_length_c   15.12623263
_cell_angle_alpha   90.03304902
_cell_angle_beta   90.00164884
_cell_angle_gamma   89.99054420
_symmetry_Int_Tables_number   1
_chemical_formula_structural   Sm8Sc12Sn9Pb7
_chemical_formula_sum   'Sm8 Sc12 Sn9 Pb7'
_cell_volume   954.50100386
_cell_formula_units_Z   1
loop_
 _symmetry_equiv_pos_site_id
 _symmetry_equiv_pos_as_xyz
  1  'x, y, z'
loop_
 _atom_site_type_symbol
 _atom_site_label
 _atom_site_symmetry_multiplicity
 _atom_site_fract_x
 _atom_site_fract_y
 _atom_site_fract_z
 _atom_site_occupancy
  Sm  Sm0  1  0.518823  0.324665  0.903067  1
  Sm  Sm1  1  0.017548  0.176294  0.597866  1
  Sm  Sm2  1  0.482593  0.676277  0.402133  1
  Sm  Sm3  1  0.981705  0.821902  0.097598  1
  Sm  Sm4  1  0.484575  0.674548  0.097482  1
  Sm  Sm5  1  0.982503  0.823676  0.402150  1
  Sm  Sm6  1  0.517486  0.323663  0.597816  1
  Sm  Sm7  1  0.016534  0.177371  0.902717  1
  Sc  Sc8  1  0.358729  0.837757  0.872768  1
  Sc  Sc9  1  0.858892  0.662081  0.627287  1
  Sc  Sc10  1  0.641056  0.162179  0.372732  1
  Sc  Sc11  1  0.139194  0.338318  0.126862  1
  Sc  Sc12  1  0.642242  0.164463  0.126611  1
  Sc  Sc13  1  0.141058  0.337910  0.372725  1
  Sc  Sc14  1  0.358970  0.837973  0.627294  1
  Sc  Sc15  1  0.858505  0.660945  0.873613  1
  Sc  Sc16  1  0.190037  0.505792  0.750121  1
  Sc  Sc17  1  0.690104  0.994108  0.750021  1
  Sc  Sc18  1  0.809715  0.494094  0.248568  1
  Sc  Sc19  1  0.309806  0.005963  0.249920  1
  Sn  Sn20  1  0.807572  0.455534  0.043213  1
  Sn  Sn21  1  0.554379  0.630069  0.750021  1
  Sn  Sn22  1  0.054201  0.869741  0.750145  1
  Sn  Sn23  1  0.445278  0.369975  0.250114  1
  Sn  Sn24  1  0.945649  0.129841  0.249921  1
  Sn  Sn25  1  0.325920  0.143671  0.750130  1
  Sn  Sn26  1  0.826004  0.356632  0.749990  1
  Sn  Sn27  1  0.674173  0.856785  0.249936  1
  Sn  Sn28  1  0.174211  0.643364  0.249928  1
  Pb  Pb29  1  0.306354  0.044323  0.043016  1
  Pb  Pb30  1  0.806336  0.455458  0.456962  1
  Pb  Pb31  1  0.693688  0.955412  0.542967  1
  Pb  Pb32  1  0.192707  0.544514  0.957319  1
  Pb  Pb33  1  0.693546  0.955570  0.956994  1
  Pb  Pb34  1  0.193672  0.544562  0.542946  1
  Pb  Pb35  1  0.306240  0.044566  0.457043  1
