# generated using pymatgen
data_Tb4NiAg
_symmetry_space_group_name_H-M   'P 1'
_cell_length_a   9.49023783
_cell_length_b   9.49023818
_cell_length_c   9.49023800
_cell_angle_alpha   60.00000061
_cell_angle_beta   59.99999941
_cell_angle_gamma   59.99999880
_symmetry_Int_Tables_number   1
_chemical_formula_structural   Tb4NiAg
_chemical_formula_sum   'Tb16 Ni4 Ag4'
_cell_volume   604.38866463
_cell_formula_units_Z   4
loop_
 _symmetry_equiv_pos_site_id
 _symmetry_equiv_pos_as_xyz
  1  'x, y, z'
loop_
 _atom_site_type_symbol
 _atom_site_label
 _atom_site_symmetry_multiplicity
 _atom_site_fract_x
 _atom_site_fract_y
 _atom_site_fract_z
 _atom_site_occupancy
  Tb  Tb0  1  0.350463  0.350463  0.350463  1
  Tb  Tb1  1  0.350463  0.350463  0.948612  1
  Tb  Tb2  1  0.350463  0.948612  0.350463  1
  Tb  Tb3  1  0.948612  0.350463  0.350463  1
  Tb  Tb4  1  0.811048  0.188952  0.188952  1
  Tb  Tb5  1  0.188952  0.811048  0.811048  1
  Tb  Tb6  1  0.188952  0.811048  0.188952  1
  Tb  Tb7  1  0.811048  0.188952  0.811048  1
  Tb  Tb8  1  0.188952  0.188952  0.811048  1
  Tb  Tb9  1  0.811048  0.811048  0.188952  1
  Tb  Tb10  1  0.935015  0.564985  0.564985  1
  Tb  Tb11  1  0.564985  0.935015  0.935015  1
  Tb  Tb12  1  0.564985  0.935015  0.564985  1
  Tb  Tb13  1  0.935015  0.564985  0.935015  1
  Tb  Tb14  1  0.564985  0.564985  0.935015  1
  Tb  Tb15  1  0.935015  0.935015  0.564985  1
  Ni  Ni16  1  0.142795  0.142795  0.142795  1
  Ni  Ni17  1  0.142795  0.142795  0.571615  1
  Ni  Ni18  1  0.142795  0.571615  0.142795  1
  Ni  Ni19  1  0.571615  0.142795  0.142795  1
  Ag  Ag20  1  0.581711  0.581711  0.581711  1
  Ag  Ag21  1  0.581711  0.581711  0.254865  1
  Ag  Ag22  1  0.581711  0.254865  0.581711  1
  Ag  Ag23  1  0.254865  0.581711  0.581711  1
