# generated using pymatgen
data_Eu6YHoSb6
_symmetry_space_group_name_H-M   'P 1'
_cell_length_a   8.30509376
_cell_length_b   8.30163813
_cell_length_c   8.38876882
_cell_angle_alpha   109.55510874
_cell_angle_beta   109.55803238
_cell_angle_gamma   109.05502922
_symmetry_Int_Tables_number   1
_chemical_formula_structural   Eu6YHoSb6
_chemical_formula_sum   'Eu6 Y1 Ho1 Sb6'
_cell_volume   446.56552721
_cell_formula_units_Z   1
loop_
 _symmetry_equiv_pos_site_id
 _symmetry_equiv_pos_as_xyz
  1  'x, y, z'
loop_
 _atom_site_type_symbol
 _atom_site_label
 _atom_site_symmetry_multiplicity
 _atom_site_fract_x
 _atom_site_fract_y
 _atom_site_fract_z
 _atom_site_occupancy
  Eu  Eu0  1  0.502105  0.005441  0.360081  1
  Eu  Eu1  1  0.995897  0.356468  0.494713  1
  Eu  Eu2  1  0.505092  0.001847  0.860077  1
  Eu  Eu3  1  0.641451  0.641537  0.645710  1
  Eu  Eu4  1  0.141769  0.141484  0.146100  1
  Eu  Eu5  1  0.856406  0.495840  0.994908  1
  Y  Y6  1  0.356667  0.500454  0.998642  1
  Ho  Ho7  1  0.000430  0.857565  0.498281  1
  Sb  Sb8  1  0.747038  0.864642  0.132621  1
  Sb  Sb9  1  0.363839  0.245400  0.631348  1
  Sb  Sb10  1  0.247813  0.629160  0.370659  1
  Sb  Sb11  1  0.888568  0.122926  0.748078  1
  Sb  Sb12  1  0.624531  0.389150  0.248876  1
  Sb  Sb13  1  0.128393  0.748086  0.869906  1
