# generated using pymatgen
data_Nb2V2SiGe
_symmetry_space_group_name_H-M   'P 1'
_cell_length_a   3.43016500
_cell_length_b   6.64905524
_cell_length_c   8.01619637
_cell_angle_alpha   89.83324484
_cell_angle_beta   90.00000000
_cell_angle_gamma   90.00000000
_symmetry_Int_Tables_number   1
_chemical_formula_structural   Nb2V2SiGe
_chemical_formula_sum   'Nb4 V4 Si2 Ge2'
_cell_volume   182.82747473
_cell_formula_units_Z   2
loop_
 _symmetry_equiv_pos_site_id
 _symmetry_equiv_pos_as_xyz
  1  'x, y, z'
loop_
 _atom_site_type_symbol
 _atom_site_label
 _atom_site_symmetry_multiplicity
 _atom_site_fract_x
 _atom_site_fract_y
 _atom_site_fract_z
 _atom_site_occupancy
  Nb  Nb0  1  0.250000  0.551525  0.171577  1
  Nb  Nb1  1  0.750000  0.448475  0.828423  1
  Nb  Nb2  1  0.750000  0.960208  0.663774  1
  Nb  Nb3  1  0.250000  0.039792  0.336226  1
  V  V4  1  0.250000  0.626132  0.558224  1
  V  V5  1  0.750000  0.373868  0.441776  1
  V  V6  1  0.750000  0.870332  0.063719  1
  V  V7  1  0.250000  0.129668  0.936281  1
  Si  Si8  1  0.750000  0.746436  0.363129  1
  Si  Si9  1  0.250000  0.253564  0.636871  1
  Ge  Ge10  1  0.250000  0.752523  0.860440  1
  Ge  Ge11  1  0.750000  0.247477  0.139560  1
