# generated using pymatgen
data_Hf6Ti16Ir5Ru2
_symmetry_space_group_name_H-M   'P 1'
_cell_length_a   8.92410846
_cell_length_b   8.92410948
_cell_length_c   8.95162400
_cell_angle_alpha   59.89795712
_cell_angle_beta   59.89795335
_cell_angle_gamma   60.05064629
_symmetry_Int_Tables_number   1
_chemical_formula_structural   Hf6Ti16Ir5Ru2
_chemical_formula_sum   'Hf6 Ti16 Ir5 Ru2'
_cell_volume   503.51268859
_cell_formula_units_Z   1
loop_
 _symmetry_equiv_pos_site_id
 _symmetry_equiv_pos_as_xyz
  1  'x, y, z'
loop_
 _atom_site_type_symbol
 _atom_site_label
 _atom_site_symmetry_multiplicity
 _atom_site_fract_x
 _atom_site_fract_y
 _atom_site_fract_z
 _atom_site_occupancy
  Hf  Hf0  1  0.683215  0.316785  0.317798  1
  Hf  Hf1  1  0.316785  0.683215  0.682202  1
  Hf  Hf2  1  0.316785  0.683215  0.317798  1
  Hf  Hf3  1  0.683215  0.316785  0.682202  1
  Hf  Hf4  1  0.316163  0.316163  0.683837  1
  Hf  Hf5  1  0.683837  0.683837  0.316163  1
  Ti  Ti6  1  0.332846  0.332846  0.328568  1
  Ti  Ti7  1  0.667154  0.667154  0.671432  1
  Ti  Ti8  1  0.332846  0.332846  0.005742  1
  Ti  Ti9  1  0.331356  0.008124  0.330260  1
  Ti  Ti10  1  0.667154  0.667154  0.994258  1
  Ti  Ti11  1  0.668644  0.991876  0.669740  1
  Ti  Ti12  1  0.008124  0.331356  0.330260  1
  Ti  Ti13  1  0.991876  0.668644  0.669740  1
  Ti  Ti14  1  0.117930  0.117930  0.116821  1
  Ti  Ti15  1  0.882070  0.882070  0.883179  1
  Ti  Ti16  1  0.117930  0.117930  0.647319  1
  Ti  Ti17  1  0.117766  0.649523  0.116355  1
  Ti  Ti18  1  0.882070  0.882070  0.352681  1
  Ti  Ti19  1  0.882234  0.350477  0.883645  1
  Ti  Ti20  1  0.649523  0.117766  0.116355  1
  Ti  Ti21  1  0.350477  0.882234  0.883645  1
  Ir  Ir22  1  0.500000  0.000000  0.000000  1
  Ir  Ir23  1  0.000000  0.500000  0.500000  1
  Ir  Ir24  1  0.000000  0.500000  0.000000  1
  Ir  Ir25  1  0.500000  0.000000  0.500000  1
  Ir  Ir26  1  0.000000  0.000000  0.500000  1
  Ru  Ru27  1  0.500000  0.500000  0.000000  1
  Ru  Ru28  1  0.000000  0.000000  0.000000  1
