# generated using pymatgen
data_Cs2TiSi4Mo5(P6O25)2
_symmetry_space_group_name_H-M   'P 1'
_cell_length_a   8.45599000
_cell_length_b   8.45598987
_cell_length_c   18.19295400
_cell_angle_alpha   90.00000000
_cell_angle_beta   90.00000000
_cell_angle_gamma   120.00000052
_symmetry_Int_Tables_number   1
_chemical_formula_structural   Cs2TiSi4Mo5(P6O25)2
_chemical_formula_sum   'Cs2 Ti1 Si4 Mo5 P12 O50'
_cell_volume   1126.58188947
_cell_formula_units_Z   1
loop_
 _symmetry_equiv_pos_site_id
 _symmetry_equiv_pos_as_xyz
  1  'x, y, z'
loop_
 _atom_site_type_symbol
 _atom_site_label
 _atom_site_symmetry_multiplicity
 _atom_site_fract_x
 _atom_site_fract_y
 _atom_site_fract_z
 _atom_site_occupancy
  Cs  Cs0  1  0.666667  0.333333  0.748317  1
  Cs  Cs1  1  0.333333  0.666667  0.250690  1
  Ti  Ti2  1  0.666667  0.333333  0.519104  1
  Si  Si3  1  0.000000  0.000000  0.590210  1
  Si  Si4  1  0.000000  0.000000  0.414309  1
  Si  Si5  1  0.000000  0.000000  0.911801  1
  Si  Si6  1  0.000000  0.000000  0.087737  1
  Mo  Mo7  1  0.333333  0.666667  0.480608  1
  Mo  Mo8  1  0.666667  0.333333  0.980197  1
  Mo  Mo9  1  0.333333  0.666667  0.018958  1
  Mo  Mo10  1  0.333333  0.666667  0.748414  1
  Mo  Mo11  1  0.666667  0.333333  0.250416  1
  P  P12  1  0.334328  0.377947  0.608047  1
  P  P13  1  0.668030  0.618337  0.392419  1
  P  P14  1  0.622053  0.956381  0.608047  1
  P  P15  1  0.330922  0.952481  0.889840  1
  P  P16  1  0.381663  0.049693  0.392419  1
  P  P17  1  0.668334  0.046864  0.109424  1
  P  P18  1  0.043619  0.665672  0.608047  1
  P  P19  1  0.621558  0.669078  0.889840  1
  P  P20  1  0.950307  0.331970  0.392419  1
  P  P21  1  0.378531  0.331666  0.109424  1
  P  P22  1  0.047519  0.378442  0.889840  1
  P  P23  1  0.953136  0.621469  0.109424  1
  O  O24  1  0.250865  0.442260  0.547715  1
  O  O25  1  0.738299  0.548666  0.455691  1
  O  O26  1  0.557740  0.808606  0.547715  1
  O  O27  1  0.251352  0.808238  0.951600  1
  O  O28  1  0.451334  0.189633  0.455691  1
  O  O29  1  0.748264  0.191734  0.047858  1
  O  O30  1  0.191394  0.749135  0.547715  1
  O  O31  1  0.556886  0.748648  0.951600  1
  O  O32  1  0.810367  0.261701  0.455691  1
  O  O33  1  0.443471  0.251736  0.047858  1
  O  O34  1  0.191762  0.443114  0.951600  1
  O  O35  1  0.808266  0.556529  0.047858  1
  O  O36  1  0.360718  0.471245  0.681600  1
  O  O37  1  0.658109  0.535981  0.317772  1
  O  O38  1  0.528755  0.889472  0.681600  1
  O  O39  1  0.340763  0.879464  0.815267  1
  O  O40  1  0.464019  0.122128  0.317772  1
  O  O41  1  0.656167  0.118295  0.184014  1
  O  O42  1  0.110528  0.639282  0.681600  1
  O  O43  1  0.538701  0.659237  0.815267  1
  O  O44  1  0.877872  0.341891  0.317772  1
  O  O45  1  0.462128  0.343833  0.184014  1
  O  O46  1  0.120536  0.461299  0.815267  1
  O  O47  1  0.881705  0.537872  0.184014  1
  O  O48  1  0.000000  0.000000  0.502314  1
  O  O49  1  0.000000  0.000000  0.999758  1
  O  O50  1  0.611708  0.124701  0.582511  1
  O  O51  1  0.402796  0.883765  0.411729  1
  O  O52  1  0.875299  0.487007  0.582511  1
  O  O53  1  0.596651  0.481537  0.911055  1
  O  O54  1  0.116235  0.519031  0.411729  1
  O  O55  1  0.403091  0.518792  0.087931  1
  O  O56  1  0.512993  0.388292  0.582511  1
  O  O57  1  0.884886  0.403349  0.911055  1
  O  O58  1  0.480969  0.597204  0.411729  1
  O  O59  1  0.115701  0.596909  0.087931  1
  O  O60  1  0.518463  0.115114  0.911055  1
  O  O61  1  0.481208  0.884299  0.087931  1
  O  O62  1  0.833882  0.026585  0.621737  1
  O  O63  1  0.167630  0.975474  0.383398  1
  O  O64  1  0.973415  0.807296  0.621737  1
  O  O65  1  0.836263  0.805461  0.880631  1
  O  O66  1  0.024526  0.192156  0.383398  1
  O  O67  1  0.163906  0.194676  0.118817  1
  O  O68  1  0.192704  0.166118  0.621737  1
  O  O69  1  0.969198  0.163737  0.880631  1
  O  O70  1  0.807844  0.832370  0.383398  1
  O  O71  1  0.030770  0.836094  0.118817  1
  O  O72  1  0.194539  0.030802  0.880631  1
  O  O73  1  0.805324  0.969230  0.118817  1
