# generated using pymatgen
data_Hf3Ga2PtN
_symmetry_space_group_name_H-M   'P 1'
_cell_length_a   8.54310529
_cell_length_b   8.54310524
_cell_length_c   8.54310500
_cell_angle_alpha   59.99999704
_cell_angle_beta   59.99999724
_cell_angle_gamma   59.99999796
_symmetry_Int_Tables_number   1
_chemical_formula_structural   Hf3Ga2PtN
_chemical_formula_sum   'Hf12 Ga8 Pt4 N4'
_cell_volume   440.89201732
_cell_formula_units_Z   4
loop_
 _symmetry_equiv_pos_site_id
 _symmetry_equiv_pos_as_xyz
  1  'x, y, z'
loop_
 _atom_site_type_symbol
 _atom_site_label
 _atom_site_symmetry_multiplicity
 _atom_site_fract_x
 _atom_site_fract_y
 _atom_site_fract_z
 _atom_site_occupancy
  Hf  Hf0  1  0.811746  0.811746  0.188254  1
  Hf  Hf1  1  0.061746  0.438254  0.438254  1
  Hf  Hf2  1  0.438254  0.061746  0.061746  1
  Hf  Hf3  1  0.061746  0.061746  0.438254  1
  Hf  Hf4  1  0.061746  0.438254  0.061746  1
  Hf  Hf5  1  0.438254  0.061746  0.438254  1
  Hf  Hf6  1  0.188254  0.811746  0.188254  1
  Hf  Hf7  1  0.188254  0.811746  0.811746  1
  Hf  Hf8  1  0.811746  0.188254  0.188254  1
  Hf  Hf9  1  0.811746  0.188254  0.811746  1
  Hf  Hf10  1  0.438254  0.438254  0.061746  1
  Hf  Hf11  1  0.188254  0.188254  0.811746  1
  Ga  Ga12  1  0.414824  0.755525  0.414824  1
  Ga  Ga13  1  0.835176  0.835176  0.494475  1
  Ga  Ga14  1  0.494475  0.835176  0.835176  1
  Ga  Ga15  1  0.835176  0.835176  0.835176  1
  Ga  Ga16  1  0.755525  0.414824  0.414824  1
  Ga  Ga17  1  0.414824  0.414824  0.414824  1
  Ga  Ga18  1  0.414824  0.414824  0.755525  1
  Ga  Ga19  1  0.835176  0.494475  0.835176  1
  Pt  Pt20  1  0.625000  0.125000  0.625000  1
  Pt  Pt21  1  0.625000  0.625000  0.125000  1
  Pt  Pt22  1  0.125000  0.625000  0.625000  1
  Pt  Pt23  1  0.625000  0.625000  0.625000  1
  N  N24  1  0.125000  0.625000  0.125000  1
  N  N25  1  0.125000  0.125000  0.625000  1
  N  N26  1  0.625000  0.125000  0.125000  1
  N  N27  1  0.125000  0.125000  0.125000  1
