# generated using pymatgen
data_Lu9Cd(Ni2Bi)2
_symmetry_space_group_name_H-M   'P 1'
_cell_length_a   8.61050628
_cell_length_b   8.61050614
_cell_length_c   8.61050498
_cell_angle_alpha   129.49779903
_cell_angle_beta   129.49779007
_cell_angle_gamma   74.21091169
_symmetry_Int_Tables_number   1
_chemical_formula_structural   Lu9Cd(Ni2Bi)2
_chemical_formula_sum   'Lu9 Cd1 Ni4 Bi2'
_cell_volume   370.59929911
_cell_formula_units_Z   1
loop_
 _symmetry_equiv_pos_site_id
 _symmetry_equiv_pos_as_xyz
  1  'x, y, z'
loop_
 _atom_site_type_symbol
 _atom_site_label
 _atom_site_symmetry_multiplicity
 _atom_site_fract_x
 _atom_site_fract_y
 _atom_site_fract_z
 _atom_site_occupancy
  Lu  Lu0  1  0.000000  0.000000  0.000000  1
  Lu  Lu1  1  0.779951  0.301154  0.826574  1
  Lu  Lu2  1  0.220049  0.698846  0.173426  1
  Lu  Lu3  1  0.474580  0.953376  0.173426  1
  Lu  Lu4  1  0.301154  0.474580  0.521204  1
  Lu  Lu5  1  0.046624  0.220049  0.521204  1
  Lu  Lu6  1  0.525420  0.046624  0.826574  1
  Lu  Lu7  1  0.698846  0.525420  0.478796  1
  Lu  Lu8  1  0.953376  0.779951  0.478796  1
  Cd  Cd9  1  0.500000  0.500000  0.000000  1
  Ni  Ni10  1  0.120811  0.632291  0.753100  1
  Ni  Ni11  1  0.879189  0.367709  0.246900  1
  Ni  Ni12  1  0.632291  0.879189  0.511480  1
  Ni  Ni13  1  0.367709  0.120811  0.488520  1
  Bi  Bi14  1  0.237786  0.237786  0.000000  1
  Bi  Bi15  1  0.762214  0.762214  0.000000  1
