# generated using pymatgen
data_Cs5Rb(TcH9)3
_symmetry_space_group_name_H-M   'P 1'
_cell_length_a   10.42803718
_cell_length_b   10.42803662
_cell_length_c   6.12245400
_cell_angle_alpha   90.00000000
_cell_angle_beta   90.00000000
_cell_angle_gamma   121.28909595
_symmetry_Int_Tables_number   1
_chemical_formula_structural   Cs5Rb(TcH9)3
_chemical_formula_sum   'Cs5 Rb1 Tc3 H27'
_cell_volume   568.94729038
_cell_formula_units_Z   1
loop_
 _symmetry_equiv_pos_site_id
 _symmetry_equiv_pos_as_xyz
  1  'x, y, z'
loop_
 _atom_site_type_symbol
 _atom_site_label
 _atom_site_symmetry_multiplicity
 _atom_site_fract_x
 _atom_site_fract_y
 _atom_site_fract_z
 _atom_site_occupancy
  Cs  Cs0  1  0.256769  0.995620  0.500000  1
  Cs  Cs1  1  0.995620  0.256769  0.500000  1
  Cs  Cs2  1  0.591165  0.997403  0.000000  1
  Cs  Cs3  1  0.997403  0.591165  0.000000  1
  Cs  Cs4  1  0.415528  0.415528  0.000000  1
  Rb  Rb5  1  0.737363  0.737363  0.500000  1
  Tc  Tc6  1  0.986670  0.986670  0.000000  1
  Tc  Tc7  1  0.344952  0.669779  0.500000  1
  Tc  Tc8  1  0.669779  0.344952  0.500000  1
  H  H9  1  0.870781  0.984408  0.195370  1
  H  H10  1  0.984408  0.870781  0.195370  1
  H  H11  1  0.870781  0.984408  0.804630  1
  H  H12  1  0.984408  0.870781  0.804630  1
  H  H13  1  0.106658  0.106658  0.190762  1
  H  H14  1  0.106658  0.106658  0.809238  1
  H  H15  1  0.146326  0.986073  0.000000  1
  H  H16  1  0.986073  0.146326  0.000000  1
  H  H17  1  0.823187  0.823187  0.000000  1
  H  H18  1  0.244492  0.545937  0.299230  1
  H  H19  1  0.472559  0.696492  0.304999  1
  H  H20  1  0.244492  0.545937  0.700770  1
  H  H21  1  0.545937  0.244492  0.700770  1
  H  H22  1  0.319974  0.767573  0.300654  1
  H  H23  1  0.472559  0.696492  0.695001  1
  H  H24  1  0.696492  0.472559  0.695001  1
  H  H25  1  0.545937  0.244492  0.299230  1
  H  H26  1  0.319974  0.767573  0.699346  1
  H  H27  1  0.696492  0.472559  0.304999  1
  H  H28  1  0.767573  0.319974  0.699346  1
  H  H29  1  0.767573  0.319974  0.300654  1
  H  H30  1  0.372253  0.525671  0.500000  1
  H  H31  1  0.485880  0.848513  0.500000  1
  H  H32  1  0.525671  0.372253  0.500000  1
  H  H33  1  0.168048  0.631050  0.500000  1
  H  H34  1  0.848513  0.485880  0.500000  1
  H  H35  1  0.631050  0.168048  0.500000  1
