# generated using pymatgen
data_Rb4MoS3O14
_symmetry_space_group_name_H-M   'P 1'
_cell_length_a   14.32169000
_cell_length_b   9.68605056
_cell_length_c   14.12642200
_cell_angle_alpha   47.93946778
_cell_angle_beta   90.00000000
_cell_angle_gamma   90.00000000
_symmetry_Int_Tables_number   1
_chemical_formula_structural   Rb4MoS3O14
_chemical_formula_sum   'Rb16 Mo4 S12 O56'
_cell_volume   1454.89974025
_cell_formula_units_Z   4
loop_
 _symmetry_equiv_pos_site_id
 _symmetry_equiv_pos_as_xyz
  1  'x, y, z'
loop_
 _atom_site_type_symbol
 _atom_site_label
 _atom_site_symmetry_multiplicity
 _atom_site_fract_x
 _atom_site_fract_y
 _atom_site_fract_z
 _atom_site_occupancy
  Rb  Rb0  1  0.496898  0.692436  0.801843  1
  Rb  Rb1  1  0.320845  0.972933  0.847535  1
  Rb  Rb2  1  0.219248  0.478740  0.769402  1
  Rb  Rb3  1  0.719248  0.521260  0.730598  1
  Rb  Rb4  1  0.459521  0.727751  0.480087  1
  Rb  Rb5  1  0.996898  0.307564  0.698157  1
  Rb  Rb6  1  0.959521  0.272249  0.019913  1
  Rb  Rb7  1  0.780752  0.521260  0.230598  1
  Rb  Rb8  1  0.040479  0.727751  0.980087  1
  Rb  Rb9  1  0.540479  0.272249  0.519913  1
  Rb  Rb10  1  0.280752  0.478740  0.269402  1
  Rb  Rb11  1  0.820845  0.027067  0.652465  1
  Rb  Rb12  1  0.179155  0.972933  0.347535  1
  Rb  Rb13  1  0.503102  0.307564  0.198157  1
  Rb  Rb14  1  0.003102  0.692436  0.301843  1
  Rb  Rb15  1  0.679155  0.027067  0.152465  1
  Mo  Mo16  1  0.120878  0.083472  0.582126  1
  Mo  Mo17  1  0.379122  0.083472  0.082126  1
  Mo  Mo18  1  0.620878  0.916528  0.917874  1
  Mo  Mo19  1  0.879122  0.916528  0.417874  1
  S  S20  1  0.157089  0.982155  0.047976  1
  S  S21  1  0.495695  0.288302  0.795382  1
  S  S22  1  0.780888  0.550800  0.474447  1
  S  S23  1  0.657089  0.017845  0.452024  1
  S  S24  1  0.004305  0.288302  0.295382  1
  S  S25  1  0.995695  0.711698  0.704618  1
  S  S26  1  0.280888  0.449200  0.025553  1
  S  S27  1  0.842911  0.017845  0.952024  1
  S  S28  1  0.219112  0.449200  0.525553  1
  S  S29  1  0.504305  0.711698  0.204618  1
  S  S30  1  0.342911  0.982155  0.547976  1
  S  S31  1  0.719112  0.550800  0.974447  1
  O  O32  1  0.303176  0.536750  0.447277  1
  O  O33  1  0.492416  0.140431  0.089636  1
  O  O34  1  0.587520  0.787442  0.118250  1
  O  O35  1  0.739432  0.957845  0.986058  1
  O  O36  1  0.608113  0.911113  0.574924  1
  O  O37  1  0.378236  0.024369  0.624300  1
  O  O38  1  0.654651  0.220032  0.379069  1
  O  O39  1  0.145161  0.583318  0.489030  1
  O  O40  1  0.121764  0.024369  0.124300  1
  O  O41  1  0.803176  0.463250  0.052723  1
  O  O42  1  0.837866  0.025907  0.267167  1
  O  O43  1  0.236179  0.317716  0.663016  1
  O  O44  1  0.474880  0.291138  0.693098  1
  O  O45  1  0.260568  0.042155  0.013942  1
  O  O46  1  0.736179  0.682284  0.836984  1
  O  O47  1  0.696824  0.463250  0.552723  1
  O  O48  1  0.992416  0.859569  0.410364  1
  O  O49  1  0.022598  0.529716  0.750805  1
  O  O50  1  0.477402  0.529716  0.250805  1
  O  O51  1  0.154651  0.779968  0.120931  1
  O  O52  1  0.854839  0.416682  0.510970  1
  O  O53  1  0.579642  0.158518  0.875275  1
  O  O54  1  0.525120  0.708862  0.306902  1
  O  O55  1  0.763821  0.682284  0.336984  1
  O  O56  1  0.507584  0.859569  0.910364  1
  O  O57  1  0.891887  0.911113  0.074924  1
  O  O58  1  0.522598  0.470284  0.749195  1
  O  O59  1  0.912480  0.787442  0.618250  1
  O  O60  1  0.676354  0.665771  0.007669  1
  O  O61  1  0.025120  0.291138  0.193098  1
  O  O62  1  0.760568  0.957845  0.486058  1
  O  O63  1  0.323646  0.334229  0.992331  1
  O  O64  1  0.823646  0.665771  0.507669  1
  O  O65  1  0.108113  0.088887  0.925076  1
  O  O66  1  0.391887  0.088887  0.425076  1
  O  O67  1  0.662134  0.025907  0.767167  1
  O  O68  1  0.977402  0.470284  0.249195  1
  O  O69  1  0.162134  0.974093  0.732833  1
  O  O70  1  0.420358  0.841482  0.124725  1
  O  O71  1  0.337866  0.974093  0.232833  1
  O  O72  1  0.354839  0.583318  0.989030  1
  O  O73  1  0.007584  0.140431  0.589636  1
  O  O74  1  0.621764  0.975631  0.375700  1
  O  O75  1  0.239432  0.042155  0.513942  1
  O  O76  1  0.412480  0.212558  0.881750  1
  O  O77  1  0.196824  0.536750  0.947277  1
  O  O78  1  0.920358  0.158518  0.375275  1
  O  O79  1  0.845349  0.220032  0.879069  1
  O  O80  1  0.263821  0.317716  0.163016  1
  O  O81  1  0.345349  0.779968  0.620931  1
  O  O82  1  0.079642  0.841482  0.624725  1
  O  O83  1  0.974880  0.708862  0.806902  1
  O  O84  1  0.087520  0.212558  0.381750  1
  O  O85  1  0.176354  0.334229  0.492331  1
  O  O86  1  0.645161  0.416682  0.010970  1
  O  O87  1  0.878236  0.975631  0.875700  1
