# generated using pymatgen
data_Ti3ReTc2Ge3
_symmetry_space_group_name_H-M   'P 1'
_cell_length_a   6.94488443
_cell_length_b   6.92808654
_cell_length_c   3.28325600
_cell_angle_alpha   90.00000000
_cell_angle_beta   90.00000000
_cell_angle_gamma   119.92002370
_symmetry_Int_Tables_number   1
_chemical_formula_structural   Ti3ReTc2Ge3
_chemical_formula_sum   'Ti3 Re1 Tc2 Ge3'
_cell_volume   136.91881660
_cell_formula_units_Z   1
loop_
 _symmetry_equiv_pos_site_id
 _symmetry_equiv_pos_as_xyz
  1  'x, y, z'
loop_
 _atom_site_type_symbol
 _atom_site_label
 _atom_site_symmetry_multiplicity
 _atom_site_fract_x
 _atom_site_fract_y
 _atom_site_fract_z
 _atom_site_occupancy
  Ti  Ti0  1  0.399274  0.401673  0.500000  1
  Ti  Ti1  1  0.600726  0.002399  0.500000  1
  Ti  Ti2  1  0.000000  0.594093  0.500000  1
  Re  Re3  1  0.000000  0.265394  0.000000  1
  Tc  Tc4  1  0.734382  0.735686  0.000000  1
  Tc  Tc5  1  0.265618  0.001304  0.000000  1
  Ge  Ge6  1  0.664871  0.334326  0.000000  1
  Ge  Ge7  1  0.335129  0.669455  0.000000  1
  Ge  Ge8  1  0.000000  0.995670  0.500000  1
