# generated using pymatgen
data_Tm4TaB4Ir9
_symmetry_space_group_name_H-M   'P 1'
_cell_length_a   10.77970934
_cell_length_b   10.77970863
_cell_length_c   10.77970892
_cell_angle_alpha   29.74032962
_cell_angle_beta   29.74033807
_cell_angle_gamma   29.74033208
_symmetry_Int_Tables_number   1
_chemical_formula_structural   Tm4TaB4Ir9
_chemical_formula_sum   'Tm4 Ta1 B4 Ir9'
_cell_volume   272.94013434
_cell_formula_units_Z   1
loop_
 _symmetry_equiv_pos_site_id
 _symmetry_equiv_pos_as_xyz
  1  'x, y, z'
loop_
 _atom_site_type_symbol
 _atom_site_label
 _atom_site_symmetry_multiplicity
 _atom_site_fract_x
 _atom_site_fract_y
 _atom_site_fract_z
 _atom_site_occupancy
  Tm  Tm0  1  0.151057  0.151057  0.151057  1
  Tm  Tm1  1  0.949833  0.949833  0.949833  1
  Tm  Tm2  1  0.848943  0.848943  0.848943  1
  Tm  Tm3  1  0.050167  0.050167  0.050167  1
  Ta  Ta4  1  0.500000  0.500000  0.500000  1
  B  B5  1  0.615566  0.615566  0.615566  1
  B  B6  1  0.716186  0.716186  0.716186  1
  B  B7  1  0.384434  0.384434  0.384434  1
  B  B8  1  0.283814  0.283814  0.283814  1
  Ir  Ir9  1  0.400435  0.904663  0.400435  1
  Ir  Ir10  1  0.904663  0.400435  0.400435  1
  Ir  Ir11  1  0.500000  0.500000  0.000000  1
  Ir  Ir12  1  0.500000  0.000000  0.500000  1
  Ir  Ir13  1  0.000000  0.500000  0.500000  1
  Ir  Ir14  1  0.599565  0.095337  0.599565  1
  Ir  Ir15  1  0.599565  0.599565  0.095337  1
  Ir  Ir16  1  0.095337  0.599565  0.599565  1
  Ir  Ir17  1  0.400435  0.400435  0.904663  1
