# generated using pymatgen
data_Dy2HoZr(Al8Pt3)3
_symmetry_space_group_name_H-M   'P 1'
_cell_length_a   7.51922296
_cell_length_b   7.52637257
_cell_length_c   13.10590901
_cell_angle_alpha   84.54440698
_cell_angle_beta   79.02467508
_cell_angle_gamma   59.90152259
_symmetry_Int_Tables_number   1
_chemical_formula_structural   Dy2HoZr(Al8Pt3)3
_chemical_formula_sum   'Dy2 Ho1 Zr1 Al24 Pt9'
_cell_volume   629.95203200
_cell_formula_units_Z   1
loop_
 _symmetry_equiv_pos_site_id
 _symmetry_equiv_pos_as_xyz
  1  'x, y, z'
loop_
 _atom_site_type_symbol
 _atom_site_label
 _atom_site_symmetry_multiplicity
 _atom_site_fract_x
 _atom_site_fract_y
 _atom_site_fract_z
 _atom_site_occupancy
  Dy  Dy0  1  0.733905  0.498691  0.807636  1
  Dy  Dy1  1  0.266560  0.501303  0.192065  1
  Ho  Ho2  1  0.606461  0.831859  0.191917  1
  Zr  Zr3  1  0.393365  0.168130  0.809148  1
  Al  Al4  1  0.682031  0.836439  0.942013  1
  Al  Al5  1  0.316542  0.166391  0.053839  1
  Al  Al6  1  0.146474  0.832791  0.562376  1
  Al  Al7  1  0.853143  0.167159  0.438300  1
  Al  Al8  1  0.479905  0.166820  0.560695  1
  Al  Al9  1  0.519302  0.833822  0.441214  1
  Al  Al10  1  0.217153  0.165339  0.330162  1
  Al  Al11  1  0.779639  0.837006  0.672504  1
  Al  Al12  1  0.436163  0.504397  0.672866  1
  Al  Al13  1  0.562331  0.493668  0.329581  1
  Al  Al14  1  0.111409  0.159710  0.671786  1
  Al  Al15  1  0.890110  0.839796  0.330810  1
  Al  Al16  1  0.353843  0.496486  0.941961  1
  Al  Al17  1  0.647712  0.500165  0.055352  1
  Al  Al18  1  0.018675  0.167958  0.950570  1
  Al  Al19  1  0.984709  0.832734  0.046368  1
  Al  Al20  1  0.186718  0.499267  0.441255  1
  Al  Al21  1  0.813702  0.500408  0.558991  1
  Al  Al22  1  0.734019  0.163843  0.183664  1
  Al  Al23  1  0.265868  0.841409  0.816266  1
  Al  Al24  1  0.066359  0.626254  0.814949  1
  Al  Al25  1  0.939160  0.368333  0.184520  1
  Al  Al26  1  0.850603  0.041390  0.815559  1
  Al  Al27  1  0.144735  0.958683  0.183869  1
  Pt  Pt28  1  0.119750  0.491141  0.639217  1
  Pt  Pt29  1  0.879073  0.508405  0.361514  1
  Pt  Pt30  1  0.657639  0.171820  0.998851  1
  Pt  Pt31  1  0.343709  0.827800  0.999212  1
  Pt  Pt32  1  0.537493  0.166620  0.361918  1
  Pt  Pt33  1  0.463168  0.832658  0.639160  1
  Pt  Pt34  1  0.778353  0.176207  0.637859  1
  Pt  Pt35  1  0.220622  0.824772  0.363098  1
  Pt  Pt36  1  0.999597  0.500325  0.998935  1
