# generated using pymatgen
data_Hf2U(Co3P2)3
_symmetry_space_group_name_H-M   'P 1'
_cell_length_a   3.64283700
_cell_length_b   10.33736600
_cell_length_c   11.91129200
_cell_angle_alpha   90.00000000
_cell_angle_beta   90.00000000
_cell_angle_gamma   90.00000000
_symmetry_Int_Tables_number   1
_chemical_formula_structural   Hf2U(Co3P2)3
_chemical_formula_sum   'Hf4 U2 Co18 P12'
_cell_volume   448.54756491
_cell_formula_units_Z   2
loop_
 _symmetry_equiv_pos_site_id
 _symmetry_equiv_pos_as_xyz
  1  'x, y, z'
loop_
 _atom_site_type_symbol
 _atom_site_label
 _atom_site_symmetry_multiplicity
 _atom_site_fract_x
 _atom_site_fract_y
 _atom_site_fract_z
 _atom_site_occupancy
  Hf  Hf0  1  0.250000  0.932109  0.795042  1
  Hf  Hf1  1  0.250000  0.567891  0.795042  1
  Hf  Hf2  1  0.750000  0.067891  0.204958  1
  Hf  Hf3  1  0.750000  0.432109  0.204958  1
  U  U4  1  0.750000  0.250000  0.467781  1
  U  U5  1  0.250000  0.750000  0.532219  1
  Co  Co6  1  0.250000  0.250000  0.838676  1
  Co  Co7  1  0.750000  0.750000  0.161324  1
  Co  Co8  1  0.250000  0.250000  0.301891  1
  Co  Co9  1  0.750000  0.750000  0.698109  1
  Co  Co10  1  0.750000  0.250000  0.016480  1
  Co  Co11  1  0.250000  0.750000  0.983520  1
  Co  Co12  1  0.250000  0.416877  0.007241  1
  Co  Co13  1  0.250000  0.083123  0.007241  1
  Co  Co14  1  0.750000  0.583123  0.992759  1
  Co  Co15  1  0.750000  0.916877  0.992759  1
  Co  Co16  1  0.250000  0.450632  0.568313  1
  Co  Co17  1  0.250000  0.049368  0.568313  1
  Co  Co18  1  0.750000  0.549368  0.431687  1
  Co  Co19  1  0.750000  0.950632  0.431687  1
  Co  Co20  1  0.250000  0.873676  0.289218  1
  Co  Co21  1  0.250000  0.626324  0.289218  1
  Co  Co22  1  0.750000  0.126324  0.710782  1
  Co  Co23  1  0.750000  0.373676  0.710782  1
  P  P24  1  0.250000  0.250000  0.123213  1
  P  P25  1  0.750000  0.750000  0.876787  1
  P  P26  1  0.250000  0.250000  0.652096  1
  P  P27  1  0.750000  0.750000  0.347904  1
  P  P28  1  0.250000  0.440345  0.380185  1
  P  P29  1  0.250000  0.059655  0.380185  1
  P  P30  1  0.750000  0.559655  0.619815  1
  P  P31  1  0.750000  0.940345  0.619815  1
  P  P32  1  0.250000  0.904398  0.108210  1
  P  P33  1  0.250000  0.595602  0.108210  1
  P  P34  1  0.750000  0.095602  0.891790  1
  P  P35  1  0.750000  0.404398  0.891790  1
