# generated using pymatgen
data_LiPr4Lu5Si8
_symmetry_space_group_name_H-M   'P 1'
_cell_length_a   7.32292800
_cell_length_b   7.72947500
_cell_length_c   14.64386200
_cell_angle_alpha   90.00000000
_cell_angle_beta   90.00000000
_cell_angle_gamma   90.00000000
_symmetry_Int_Tables_number   1
_chemical_formula_structural   LiPr4Lu5Si8
_chemical_formula_sum   'Li2 Pr8 Lu10 Si16'
_cell_volume   828.87757196
_cell_formula_units_Z   2
loop_
 _symmetry_equiv_pos_site_id
 _symmetry_equiv_pos_as_xyz
  1  'x, y, z'
loop_
 _atom_site_type_symbol
 _atom_site_label
 _atom_site_symmetry_multiplicity
 _atom_site_fract_x
 _atom_site_fract_y
 _atom_site_fract_z
 _atom_site_occupancy
  Li  Li0  1  0.658144  0.994886  0.750000  1
  Li  Li1  1  0.841856  0.494886  0.250000  1
  Pr  Pr2  1  0.012041  0.184703  0.399720  1
  Pr  Pr3  1  0.522132  0.325880  0.398574  1
  Pr  Pr4  1  0.487959  0.684703  0.899720  1
  Pr  Pr5  1  0.487959  0.684703  0.600280  1
  Pr  Pr6  1  0.977868  0.825880  0.601426  1
  Pr  Pr7  1  0.977868  0.825880  0.898574  1
  Pr  Pr8  1  0.522132  0.325880  0.101426  1
  Pr  Pr9  1  0.012041  0.184703  0.100280  1
  Lu  Lu10  1  0.333474  0.173181  0.624931  1
  Lu  Lu11  1  0.676214  0.814134  0.374725  1
  Lu  Lu12  1  0.166526  0.673181  0.375069  1
  Lu  Lu13  1  0.823786  0.314134  0.874725  1
  Lu  Lu14  1  0.823786  0.314134  0.625275  1
  Lu  Lu15  1  0.340680  0.005602  0.250000  1
  Lu  Lu16  1  0.333474  0.173181  0.875069  1
  Lu  Lu17  1  0.166526  0.673181  0.124931  1
  Lu  Lu18  1  0.676214  0.814134  0.125275  1
  Lu  Lu19  1  0.159320  0.505602  0.750000  1
  Si  Si20  1  0.276877  0.881757  0.750000  1
  Si  Si21  1  0.463250  0.612844  0.250000  1
  Si  Si22  1  0.036750  0.112844  0.750000  1
  Si  Si23  1  0.530562  0.392210  0.750000  1
  Si  Si24  1  0.151649  0.467658  0.540389  1
  Si  Si25  1  0.969438  0.892210  0.250000  1
  Si  Si26  1  0.716753  0.108182  0.250000  1
  Si  Si27  1  0.848627  0.536703  0.031315  1
  Si  Si28  1  0.348351  0.967658  0.040389  1
  Si  Si29  1  0.151649  0.467658  0.959611  1
  Si  Si30  1  0.651373  0.036703  0.531315  1
  Si  Si31  1  0.348351  0.967658  0.459611  1
  Si  Si32  1  0.848627  0.536703  0.468685  1
  Si  Si33  1  0.783247  0.608182  0.750000  1
  Si  Si34  1  0.223123  0.381757  0.250000  1
  Si  Si35  1  0.651373  0.036703  0.968685  1
