# generated using pymatgen
data_UGa5Fe6Ge
_symmetry_space_group_name_H-M   'P 1'
_cell_length_a   5.00171427
_cell_length_b   6.55319971
_cell_length_c   6.55320042
_cell_angle_alpha   80.35256575
_cell_angle_beta   67.56571167
_cell_angle_gamma   67.56569843
_symmetry_Int_Tables_number   1
_chemical_formula_structural   UGa5Fe6Ge
_chemical_formula_sum   'U1 Ga5 Fe6 Ge1'
_cell_volume   183.45307046
_cell_formula_units_Z   1
loop_
 _symmetry_equiv_pos_site_id
 _symmetry_equiv_pos_as_xyz
  1  'x, y, z'
loop_
 _atom_site_type_symbol
 _atom_site_label
 _atom_site_symmetry_multiplicity
 _atom_site_fract_x
 _atom_site_fract_y
 _atom_site_fract_z
 _atom_site_occupancy
  U  U0  1  0.000000  0.006911  0.993089  1
  Ga  Ga1  1  0.000000  0.351477  0.648523  1
  Ga  Ga2  1  0.345609  0.651705  0.657078  1
  Ga  Ga3  1  0.654391  0.342922  0.348295  1
  Ga  Ga4  1  0.313465  0.184260  0.188810  1
  Ga  Ga5  1  0.686535  0.811190  0.815740  1
  Fe  Fe6  1  0.500000  0.236416  0.763584  1
  Fe  Fe7  1  0.500000  0.760029  0.239971  1
  Fe  Fe8  1  0.999440  0.497442  0.001238  1
  Fe  Fe9  1  0.501880  0.497442  0.001238  1
  Fe  Fe10  1  0.000560  0.998762  0.502558  1
  Fe  Fe11  1  0.498120  0.998762  0.502558  1
  Ge  Ge12  1  0.000000  0.662681  0.337319  1
