# generated using pymatgen
data_YbCeTm2(B6Os)2
_symmetry_space_group_name_H-M   'P 1'
_cell_length_a   3.64830600
_cell_length_b   9.12871469
_cell_length_c   11.51923509
_cell_angle_alpha   89.73360520
_cell_angle_beta   90.00000000
_cell_angle_gamma   90.00000000
_symmetry_Int_Tables_number   1
_chemical_formula_structural   YbCeTm2(B6Os)2
_chemical_formula_sum   'Yb2 Ce2 Tm4 B24 Os4'
_cell_volume   383.63642831
_cell_formula_units_Z   2
loop_
 _symmetry_equiv_pos_site_id
 _symmetry_equiv_pos_as_xyz
  1  'x, y, z'
loop_
 _atom_site_type_symbol
 _atom_site_label
 _atom_site_symmetry_multiplicity
 _atom_site_fract_x
 _atom_site_fract_y
 _atom_site_fract_z
 _atom_site_occupancy
  Yb  Yb0  1  0.000000  0.324784  0.414642  1
  Yb  Yb1  1  0.000000  0.675216  0.585358  1
  Ce  Ce2  1  0.000000  0.821510  0.086682  1
  Ce  Ce3  1  0.000000  0.178490  0.913318  1
  Tm  Tm4  1  0.000000  0.943231  0.373680  1
  Tm  Tm5  1  0.000000  0.056769  0.626321  1
  Tm  Tm6  1  0.000000  0.444972  0.128493  1
  Tm  Tm7  1  0.000000  0.555028  0.871506  1
  B  B8  1  0.500000  0.554106  0.432528  1
  B  B9  1  0.500000  0.445894  0.567472  1
  B  B10  1  0.500000  0.054912  0.068351  1
  B  B11  1  0.500000  0.945088  0.931649  1
  B  B12  1  0.500000  0.748058  0.419238  1
  B  B13  1  0.500000  0.251942  0.580762  1
  B  B14  1  0.500000  0.249837  0.081792  1
  B  B15  1  0.500000  0.750163  0.918208  1
  B  B16  1  0.500000  0.791617  0.266993  1
  B  B17  1  0.500000  0.208383  0.733007  1
  B  B18  1  0.500000  0.291636  0.235097  1
  B  B19  1  0.500000  0.708363  0.764903  1
  B  B20  1  0.500000  0.631393  0.185700  1
  B  B21  1  0.500000  0.368607  0.814300  1
  B  B22  1  0.500000  0.132145  0.315928  1
  B  B23  1  0.500000  0.867855  0.684072  1
  B  B24  1  0.500000  0.984772  0.214456  1
  B  B25  1  0.500000  0.015228  0.785544  1
  B  B26  1  0.500000  0.483460  0.287955  1
  B  B27  1  0.500000  0.516540  0.712045  1
  B  B28  1  0.500000  0.604907  0.028696  1
  B  B29  1  0.500000  0.395093  0.971304  1
  B  B30  1  0.500000  0.102583  0.471663  1
  B  B31  1  0.500000  0.897417  0.528337  1
  Os  Os32  1  0.000000  0.640340  0.318775  1
  Os  Os33  1  0.000000  0.359660  0.681225  1
  Os  Os34  1  0.000000  0.138142  0.178583  1
  Os  Os35  1  0.000000  0.861858  0.821417  1
