# generated using pymatgen
data_Yb3Ag2Hg3Rh
_symmetry_space_group_name_H-M   'P 1'
_cell_length_a   8.01453800
_cell_length_b   8.01453843
_cell_length_c   3.69113800
_cell_angle_alpha   90.00000000
_cell_angle_beta   90.00000000
_cell_angle_gamma   119.99999824
_symmetry_Int_Tables_number   1
_chemical_formula_structural   Yb3Ag2Hg3Rh
_chemical_formula_sum   'Yb3 Ag2 Hg3 Rh1'
_cell_volume   205.32788312
_cell_formula_units_Z   1
loop_
 _symmetry_equiv_pos_site_id
 _symmetry_equiv_pos_as_xyz
  1  'x, y, z'
loop_
 _atom_site_type_symbol
 _atom_site_label
 _atom_site_symmetry_multiplicity
 _atom_site_fract_x
 _atom_site_fract_y
 _atom_site_fract_z
 _atom_site_occupancy
  Yb  Yb0  1  0.963103  0.583071  0.500000  1
  Yb  Yb1  1  0.416929  0.380031  0.500000  1
  Yb  Yb2  1  0.619969  0.036897  0.500000  1
  Ag  Ag3  1  0.333333  0.666667  0.000000  1
  Ag  Ag4  1  0.000000  0.000000  0.500000  1
  Hg  Hg5  1  0.001895  0.284312  0.000000  1
  Hg  Hg6  1  0.282417  0.998105  0.000000  1
  Hg  Hg7  1  0.715688  0.717583  0.000000  1
  Rh  Rh8  1  0.666667  0.333333  0.000000  1
