# generated using pymatgen
data_Nd2HoCd(Ir2O7)2
_symmetry_space_group_name_H-M   'P 1'
_cell_length_a   7.37624570
_cell_length_b   7.26385376
_cell_length_c   7.41507400
_cell_angle_alpha   59.30891701
_cell_angle_beta   59.82571611
_cell_angle_gamma   59.27864100
_symmetry_Int_Tables_number   1
_chemical_formula_structural   Nd2HoCd(Ir2O7)2
_chemical_formula_sum   'Nd2 Ho1 Cd1 Ir4 O14'
_cell_volume   277.53694402
_cell_formula_units_Z   1
loop_
 _symmetry_equiv_pos_site_id
 _symmetry_equiv_pos_as_xyz
  1  'x, y, z'
loop_
 _atom_site_type_symbol
 _atom_site_label
 _atom_site_symmetry_multiplicity
 _atom_site_fract_x
 _atom_site_fract_y
 _atom_site_fract_z
 _atom_site_occupancy
  Nd  Nd0  1  0.125000  0.125000  0.625000  1
  Nd  Nd1  1  0.125000  0.125000  0.125000  1
  Ho  Ho2  1  0.625000  0.125000  0.125000  1
  Cd  Cd3  1  0.125000  0.625000  0.125000  1
  Ir  Ir4  1  0.125000  0.625000  0.625000  1
  Ir  Ir5  1  0.625000  0.125000  0.625000  1
  Ir  Ir6  1  0.625000  0.625000  0.125000  1
  Ir  Ir7  1  0.625000  0.625000  0.625000  1
  O  O8  1  0.690209  0.713160  0.298315  1
  O  O9  1  0.292206  0.288129  0.709832  1
  O  O10  1  0.702115  0.288580  0.717422  1
  O  O11  1  0.299321  0.701024  0.297962  1
  O  O12  1  0.299321  0.701024  0.701692  1
  O  O13  1  0.702115  0.288580  0.291882  1
  O  O14  1  0.559791  0.536840  0.951685  1
  O  O15  1  0.957794  0.961871  0.540168  1
  O  O16  1  0.547885  0.961420  0.532578  1
  O  O17  1  0.950679  0.548976  0.952038  1
  O  O18  1  0.950679  0.548976  0.548308  1
  O  O19  1  0.547885  0.961420  0.958118  1
  O  O20  1  0.259453  0.254427  0.243061  1
  O  O21  1  0.990547  0.995573  0.006939  1
