# generated using pymatgen
data_ErTm3Zn2Ga14Co3
_symmetry_space_group_name_H-M   'P 1'
_cell_length_a   5.99473400
_cell_length_b   5.99750900
_cell_length_c   10.99853100
_cell_angle_alpha   90.00000000
_cell_angle_beta   90.00000000
_cell_angle_gamma   90.00000000
_symmetry_Int_Tables_number   1
_chemical_formula_structural   ErTm3Zn2Ga14Co3
_chemical_formula_sum   'Er1 Tm3 Zn2 Ga14 Co3'
_cell_volume   395.43536664
_cell_formula_units_Z   1
loop_
 _symmetry_equiv_pos_site_id
 _symmetry_equiv_pos_as_xyz
  1  'x, y, z'
loop_
 _atom_site_type_symbol
 _atom_site_label
 _atom_site_symmetry_multiplicity
 _atom_site_fract_x
 _atom_site_fract_y
 _atom_site_fract_z
 _atom_site_occupancy
  Er  Er0  1  0.500000  0.000000  0.192742  1
  Tm  Tm1  1  0.000000  0.500000  0.192932  1
  Tm  Tm2  1  0.000000  0.500000  0.806893  1
  Tm  Tm3  1  0.500000  0.000000  0.807110  1
  Zn  Zn4  1  0.500000  0.500000  0.200024  1
  Zn  Zn5  1  0.500000  0.500000  0.800002  1
  Ga  Ga6  1  0.000000  0.000000  0.216849  1
  Ga  Ga7  1  0.000000  0.000000  0.783337  1
  Ga  Ga8  1  0.281071  0.281874  0.999692  1
  Ga  Ga9  1  0.718929  0.718126  0.999692  1
  Ga  Ga10  1  0.281071  0.718126  0.999692  1
  Ga  Ga11  1  0.718929  0.281874  0.999692  1
  Ga  Ga12  1  0.252182  0.252545  0.382311  1
  Ga  Ga13  1  0.747818  0.747455  0.382311  1
  Ga  Ga14  1  0.252355  0.747670  0.617922  1
  Ga  Ga15  1  0.747645  0.252330  0.617922  1
  Ga  Ga16  1  0.747645  0.747670  0.617922  1
  Ga  Ga17  1  0.252355  0.252330  0.617922  1
  Ga  Ga18  1  0.252182  0.747455  0.382311  1
  Ga  Ga19  1  0.747818  0.252545  0.382311  1
  Co  Co20  1  0.000000  0.500000  0.500143  1
  Co  Co21  1  0.500000  0.000000  0.500166  1
  Co  Co22  1  0.000000  0.000000  0.000099  1
