# generated using pymatgen
data_AcPrPtI
_symmetry_space_group_name_H-M   'P 1'
_cell_length_a   4.37292400
_cell_length_b   4.37292290
_cell_length_c   16.56910500
_cell_angle_alpha   90.00000000
_cell_angle_beta   90.00000000
_cell_angle_gamma   120.00000834
_symmetry_Int_Tables_number   1
_chemical_formula_structural   AcPrPtI
_chemical_formula_sum   'Ac2 Pr2 Pt2 I2'
_cell_volume   274.39323183
_cell_formula_units_Z   2
loop_
 _symmetry_equiv_pos_site_id
 _symmetry_equiv_pos_as_xyz
  1  'x, y, z'
loop_
 _atom_site_type_symbol
 _atom_site_label
 _atom_site_symmetry_multiplicity
 _atom_site_fract_x
 _atom_site_fract_y
 _atom_site_fract_z
 _atom_site_occupancy
  Ac  Ac0  1  0.333333  0.666667  0.093554  1
  Ac  Ac1  1  0.666667  0.333333  0.593554  1
  Pr  Pr2  1  0.666667  0.333333  0.905112  1
  Pr  Pr3  1  0.333333  0.666667  0.405112  1
  Pt  Pt4  1  0.000000  0.000000  0.995278  1
  Pt  Pt5  1  0.000000  0.000000  0.495278  1
  I  I6  1  0.666667  0.333333  0.256055  1
  I  I7  1  0.333333  0.666667  0.756055  1
