# generated using pymatgen
data_TaNb2AuF20
_symmetry_space_group_name_H-M   'P 1'
_cell_length_a   5.78209503
_cell_length_b   7.63131203
_cell_length_c   10.02578000
_cell_angle_alpha   88.36809142
_cell_angle_beta   105.95058317
_cell_angle_gamma   98.78141685
_symmetry_Int_Tables_number   1
_chemical_formula_structural   TaNb2AuF20
_chemical_formula_sum   'Ta1 Nb2 Au1 F20'
_cell_volume   420.32663099
_cell_formula_units_Z   1
loop_
 _symmetry_equiv_pos_site_id
 _symmetry_equiv_pos_as_xyz
  1  'x, y, z'
loop_
 _atom_site_type_symbol
 _atom_site_label
 _atom_site_symmetry_multiplicity
 _atom_site_fract_x
 _atom_site_fract_y
 _atom_site_fract_z
 _atom_site_occupancy
  Ta  Ta0  1  0.035590  0.229971  0.684082  1
  Nb  Nb1  1  0.334653  0.380217  0.216117  1
  Nb  Nb2  1  0.658064  0.614973  0.778364  1
  Au  Au3  1  0.962220  0.755063  0.313833  1
  F  F4  1  0.024242  0.252343  0.166596  1
  F  F5  1  0.967057  0.748823  0.830201  1
  F  F6  1  0.498457  0.221620  0.156447  1
  F  F7  1  0.497891  0.773889  0.841939  1
  F  F8  1  0.117481  0.232826  0.881192  1
  F  F9  1  0.884551  0.784594  0.113619  1
  F  F10  1  0.963023  0.295575  0.495660  1
  F  F11  1  0.040035  0.723782  0.513582  1
  F  F12  1  0.766203  0.053856  0.662670  1
  F  F13  1  0.231689  0.942587  0.337836  1
  F  F14  1  0.254610  0.080249  0.672439  1
  F  F15  1  0.750020  0.919473  0.326209  1
  F  F16  1  0.317518  0.440061  0.712766  1
  F  F17  1  0.688014  0.552342  0.291920  1
  F  F18  1  0.825921  0.418965  0.702645  1
  F  F19  1  0.186001  0.580700  0.305931  1
  F  F20  1  0.693678  0.453928  0.927304  1
  F  F21  1  0.307711  0.547747  0.073835  1
  F  F22  1  0.569979  0.666065  0.588373  1
  F  F23  1  0.425390  0.330348  0.406445  1
