# generated using pymatgen
data_TbPa5(Ni3As4)2
_symmetry_space_group_name_H-M   'P 1'
_cell_length_a   7.79409809
_cell_length_b   7.79379587
_cell_length_c   7.79380619
_cell_angle_alpha   109.36689692
_cell_angle_beta   109.52622240
_cell_angle_gamma   109.51974897
_symmetry_Int_Tables_number   1
_chemical_formula_structural   TbPa5(Ni3As4)2
_chemical_formula_sum   'Tb1 Pa5 Ni6 As8'
_cell_volume   364.45679557
_cell_formula_units_Z   1
loop_
 _symmetry_equiv_pos_site_id
 _symmetry_equiv_pos_as_xyz
  1  'x, y, z'
loop_
 _atom_site_type_symbol
 _atom_site_label
 _atom_site_symmetry_multiplicity
 _atom_site_fract_x
 _atom_site_fract_y
 _atom_site_fract_z
 _atom_site_occupancy
  Tb  Tb0  1  0.750001  0.375015  0.625013  1
  Pa  Pa1  1  0.128144  0.876379  0.250586  1
  Pa  Pa2  1  0.371858  0.622445  0.748240  1
  Pa  Pa3  1  0.874203  0.251761  0.123617  1
  Pa  Pa4  1  0.625793  0.749411  0.377554  1
  Pa  Pa5  1  0.249996  0.125001  0.875004  1
  Ni  Ni6  1  0.620200  0.371673  0.240381  1
  Ni  Ni7  1  0.879775  0.120158  0.751426  1
  Ni  Ni8  1  0.368712  0.248548  0.628320  1
  Ni  Ni9  1  0.131299  0.759602  0.879829  1
  Ni  Ni10  1  0.250021  0.625012  0.375022  1
  Ni  Ni11  1  0.749989  0.874985  0.124996  1
  As  As12  1  0.336576  0.334450  0.335266  1
  As  As13  1  0.163441  0.498694  0.997869  1
  As  As14  1  0.999087  0.163365  0.497990  1
  As  As15  1  0.834622  0.835715  0.836641  1
  As  As16  1  0.500912  0.998891  0.164276  1
  As  As17  1  0.665371  0.502027  0.001091  1
  As  As18  1  0.500803  0.002118  0.665550  1
  As  As19  1  0.999197  0.664752  0.501327  1
