# generated using pymatgen
data_CeYTcB6
_symmetry_space_group_name_H-M   'P 1'
_cell_length_a   3.73803600
_cell_length_b   9.20565000
_cell_length_c   11.58306200
_cell_angle_alpha   90.00000000
_cell_angle_beta   90.00000000
_cell_angle_gamma   90.00000000
_symmetry_Int_Tables_number   1
_chemical_formula_structural   CeYTcB6
_chemical_formula_sum   'Ce4 Y4 Tc4 B24'
_cell_volume   398.58533842
_cell_formula_units_Z   4
loop_
 _symmetry_equiv_pos_site_id
 _symmetry_equiv_pos_as_xyz
  1  'x, y, z'
loop_
 _atom_site_type_symbol
 _atom_site_label
 _atom_site_symmetry_multiplicity
 _atom_site_fract_x
 _atom_site_fract_y
 _atom_site_fract_z
 _atom_site_occupancy
  Ce  Ce0  1  0.000000  0.823127  0.085868  1
  Ce  Ce1  1  0.000000  0.176873  0.914132  1
  Ce  Ce2  1  0.000000  0.323127  0.414132  1
  Ce  Ce3  1  0.000000  0.676873  0.585868  1
  Y  Y4  1  0.000000  0.444052  0.127621  1
  Y  Y5  1  0.000000  0.555948  0.872379  1
  Y  Y6  1  0.000000  0.944052  0.372379  1
  Y  Y7  1  0.000000  0.055948  0.627621  1
  Tc  Tc8  1  0.000000  0.138463  0.178940  1
  Tc  Tc9  1  0.000000  0.861537  0.821060  1
  Tc  Tc10  1  0.000000  0.638463  0.321060  1
  Tc  Tc11  1  0.000000  0.361537  0.678940  1
  B  B12  1  0.500000  0.054273  0.068260  1
  B  B13  1  0.500000  0.945727  0.931741  1
  B  B14  1  0.500000  0.554273  0.431740  1
  B  B15  1  0.500000  0.445727  0.568259  1
  B  B16  1  0.500000  0.248027  0.081268  1
  B  B17  1  0.500000  0.751973  0.918732  1
  B  B18  1  0.500000  0.748027  0.418732  1
  B  B19  1  0.500000  0.251973  0.581268  1
  B  B20  1  0.500000  0.290994  0.233904  1
  B  B21  1  0.500000  0.709006  0.766096  1
  B  B22  1  0.500000  0.790994  0.266096  1
  B  B23  1  0.500000  0.209006  0.733904  1
  B  B24  1  0.500000  0.131737  0.313940  1
  B  B25  1  0.500000  0.868263  0.686060  1
  B  B26  1  0.500000  0.631737  0.186060  1
  B  B27  1  0.500000  0.368263  0.813940  1
  B  B28  1  0.500000  0.483898  0.287400  1
  B  B29  1  0.500000  0.516102  0.712600  1
  B  B30  1  0.500000  0.983898  0.212600  1
  B  B31  1  0.500000  0.016102  0.787400  1
  B  B32  1  0.500000  0.107949  0.470139  1
  B  B33  1  0.500000  0.892051  0.529861  1
  B  B34  1  0.500000  0.607949  0.029861  1
  B  B35  1  0.500000  0.392051  0.970139  1
