# generated using pymatgen
data_Rb5Re2TcSe7
_symmetry_space_group_name_H-M   'P 1'
_cell_length_a   11.24477094
_cell_length_b   11.26125760
_cell_length_c   11.18752930
_cell_angle_alpha   60.44073237
_cell_angle_beta   61.07111818
_cell_angle_gamma   60.89381410
_symmetry_Int_Tables_number   1
_chemical_formula_structural   Rb5Re2TcSe7
_chemical_formula_sum   'Rb10 Re4 Tc2 Se14'
_cell_volume   1019.79796551
_cell_formula_units_Z   2
loop_
 _symmetry_equiv_pos_site_id
 _symmetry_equiv_pos_as_xyz
  1  'x, y, z'
loop_
 _atom_site_type_symbol
 _atom_site_label
 _atom_site_symmetry_multiplicity
 _atom_site_fract_x
 _atom_site_fract_y
 _atom_site_fract_z
 _atom_site_occupancy
  Rb  Rb0  1  0.018624  0.988289  0.989237  1
  Rb  Rb1  1  0.409024  0.580987  0.006313  1
  Rb  Rb2  1  0.396016  0.005635  0.003717  1
  Rb  Rb3  1  0.589507  0.126978  0.123508  1
  Rb  Rb4  1  0.007520  0.577065  0.017495  1
  Rb  Rb5  1  0.419044  0.003550  0.581644  1
  Rb  Rb6  1  0.030075  0.435001  0.505865  1
  Rb  Rb7  1  0.995032  0.013947  0.575680  1
  Rb  Rb8  1  0.865782  0.856751  0.425094  1
  Rb  Rb9  1  0.855603  0.416423  0.901485  1
  Re  Re10  1  0.613728  0.380066  0.385435  1
  Re  Re11  1  0.617517  0.617948  0.382957  1
  Re  Re12  1  0.617342  0.384979  0.619973  1
  Re  Re13  1  0.381016  0.616184  0.381330  1
  Tc  Tc14  1  0.379427  0.382235  0.619195  1
  Tc  Tc15  1  0.382663  0.619066  0.617766  1
  Se  Se16  1  0.768185  0.205021  0.235609  1
  Se  Se17  1  0.784051  0.777734  0.227831  1
  Se  Se18  1  0.612258  0.611414  0.159226  1
  Se  Se19  1  0.835632  0.386417  0.386603  1
  Se  Se20  1  0.609509  0.161654  0.619494  1
  Se  Se21  1  0.790964  0.236381  0.775541  1
  Se  Se22  1  0.387234  0.384007  0.385043  1
  Se  Se23  1  0.613823  0.616127  0.613954  1
  Se  Se24  1  0.211188  0.774307  0.224547  1
  Se  Se25  1  0.389938  0.837918  0.383656  1
  Se  Se26  1  0.163196  0.611835  0.610651  1
  Se  Se27  1  0.389290  0.387149  0.839808  1
  Se  Se28  1  0.205384  0.228508  0.774949  1
  Se  Se29  1  0.217927  0.785721  0.777695  1
