# generated using pymatgen
data_Ce(ErSi2)2
_symmetry_space_group_name_H-M   'P 1'
_cell_length_a   3.91222144
_cell_length_b   4.24194837
_cell_length_c   9.18633300
_cell_angle_alpha   76.65090576
_cell_angle_beta   77.70545675
_cell_angle_gamma   89.99999797
_symmetry_Int_Tables_number   1
_chemical_formula_structural   Ce(ErSi2)2
_chemical_formula_sum   'Ce1 Er2 Si4'
_cell_volume   144.73642496
_cell_formula_units_Z   1
loop_
 _symmetry_equiv_pos_site_id
 _symmetry_equiv_pos_as_xyz
  1  'x, y, z'
loop_
 _atom_site_type_symbol
 _atom_site_label
 _atom_site_symmetry_multiplicity
 _atom_site_fract_x
 _atom_site_fract_y
 _atom_site_fract_z
 _atom_site_occupancy
  Ce  Ce0  1  0.000001  0.000001  0.000000  1
  Er  Er1  1  0.683510  0.183510  0.632979  1
  Er  Er2  1  0.316489  0.816489  0.367025  1
  Si  Si3  1  0.850759  0.350759  0.298484  1
  Si  Si4  1  0.149242  0.649242  0.701514  1
  Si  Si5  1  0.567080  0.567080  0.865841  1
  Si  Si6  1  0.432921  0.432921  0.134159  1
