# generated using pymatgen
data_SmHo4(Hg2Pd)2
_symmetry_space_group_name_H-M   'P 1'
_cell_length_a   3.65754500
_cell_length_b   7.93554800
_cell_length_c   18.28111900
_cell_angle_alpha   90.00000000
_cell_angle_beta   90.00000000
_cell_angle_gamma   90.00000000
_symmetry_Int_Tables_number   1
_chemical_formula_structural   SmHo4(Hg2Pd)2
_chemical_formula_sum   'Sm2 Ho8 Hg8 Pd4'
_cell_volume   530.60260362
_cell_formula_units_Z   2
loop_
 _symmetry_equiv_pos_site_id
 _symmetry_equiv_pos_as_xyz
  1  'x, y, z'
loop_
 _atom_site_type_symbol
 _atom_site_label
 _atom_site_symmetry_multiplicity
 _atom_site_fract_x
 _atom_site_fract_y
 _atom_site_fract_z
 _atom_site_occupancy
  Sm  Sm0  1  0.000000  0.500000  0.500000  1
  Sm  Sm1  1  0.000000  0.000000  0.000000  1
  Ho  Ho2  1  0.000000  0.736121  0.284188  1
  Ho  Ho3  1  0.000000  0.263879  0.715812  1
  Ho  Ho4  1  0.000000  0.763879  0.784188  1
  Ho  Ho5  1  0.000000  0.236121  0.215812  1
  Ho  Ho6  1  0.000000  0.614680  0.084822  1
  Ho  Ho7  1  0.000000  0.385320  0.915178  1
  Ho  Ho8  1  0.000000  0.885320  0.584822  1
  Ho  Ho9  1  0.000000  0.114680  0.415178  1
  Hg  Hg10  1  0.500000  0.707493  0.933205  1
  Hg  Hg11  1  0.500000  0.292507  0.066795  1
  Hg  Hg12  1  0.500000  0.792507  0.433205  1
  Hg  Hg13  1  0.500000  0.207493  0.566795  1
  Hg  Hg14  1  0.500000  0.582702  0.649983  1
  Hg  Hg15  1  0.500000  0.417298  0.350017  1
  Hg  Hg16  1  0.500000  0.917298  0.149983  1
  Hg  Hg17  1  0.500000  0.082702  0.850017  1
  Pd  Pd18  1  0.500000  0.526445  0.195699  1
  Pd  Pd19  1  0.500000  0.473555  0.804301  1
  Pd  Pd20  1  0.500000  0.973555  0.695699  1
  Pd  Pd21  1  0.500000  0.026445  0.304301  1
