# generated using pymatgen
data_Ta3Ti2NbPt2
_symmetry_space_group_name_H-M   'P 1'
_cell_length_a   5.13346769
_cell_length_b   5.19703900
_cell_length_c   5.10928166
_cell_angle_alpha   90.00000000
_cell_angle_beta   89.88288892
_cell_angle_gamma   90.00000000
_symmetry_Int_Tables_number   1
_chemical_formula_structural   Ta3Ti2NbPt2
_chemical_formula_sum   'Ta3 Ti2 Nb1 Pt2'
_cell_volume   136.30938121
_cell_formula_units_Z   1
loop_
 _symmetry_equiv_pos_site_id
 _symmetry_equiv_pos_as_xyz
  1  'x, y, z'
loop_
 _atom_site_type_symbol
 _atom_site_label
 _atom_site_symmetry_multiplicity
 _atom_site_fract_x
 _atom_site_fract_y
 _atom_site_fract_z
 _atom_site_occupancy
  Ta  Ta0  1  0.998602  0.250413  0.501460  1
  Ta  Ta1  1  0.998602  0.749587  0.501460  1
  Ta  Ta2  1  0.248571  0.500000  0.999023  1
  Ti  Ti3  1  0.749919  0.500000  0.998531  1
  Ti  Ti4  1  0.501663  0.000000  0.750232  1
  Nb  Nb5  1  0.500994  0.000000  0.250536  1
  Pt  Pt6  1  0.502789  0.500000  0.503769  1
  Pt  Pt7  1  0.998862  0.000000  0.994987  1
