# generated using pymatgen
data_Sc3Co4Ni5B6
_symmetry_space_group_name_H-M   'P 1'
_cell_length_a   4.85580253
_cell_length_b   4.88084184
_cell_length_c   8.94309100
_cell_angle_alpha   90.00000000
_cell_angle_beta   90.00000000
_cell_angle_gamma   120.17070927
_symmetry_Int_Tables_number   1
_chemical_formula_structural   Sc3Co4Ni5B6
_chemical_formula_sum   'Sc3 Co4 Ni5 B6'
_cell_volume   183.24173555
_cell_formula_units_Z   1
loop_
 _symmetry_equiv_pos_site_id
 _symmetry_equiv_pos_as_xyz
  1  'x, y, z'
loop_
 _atom_site_type_symbol
 _atom_site_label
 _atom_site_symmetry_multiplicity
 _atom_site_fract_x
 _atom_site_fract_y
 _atom_site_fract_z
 _atom_site_occupancy
  Sc  Sc0  1  0.000000  0.000000  0.668515  1
  Sc  Sc1  1  0.000000  0.000000  0.998152  1
  Sc  Sc2  1  0.000000  0.000000  0.333333  1
  Co  Co3  1  0.500000  0.000000  0.798755  1
  Co  Co4  1  0.500000  0.500000  0.867912  1
  Co  Co5  1  0.500000  0.500000  0.466431  1
  Co  Co6  1  0.500000  0.000000  0.200236  1
  Ni  Ni7  1  0.000000  0.500000  0.833333  1
  Ni  Ni8  1  0.000000  0.500000  0.132131  1
  Ni  Ni9  1  0.500000  0.500000  0.169493  1
  Ni  Ni10  1  0.000000  0.500000  0.534535  1
  Ni  Ni11  1  0.500000  0.000000  0.497174  1
  B  B12  1  0.609230  0.227380  0.998984  1
  B  B13  1  0.758293  0.379146  0.333333  1
  B  B14  1  0.241707  0.620854  0.333333  1
  B  B15  1  0.609230  0.381849  0.667683  1
  B  B16  1  0.390770  0.618151  0.667683  1
  B  B17  1  0.390770  0.772620  0.998984  1
