# generated using pymatgen
data_Nd3Dy(ScPt)4
_symmetry_space_group_name_H-M   'P 1'
_cell_length_a   4.67686000
_cell_length_b   7.09300936
_cell_length_c   8.51478734
_cell_angle_alpha   89.85815338
_cell_angle_beta   90.00000000
_cell_angle_gamma   90.00000000
_symmetry_Int_Tables_number   1
_chemical_formula_structural   Nd3Dy(ScPt)4
_chemical_formula_sum   'Nd3 Dy1 Sc4 Pt4'
_cell_volume   282.46027509
_cell_formula_units_Z   1
loop_
 _symmetry_equiv_pos_site_id
 _symmetry_equiv_pos_as_xyz
  1  'x, y, z'
loop_
 _atom_site_type_symbol
 _atom_site_label
 _atom_site_symmetry_multiplicity
 _atom_site_fract_x
 _atom_site_fract_y
 _atom_site_fract_z
 _atom_site_occupancy
  Nd  Nd0  1  0.250000  0.984111  0.322214  1
  Nd  Nd1  1  0.250000  0.484482  0.177019  1
  Nd  Nd2  1  0.750000  0.015913  0.680322  1
  Dy  Dy3  1  0.750000  0.517969  0.822196  1
  Sc  Sc4  1  0.250000  0.360788  0.577817  1
  Sc  Sc5  1  0.250000  0.859563  0.925731  1
  Sc  Sc6  1  0.750000  0.638114  0.430034  1
  Sc  Sc7  1  0.750000  0.139435  0.070386  1
  Pt  Pt8  1  0.250000  0.241743  0.902139  1
  Pt  Pt9  1  0.250000  0.734887  0.597698  1
  Pt  Pt10  1  0.750000  0.760587  0.088306  1
  Pt  Pt11  1  0.750000  0.262409  0.406139  1
