# generated using pymatgen
data_SrLa6PtBr12
_symmetry_space_group_name_H-M   'P 1'
_cell_length_a   9.80357022
_cell_length_b   9.76995228
_cell_length_c   9.78451780
_cell_angle_alpha   106.24124829
_cell_angle_beta   106.61802560
_cell_angle_gamma   106.29028538
_symmetry_Int_Tables_number   1
_chemical_formula_structural   SrLa6PtBr12
_chemical_formula_sum   'Sr1 La6 Pt1 Br12'
_cell_volume   793.23828341
_cell_formula_units_Z   1
loop_
 _symmetry_equiv_pos_site_id
 _symmetry_equiv_pos_as_xyz
  1  'x, y, z'
loop_
 _atom_site_type_symbol
 _atom_site_label
 _atom_site_symmetry_multiplicity
 _atom_site_fract_x
 _atom_site_fract_y
 _atom_site_fract_z
 _atom_site_occupancy
  Sr  Sr0  1  0.500000  0.500000  0.500000  1
  La  La1  1  0.107645  0.314547  0.020276  1
  La  La2  1  0.316181  0.019547  0.108770  1
  La  La3  1  0.020755  0.107396  0.315316  1
  La  La4  1  0.979244  0.892604  0.684684  1
  La  La5  1  0.683819  0.980452  0.891229  1
  La  La6  1  0.892355  0.685453  0.979724  1
  Pt  Pt7  1  0.000000  0.000000  0.000000  1
  Br  Br8  1  0.213665  0.678389  0.070096  1
  Br  Br9  1  0.450288  0.367050  0.157280  1
  Br  Br10  1  0.680471  0.070748  0.214168  1
  Br  Br11  1  0.929146  0.784773  0.320371  1
  Br  Br12  1  0.158380  0.450801  0.367755  1
  Br  Br13  1  0.367431  0.155846  0.450949  1
  Br  Br14  1  0.632569  0.844154  0.549051  1
  Br  Br15  1  0.841619  0.549199  0.632245  1
  Br  Br16  1  0.070855  0.215228  0.679630  1
  Br  Br17  1  0.319530  0.929253  0.785832  1
  Br  Br18  1  0.549711  0.632949  0.842720  1
  Br  Br19  1  0.786335  0.321612  0.929904  1
