# generated using pymatgen
data_Be5Ni2Mo4P
_symmetry_space_group_name_H-M   'P 1'
_cell_length_a   4.58954816
_cell_length_b   4.58954823
_cell_length_c   7.25324000
_cell_angle_alpha   90.00000000
_cell_angle_beta   90.00000000
_cell_angle_gamma   120.22892941
_symmetry_Int_Tables_number   1
_chemical_formula_structural   Be5Ni2Mo4P
_chemical_formula_sum   'Be5 Ni2 Mo4 P1'
_cell_volume   132.00672906
_cell_formula_units_Z   1
loop_
 _symmetry_equiv_pos_site_id
 _symmetry_equiv_pos_as_xyz
  1  'x, y, z'
loop_
 _atom_site_type_symbol
 _atom_site_label
 _atom_site_symmetry_multiplicity
 _atom_site_fract_x
 _atom_site_fract_y
 _atom_site_fract_z
 _atom_site_occupancy
  Be  Be0  1  0.827431  0.657271  0.250000  1
  Be  Be1  1  0.342729  0.172569  0.250000  1
  Be  Be2  1  0.169940  0.830060  0.750000  1
  Be  Be3  1  0.170633  0.340271  0.750000  1
  Be  Be4  1  0.659729  0.829367  0.750000  1
  Ni  Ni5  1  0.000589  0.999411  0.498650  1
  Ni  Ni6  1  0.000589  0.999411  0.001350  1
  Mo  Mo7  1  0.333590  0.666410  0.431470  1
  Mo  Mo8  1  0.666330  0.333670  0.570808  1
  Mo  Mo9  1  0.666330  0.333670  0.929192  1
  Mo  Mo10  1  0.333590  0.666410  0.068530  1
  P  P11  1  0.828520  0.171480  0.250000  1
