# generated using pymatgen
data_Gd3Cd3Ge2Au
_symmetry_space_group_name_H-M   'P 1'
_cell_length_a   7.39126900
_cell_length_b   7.39126863
_cell_length_c   4.38807100
_cell_angle_alpha   90.00000000
_cell_angle_beta   90.00000000
_cell_angle_gamma   120.00000615
_symmetry_Int_Tables_number   1
_chemical_formula_structural   Gd3Cd3Ge2Au
_chemical_formula_sum   'Gd3 Cd3 Ge2 Au1'
_cell_volume   207.60712086
_cell_formula_units_Z   1
loop_
 _symmetry_equiv_pos_site_id
 _symmetry_equiv_pos_as_xyz
  1  'x, y, z'
loop_
 _atom_site_type_symbol
 _atom_site_label
 _atom_site_symmetry_multiplicity
 _atom_site_fract_x
 _atom_site_fract_y
 _atom_site_fract_z
 _atom_site_occupancy
  Gd  Gd0  1  0.415291  0.000586  0.000000  1
  Gd  Gd1  1  0.585295  0.584709  0.000000  1
  Gd  Gd2  1  0.999414  0.414705  0.000000  1
  Cd  Cd3  1  0.750126  0.999614  0.500000  1
  Cd  Cd4  1  0.249488  0.249874  0.500000  1
  Cd  Cd5  1  0.000386  0.750512  0.500000  1
  Ge  Ge6  1  0.333333  0.666667  0.500000  1
  Ge  Ge7  1  0.666667  0.333333  0.500000  1
  Au  Au8  1  0.000000  0.000000  0.000000  1
