# generated using pymatgen
data_ErPa2(SnRh)3
_symmetry_space_group_name_H-M   'P 1'
_cell_length_a   7.37551100
_cell_length_b   7.46068606
_cell_length_c   4.01828900
_cell_angle_alpha   90.00000000
_cell_angle_beta   90.00000000
_cell_angle_gamma   119.62304451
_symmetry_Int_Tables_number   1
_chemical_formula_structural   ErPa2(SnRh)3
_chemical_formula_sum   'Er1 Pa2 Sn3 Rh3'
_cell_volume   192.21170343
_cell_formula_units_Z   1
loop_
 _symmetry_equiv_pos_site_id
 _symmetry_equiv_pos_as_xyz
  1  'x, y, z'
loop_
 _atom_site_type_symbol
 _atom_site_label
 _atom_site_symmetry_multiplicity
 _atom_site_fract_x
 _atom_site_fract_y
 _atom_site_fract_z
 _atom_site_occupancy
  Er  Er0  1  0.592162  0.000000  0.000000  1
  Pa  Pa1  1  0.412735  0.413596  0.000000  1
  Pa  Pa2  1  0.999140  0.586404  0.000000  1
  Sn  Sn3  1  0.744775  0.755828  0.500000  1
  Sn  Sn4  1  0.988947  0.244172  0.500000  1
  Sn  Sn5  1  0.265037  0.000000  0.500000  1
  Rh  Rh6  1  0.011460  0.000000  0.000000  1
  Rh  Rh7  1  0.670356  0.354968  0.500000  1
  Rh  Rh8  1  0.315388  0.645032  0.500000  1
