# generated using pymatgen
data_Ho5In2(HgPd)2
_symmetry_space_group_name_H-M   'P 1'
_cell_length_a   3.60621400
_cell_length_b   8.01019000
_cell_length_c   18.28975900
_cell_angle_alpha   90.00000000
_cell_angle_beta   90.00000000
_cell_angle_gamma   90.00000000
_symmetry_Int_Tables_number   1
_chemical_formula_structural   Ho5In2(HgPd)2
_chemical_formula_sum   'Ho10 In4 Hg4 Pd4'
_cell_volume   528.32637934
_cell_formula_units_Z   2
loop_
 _symmetry_equiv_pos_site_id
 _symmetry_equiv_pos_as_xyz
  1  'x, y, z'
loop_
 _atom_site_type_symbol
 _atom_site_label
 _atom_site_symmetry_multiplicity
 _atom_site_fract_x
 _atom_site_fract_y
 _atom_site_fract_z
 _atom_site_occupancy
  Ho  Ho0  1  0.000000  0.500000  0.500000  1
  Ho  Ho1  1  0.000000  0.000000  0.000000  1
  Ho  Ho2  1  0.000000  0.742205  0.282767  1
  Ho  Ho3  1  0.000000  0.257795  0.717233  1
  Ho  Ho4  1  0.000000  0.757795  0.782767  1
  Ho  Ho5  1  0.000000  0.242205  0.217233  1
  Ho  Ho6  1  0.000000  0.609216  0.083069  1
  Ho  Ho7  1  0.000000  0.390784  0.916931  1
  Ho  Ho8  1  0.000000  0.890784  0.583069  1
  Ho  Ho9  1  0.000000  0.109216  0.416931  1
  In  In10  1  0.500000  0.579338  0.648519  1
  In  In11  1  0.500000  0.420662  0.351481  1
  In  In12  1  0.500000  0.920662  0.148519  1
  In  In13  1  0.500000  0.079338  0.851481  1
  Hg  Hg14  1  0.500000  0.713486  0.932220  1
  Hg  Hg15  1  0.500000  0.286514  0.067780  1
  Hg  Hg16  1  0.500000  0.786514  0.432220  1
  Hg  Hg17  1  0.500000  0.213486  0.567780  1
  Pd  Pd18  1  0.500000  0.528458  0.197390  1
  Pd  Pd19  1  0.500000  0.471542  0.802610  1
  Pd  Pd20  1  0.500000  0.971542  0.697390  1
  Pd  Pd21  1  0.500000  0.028458  0.302610  1
