# generated using pymatgen
data_Er8Si(PdPt5)4
_symmetry_space_group_name_H-M   'P 1'
_cell_length_a   8.29297300
_cell_length_b   8.29112800
_cell_length_c   8.34004300
_cell_angle_alpha   90.00000000
_cell_angle_beta   90.00000000
_cell_angle_gamma   90.00000000
_symmetry_Int_Tables_number   1
_chemical_formula_structural   Er8Si(PdPt5)4
_chemical_formula_sum   'Er8 Si1 Pd4 Pt20'
_cell_volume   573.44551597
_cell_formula_units_Z   1
loop_
 _symmetry_equiv_pos_site_id
 _symmetry_equiv_pos_as_xyz
  1  'x, y, z'
loop_
 _atom_site_type_symbol
 _atom_site_label
 _atom_site_symmetry_multiplicity
 _atom_site_fract_x
 _atom_site_fract_y
 _atom_site_fract_z
 _atom_site_occupancy
  Er  Er0  1  0.253256  0.253008  0.253955  1
  Er  Er1  1  0.746744  0.746992  0.746045  1
  Er  Er2  1  0.746744  0.746992  0.253955  1
  Er  Er3  1  0.746744  0.253008  0.746045  1
  Er  Er4  1  0.253256  0.253008  0.746045  1
  Er  Er5  1  0.253256  0.746992  0.253955  1
  Er  Er6  1  0.253256  0.746992  0.746045  1
  Er  Er7  1  0.746744  0.253008  0.253955  1
  Si  Si8  1  0.000000  0.000000  0.000000  1
  Pd  Pd9  1  0.000000  0.500000  0.257687  1
  Pd  Pd10  1  0.000000  0.500000  0.742313  1
  Pd  Pd11  1  0.000000  0.000000  0.280815  1
  Pd  Pd12  1  0.000000  0.000000  0.719185  1
  Pt  Pt13  1  0.257048  0.500000  0.000000  1
  Pt  Pt14  1  0.742952  0.500000  0.000000  1
  Pt  Pt15  1  0.000000  0.257241  0.500000  1
  Pt  Pt16  1  0.500000  0.257491  0.000000  1
  Pt  Pt17  1  0.000000  0.742759  0.500000  1
  Pt  Pt18  1  0.500000  0.742509  0.000000  1
  Pt  Pt19  1  0.500000  0.000000  0.257481  1
  Pt  Pt20  1  0.256745  0.000000  0.500000  1
  Pt  Pt21  1  0.500000  0.000000  0.742519  1
  Pt  Pt22  1  0.743255  0.000000  0.500000  1
  Pt  Pt23  1  0.251524  0.500000  0.500000  1
  Pt  Pt24  1  0.748476  0.500000  0.500000  1
  Pt  Pt25  1  0.500000  0.251891  0.500000  1
  Pt  Pt26  1  0.500000  0.748109  0.500000  1
  Pt  Pt27  1  0.500000  0.500000  0.251953  1
  Pt  Pt28  1  0.500000  0.500000  0.748047  1
  Pt  Pt29  1  0.280016  0.000000  0.000000  1
  Pt  Pt30  1  0.719984  0.000000  0.000000  1
  Pt  Pt31  1  0.000000  0.280476  0.000000  1
  Pt  Pt32  1  0.000000  0.719524  0.000000  1
