# generated using pymatgen
data_Y6Al24Os7Au
_symmetry_space_group_name_H-M   'P 1'
_cell_length_a   8.87456228
_cell_length_b   8.87456365
_cell_length_c   9.57219942
_cell_angle_alpha   89.79486028
_cell_angle_beta   90.20513878
_cell_angle_gamma   120.01023854
_symmetry_Int_Tables_number   1
_chemical_formula_structural   Y6Al24Os7Au
_chemical_formula_sum   'Y6 Al24 Os7 Au1'
_cell_volume   652.81149440
_cell_formula_units_Z   1
loop_
 _symmetry_equiv_pos_site_id
 _symmetry_equiv_pos_as_xyz
  1  'x, y, z'
loop_
 _atom_site_type_symbol
 _atom_site_label
 _atom_site_symmetry_multiplicity
 _atom_site_fract_x
 _atom_site_fract_y
 _atom_site_fract_z
 _atom_site_occupancy
  Y  Y0  1  0.190725  0.385909  0.250811  1
  Y  Y1  1  0.809275  0.614091  0.749189  1
  Y  Y2  1  0.614091  0.809275  0.250811  1
  Y  Y3  1  0.385909  0.190725  0.749189  1
  Y  Y4  1  0.194384  0.805616  0.253712  1
  Y  Y5  1  0.805616  0.194384  0.746288  1
  Al  Al6  1  0.328595  0.671405  0.020461  1
  Al  Al7  1  0.671405  0.328595  0.979539  1
  Al  Al8  1  0.666045  0.333955  0.517664  1
  Al  Al9  1  0.333955  0.666045  0.482336  1
  Al  Al10  1  0.162761  0.325999  0.574835  1
  Al  Al11  1  0.837239  0.674001  0.425165  1
  Al  Al12  1  0.674001  0.837239  0.574835  1
  Al  Al13  1  0.848461  0.677507  0.079109  1
  Al  Al14  1  0.325999  0.162761  0.425165  1
  Al  Al15  1  0.151539  0.322493  0.920891  1
  Al  Al16  1  0.163239  0.836761  0.574928  1
  Al  Al17  1  0.322493  0.151539  0.079109  1
  Al  Al18  1  0.836761  0.163239  0.425072  1
  Al  Al19  1  0.677507  0.848461  0.920891  1
  Al  Al20  1  0.836690  0.163310  0.075454  1
  Al  Al21  1  0.163310  0.836690  0.924546  1
  Al  Al22  1  0.561080  0.121191  0.249291  1
  Al  Al23  1  0.438920  0.878809  0.750709  1
  Al  Al24  1  0.878809  0.438920  0.249291  1
  Al  Al25  1  0.121191  0.561080  0.750709  1
  Al  Al26  1  0.563662  0.436338  0.255859  1
  Al  Al27  1  0.436338  0.563662  0.744141  1
  Al  Al28  1  0.999535  0.000465  0.250384  1
  Al  Al29  1  0.000465  0.999535  0.749616  1
  Os  Os30  1  0.500000  0.000000  0.000000  1
  Os  Os31  1  0.000000  0.500000  0.000000  1
  Os  Os32  1  0.500000  0.000000  0.500000  1
  Os  Os33  1  0.000000  0.500000  0.500000  1
  Os  Os34  1  0.500000  0.500000  0.500000  1
  Os  Os35  1  0.000000  0.000000  0.000000  1
  Os  Os36  1  0.000000  0.000000  0.500000  1
  Au  Au37  1  0.500000  0.500000  0.000000  1
