# generated using pymatgen
data_HoNp3(TcB6)2
_symmetry_space_group_name_H-M   'P 1'
_cell_length_a   3.61826600
_cell_length_b   9.27058602
_cell_length_c   11.33482103
_cell_angle_alpha   90.00807461
_cell_angle_beta   90.00000000
_cell_angle_gamma   90.00000000
_symmetry_Int_Tables_number   1
_chemical_formula_structural   HoNp3(TcB6)2
_chemical_formula_sum   'Ho2 Np6 Tc4 B24'
_cell_volume   380.20895565
_cell_formula_units_Z   2
loop_
 _symmetry_equiv_pos_site_id
 _symmetry_equiv_pos_as_xyz
  1  'x, y, z'
loop_
 _atom_site_type_symbol
 _atom_site_label
 _atom_site_symmetry_multiplicity
 _atom_site_fract_x
 _atom_site_fract_y
 _atom_site_fract_z
 _atom_site_occupancy
  Ho  Ho0  1  0.000000  0.338166  0.407429  1
  Ho  Ho1  1  0.000000  0.661834  0.592571  1
  Np  Np2  1  0.000000  0.837763  0.093772  1
  Np  Np3  1  0.000000  0.162237  0.906228  1
  Np  Np4  1  0.000000  0.958862  0.400273  1
  Np  Np5  1  0.000000  0.041138  0.599727  1
  Np  Np6  1  0.000000  0.459096  0.099460  1
  Np  Np7  1  0.000000  0.540904  0.900540  1
  Tc  Tc8  1  0.000000  0.647205  0.317646  1
  Tc  Tc9  1  0.000000  0.352795  0.682354  1
  Tc  Tc10  1  0.000000  0.144972  0.180165  1
  Tc  Tc11  1  0.000000  0.855028  0.819835  1
  B  B12  1  0.500000  0.552324  0.431230  1
  B  B13  1  0.500000  0.447676  0.568770  1
  B  B14  1  0.500000  0.052138  0.068356  1
  B  B15  1  0.500000  0.947862  0.931644  1
  B  B16  1  0.500000  0.743642  0.423356  1
  B  B17  1  0.500000  0.256358  0.576644  1
  B  B18  1  0.500000  0.243384  0.076584  1
  B  B19  1  0.500000  0.756616  0.923416  1
  B  B20  1  0.500000  0.805001  0.274439  1
  B  B21  1  0.500000  0.194999  0.725561  1
  B  B22  1  0.500000  0.304505  0.225100  1
  B  B23  1  0.500000  0.695495  0.774900  1
  B  B24  1  0.500000  0.645441  0.188515  1
  B  B25  1  0.500000  0.354559  0.811485  1
  B  B26  1  0.500000  0.145222  0.311854  1
  B  B27  1  0.500000  0.854778  0.688146  1
  B  B28  1  0.500000  0.988385  0.220673  1
  B  B29  1  0.500000  0.011615  0.779327  1
  B  B30  1  0.500000  0.488861  0.279708  1
  B  B31  1  0.500000  0.511139  0.720292  1
  B  B32  1  0.500000  0.642704  0.039555  1
  B  B33  1  0.500000  0.357296  0.960445  1
  B  B34  1  0.500000  0.140944  0.461034  1
  B  B35  1  0.500000  0.859056  0.538966  1
