# generated using pymatgen
data_Ce2Lu(CoSn)3
_symmetry_space_group_name_H-M   'P 1'
_cell_length_a   7.28177261
_cell_length_b   7.20353362
_cell_length_c   3.93446500
_cell_angle_alpha   90.00000000
_cell_angle_beta   90.00000000
_cell_angle_gamma   119.64520621
_symmetry_Int_Tables_number   1
_chemical_formula_structural   Ce2Lu(CoSn)3
_chemical_formula_sum   'Ce2 Lu1 Co3 Sn3'
_cell_volume   179.36619907
_cell_formula_units_Z   1
loop_
 _symmetry_equiv_pos_site_id
 _symmetry_equiv_pos_as_xyz
  1  'x, y, z'
loop_
 _atom_site_type_symbol
 _atom_site_label
 _atom_site_symmetry_multiplicity
 _atom_site_fract_x
 _atom_site_fract_y
 _atom_site_fract_z
 _atom_site_occupancy
  Ce  Ce0  1  0.587866  0.001288  0.500000  1
  Ce  Ce1  1  0.412133  0.413421  0.500000  1
  Lu  Lu2  1  0.000000  0.594412  0.500000  1
  Co  Co3  1  0.655149  0.322335  0.000000  1
  Co  Co4  1  0.344851  0.667187  0.000000  1
  Co  Co5  1  0.000000  0.002690  0.500000  1
  Sn  Sn6  1  0.246458  0.991572  0.000000  1
  Sn  Sn7  1  0.000000  0.261982  0.000000  1
  Sn  Sn8  1  0.753542  0.745114  0.000000  1
