# generated using pymatgen
data_Sm4TcB16Mo3
_symmetry_space_group_name_H-M   'P 1'
_cell_length_a   3.66794200
_cell_length_b   6.06809652
_cell_length_c   11.75182451
_cell_angle_alpha   90.05295225
_cell_angle_beta   90.00000000
_cell_angle_gamma   90.00000000
_symmetry_Int_Tables_number   1
_chemical_formula_structural   Sm4TcB16Mo3
_chemical_formula_sum   'Sm4 Tc1 B16 Mo3'
_cell_volume   261.56525373
_cell_formula_units_Z   1
loop_
 _symmetry_equiv_pos_site_id
 _symmetry_equiv_pos_as_xyz
  1  'x, y, z'
loop_
 _atom_site_type_symbol
 _atom_site_label
 _atom_site_symmetry_multiplicity
 _atom_site_fract_x
 _atom_site_fract_y
 _atom_site_fract_z
 _atom_site_occupancy
  Sm  Sm0  1  0.000000  0.626176  0.349682  1
  Sm  Sm1  1  0.000000  0.374964  0.650451  1
  Sm  Sm2  1  0.000000  0.125642  0.150211  1
  Sm  Sm3  1  0.000000  0.874667  0.849430  1
  Tc  Tc4  1  0.000000  0.870715  0.584226  1
  B  B5  1  0.500000  0.784227  0.185366  1
  B  B6  1  0.500000  0.215067  0.814079  1
  B  B7  1  0.500000  0.283636  0.315349  1
  B  B8  1  0.500000  0.718249  0.683693  1
  B  B9  1  0.500000  0.864781  0.032079  1
  B  B10  1  0.500000  0.135087  0.967167  1
  B  B11  1  0.500000  0.364009  0.468646  1
  B  B12  1  0.500000  0.638066  0.532990  1
  B  B13  1  0.500000  0.885438  0.454788  1
  B  B14  1  0.500000  0.111353  0.547776  1
  B  B15  1  0.500000  0.386141  0.046093  1
  B  B16  1  0.500000  0.613382  0.953083  1
  B  B17  1  0.500000  0.974454  0.308893  1
  B  B18  1  0.500000  0.023735  0.690862  1
  B  B19  1  0.500000  0.474944  0.192111  1
  B  B20  1  0.500000  0.525676  0.807337  1
  Mo  Mo21  1  0.000000  0.627662  0.083330  1
  Mo  Mo22  1  0.000000  0.372248  0.915521  1
  Mo  Mo23  1  0.000000  0.129681  0.416837  1
