# generated using pymatgen
data_Sc4Be7SiRu10
_symmetry_space_group_name_H-M   'P 1'
_cell_length_a   3.20448400
_cell_length_b   8.71942086
_cell_length_c   10.29839575
_cell_angle_alpha   89.46635222
_cell_angle_beta   90.00000000
_cell_angle_gamma   90.00000000
_symmetry_Int_Tables_number   1
_chemical_formula_structural   Sc4Be7SiRu10
_chemical_formula_sum   'Sc4 Be7 Si1 Ru10'
_cell_volume   287.73751402
_cell_formula_units_Z   1
loop_
 _symmetry_equiv_pos_site_id
 _symmetry_equiv_pos_as_xyz
  1  'x, y, z'
loop_
 _atom_site_type_symbol
 _atom_site_label
 _atom_site_symmetry_multiplicity
 _atom_site_fract_x
 _atom_site_fract_y
 _atom_site_fract_z
 _atom_site_occupancy
  Sc  Sc0  1  0.500000  0.851904  0.185150  1
  Sc  Sc1  1  0.500000  0.159239  0.816405  1
  Sc  Sc2  1  0.500000  0.668267  0.684720  1
  Sc  Sc3  1  0.500000  0.337074  0.324912  1
  Be  Be4  1  0.500000  0.961404  0.593684  1
  Be  Be5  1  0.500000  0.033567  0.406164  1
  Be  Be6  1  0.500000  0.848599  0.905152  1
  Be  Be7  1  0.500000  0.153090  0.099035  1
  Be  Be8  1  0.500000  0.658234  0.411555  1
  Be  Be9  1  0.500000  0.330925  0.592364  1
  Be  Be10  1  0.500000  0.460872  0.893477  1
  Si  Si11  1  0.500000  0.536326  0.094366  1
  Ru  Ru12  1  0.000000  0.656759  0.947112  1
  Ru  Ru13  1  0.000000  0.337945  0.040199  1
  Ru  Ru14  1  0.000000  0.839553  0.455988  1
  Ru  Ru15  1  0.000000  0.153090  0.544980  1
  Ru  Ru16  1  0.000000  0.003176  0.997700  1
  Ru  Ru17  1  0.000000  0.405906  0.747434  1
  Ru  Ru18  1  0.000000  0.599931  0.249338  1
  Ru  Ru19  1  0.000000  0.499708  0.507471  1
  Ru  Ru20  1  0.000000  0.906558  0.744320  1
  Ru  Ru21  1  0.000000  0.097872  0.258473  1
