# generated using pymatgen
data_Tm12MgIn(FeSi)2
_symmetry_space_group_name_H-M   'P 1'
_cell_length_a   8.34607938
_cell_length_b   8.34607964
_cell_length_c   8.34607993
_cell_angle_alpha   112.64651198
_cell_angle_beta   111.45095434
_cell_angle_gamma   104.43317908
_symmetry_Int_Tables_number   1
_chemical_formula_structural   Tm12MgIn(FeSi)2
_chemical_formula_sum   'Tm12 Mg1 In1 Fe2 Si2'
_cell_volume   444.91555375
_cell_formula_units_Z   1
loop_
 _symmetry_equiv_pos_site_id
 _symmetry_equiv_pos_as_xyz
  1  'x, y, z'
loop_
 _atom_site_type_symbol
 _atom_site_label
 _atom_site_symmetry_multiplicity
 _atom_site_fract_x
 _atom_site_fract_y
 _atom_site_fract_z
 _atom_site_occupancy
  Tm  Tm0  1  0.444687  0.243928  0.200759  1
  Tm  Tm1  1  0.555313  0.756072  0.799241  1
  Tm  Tm2  1  0.043169  0.243928  0.799241  1
  Tm  Tm3  1  0.956831  0.756072  0.200759  1
  Tm  Tm4  1  0.186725  0.289371  0.476095  1
  Tm  Tm5  1  0.813275  0.710629  0.523905  1
  Tm  Tm6  1  0.186725  0.710629  0.897354  1
  Tm  Tm7  1  0.813275  0.289371  0.102646  1
  Tm  Tm8  1  0.303505  0.614688  0.311183  1
  Tm  Tm9  1  0.696495  0.385312  0.688817  1
  Tm  Tm10  1  0.303505  0.992323  0.688817  1
  Tm  Tm11  1  0.696495  0.007677  0.311183  1
  Mg  Mg12  1  0.000000  0.000000  0.000000  1
  In  In13  1  0.500000  0.500000  0.000000  1
  Fe  Fe14  1  0.105376  0.605376  0.500000  1
  Fe  Fe15  1  0.894624  0.394624  0.500000  1
  Si  Si16  1  0.354406  0.000000  0.354406  1
  Si  Si17  1  0.645594  0.000000  0.645594  1
