# generated using pymatgen
data_CePa3(CoGe)4
_symmetry_space_group_name_H-M   'P 1'
_cell_length_a   4.24804300
_cell_length_b   6.96764977
_cell_length_c   7.37696192
_cell_angle_alpha   93.31780385
_cell_angle_beta   90.00000000
_cell_angle_gamma   90.00000000
_symmetry_Int_Tables_number   1
_chemical_formula_structural   CePa3(CoGe)4
_chemical_formula_sum   'Ce1 Pa3 Co4 Ge4'
_cell_volume   217.98379987
_cell_formula_units_Z   1
loop_
 _symmetry_equiv_pos_site_id
 _symmetry_equiv_pos_as_xyz
  1  'x, y, z'
loop_
 _atom_site_type_symbol
 _atom_site_label
 _atom_site_symmetry_multiplicity
 _atom_site_fract_x
 _atom_site_fract_y
 _atom_site_fract_z
 _atom_site_occupancy
  Ce  Ce0  1  0.250000  0.772582  0.479030  1
  Pa  Pa1  1  0.250000  0.697870  0.993123  1
  Pa  Pa2  1  0.750000  0.301608  0.008226  1
  Pa  Pa3  1  0.750000  0.235028  0.523589  1
  Co  Co4  1  0.250000  0.045274  0.120152  1
  Co  Co5  1  0.750000  0.954099  0.874024  1
  Co  Co6  1  0.750000  0.551562  0.244327  1
  Co  Co7  1  0.250000  0.442002  0.753803  1
  Ge  Ge8  1  0.250000  0.380710  0.294092  1
  Ge  Ge9  1  0.750000  0.617292  0.710355  1
  Ge  Ge10  1  0.750000  0.913593  0.225680  1
  Ge  Ge11  1  0.250000  0.088382  0.773601  1
