# generated using pymatgen
data_LuHf(Al3Rh)3
_symmetry_space_group_name_H-M   'P 1'
_cell_length_a   7.49756552
_cell_length_b   7.48697821
_cell_length_c   9.30057000
_cell_angle_alpha   90.00000000
_cell_angle_beta   90.00000000
_cell_angle_gamma   119.68407453
_symmetry_Int_Tables_number   1
_chemical_formula_structural   LuHf(Al3Rh)3
_chemical_formula_sum   'Lu2 Hf2 Al18 Rh6'
_cell_volume   453.56634084
_cell_formula_units_Z   2
loop_
 _symmetry_equiv_pos_site_id
 _symmetry_equiv_pos_as_xyz
  1  'x, y, z'
loop_
 _atom_site_type_symbol
 _atom_site_label
 _atom_site_symmetry_multiplicity
 _atom_site_fract_x
 _atom_site_fract_y
 _atom_site_fract_z
 _atom_site_occupancy
  Lu  Lu0  1  0.671199  0.993827  0.250000  1
  Lu  Lu1  1  0.328801  0.006173  0.750000  1
  Hf  Hf2  1  0.995147  0.671416  0.250000  1
  Hf  Hf3  1  0.004853  0.328584  0.750000  1
  Al  Al4  1  0.124874  0.122930  0.250000  1
  Al  Al5  1  0.875126  0.877070  0.750000  1
  Al  Al6  1  0.998839  0.336923  0.076719  1
  Al  Al7  1  0.001161  0.663077  0.923281  1
  Al  Al8  1  0.001161  0.663077  0.576719  1
  Al  Al9  1  0.332653  0.997411  0.420698  1
  Al  Al10  1  0.998839  0.336923  0.423281  1
  Al  Al11  1  0.667347  0.002589  0.579302  1
  Al  Al12  1  0.667347  0.002589  0.920698  1
  Al  Al13  1  0.332653  0.997411  0.079302  1
  Al  Al14  1  0.330635  0.332962  0.557370  1
  Al  Al15  1  0.669365  0.667038  0.442630  1
  Al  Al16  1  0.669365  0.667038  0.057370  1
  Al  Al17  1  0.330635  0.332962  0.942630  1
  Al  Al18  1  0.334919  0.549413  0.250000  1
  Al  Al19  1  0.665081  0.450587  0.750000  1
  Al  Al20  1  0.556332  0.343276  0.250000  1
  Al  Al21  1  0.443668  0.656724  0.750000  1
  Rh  Rh22  1  0.673636  0.327602  0.999147  1
  Rh  Rh23  1  0.326364  0.672398  0.000853  1
  Rh  Rh24  1  0.326364  0.672398  0.499147  1
  Rh  Rh25  1  0.673636  0.327602  0.500853  1
  Rh  Rh26  1  0.000000  0.000000  0.000000  1
  Rh  Rh27  1  0.000000  0.000000  0.500000  1
