# generated using pymatgen
data_Tb10Si6H
_symmetry_space_group_name_H-M   'P 1'
_cell_length_a   8.50602900
_cell_length_b   8.50602944
_cell_length_c   6.34016900
_cell_angle_alpha   90.00000000
_cell_angle_beta   90.00000000
_cell_angle_gamma   119.99999439
_symmetry_Int_Tables_number   1
_chemical_formula_structural   Tb10Si6H
_chemical_formula_sum   'Tb10 Si6 H1'
_cell_volume   397.26950691
_cell_formula_units_Z   1
loop_
 _symmetry_equiv_pos_site_id
 _symmetry_equiv_pos_as_xyz
  1  'x, y, z'
loop_
 _atom_site_type_symbol
 _atom_site_label
 _atom_site_symmetry_multiplicity
 _atom_site_fract_x
 _atom_site_fract_y
 _atom_site_fract_z
 _atom_site_occupancy
  Tb  Tb0  1  0.333333  0.666667  0.500000  1
  Tb  Tb1  1  0.666667  0.333333  0.500000  1
  Tb  Tb2  1  0.666667  0.333333  0.000000  1
  Tb  Tb3  1  0.333333  0.666667  0.000000  1
  Tb  Tb4  1  0.000000  0.752817  0.248041  1
  Tb  Tb5  1  0.247183  0.247183  0.248041  1
  Tb  Tb6  1  0.752817  0.000000  0.248041  1
  Tb  Tb7  1  0.000000  0.247183  0.751959  1
  Tb  Tb8  1  0.752817  0.752817  0.751959  1
  Tb  Tb9  1  0.247183  0.000000  0.751959  1
  Si  Si10  1  0.000000  0.391300  0.250503  1
  Si  Si11  1  0.608700  0.608700  0.250503  1
  Si  Si12  1  0.391300  0.000000  0.250503  1
  Si  Si13  1  0.000000  0.608700  0.749497  1
  Si  Si14  1  0.391300  0.391300  0.749497  1
  Si  Si15  1  0.608700  0.000000  0.749497  1
  H  H16  1  0.000000  0.000000  0.500000  1
