# generated using pymatgen
data_SrNp6(NCl)6
_symmetry_space_group_name_H-M   'P 1'
_cell_length_a   6.58718508
_cell_length_b   6.58718378
_cell_length_c   11.00850400
_cell_angle_alpha   84.27345506
_cell_angle_beta   84.27345496
_cell_angle_gamma   120.00148314
_symmetry_Int_Tables_number   1
_chemical_formula_structural   SrNp6(NCl)6
_chemical_formula_sum   'Sr1 Np6 N6 Cl6'
_cell_volume   405.34697162
_cell_formula_units_Z   1
loop_
 _symmetry_equiv_pos_site_id
 _symmetry_equiv_pos_as_xyz
  1  'x, y, z'
loop_
 _atom_site_type_symbol
 _atom_site_label
 _atom_site_symmetry_multiplicity
 _atom_site_fract_x
 _atom_site_fract_y
 _atom_site_fract_z
 _atom_site_occupancy
  Sr  Sr0  1  0.000000  0.000000  0.000000  1
  Np  Np1  1  0.209825  0.209825  0.370542  1
  Np  Np2  1  0.543263  0.876482  0.370544  1
  Np  Np3  1  0.876482  0.543263  0.370544  1
  Np  Np4  1  0.123518  0.456737  0.629456  1
  Np  Np5  1  0.456737  0.123518  0.629456  1
  Np  Np6  1  0.790175  0.790175  0.629458  1
  N  N7  1  0.139892  0.139892  0.580402  1
  N  N8  1  0.473015  0.806380  0.580769  1
  N  N9  1  0.806380  0.473015  0.580769  1
  N  N10  1  0.193620  0.526985  0.419231  1
  N  N11  1  0.526985  0.193620  0.419231  1
  N  N12  1  0.860108  0.860108  0.419598  1
  Cl  Cl13  1  0.059500  0.728480  0.821378  1
  Cl  Cl14  1  0.390540  0.390540  0.821102  1
  Cl  Cl15  1  0.728480  0.059500  0.821378  1
  Cl  Cl16  1  0.271520  0.940500  0.178622  1
  Cl  Cl17  1  0.609460  0.609460  0.178898  1
  Cl  Cl18  1  0.940500  0.271520  0.178622  1
