# generated using pymatgen
data_Sc2Fe4P7Ir3Ru5
_symmetry_space_group_name_H-M   'P 1'
_cell_length_a   9.23131714
_cell_length_b   9.22452296
_cell_length_c   3.79828600
_cell_angle_alpha   90.00000000
_cell_angle_beta   90.00000000
_cell_angle_gamma   119.93892478
_symmetry_Int_Tables_number   1
_chemical_formula_structural   Sc2Fe4P7Ir3Ru5
_chemical_formula_sum   'Sc2 Fe4 P7 Ir3 Ru5'
_cell_volume   280.28046733
_cell_formula_units_Z   1
loop_
 _symmetry_equiv_pos_site_id
 _symmetry_equiv_pos_as_xyz
  1  'x, y, z'
loop_
 _atom_site_type_symbol
 _atom_site_label
 _atom_site_symmetry_multiplicity
 _atom_site_fract_x
 _atom_site_fract_y
 _atom_site_fract_z
 _atom_site_occupancy
  Sc  Sc0  1  0.659941  0.327372  0.500000  1
  Sc  Sc1  1  0.331646  0.667015  0.000000  1
  Fe  Fe2  1  0.727185  0.889377  0.000000  1
  Fe  Fe3  1  0.117998  0.846330  0.000000  1
  Fe  Fe4  1  0.162544  0.271393  0.000000  1
  Fe  Fe5  1  0.426120  0.058905  0.000000  1
  P  P6  1  0.602196  0.719771  0.500000  1
  P  P7  1  0.999978  0.000758  0.000000  1
  P  P8  1  0.280416  0.880944  0.500000  1
  P  P9  1  0.121450  0.403029  0.500000  1
  P  P10  1  0.890254  0.592052  0.000000  1
  P  P11  1  0.415074  0.289116  0.000000  1
  P  P12  1  0.687630  0.110577  0.000000  1
  Ir  Ir13  1  0.554895  0.944855  0.500000  1
  Ir  Ir14  1  0.387560  0.445016  0.500000  1
  Ir  Ir15  1  0.929342  0.360493  0.000000  1
  Ru  Ru16  1  0.913120  0.124080  0.500000  1
  Ru  Ru17  1  0.221055  0.093694  0.500000  1
  Ru  Ru18  1  0.880651  0.793361  0.500000  1
  Ru  Ru19  1  0.635545  0.568294  0.000000  1
  Ru  Ru20  1  0.055402  0.613566  0.500000  1
