# generated using pymatgen
data_MgU2(SnIr)3
_symmetry_space_group_name_H-M   'P 1'
_cell_length_a   7.38619642
_cell_length_b   7.38619522
_cell_length_c   4.00549700
_cell_angle_alpha   90.00000000
_cell_angle_beta   90.00000000
_cell_angle_gamma   121.37977317
_symmetry_Int_Tables_number   1
_chemical_formula_structural   MgU2(SnIr)3
_chemical_formula_sum   'Mg1 U2 Sn3 Ir3'
_cell_volume   186.56104472
_cell_formula_units_Z   1
loop_
 _symmetry_equiv_pos_site_id
 _symmetry_equiv_pos_as_xyz
  1  'x, y, z'
loop_
 _atom_site_type_symbol
 _atom_site_label
 _atom_site_symmetry_multiplicity
 _atom_site_fract_x
 _atom_site_fract_y
 _atom_site_fract_z
 _atom_site_occupancy
  Mg  Mg0  1  0.399592  0.399592  0.500000  1
  U  U1  1  0.588500  0.002956  0.500000  1
  U  U2  1  0.002956  0.588500  0.500000  1
  Sn  Sn3  1  0.725815  0.725815  0.000000  1
  Sn  Sn4  1  0.258439  0.014856  0.000000  1
  Sn  Sn5  1  0.014856  0.258439  0.000000  1
  Ir  Ir6  1  0.686082  0.331672  0.000000  1
  Ir  Ir7  1  0.331672  0.686082  0.000000  1
  Ir  Ir8  1  0.992088  0.992088  0.500000  1
