# generated using pymatgen
data_Mo(WBr3)2
_symmetry_space_group_name_H-M   'P 1'
_cell_length_a   10.02602185
_cell_length_b   10.02602146
_cell_length_c   12.20339500
_cell_angle_alpha   90.00000000
_cell_angle_beta   90.00000000
_cell_angle_gamma   105.88572642
_symmetry_Int_Tables_number   1
_chemical_formula_structural   Mo(WBr3)2
_chemical_formula_sum   'Mo4 W8 Br24'
_cell_volume   1179.85060866
_cell_formula_units_Z   4
loop_
 _symmetry_equiv_pos_site_id
 _symmetry_equiv_pos_as_xyz
  1  'x, y, z'
loop_
 _atom_site_type_symbol
 _atom_site_label
 _atom_site_symmetry_multiplicity
 _atom_site_fract_x
 _atom_site_fract_y
 _atom_site_fract_z
 _atom_site_occupancy
  Mo  Mo0  1  0.070631  0.070631  0.861331  1
  Mo  Mo1  1  0.429369  0.429369  0.361331  1
  Mo  Mo2  1  0.570631  0.570631  0.638669  1
  Mo  Mo3  1  0.929369  0.929369  0.138669  1
  W  W4  1  0.862138  0.862138  0.931244  1
  W  W5  1  0.637862  0.637862  0.431244  1
  W  W6  1  0.362138  0.362138  0.568756  1
  W  W7  1  0.137862  0.137862  0.068756  1
  W  W8  1  0.383021  0.616979  0.500000  1
  W  W9  1  0.116979  0.883021  0.000000  1
  W  W10  1  0.616979  0.383021  0.500000  1
  W  W11  1  0.883021  0.116979  0.000000  1
  Br  Br12  1  0.656763  0.656763  0.845223  1
  Br  Br13  1  0.843237  0.843237  0.345223  1
  Br  Br14  1  0.156763  0.156763  0.654777  1
  Br  Br15  1  0.343237  0.343237  0.154777  1
  Br  Br16  1  0.221870  0.778130  0.500000  1
  Br  Br17  1  0.278130  0.721870  0.000000  1
  Br  Br18  1  0.778130  0.221870  0.500000  1
  Br  Br19  1  0.721870  0.278130  0.000000  1
  Br  Br20  1  0.324391  0.091548  0.932240  1
  Br  Br21  1  0.175609  0.408452  0.432240  1
  Br  Br22  1  0.591548  0.824391  0.567760  1
  Br  Br23  1  0.908452  0.675609  0.067760  1
  Br  Br24  1  0.953699  0.185883  0.205776  1
  Br  Br25  1  0.546301  0.314117  0.705776  1
  Br  Br26  1  0.685883  0.453699  0.294224  1
  Br  Br27  1  0.814117  0.046301  0.794224  1
  Br  Br28  1  0.046301  0.814117  0.794224  1
  Br  Br29  1  0.453699  0.685883  0.294224  1
  Br  Br30  1  0.314117  0.546301  0.705776  1
  Br  Br31  1  0.185883  0.953699  0.205776  1
  Br  Br32  1  0.091548  0.324391  0.932240  1
  Br  Br33  1  0.408452  0.175609  0.432240  1
  Br  Br34  1  0.824391  0.591548  0.567760  1
  Br  Br35  1  0.675609  0.908452  0.067760  1
