# generated using pymatgen
data_CsVS2O9
_symmetry_space_group_name_H-M   'P 1'
_cell_length_a   5.12438900
_cell_length_b   8.99931229
_cell_length_c   9.94813308
_cell_angle_alpha   74.09102012
_cell_angle_beta   90.00000000
_cell_angle_gamma   90.00000000
_symmetry_Int_Tables_number   1
_chemical_formula_structural   CsVS2O9
_chemical_formula_sum   'Cs2 V2 S4 O18'
_cell_volume   441.19631354
_cell_formula_units_Z   2
loop_
 _symmetry_equiv_pos_site_id
 _symmetry_equiv_pos_as_xyz
  1  'x, y, z'
loop_
 _atom_site_type_symbol
 _atom_site_label
 _atom_site_symmetry_multiplicity
 _atom_site_fract_x
 _atom_site_fract_y
 _atom_site_fract_z
 _atom_site_occupancy
  Cs  Cs0  1  0.250000  0.410256  0.222582  1
  Cs  Cs1  1  0.750000  0.589744  0.777418  1
  V  V2  1  0.250000  0.913994  0.247203  1
  V  V3  1  0.750000  0.086006  0.752797  1
  S  S4  1  0.250000  0.308650  0.658837  1
  S  S5  1  0.750000  0.691350  0.341163  1
  S  S6  1  0.250000  0.863817  0.900496  1
  S  S7  1  0.750000  0.136183  0.099504  1
  O  O8  1  0.250000  0.262829  0.531070  1
  O  O9  1  0.750000  0.737171  0.468930  1
  O  O10  1  0.250000  0.472513  0.648956  1
  O  O11  1  0.750000  0.527487  0.351044  1
  O  O12  1  0.015224  0.237357  0.753010  1
  O  O13  1  0.515224  0.762643  0.246990  1
  O  O14  1  0.984776  0.762643  0.246990  1
  O  O15  1  0.484776  0.237357  0.753010  1
  O  O16  1  0.250000  0.933491  0.016399  1
  O  O17  1  0.750000  0.066509  0.983601  1
  O  O18  1  0.250000  0.695497  0.938945  1
  O  O19  1  0.750000  0.304503  0.061055  1
  O  O20  1  0.014292  0.918780  0.806911  1
  O  O21  1  0.514292  0.081220  0.193089  1
  O  O22  1  0.985708  0.081220  0.193089  1
  O  O23  1  0.485708  0.918780  0.806911  1
  O  O24  1  0.250000  0.905376  0.409586  1
  O  O25  1  0.750000  0.094624  0.590414  1
