# generated using pymatgen
data_Er6GaSiTc
_symmetry_space_group_name_H-M   'P 1'
_cell_length_a   8.36746524
_cell_length_b   8.36746604
_cell_length_c   8.36746644
_cell_angle_alpha   112.22086623
_cell_angle_beta   111.91167771
_cell_angle_gamma   104.39735525
_symmetry_Int_Tables_number   1
_chemical_formula_structural   Er6GaSiTc
_chemical_formula_sum   'Er12 Ga2 Si2 Tc2'
_cell_volume   448.35803138
_cell_formula_units_Z   2
loop_
 _symmetry_equiv_pos_site_id
 _symmetry_equiv_pos_as_xyz
  1  'x, y, z'
loop_
 _atom_site_type_symbol
 _atom_site_label
 _atom_site_symmetry_multiplicity
 _atom_site_fract_x
 _atom_site_fract_y
 _atom_site_fract_z
 _atom_site_occupancy
  Er  Er0  1  0.050157  0.742483  0.307674  1
  Er  Er1  1  0.949843  0.257517  0.692326  1
  Er  Er2  1  0.565192  0.257517  0.307674  1
  Er  Er3  1  0.434808  0.742483  0.692326  1
  Er  Er4  1  0.665203  0.853661  0.188458  1
  Er  Er5  1  0.334797  0.523255  0.188458  1
  Er  Er6  1  0.334797  0.146339  0.811542  1
  Er  Er7  1  0.665203  0.476745  0.811542  1
  Er  Er8  1  0.182992  0.227179  0.410172  1
  Er  Er9  1  0.817008  0.227179  0.044186  1
  Er  Er10  1  0.182992  0.772821  0.955814  1
  Er  Er11  1  0.817008  0.772821  0.589828  1
  Ga  Ga12  1  0.000000  0.500000  0.500000  1
  Ga  Ga13  1  0.500000  0.000000  0.500000  1
  Si  Si14  1  0.884961  0.884961  0.000000  1
  Si  Si15  1  0.115039  0.115039  0.000000  1
  Tc  Tc16  1  0.677394  0.500000  0.177394  1
  Tc  Tc17  1  0.322606  0.500000  0.822606  1
