# generated using pymatgen
data_Y3Ho7Si5As
_symmetry_space_group_name_H-M   'P 1'
_cell_length_a   8.41676500
_cell_length_b   8.43387910
_cell_length_c   6.29866100
_cell_angle_alpha   90.00000000
_cell_angle_beta   90.00000000
_cell_angle_gamma   119.93290092
_symmetry_Int_Tables_number   1
_chemical_formula_structural   Y3Ho7Si5As
_chemical_formula_sum   'Y3 Ho7 Si5 As1'
_cell_volume   387.47588952
_cell_formula_units_Z   1
loop_
 _symmetry_equiv_pos_site_id
 _symmetry_equiv_pos_as_xyz
  1  'x, y, z'
loop_
 _atom_site_type_symbol
 _atom_site_label
 _atom_site_symmetry_multiplicity
 _atom_site_fract_x
 _atom_site_fract_y
 _atom_site_fract_z
 _atom_site_occupancy
  Y  Y0  1  0.996633  0.753778  0.750000  1
  Y  Y1  1  0.758194  0.000000  0.750000  1
  Y  Y2  1  0.242854  0.246222  0.750000  1
  Ho  Ho3  1  0.000207  0.243887  0.250000  1
  Ho  Ho4  1  0.756320  0.756113  0.250000  1
  Ho  Ho5  1  0.242996  0.000000  0.250000  1
  Ho  Ho6  1  0.333011  0.663965  0.498745  1
  Ho  Ho7  1  0.669048  0.336035  0.001255  1
  Ho  Ho8  1  0.669048  0.336035  0.498745  1
  Ho  Ho9  1  0.333011  0.663965  0.001255  1
  Si  Si10  1  0.394026  0.392959  0.250000  1
  Si  Si11  1  0.001067  0.607041  0.250000  1
  Si  Si12  1  0.999772  0.394118  0.750000  1
  Si  Si13  1  0.605654  0.605882  0.750000  1
  Si  Si14  1  0.606990  0.000000  0.250000  1
  As  As15  1  0.391168  0.000000  0.750000  1
