# generated using pymatgen
data_Ca3Ag3SbAs2
_symmetry_space_group_name_H-M   'P 1'
_cell_length_a   7.38065500
_cell_length_b   7.38065499
_cell_length_c   4.38349100
_cell_angle_alpha   90.00000000
_cell_angle_beta   90.00000000
_cell_angle_gamma   119.99999558
_symmetry_Int_Tables_number   1
_chemical_formula_structural   Ca3Ag3SbAs2
_chemical_formula_sum   'Ca3 Ag3 Sb1 As2'
_cell_volume   206.79525998
_cell_formula_units_Z   1
loop_
 _symmetry_equiv_pos_site_id
 _symmetry_equiv_pos_as_xyz
  1  'x, y, z'
loop_
 _atom_site_type_symbol
 _atom_site_label
 _atom_site_symmetry_multiplicity
 _atom_site_fract_x
 _atom_site_fract_y
 _atom_site_fract_z
 _atom_site_occupancy
  Ca  Ca0  1  0.000000  0.573174  0.500000  1
  Ca  Ca1  1  0.426826  0.426826  0.500000  1
  Ca  Ca2  1  0.573174  0.000000  0.500000  1
  Ag  Ag3  1  0.000000  0.259942  0.000000  1
  Ag  Ag4  1  0.740058  0.740058  0.000000  1
  Ag  Ag5  1  0.259942  0.000000  0.000000  1
  Sb  Sb6  1  0.000000  0.000000  0.500000  1
  As  As7  1  0.333333  0.666667  0.000000  1
  As  As8  1  0.666667  0.333333  0.000000  1
