# generated using pymatgen
data_Y5Tc2C7
_symmetry_space_group_name_H-M   'P 1'
_cell_length_a   8.31993268
_cell_length_b   8.31993196
_cell_length_c   3.45757000
_cell_angle_alpha   90.00000000
_cell_angle_beta   90.00000000
_cell_angle_gamma   122.41988626
_symmetry_Int_Tables_number   1
_chemical_formula_structural   Y5Tc2C7
_chemical_formula_sum   'Y5 Tc2 C7'
_cell_volume   202.03472730
_cell_formula_units_Z   1
loop_
 _symmetry_equiv_pos_site_id
 _symmetry_equiv_pos_as_xyz
  1  'x, y, z'
loop_
 _atom_site_type_symbol
 _atom_site_label
 _atom_site_symmetry_multiplicity
 _atom_site_fract_x
 _atom_site_fract_y
 _atom_site_fract_z
 _atom_site_occupancy
  Y  Y0  1  0.500000  0.500000  0.000000  1
  Y  Y1  1  0.076078  0.336621  0.500000  1
  Y  Y2  1  0.923922  0.663379  0.500000  1
  Y  Y3  1  0.663379  0.923922  0.500000  1
  Y  Y4  1  0.336621  0.076078  0.500000  1
  Tc  Tc5  1  0.712808  0.287192  0.000000  1
  Tc  Tc6  1  0.287192  0.712808  0.000000  1
  C  C7  1  0.626617  0.373383  0.500000  1
  C  C8  1  0.373383  0.626617  0.500000  1
  C  C9  1  0.000000  0.000000  0.000000  1
  C  C10  1  0.169003  0.169003  0.000000  1
  C  C11  1  0.830997  0.830997  0.000000  1
  C  C12  1  0.000000  0.500000  0.000000  1
  C  C13  1  0.500000  0.000000  0.000000  1
