# generated using pymatgen
data_FeCo4P4Ru3
_symmetry_space_group_name_H-M   'P 1'
_cell_length_a   3.66781400
_cell_length_b   5.72209473
_cell_length_c   6.66440734
_cell_angle_alpha   90.18481137
_cell_angle_beta   90.00000000
_cell_angle_gamma   90.00000000
_symmetry_Int_Tables_number   1
_chemical_formula_structural   FeCo4P4Ru3
_chemical_formula_sum   'Fe1 Co4 P4 Ru3'
_cell_volume   139.86904894
_cell_formula_units_Z   1
loop_
 _symmetry_equiv_pos_site_id
 _symmetry_equiv_pos_as_xyz
  1  'x, y, z'
loop_
 _atom_site_type_symbol
 _atom_site_label
 _atom_site_symmetry_multiplicity
 _atom_site_fract_x
 _atom_site_fract_y
 _atom_site_fract_z
 _atom_site_occupancy
  Fe  Fe0  1  0.750000  0.468953  0.664445  1
  Co  Co1  1  0.250000  0.143235  0.567933  1
  Co  Co2  1  0.250000  0.637469  0.929364  1
  Co  Co3  1  0.750000  0.860458  0.435391  1
  Co  Co4  1  0.750000  0.363316  0.063317  1
  P  P5  1  0.250000  0.762569  0.620998  1
  P  P6  1  0.250000  0.260062  0.879352  1
  P  P7  1  0.750000  0.243300  0.382211  1
  P  P8  1  0.750000  0.739672  0.121196  1
  Ru  Ru9  1  0.250000  0.024765  0.166677  1
  Ru  Ru10  1  0.250000  0.528060  0.336997  1
  Ru  Ru11  1  0.750000  0.968140  0.832119  1
