# generated using pymatgen
data_Li3PaSe4
_symmetry_space_group_name_H-M   'P 1'
_cell_length_a   8.01304400
_cell_length_b   6.98974528
_cell_length_c   6.80533920
_cell_angle_alpha   70.25041254
_cell_angle_beta   90.00000000
_cell_angle_gamma   90.00000000
_symmetry_Int_Tables_number   1
_chemical_formula_structural   Li3PaSe4
_chemical_formula_sum   'Li6 Pa2 Se8'
_cell_volume   358.74068056
_cell_formula_units_Z   2
loop_
 _symmetry_equiv_pos_site_id
 _symmetry_equiv_pos_as_xyz
  1  'x, y, z'
loop_
 _atom_site_type_symbol
 _atom_site_label
 _atom_site_symmetry_multiplicity
 _atom_site_fract_x
 _atom_site_fract_y
 _atom_site_fract_z
 _atom_site_occupancy
  Li  Li0  1  0.613575  0.250000  0.000000  1
  Li  Li1  1  0.386425  0.750000  0.000000  1
  Li  Li2  1  0.399437  0.250000  0.500000  1
  Li  Li3  1  0.859216  0.250000  0.500000  1
  Li  Li4  1  0.600563  0.750000  0.500000  1
  Li  Li5  1  0.140784  0.750000  0.500000  1
  Pa  Pa6  1  0.144676  0.250000  0.000000  1
  Pa  Pa7  1  0.855324  0.750000  0.000000  1
  Se  Se8  1  0.374621  0.008803  0.256457  1
  Se  Se9  1  0.115878  0.501120  0.242373  1
  Se  Se10  1  0.625379  0.508803  0.256457  1
  Se  Se11  1  0.884122  0.001120  0.242373  1
  Se  Se12  1  0.115878  0.998880  0.757627  1
  Se  Se13  1  0.374621  0.491197  0.743543  1
  Se  Se14  1  0.884122  0.498880  0.757627  1
  Se  Se15  1  0.625379  0.991197  0.743543  1
