# generated using pymatgen
data_BeNb2B5Rh2
_symmetry_space_group_name_H-M   'P 1'
_cell_length_a   9.48919582
_cell_length_b   9.48919562
_cell_length_c   3.17553500
_cell_angle_alpha   90.00000000
_cell_angle_beta   90.00000000
_cell_angle_gamma   159.92718961
_symmetry_Int_Tables_number   1
_chemical_formula_structural   BeNb2B5Rh2
_chemical_formula_sum   'Be1 Nb2 B5 Rh2'
_cell_volume   98.13879477
_cell_formula_units_Z   1
loop_
 _symmetry_equiv_pos_site_id
 _symmetry_equiv_pos_as_xyz
  1  'x, y, z'
loop_
 _atom_site_type_symbol
 _atom_site_label
 _atom_site_symmetry_multiplicity
 _atom_site_fract_x
 _atom_site_fract_y
 _atom_site_fract_z
 _atom_site_occupancy
  Be  Be0  1  0.680501  0.319498  0.250001  1
  Nb  Nb1  1  0.071925  0.928074  0.250001  1
  Nb  Nb2  1  0.926791  0.073208  0.749999  1
  B  B3  1  0.474600  0.525400  0.250001  1
  B  B4  1  0.376477  0.623522  0.250001  1
  B  B5  1  0.619751  0.380248  0.749999  1
  B  B6  1  0.523381  0.476619  0.749999  1
  B  B7  1  0.322186  0.677813  0.749999  1
  Rh  Rh8  1  0.801718  0.198282  0.250001  1
  Rh  Rh9  1  0.202666  0.797334  0.749999  1
