# generated using pymatgen
data_Lu3Al3GeAu2
_symmetry_space_group_name_H-M   'P 1'
_cell_length_a   6.96279400
_cell_length_b   6.96279581
_cell_length_c   4.25107100
_cell_angle_alpha   90.00000000
_cell_angle_beta   90.00000000
_cell_angle_gamma   120.00000089
_symmetry_Int_Tables_number   1
_chemical_formula_structural   Lu3Al3GeAu2
_chemical_formula_sum   'Lu3 Al3 Ge1 Au2'
_cell_volume   178.48272669
_cell_formula_units_Z   1
loop_
 _symmetry_equiv_pos_site_id
 _symmetry_equiv_pos_as_xyz
  1  'x, y, z'
loop_
 _atom_site_type_symbol
 _atom_site_label
 _atom_site_symmetry_multiplicity
 _atom_site_fract_x
 _atom_site_fract_y
 _atom_site_fract_z
 _atom_site_occupancy
  Lu  Lu0  1  0.421500  0.422214  0.500000  1
  Lu  Lu1  1  0.577786  0.999286  0.500000  1
  Lu  Lu2  1  0.000714  0.578500  0.500000  1
  Al  Al3  1  0.751131  0.762054  0.000000  1
  Al  Al4  1  0.237946  0.989077  0.000000  1
  Al  Al5  1  0.010923  0.248869  0.000000  1
  Ge  Ge6  1  0.666667  0.333333  0.000000  1
  Au  Au7  1  0.333333  0.666667  0.000000  1
  Au  Au8  1  0.000000  0.000000  0.500000  1
