# generated using pymatgen
data_Dy2V3Si7Pt9
_symmetry_space_group_name_H-M   'P 1'
_cell_length_a   9.86234200
_cell_length_b   9.86234225
_cell_length_c   3.92902600
_cell_angle_alpha   90.00000000
_cell_angle_beta   90.00000000
_cell_angle_gamma   119.99999917
_symmetry_Int_Tables_number   1
_chemical_formula_structural   Dy2V3Si7Pt9
_chemical_formula_sum   'Dy2 V3 Si7 Pt9'
_cell_volume   330.96012073
_cell_formula_units_Z   1
loop_
 _symmetry_equiv_pos_site_id
 _symmetry_equiv_pos_as_xyz
  1  'x, y, z'
loop_
 _atom_site_type_symbol
 _atom_site_label
 _atom_site_symmetry_multiplicity
 _atom_site_fract_x
 _atom_site_fract_y
 _atom_site_fract_z
 _atom_site_occupancy
  Dy  Dy0  1  0.000000  0.000000  0.000000  1
  Dy  Dy1  1  0.333333  0.666667  0.500000  1
  V  V2  1  0.880284  0.449362  0.500000  1
  V  V3  1  0.569079  0.119716  0.500000  1
  V  V4  1  0.550638  0.430921  0.500000  1
  Si  Si5  1  0.259335  0.215125  0.500000  1
  Si  Si6  1  0.784875  0.044211  0.500000  1
  Si  Si7  1  0.955789  0.740665  0.500000  1
  Si  Si8  1  0.553429  0.631995  0.000000  1
  Si  Si9  1  0.368005  0.921432  0.000000  1
  Si  Si10  1  0.078568  0.446571  0.000000  1
  Si  Si11  1  0.666667  0.333333  0.000000  1
  Pt  Pt12  1  0.224538  0.945872  0.500000  1
  Pt  Pt13  1  0.054128  0.278667  0.500000  1
  Pt  Pt14  1  0.721333  0.775462  0.500000  1
  Pt  Pt15  1  0.304360  0.408253  0.000000  1
  Pt  Pt16  1  0.591747  0.896109  0.000000  1
  Pt  Pt17  1  0.103891  0.695640  0.000000  1
  Pt  Pt18  1  0.391164  0.177845  0.000000  1
  Pt  Pt19  1  0.822155  0.213318  0.000000  1
  Pt  Pt20  1  0.786682  0.608836  0.000000  1
