# generated using pymatgen
data_CeYEr(InRh)3
_symmetry_space_group_name_H-M   'P 1'
_cell_length_a   7.55598908
_cell_length_b   7.52570125
_cell_length_c   3.86556100
_cell_angle_alpha   90.00000000
_cell_angle_beta   90.00000000
_cell_angle_gamma   117.65421662
_symmetry_Int_Tables_number   1
_chemical_formula_structural   CeYEr(InRh)3
_chemical_formula_sum   'Ce1 Y1 Er1 In3 Rh3'
_cell_volume   194.70147286
_cell_formula_units_Z   1
loop_
 _symmetry_equiv_pos_site_id
 _symmetry_equiv_pos_as_xyz
  1  'x, y, z'
loop_
 _atom_site_type_symbol
 _atom_site_label
 _atom_site_symmetry_multiplicity
 _atom_site_fract_x
 _atom_site_fract_y
 _atom_site_fract_z
 _atom_site_occupancy
  Ce  Ce0  1  0.415873  0.416055  0.500000  1
  Y  Y1  1  0.999883  0.594269  0.500000  1
  Er  Er2  1  0.595136  0.000166  0.500000  1
  In  In3  1  0.257435  0.992559  0.000000  1
  In  In4  1  0.751927  0.751367  0.000000  1
  In  In5  1  0.993090  0.258839  0.000000  1
  Rh  Rh6  1  0.645863  0.330858  0.000000  1
  Rh  Rh7  1  0.339709  0.651522  0.000000  1
  Rh  Rh8  1  0.001083  0.004367  0.500000  1
