# generated using pymatgen
data_CdBi2Sb4(SO8)2
_symmetry_space_group_name_H-M   'P 1'
_cell_length_a   5.73707799
_cell_length_b   8.07690039
_cell_length_c   9.45226552
_cell_angle_alpha   95.41223174
_cell_angle_beta   98.99085042
_cell_angle_gamma   108.70066925
_symmetry_Int_Tables_number   1
_chemical_formula_structural   CdBi2Sb4(SO8)2
_chemical_formula_sum   'Cd1 Bi2 Sb4 S2 O16'
_cell_volume   404.86427279
_cell_formula_units_Z   1
loop_
 _symmetry_equiv_pos_site_id
 _symmetry_equiv_pos_as_xyz
  1  'x, y, z'
loop_
 _atom_site_type_symbol
 _atom_site_label
 _atom_site_symmetry_multiplicity
 _atom_site_fract_x
 _atom_site_fract_y
 _atom_site_fract_z
 _atom_site_occupancy
  Cd  Cd0  1  0.000000  0.500000  0.500000  1
  Bi  Bi1  1  0.699233  0.515049  0.800471  1
  Bi  Bi2  1  0.300767  0.484951  0.199529  1
  Sb  Sb3  1  0.641515  0.836238  0.531165  1
  Sb  Sb4  1  0.358485  0.163762  0.468835  1
  Sb  Sb5  1  0.347841  0.861295  0.800971  1
  Sb  Sb6  1  0.652159  0.138705  0.199029  1
  S  S7  1  0.145273  0.243425  0.849468  1
  S  S8  1  0.854727  0.756575  0.150532  1
  O  O9  1  0.023475  0.675182  0.707855  1
  O  O10  1  0.976525  0.324818  0.292145  1
  O  O11  1  0.534288  0.709741  0.712642  1
  O  O12  1  0.465712  0.290259  0.287358  1
  O  O13  1  0.041760  0.050337  0.795240  1
  O  O14  1  0.958240  0.949663  0.204760  1
  O  O15  1  0.656740  0.361189  0.586966  1
  O  O16  1  0.343260  0.638811  0.413034  1
  O  O17  1  0.374242  0.286373  0.967108  1
  O  O18  1  0.625758  0.713627  0.032892  1
  O  O19  1  0.423554  0.964456  0.617043  1
  O  O20  1  0.576446  0.035544  0.382957  1
  O  O21  1  0.229085  0.343107  0.727896  1
  O  O22  1  0.770915  0.656893  0.272104  1
  O  O23  1  0.955413  0.305689  0.907816  1
  O  O24  1  0.044587  0.694311  0.092184  1
