# generated using pymatgen
data_LuMgU2Ge6Ru7
_symmetry_space_group_name_H-M   'P 1'
_cell_length_a   7.18027851
_cell_length_b   7.15575383
_cell_length_c   7.10228983
_cell_angle_alpha   109.23432505
_cell_angle_beta   109.42205485
_cell_angle_gamma   109.67556785
_symmetry_Int_Tables_number   1
_chemical_formula_structural   LuMgU2Ge6Ru7
_chemical_formula_sum   'Lu1 Mg1 U2 Ge6 Ru7'
_cell_volume   281.19365189
_cell_formula_units_Z   1
loop_
 _symmetry_equiv_pos_site_id
 _symmetry_equiv_pos_as_xyz
  1  'x, y, z'
loop_
 _atom_site_type_symbol
 _atom_site_label
 _atom_site_symmetry_multiplicity
 _atom_site_fract_x
 _atom_site_fract_y
 _atom_site_fract_z
 _atom_site_occupancy
  Lu  Lu0  1  0.000000  0.000000  0.500000  1
  Mg  Mg1  1  0.500000  0.000000  0.000000  1
  U  U2  1  0.000000  0.500000  0.000000  1
  U  U3  1  0.500000  0.500000  0.500000  1
  Ge  Ge4  1  0.688987  0.699165  0.004894  1
  Ge  Ge5  1  0.312857  0.000000  0.309370  1
  Ge  Ge6  1  0.989822  0.300835  0.305729  1
  Ge  Ge7  1  0.311013  0.300835  0.995106  1
  Ge  Ge8  1  0.687143  0.000000  0.690630  1
  Ge  Ge9  1  0.010178  0.699165  0.694271  1
  Ru  Ru10  1  0.749630  0.261158  0.506043  1
  Ru  Ru11  1  0.747942  0.495885  0.247942  1
  Ru  Ru12  1  0.511527  0.261158  0.755114  1
  Ru  Ru13  1  0.252058  0.504115  0.752058  1
  Ru  Ru14  1  0.250370  0.738842  0.493957  1
  Ru  Ru15  1  0.488473  0.738842  0.244886  1
  Ru  Ru16  1  0.000000  0.000000  0.000000  1
