# generated using pymatgen
data_Ho2CuSiSe
_symmetry_space_group_name_H-M   'P 1'
_cell_length_a   4.04640000
_cell_length_b   4.04640033
_cell_length_c   14.42651700
_cell_angle_alpha   90.00000000
_cell_angle_beta   90.00000000
_cell_angle_gamma   120.00001364
_symmetry_Int_Tables_number   1
_chemical_formula_structural   Ho2CuSiSe
_chemical_formula_sum   'Ho4 Cu2 Si2 Se2'
_cell_volume   204.56424320
_cell_formula_units_Z   2
loop_
 _symmetry_equiv_pos_site_id
 _symmetry_equiv_pos_as_xyz
  1  'x, y, z'
loop_
 _atom_site_type_symbol
 _atom_site_label
 _atom_site_symmetry_multiplicity
 _atom_site_fract_x
 _atom_site_fract_y
 _atom_site_fract_z
 _atom_site_occupancy
  Ho  Ho0  1  0.666667  0.333333  0.381162  1
  Ho  Ho1  1  0.333333  0.666667  0.881162  1
  Ho  Ho2  1  0.333333  0.666667  0.618838  1
  Ho  Ho3  1  0.666667  0.333333  0.118838  1
  Cu  Cu4  1  0.000000  0.000000  0.750000  1
  Cu  Cu5  1  0.000000  0.000000  0.250000  1
  Si  Si6  1  0.333333  0.666667  0.250000  1
  Si  Si7  1  0.666667  0.333333  0.750000  1
  Se  Se8  1  0.000000  0.000000  0.000000  1
  Se  Se9  1  0.000000  0.000000  0.500000  1
