# generated using pymatgen
data_ErNb5FeB4Ru9
_symmetry_space_group_name_H-M   'P 1'
_cell_length_a   9.43657031
_cell_length_b   9.43656972
_cell_length_c   3.05081600
_cell_angle_alpha   90.00000000
_cell_angle_beta   90.00000000
_cell_angle_gamma   89.96160868
_symmetry_Int_Tables_number   1
_chemical_formula_structural   ErNb5FeB4Ru9
_chemical_formula_sum   'Er1 Nb5 Fe1 B4 Ru9'
_cell_volume   271.67160645
_cell_formula_units_Z   1
loop_
 _symmetry_equiv_pos_site_id
 _symmetry_equiv_pos_as_xyz
  1  'x, y, z'
loop_
 _atom_site_type_symbol
 _atom_site_label
 _atom_site_symmetry_multiplicity
 _atom_site_fract_x
 _atom_site_fract_y
 _atom_site_fract_z
 _atom_site_occupancy
  Er  Er0  1  0.822601  0.677399  0.000000  1
  Nb  Nb1  1  0.179871  0.320129  0.000000  1
  Nb  Nb2  1  0.329166  0.830613  0.000000  1
  Nb  Nb3  1  0.669387  0.170834  0.000000  1
  Nb  Nb4  1  0.501389  0.500659  0.000000  1
  Nb  Nb5  1  0.999341  0.998611  0.000000  1
  Fe  Fe6  1  0.496404  0.003596  0.500000  1
  B  B7  1  0.609709  0.890291  0.000000  1
  B  B8  1  0.386967  0.113033  0.000000  1
  B  B9  1  0.123700  0.620005  0.000000  1
  B  B10  1  0.879995  0.376300  0.000000  1
  Ru  Ru11  1  0.556991  0.729726  0.500000  1
  Ru  Ru12  1  0.430440  0.277617  0.500000  1
  Ru  Ru13  1  0.080546  0.782755  0.500000  1
  Ru  Ru14  1  0.930705  0.215339  0.500000  1
  Ru  Ru15  1  0.284661  0.569295  0.500000  1
  Ru  Ru16  1  0.717245  0.419454  0.500000  1
  Ru  Ru17  1  0.222383  0.069560  0.500000  1
  Ru  Ru18  1  0.770274  0.943009  0.500000  1
  Ru  Ru19  1  0.008225  0.491775  0.500000  1
