# generated using pymatgen
data_TbPr4Gd3(SiO5)4
_symmetry_space_group_name_H-M   'P 1'
_cell_length_a   7.15681408
_cell_length_b   6.92653186
_cell_length_c   9.41174735
_cell_angle_alpha   71.22901112
_cell_angle_beta   89.92990566
_cell_angle_gamma   90.02671731
_symmetry_Int_Tables_number   1
_chemical_formula_structural   TbPr4Gd3(SiO5)4
_chemical_formula_sum   'Tb1 Pr4 Gd3 Si4 O20'
_cell_volume   441.74254156
_cell_formula_units_Z   1
loop_
 _symmetry_equiv_pos_site_id
 _symmetry_equiv_pos_as_xyz
  1  'x, y, z'
loop_
 _atom_site_type_symbol
 _atom_site_label
 _atom_site_symmetry_multiplicity
 _atom_site_fract_x
 _atom_site_fract_y
 _atom_site_fract_z
 _atom_site_occupancy
  Tb  Tb0  1  0.375256  0.229363  0.473290  1
  Pr  Pr1  1  0.855097  0.410844  0.885870  1
  Pr  Pr2  1  0.355070  0.089438  0.114030  1
  Pr  Pr3  1  0.144978  0.589095  0.114266  1
  Pr  Pr4  1  0.644688  0.911105  0.885433  1
  Gd  Gd5  1  0.875159  0.270072  0.525214  1
  Gd  Gd6  1  0.624499  0.770737  0.525354  1
  Gd  Gd7  1  0.125263  0.729377  0.474680  1
  Si  Si8  1  0.412536  0.459569  0.793372  1
  Si  Si9  1  0.912439  0.039884  0.206462  1
  Si  Si10  1  0.587100  0.539603  0.206928  1
  Si  Si11  1  0.088180  0.960506  0.793279  1
  O  O12  1  0.567324  0.641405  0.788748  1
  O  O13  1  0.067596  0.858413  0.211153  1
  O  O14  1  0.431867  0.357683  0.212416  1
  O  O15  1  0.932361  0.141308  0.788773  1
  O  O16  1  0.540951  0.254025  0.863006  1
  O  O17  1  0.040822  0.245915  0.137327  1
  O  O18  1  0.459101  0.745551  0.137581  1
  O  O19  1  0.959488  0.754486  0.861890  1
  O  O20  1  0.361582  0.508311  0.614039  1
  O  O21  1  0.861289  0.990405  0.385918  1
  O  O22  1  0.637302  0.489139  0.386533  1
  O  O23  1  0.140911  0.011686  0.613798  1
  O  O24  1  0.235671  0.443233  0.904174  1
  O  O25  1  0.735464  0.056664  0.096023  1
  O  O26  1  0.764171  0.556359  0.096232  1
  O  O27  1  0.264605  0.943140  0.904367  1
  O  O28  1  0.619700  0.054557  0.609349  1
  O  O29  1  0.122861  0.445927  0.390473  1
  O  O30  1  0.378113  0.948645  0.390287  1
  O  O31  1  0.878556  0.553555  0.609737  1
