# generated using pymatgen
data_Zr8Ti12Si9Ge7
_symmetry_space_group_name_H-M   'P 1'
_cell_length_a   6.72316439
_cell_length_b   6.83908004
_cell_length_c   13.07303868
_cell_angle_alpha   89.99173365
_cell_angle_beta   89.92694140
_cell_angle_gamma   89.99115990
_symmetry_Int_Tables_number   1
_chemical_formula_structural   Zr8Ti12Si9Ge7
_chemical_formula_sum   'Zr8 Ti12 Si9 Ge7'
_cell_volume   601.10120741
_cell_formula_units_Z   1
loop_
 _symmetry_equiv_pos_site_id
 _symmetry_equiv_pos_as_xyz
  1  'x, y, z'
loop_
 _atom_site_type_symbol
 _atom_site_label
 _atom_site_symmetry_multiplicity
 _atom_site_fract_x
 _atom_site_fract_y
 _atom_site_fract_z
 _atom_site_occupancy
  Zr  Zr0  1  0.495540  0.676867  0.098018  1
  Zr  Zr1  1  0.993903  0.824285  0.400909  1
  Zr  Zr2  1  0.506356  0.324514  0.599574  1
  Zr  Zr3  1  0.002308  0.172750  0.901933  1
  Zr  Zr4  1  0.506737  0.322289  0.901068  1
  Zr  Zr5  1  0.006110  0.175769  0.599317  1
  Zr  Zr6  1  0.493694  0.675412  0.400722  1
  Zr  Zr7  1  0.992161  0.826374  0.097598  1
  Ti  Ti8  1  0.331225  0.004159  0.249827  1
  Ti  Ti9  1  0.831139  0.496150  0.249849  1
  Ti  Ti10  1  0.668992  0.995765  0.751799  1
  Ti  Ti11  1  0.169002  0.504056  0.750107  1
  Ti  Ti12  1  0.658655  0.167563  0.127004  1
  Ti  Ti13  1  0.157046  0.331427  0.371498  1
  Ti  Ti14  1  0.343605  0.830768  0.628340  1
  Ti  Ti15  1  0.840677  0.672817  0.873216  1
  Ti  Ti16  1  0.345525  0.830727  0.872055  1
  Ti  Ti17  1  0.843542  0.668924  0.628281  1
  Ti  Ti18  1  0.656577  0.169207  0.371870  1
  Ti  Ti19  1  0.156894  0.330344  0.127750  1
  Si  Si20  1  0.698743  0.866566  0.249933  1
  Si  Si21  1  0.198532  0.634041  0.249078  1
  Si  Si22  1  0.300440  0.133266  0.750271  1
  Si  Si23  1  0.801902  0.367325  0.750700  1
  Si  Si24  1  0.676132  0.959554  0.960598  1
  Si  Si25  1  0.456566  0.379787  0.249256  1
  Si  Si26  1  0.956120  0.120107  0.249940  1
  Si  Si27  1  0.544285  0.620043  0.750117  1
  Si  Si28  1  0.044252  0.879353  0.750395  1
  Ge  Ge29  1  0.181029  0.541244  0.539773  1
  Ge  Ge30  1  0.319208  0.041335  0.460228  1
  Ge  Ge31  1  0.819846  0.458922  0.039794  1
  Ge  Ge32  1  0.322986  0.040570  0.039164  1
  Ge  Ge33  1  0.819101  0.458608  0.460338  1
  Ge  Ge34  1  0.680876  0.958645  0.540015  1
  Ge  Ge35  1  0.180292  0.540463  0.959668  1
