# generated using pymatgen
data_Ba20InSi10Pb
_symmetry_space_group_name_H-M   'P 1'
_cell_length_a   8.51480500
_cell_length_b   8.51480500
_cell_length_c   17.31030300
_cell_angle_alpha   90.00000000
_cell_angle_beta   90.00000000
_cell_angle_gamma   90.00000000
_symmetry_Int_Tables_number   1
_chemical_formula_structural   Ba20InSi10Pb
_chemical_formula_sum   'Ba20 In1 Si10 Pb1'
_cell_volume   1255.02992957
_cell_formula_units_Z   1
loop_
 _symmetry_equiv_pos_site_id
 _symmetry_equiv_pos_as_xyz
  1  'x, y, z'
loop_
 _atom_site_type_symbol
 _atom_site_label
 _atom_site_symmetry_multiplicity
 _atom_site_fract_x
 _atom_site_fract_y
 _atom_site_fract_z
 _atom_site_occupancy
  Ba  Ba0  1  0.313562  0.670011  0.113491  1
  Ba  Ba1  1  0.170011  0.186438  0.113491  1
  Ba  Ba2  1  0.500000  0.000000  0.724567  1
  Ba  Ba3  1  0.324124  0.690283  0.394965  1
  Ba  Ba4  1  0.668862  0.688879  0.885814  1
  Ba  Ba5  1  0.190283  0.175876  0.394965  1
  Ba  Ba6  1  0.675876  0.309717  0.394965  1
  Ba  Ba7  1  0.172836  0.807373  0.605478  1
  Ba  Ba8  1  0.331138  0.311121  0.885814  1
  Ba  Ba9  1  0.188879  0.831138  0.885814  1
  Ba  Ba10  1  0.500000  0.000000  0.239144  1
  Ba  Ba11  1  0.827164  0.192627  0.605478  1
  Ba  Ba12  1  0.307373  0.327164  0.605478  1
  Ba  Ba13  1  0.809717  0.824124  0.394965  1
  Ba  Ba14  1  0.811121  0.168862  0.885814  1
  Ba  Ba15  1  0.829989  0.813562  0.113491  1
  Ba  Ba16  1  0.000000  0.500000  0.269137  1
  Ba  Ba17  1  0.000000  0.500000  0.765101  1
  Ba  Ba18  1  0.686438  0.329989  0.113491  1
  Ba  Ba19  1  0.692627  0.672836  0.605478  1
  In  In20  1  0.500000  0.000000  0.012303  1
  Si  Si21  1  0.099658  0.101778  0.745760  1
  Si  Si22  1  0.398222  0.599658  0.745760  1
  Si  Si23  1  0.600284  0.600874  0.254549  1
  Si  Si24  1  0.100874  0.899716  0.254549  1
  Si  Si25  1  0.601778  0.400342  0.745760  1
  Si  Si26  1  0.900342  0.898222  0.745760  1
  Si  Si27  1  0.399716  0.399126  0.254549  1
  Si  Si28  1  0.899126  0.100284  0.254549  1
  Si  Si29  1  0.500000  0.000000  0.513913  1
  Si  Si30  1  0.000000  0.500000  0.486771  1
  Pb  Pb31  1  0.000000  0.500000  0.988837  1
