# generated using pymatgen
data_CrCo20(B3Mo)2
_symmetry_space_group_name_H-M   'P 1'
_cell_length_a   7.39627881
_cell_length_b   7.39627888
_cell_length_c   7.39627900
_cell_angle_alpha   59.99999498
_cell_angle_beta   59.99999468
_cell_angle_gamma   59.99999417
_symmetry_Int_Tables_number   1
_chemical_formula_structural   CrCo20(B3Mo)2
_chemical_formula_sum   'Cr1 Co20 B6 Mo2'
_cell_volume   286.10456415
_cell_formula_units_Z   1
loop_
 _symmetry_equiv_pos_site_id
 _symmetry_equiv_pos_as_xyz
  1  'x, y, z'
loop_
 _atom_site_type_symbol
 _atom_site_label
 _atom_site_symmetry_multiplicity
 _atom_site_fract_x
 _atom_site_fract_y
 _atom_site_fract_z
 _atom_site_occupancy
  Cr  Cr0  1  0.000000  0.000000  0.000000  1
  Co  Co1  1  0.618149  0.618149  0.145553  1
  Co  Co2  1  0.618149  0.145553  0.618149  1
  Co  Co3  1  0.145553  0.618149  0.618149  1
  Co  Co4  1  0.618149  0.618149  0.618149  1
  Co  Co5  1  0.381851  0.381851  0.854447  1
  Co  Co6  1  0.381851  0.854447  0.381851  1
  Co  Co7  1  0.854447  0.381851  0.381851  1
  Co  Co8  1  0.381851  0.381851  0.381851  1
  Co  Co9  1  0.000000  0.000000  0.338824  1
  Co  Co10  1  0.661176  0.000000  0.338824  1
  Co  Co11  1  0.000000  0.661176  0.338824  1
  Co  Co12  1  0.661176  0.338824  0.000000  1
  Co  Co13  1  0.000000  0.338824  0.000000  1
  Co  Co14  1  0.000000  0.338824  0.661176  1
  Co  Co15  1  0.338824  0.661176  0.000000  1
  Co  Co16  1  0.338824  0.000000  0.661176  1
  Co  Co17  1  0.338824  0.000000  0.000000  1
  Co  Co18  1  0.000000  0.000000  0.661176  1
  Co  Co19  1  0.000000  0.661176  0.000000  1
  Co  Co20  1  0.661176  0.000000  0.000000  1
  B  B21  1  0.725363  0.725363  0.274637  1
  B  B22  1  0.274637  0.725363  0.274637  1
  B  B23  1  0.725363  0.274637  0.274637  1
  B  B24  1  0.274637  0.274637  0.725363  1
  B  B25  1  0.725363  0.274637  0.725363  1
  B  B26  1  0.274637  0.725363  0.725363  1
  Mo  Mo27  1  0.750000  0.750000  0.750000  1
  Mo  Mo28  1  0.250000  0.250000  0.250000  1
