# generated using pymatgen
data_V3Ge2Mo3
_symmetry_space_group_name_H-M   'P 1'
_cell_length_a   4.86188668
_cell_length_b   4.86188700
_cell_length_c   4.86188640
_cell_angle_alpha   90.10728970
_cell_angle_beta   89.89270494
_cell_angle_gamma   89.89271222
_symmetry_Int_Tables_number   1
_chemical_formula_structural   V3Ge2Mo3
_chemical_formula_sum   'V3 Ge2 Mo3'
_cell_volume   114.92439166
_cell_formula_units_Z   1
loop_
 _symmetry_equiv_pos_site_id
 _symmetry_equiv_pos_as_xyz
  1  'x, y, z'
loop_
 _atom_site_type_symbol
 _atom_site_label
 _atom_site_symmetry_multiplicity
 _atom_site_fract_x
 _atom_site_fract_y
 _atom_site_fract_z
 _atom_site_occupancy
  V  V0  1  0.498204  0.250000  0.998204  1
  V  V1  1  0.750000  0.998204  0.501796  1
  V  V2  1  0.001796  0.501796  0.250000  1
  Ge  Ge3  1  0.506845  0.493155  0.493155  1
  Ge  Ge4  1  0.993155  0.006845  0.006845  1
  Mo  Mo5  1  0.498892  0.750000  0.998892  1
  Mo  Mo6  1  0.250000  0.998892  0.501108  1
  Mo  Mo7  1  0.001108  0.501108  0.750000  1
