# generated using pymatgen
data_Tm8TlHgPt2
_symmetry_space_group_name_H-M   'P 1'
_cell_length_a   9.52207254
_cell_length_b   9.52207252
_cell_length_c   9.52440600
_cell_angle_alpha   59.99189316
_cell_angle_beta   59.99189323
_cell_angle_gamma   60.05162553
_symmetry_Int_Tables_number   1
_chemical_formula_structural   Tm8TlHgPt2
_chemical_formula_sum   'Tm16 Tl2 Hg2 Pt4'
_cell_volume   610.80384509
_cell_formula_units_Z   2
loop_
 _symmetry_equiv_pos_site_id
 _symmetry_equiv_pos_as_xyz
  1  'x, y, z'
loop_
 _atom_site_type_symbol
 _atom_site_label
 _atom_site_symmetry_multiplicity
 _atom_site_fract_x
 _atom_site_fract_y
 _atom_site_fract_z
 _atom_site_occupancy
  Tm  Tm0  1  0.353786  0.353786  0.351090  1
  Tm  Tm1  1  0.353786  0.353786  0.941340  1
  Tm  Tm2  1  0.358040  0.932696  0.354632  1
  Tm  Tm3  1  0.932696  0.358040  0.354632  1
  Tm  Tm4  1  0.811725  0.189502  0.188360  1
  Tm  Tm5  1  0.189502  0.811725  0.810412  1
  Tm  Tm6  1  0.189502  0.811725  0.188360  1
  Tm  Tm7  1  0.811725  0.189502  0.810412  1
  Tm  Tm8  1  0.188954  0.188954  0.811046  1
  Tm  Tm9  1  0.811022  0.811022  0.188978  1
  Tm  Tm10  1  0.934117  0.562191  0.564224  1
  Tm  Tm11  1  0.562191  0.934117  0.939468  1
  Tm  Tm12  1  0.562191  0.934117  0.564224  1
  Tm  Tm13  1  0.934117  0.562191  0.939468  1
  Tm  Tm14  1  0.564616  0.564616  0.935384  1
  Tm  Tm15  1  0.938094  0.938094  0.561906  1
  Tl  Tl16  1  0.585435  0.244523  0.585021  1
  Tl  Tl17  1  0.244523  0.585435  0.585021  1
  Hg  Hg18  1  0.588080  0.588080  0.589343  1
  Hg  Hg19  1  0.588080  0.588080  0.234497  1
  Pt  Pt20  1  0.143343  0.143343  0.146752  1
  Pt  Pt21  1  0.143343  0.143343  0.566563  1
  Pt  Pt22  1  0.141769  0.569366  0.144433  1
  Pt  Pt23  1  0.569366  0.141769  0.144433  1
