# generated using pymatgen
data_Tm10CdIn7
_symmetry_space_group_name_H-M   'P 1'
_cell_length_a   9.15313200
_cell_length_b   9.15313301
_cell_length_c   6.63355900
_cell_angle_alpha   90.00000000
_cell_angle_beta   90.00000000
_cell_angle_gamma   119.99999636
_symmetry_Int_Tables_number   1
_chemical_formula_structural   Tm10CdIn7
_chemical_formula_sum   'Tm10 Cd1 In7'
_cell_volume   481.30097630
_cell_formula_units_Z   1
loop_
 _symmetry_equiv_pos_site_id
 _symmetry_equiv_pos_as_xyz
  1  'x, y, z'
loop_
 _atom_site_type_symbol
 _atom_site_label
 _atom_site_symmetry_multiplicity
 _atom_site_fract_x
 _atom_site_fract_y
 _atom_site_fract_z
 _atom_site_occupancy
  Tm  Tm0  1  0.333333  0.666667  0.500000  1
  Tm  Tm1  1  0.666667  0.333333  0.500000  1
  Tm  Tm2  1  0.666667  0.333333  0.000000  1
  Tm  Tm3  1  0.333333  0.666667  0.000000  1
  Tm  Tm4  1  0.289100  0.000000  0.749854  1
  Tm  Tm5  1  0.710900  0.000000  0.250146  1
  Tm  Tm6  1  0.000000  0.289100  0.749854  1
  Tm  Tm7  1  0.000000  0.710900  0.250146  1
  Tm  Tm8  1  0.710900  0.710900  0.749854  1
  Tm  Tm9  1  0.289100  0.289100  0.250146  1
  Cd  Cd10  1  0.000000  0.000000  0.500000  1
  In  In11  1  0.000000  0.000000  0.000000  1
  In  In12  1  0.627558  0.000000  0.749751  1
  In  In13  1  0.372442  0.000000  0.250249  1
  In  In14  1  0.000000  0.627558  0.749751  1
  In  In15  1  0.000000  0.372442  0.250249  1
  In  In16  1  0.372442  0.372442  0.749751  1
  In  In17  1  0.627558  0.627558  0.250249  1
