# generated using pymatgen
data_Ac6Ga7Si4Sn
_symmetry_space_group_name_H-M   'P 1'
_cell_length_a   4.53493491
_cell_length_b   4.56198201
_cell_length_c   22.66497156
_cell_angle_alpha   84.22400125
_cell_angle_beta   84.25835761
_cell_angle_gamma   90.00000152
_symmetry_Int_Tables_number   1
_chemical_formula_structural   Ac6Ga7Si4Sn
_chemical_formula_sum   'Ac6 Ga7 Si4 Sn1'
_cell_volume   464.15443550
_cell_formula_units_Z   1
loop_
 _symmetry_equiv_pos_site_id
 _symmetry_equiv_pos_as_xyz
  1  'x, y, z'
loop_
 _atom_site_type_symbol
 _atom_site_label
 _atom_site_symmetry_multiplicity
 _atom_site_fract_x
 _atom_site_fract_y
 _atom_site_fract_z
 _atom_site_occupancy
  Ac  Ac0  1  0.959035  0.709035  0.081930  1
  Ac  Ac1  1  0.289442  0.039442  0.421118  1
  Ac  Ac2  1  0.623417  0.373417  0.753164  1
  Ac  Ac3  1  0.378337  0.628337  0.243325  1
  Ac  Ac4  1  0.707069  0.957069  0.585862  1
  Ac  Ac5  1  0.041099  0.291099  0.917804  1
  Ga  Ga6  1  0.152280  0.902280  0.695440  1
  Ga  Ga7  1  0.432309  0.182309  0.135382  1
  Ga  Ga8  1  0.759900  0.509900  0.480200  1
  Ga  Ga9  1  0.096325  0.846325  0.807349  1
  Ga  Ga10  1  0.851764  0.101764  0.296474  1
  Ga  Ga11  1  0.179869  0.429869  0.640264  1
  Ga  Ga12  1  0.513413  0.763413  0.973172  1
  Si  Si13  1  0.906052  0.156052  0.187898  1
  Si  Si14  1  0.234886  0.484886  0.530227  1
  Si  Si15  1  0.568227  0.818227  0.863545  1
  Si  Si16  1  0.487102  0.237102  0.025796  1
  Sn  Sn17  1  0.819476  0.569476  0.361047  1
