# generated using pymatgen
data_ZnCo20(B3W)2
_symmetry_space_group_name_H-M   'P 1'
_cell_length_a   7.41642609
_cell_length_b   7.41642600
_cell_length_c   7.41642600
_cell_angle_alpha   60.00000891
_cell_angle_beta   60.00000931
_cell_angle_gamma   60.00000580
_symmetry_Int_Tables_number   1
_chemical_formula_structural   ZnCo20(B3W)2
_chemical_formula_sum   'Zn1 Co20 B6 W2'
_cell_volume   288.44903423
_cell_formula_units_Z   1
loop_
 _symmetry_equiv_pos_site_id
 _symmetry_equiv_pos_as_xyz
  1  'x, y, z'
loop_
 _atom_site_type_symbol
 _atom_site_label
 _atom_site_symmetry_multiplicity
 _atom_site_fract_x
 _atom_site_fract_y
 _atom_site_fract_z
 _atom_site_occupancy
  Zn  Zn0  1  0.000000  0.000000  0.000000  1
  Co  Co1  1  0.000000  0.342931  0.657069  1
  Co  Co2  1  0.342931  0.657069  0.000000  1
  Co  Co3  1  0.342931  0.000000  0.000000  1
  Co  Co4  1  0.657069  0.342931  0.000000  1
  Co  Co5  1  0.342931  0.000000  0.657069  1
  Co  Co6  1  0.382052  0.382052  0.853844  1
  Co  Co7  1  0.617948  0.617948  0.617948  1
  Co  Co8  1  0.000000  0.000000  0.657069  1
  Co  Co9  1  0.146156  0.617948  0.617948  1
  Co  Co10  1  0.000000  0.342931  0.000000  1
  Co  Co11  1  0.000000  0.657069  0.342931  1
  Co  Co12  1  0.657069  0.000000  0.342931  1
  Co  Co13  1  0.617948  0.146156  0.617948  1
  Co  Co14  1  0.000000  0.000000  0.342931  1
  Co  Co15  1  0.000000  0.657069  0.000000  1
  Co  Co16  1  0.657069  0.000000  0.000000  1
  Co  Co17  1  0.382052  0.853844  0.382052  1
  Co  Co18  1  0.382052  0.382052  0.382052  1
  Co  Co19  1  0.853844  0.382052  0.382052  1
  Co  Co20  1  0.617948  0.617948  0.146156  1
  B  B21  1  0.724015  0.275985  0.275985  1
  B  B22  1  0.724015  0.724015  0.275985  1
  B  B23  1  0.275985  0.724015  0.724015  1
  B  B24  1  0.724015  0.275985  0.724015  1
  B  B25  1  0.275985  0.275985  0.724015  1
  B  B26  1  0.275985  0.724015  0.275985  1
  W  W27  1  0.250000  0.250000  0.250000  1
  W  W28  1  0.750000  0.750000  0.750000  1
