# generated using pymatgen
data_Tb5Gd3B20
_symmetry_space_group_name_H-M   'P 1'
_cell_length_a   7.13570270
_cell_length_b   7.12974274
_cell_length_c   7.16193219
_cell_angle_alpha   77.26411349
_cell_angle_beta   89.96535215
_cell_angle_gamma   90.02876264
_symmetry_Int_Tables_number   1
_chemical_formula_structural   Tb5Gd3B20
_chemical_formula_sum   'Tb5 Gd3 B20'
_cell_volume   355.40366540
_cell_formula_units_Z   1
loop_
 _symmetry_equiv_pos_site_id
 _symmetry_equiv_pos_as_xyz
  1  'x, y, z'
loop_
 _atom_site_type_symbol
 _atom_site_label
 _atom_site_symmetry_multiplicity
 _atom_site_fract_x
 _atom_site_fract_y
 _atom_site_fract_z
 _atom_site_occupancy
  Tb  Tb0  1  0.315477  0.757603  0.254561  1
  Tb  Tb1  1  0.815211  0.242724  0.245577  1
  Tb  Tb2  1  0.684603  0.242470  0.745280  1
  Tb  Tb3  1  0.184730  0.757512  0.754397  1
  Tb  Tb4  1  0.692299  0.766154  0.629514  1
  Gd  Gd5  1  0.191341  0.231575  0.871614  1
  Gd  Gd6  1  0.308434  0.231142  0.371639  1
  Gd  Gd7  1  0.808613  0.768953  0.128413  1
  B  B8  1  0.501824  0.314837  0.039512  1
  B  B9  1  0.001911  0.685237  0.460479  1
  B  B10  1  0.498258  0.685312  0.960325  1
  B  B11  1  0.998086  0.314692  0.539638  1
  B  B12  1  0.491574  0.924539  0.926483  1
  B  B13  1  0.990520  0.075178  0.573529  1
  B  B14  1  0.508702  0.075542  0.072799  1
  B  B15  1  0.008282  0.924520  0.426947  1
  B  B16  1  0.326425  0.496911  0.039749  1
  B  B17  1  0.826417  0.503126  0.460165  1
  B  B18  1  0.673630  0.503317  0.960133  1
  B  B19  1  0.173584  0.496826  0.539784  1
  B  B20  1  0.910635  0.499054  0.910538  1
  B  B21  1  0.410706  0.501893  0.589309  1
  B  B22  1  0.089302  0.501579  0.089190  1
  B  B23  1  0.589454  0.499045  0.410606  1
  B  B24  1  0.961595  0.496792  0.674000  1
  B  B25  1  0.461697  0.503142  0.825950  1
  B  B26  1  0.038325  0.503360  0.325937  1
  B  B27  1  0.538365  0.496967  0.173929  1
