# generated using pymatgen
data_Yb2HoTmIr8
_symmetry_space_group_name_H-M   'P 1'
_cell_length_a   5.33462931
_cell_length_b   5.33471309
_cell_length_c   8.67045286
_cell_angle_alpha   90.00000294
_cell_angle_beta   89.99710202
_cell_angle_gamma   59.99946385
_symmetry_Int_Tables_number   1
_chemical_formula_structural   Yb2HoTmIr8
_chemical_formula_sum   'Yb2 Ho1 Tm1 Ir8'
_cell_volume   213.69058090
_cell_formula_units_Z   1
loop_
 _symmetry_equiv_pos_site_id
 _symmetry_equiv_pos_as_xyz
  1  'x, y, z'
loop_
 _atom_site_type_symbol
 _atom_site_label
 _atom_site_symmetry_multiplicity
 _atom_site_fract_x
 _atom_site_fract_y
 _atom_site_fract_z
 _atom_site_occupancy
  Yb  Yb0  1  0.666679  0.666661  0.427621  1
  Yb  Yb1  1  0.666668  0.666666  0.072834  1
  Ho  Ho2  1  0.333330  0.333334  0.935396  1
  Tm  Tm3  1  0.333355  0.333322  0.563871  1
  Ir  Ir4  1  0.000005  0.999997  0.499878  1
  Ir  Ir5  1  0.000009  0.999996  0.000386  1
  Ir  Ir6  1  0.829149  0.341666  0.749470  1
  Ir  Ir7  1  0.341697  0.829152  0.749458  1
  Ir  Ir8  1  0.829149  0.829185  0.749470  1
  Ir  Ir9  1  0.169730  0.660549  0.250539  1
  Ir  Ir10  1  0.660500  0.169750  0.250534  1
  Ir  Ir11  1  0.169730  0.169719  0.250539  1
