# generated using pymatgen
data_Er16Ga6FeCo
_symmetry_space_group_name_H-M   'P 1'
_cell_length_a   9.90216300
_cell_length_b   9.90197959
_cell_length_c   6.88148800
_cell_angle_alpha   90.00172084
_cell_angle_beta   89.99836873
_cell_angle_gamma   119.99867926
_symmetry_Int_Tables_number   1
_chemical_formula_structural   Er16Ga6FeCo
_chemical_formula_sum   'Er16 Ga6 Fe1 Co1'
_cell_volume   584.34706371
_cell_formula_units_Z   1
loop_
 _symmetry_equiv_pos_site_id
 _symmetry_equiv_pos_as_xyz
  1  'x, y, z'
loop_
 _atom_site_type_symbol
 _atom_site_label
 _atom_site_symmetry_multiplicity
 _atom_site_fract_x
 _atom_site_fract_y
 _atom_site_fract_z
 _atom_site_occupancy
  Er  Er0  1  0.172998  0.827003  0.510400  1
  Er  Er1  1  0.654035  0.827015  0.510436  1
  Er  Er2  1  0.172993  0.345990  0.510429  1
  Er  Er3  1  0.826821  0.173166  0.011614  1
  Er  Er4  1  0.346341  0.173184  0.011602  1
  Er  Er5  1  0.826825  0.653662  0.011566  1
  Er  Er6  1  0.333346  0.666658  0.830635  1
  Er  Er7  1  0.666683  0.333316  0.329855  1
  Er  Er8  1  0.462831  0.537156  0.207925  1
  Er  Er9  1  0.074309  0.537166  0.207912  1
  Er  Er10  1  0.462840  0.925700  0.207921  1
  Er  Er11  1  0.536117  0.463900  0.707173  1
  Er  Er12  1  0.927791  0.463891  0.707166  1
  Er  Er13  1  0.536110  0.072207  0.707192  1
  Er  Er14  1  0.000008  0.000005  0.232107  1
  Er  Er15  1  0.000017  0.999997  0.732995  1
  Ga  Ga16  1  0.163240  0.836723  0.957998  1
  Ga  Ga17  1  0.673519  0.836777  0.957988  1
  Ga  Ga18  1  0.163185  0.326464  0.958022  1
  Ga  Ga19  1  0.836158  0.163823  0.457824  1
  Ga  Ga20  1  0.327638  0.163811  0.457845  1
  Ga  Ga21  1  0.836206  0.672379  0.457842  1
  Fe  Fe22  1  0.333328  0.666661  0.445981  1
  Co  Co23  1  0.666663  0.333343  0.943617  1
