# generated using pymatgen
data_Nd15Si9O
_symmetry_space_group_name_H-M   'P 1'
_cell_length_a   15.16215400
_cell_length_b   15.16215440
_cell_length_c   6.72303800
_cell_angle_alpha   90.00000000
_cell_angle_beta   90.00000000
_cell_angle_gamma   119.99999913
_symmetry_Int_Tables_number   1
_chemical_formula_structural   Nd15Si9O
_chemical_formula_sum   'Nd30 Si18 O2'
_cell_volume   1338.49890331
_cell_formula_units_Z   2
loop_
 _symmetry_equiv_pos_site_id
 _symmetry_equiv_pos_as_xyz
  1  'x, y, z'
loop_
 _atom_site_type_symbol
 _atom_site_label
 _atom_site_symmetry_multiplicity
 _atom_site_fract_x
 _atom_site_fract_y
 _atom_site_fract_z
 _atom_site_occupancy
  Nd  Nd0  1  0.343739  0.019401  0.517660  1
  Nd  Nd1  1  0.980599  0.324338  0.517660  1
  Nd  Nd2  1  0.656261  0.980599  0.017660  1
  Nd  Nd3  1  0.980599  0.656261  0.517660  1
  Nd  Nd4  1  0.675662  0.656261  0.517660  1
  Nd  Nd5  1  0.019401  0.675662  0.017660  1
  Nd  Nd6  1  0.675662  0.019401  0.517660  1
  Nd  Nd7  1  0.019401  0.343739  0.017660  1
  Nd  Nd8  1  0.324338  0.343739  0.017660  1
  Nd  Nd9  1  0.324338  0.980599  0.017660  1
  Nd  Nd10  1  0.343739  0.324338  0.517660  1
  Nd  Nd11  1  0.656261  0.675662  0.017660  1
  Nd  Nd12  1  0.585706  0.414294  0.780137  1
  Nd  Nd13  1  0.585706  0.171413  0.780137  1
  Nd  Nd14  1  0.414294  0.585706  0.280137  1
  Nd  Nd15  1  0.828587  0.414294  0.780137  1
  Nd  Nd16  1  0.414294  0.828587  0.280137  1
  Nd  Nd17  1  0.171413  0.585706  0.280137  1
  Nd  Nd18  1  0.917592  0.082408  0.799783  1
  Nd  Nd19  1  0.917592  0.835186  0.799783  1
  Nd  Nd20  1  0.082408  0.917592  0.299783  1
  Nd  Nd21  1  0.164814  0.082408  0.799783  1
  Nd  Nd22  1  0.082408  0.164814  0.299783  1
  Nd  Nd23  1  0.835186  0.917592  0.299783  1
  Nd  Nd24  1  0.254380  0.745620  0.730137  1
  Nd  Nd25  1  0.254380  0.508759  0.730137  1
  Nd  Nd26  1  0.745620  0.254380  0.230137  1
  Nd  Nd27  1  0.491241  0.745620  0.730137  1
  Nd  Nd28  1  0.745620  0.491241  0.230137  1
  Nd  Nd29  1  0.508759  0.254380  0.230137  1
  Si  Si30  1  0.133052  0.866948  0.728148  1
  Si  Si31  1  0.133052  0.266104  0.728148  1
  Si  Si32  1  0.866948  0.133052  0.228148  1
  Si  Si33  1  0.733896  0.866948  0.728148  1
  Si  Si34  1  0.866948  0.733896  0.228148  1
  Si  Si35  1  0.266104  0.133052  0.228148  1
  Si  Si36  1  0.801329  0.198671  0.817425  1
  Si  Si37  1  0.801329  0.602658  0.817425  1
  Si  Si38  1  0.198671  0.801329  0.317425  1
  Si  Si39  1  0.397342  0.198671  0.817425  1
  Si  Si40  1  0.198671  0.397342  0.317425  1
  Si  Si41  1  0.602658  0.801329  0.317425  1
  Si  Si42  1  0.467548  0.532452  0.747128  1
  Si  Si43  1  0.467548  0.935096  0.747128  1
  Si  Si44  1  0.532452  0.467548  0.247128  1
  Si  Si45  1  0.064904  0.532452  0.747128  1
  Si  Si46  1  0.532452  0.064904  0.247128  1
  Si  Si47  1  0.935096  0.467548  0.247128  1
  O  O48  1  0.333333  0.666667  0.510003  1
  O  O49  1  0.666667  0.333333  0.010003  1
