# generated using pymatgen
data_LaEr7(Si4W3)4
_symmetry_space_group_name_H-M   'P 1'
_cell_length_a   6.87951629
_cell_length_b   6.88373678
_cell_length_c   12.80255200
_cell_angle_alpha   90.16196514
_cell_angle_beta   89.80108987
_cell_angle_gamma   89.91538346
_symmetry_Int_Tables_number   1
_chemical_formula_structural   LaEr7(Si4W3)4
_chemical_formula_sum   'La1 Er7 Si16 W12'
_cell_volume   606.28088383
_cell_formula_units_Z   1
loop_
 _symmetry_equiv_pos_site_id
 _symmetry_equiv_pos_as_xyz
  1  'x, y, z'
loop_
 _atom_site_type_symbol
 _atom_site_label
 _atom_site_symmetry_multiplicity
 _atom_site_fract_x
 _atom_site_fract_y
 _atom_site_fract_z
 _atom_site_occupancy
  La  La0  1  0.334321  0.002420  0.469433  1
  Er  Er1  1  0.503704  0.837200  0.719731  1
  Er  Er2  1  0.497125  0.162269  0.218210  1
  Er  Er3  1  0.837111  0.503806  0.279396  1
  Er  Er4  1  0.162518  0.497869  0.782071  1
  Er  Er5  1  0.661901  0.002380  0.969281  1
  Er  Er6  1  0.996821  0.338951  0.531408  1
  Er  Er7  1  0.002365  0.662196  0.030779  1
  Si  Si8  1  0.200776  0.126331  0.687376  1
  Si  Si9  1  0.373263  0.702684  0.933151  1
  Si  Si10  1  0.628988  0.302325  0.433102  1
  Si  Si11  1  0.701679  0.373521  0.066233  1
  Si  Si12  1  0.299392  0.619225  0.567908  1
  Si  Si13  1  0.797696  0.874166  0.181802  1
  Si  Si14  1  0.120990  0.205736  0.312732  1
  Si  Si15  1  0.873814  0.797779  0.818101  1
  Si  Si16  1  0.289084  0.963483  0.064245  1
  Si  Si17  1  0.536672  0.786514  0.311184  1
  Si  Si18  1  0.464198  0.210832  0.815329  1
  Si  Si19  1  0.789989  0.536457  0.687286  1
  Si  Si20  1  0.211244  0.465239  0.184970  1
  Si  Si21  1  0.719120  0.034484  0.564686  1
  Si  Si22  1  0.962756  0.289972  0.935750  1
  Si  Si23  1  0.031945  0.709102  0.436118  1
  W  W24  1  0.333529  0.333612  0.999918  1
  W  W25  1  0.164739  0.833128  0.248605  1
  W  W26  1  0.833910  0.165967  0.750536  1
  W  W27  1  0.667943  0.665432  0.499916  1
  W  W28  1  0.164011  0.998780  0.876040  1
  W  W29  1  0.502021  0.664313  0.121551  1
  W  W30  1  0.504936  0.334746  0.626759  1
  W  W31  1  0.664121  0.502412  0.876739  1
  W  W32  1  0.333570  0.500046  0.374760  1
  W  W33  1  0.833408  0.000276  0.371299  1
  W  W34  1  0.997896  0.165526  0.123868  1
  W  W35  1  0.002445  0.830823  0.629726  1
