# generated using pymatgen
data_Ho6Tm10Cd4Os3Pd
_symmetry_space_group_name_H-M   'P 1'
_cell_length_a   9.46590819
_cell_length_b   9.65366261
_cell_length_c   9.65366300
_cell_angle_alpha   59.99999524
_cell_angle_beta   59.34166708
_cell_angle_gamma   59.34167396
_symmetry_Int_Tables_number   1
_chemical_formula_structural   Ho6Tm10Cd4Os3Pd
_chemical_formula_sum   'Ho6 Tm10 Cd4 Os3 Pd1'
_cell_volume   617.50086594
_cell_formula_units_Z   1
loop_
 _symmetry_equiv_pos_site_id
 _symmetry_equiv_pos_as_xyz
  1  'x, y, z'
loop_
 _atom_site_type_symbol
 _atom_site_label
 _atom_site_symmetry_multiplicity
 _atom_site_fract_x
 _atom_site_fract_y
 _atom_site_fract_z
 _atom_site_occupancy
  Ho  Ho0  1  0.933558  0.563304  0.563304  1
  Ho  Ho1  1  0.551504  0.941215  0.941215  1
  Ho  Ho2  1  0.551504  0.941215  0.566065  1
  Ho  Ho3  1  0.933558  0.563304  0.939833  1
  Ho  Ho4  1  0.551504  0.566065  0.941215  1
  Ho  Ho5  1  0.933558  0.939833  0.563304  1
  Tm  Tm6  1  0.346567  0.352583  0.352583  1
  Tm  Tm7  1  0.346567  0.352583  0.948267  1
  Tm  Tm8  1  0.346567  0.948267  0.352583  1
  Tm  Tm9  1  0.974079  0.341974  0.341974  1
  Tm  Tm10  1  0.816791  0.189101  0.189101  1
  Tm  Tm11  1  0.182972  0.811725  0.811725  1
  Tm  Tm12  1  0.182972  0.811725  0.193578  1
  Tm  Tm13  1  0.816791  0.189101  0.805008  1
  Tm  Tm14  1  0.182972  0.193578  0.811725  1
  Tm  Tm15  1  0.816791  0.805008  0.189101  1
  Cd  Cd16  1  0.581070  0.578694  0.578694  1
  Cd  Cd17  1  0.581070  0.578694  0.261541  1
  Cd  Cd18  1  0.581070  0.261541  0.578694  1
  Cd  Cd19  1  0.254283  0.581906  0.581906  1
  Os  Os20  1  0.153546  0.135328  0.135328  1
  Os  Os21  1  0.153546  0.135328  0.575797  1
  Os  Os22  1  0.153546  0.575797  0.135328  1
  Pd  Pd23  1  0.573615  0.142128  0.142128  1
