# generated using pymatgen
data_HgF6
_symmetry_space_group_name_H-M   'P 1'
_cell_length_a   3.91155492
_cell_length_b   4.41611835
_cell_length_c   8.56202766
_cell_angle_alpha   88.27123754
_cell_angle_beta   104.77847357
_cell_angle_gamma   85.34488538
_symmetry_Int_Tables_number   1
_chemical_formula_structural   HgF6
_chemical_formula_sum   'Hg1 F6'
_cell_volume   142.33645361
_cell_formula_units_Z   1
loop_
 _symmetry_equiv_pos_site_id
 _symmetry_equiv_pos_as_xyz
  1  'x, y, z'
loop_
 _atom_site_type_symbol
 _atom_site_label
 _atom_site_symmetry_multiplicity
 _atom_site_fract_x
 _atom_site_fract_y
 _atom_site_fract_z
 _atom_site_occupancy
  Hg  Hg0  1  0.162618  0.509294  0.050175  1
  F  F1  1  0.141205  0.196313  0.891811  1
  F  F2  1  0.699247  0.698318  0.921040  1
  F  F3  1  0.923690  0.099261  0.560828  1
  F  F4  1  0.626394  0.319637  0.178155  1
  F  F5  1  0.183103  0.821882  0.208970  1
  F  F6  1  0.230849  0.205393  0.524727  1
