# generated using pymatgen
data_CeSmEr6(Si3Rh)4
_symmetry_space_group_name_H-M   'P 1'
_cell_length_a   8.16307400
_cell_length_b   8.16307447
_cell_length_c   7.91845700
_cell_angle_alpha   90.00000000
_cell_angle_beta   90.00000000
_cell_angle_gamma   119.99999809
_symmetry_Int_Tables_number   1
_chemical_formula_structural   CeSmEr6(Si3Rh)4
_chemical_formula_sum   'Ce1 Sm1 Er6 Si12 Rh4'
_cell_volume   456.96053553
_cell_formula_units_Z   1
loop_
 _symmetry_equiv_pos_site_id
 _symmetry_equiv_pos_as_xyz
  1  'x, y, z'
loop_
 _atom_site_type_symbol
 _atom_site_label
 _atom_site_symmetry_multiplicity
 _atom_site_fract_x
 _atom_site_fract_y
 _atom_site_fract_z
 _atom_site_occupancy
  Ce  Ce0  1  0.000000  0.000000  0.250000  1
  Sm  Sm1  1  0.000000  0.000000  0.750000  1
  Er  Er2  1  0.491988  0.508012  0.250000  1
  Er  Er3  1  0.491988  0.983977  0.250000  1
  Er  Er4  1  0.016023  0.508012  0.250000  1
  Er  Er5  1  0.509028  0.490972  0.750000  1
  Er  Er6  1  0.981944  0.490972  0.750000  1
  Er  Er7  1  0.509028  0.018056  0.750000  1
  Si  Si8  1  0.832596  0.167404  0.500142  1
  Si  Si9  1  0.832596  0.665192  0.500142  1
  Si  Si10  1  0.334808  0.167404  0.500142  1
  Si  Si11  1  0.832596  0.167404  0.999858  1
  Si  Si12  1  0.832596  0.665192  0.999858  1
  Si  Si13  1  0.334808  0.167404  0.999858  1
  Si  Si14  1  0.168117  0.831883  0.002398  1
  Si  Si15  1  0.663767  0.831883  0.002398  1
  Si  Si16  1  0.168117  0.336233  0.002398  1
  Si  Si17  1  0.168117  0.831883  0.497602  1
  Si  Si18  1  0.663767  0.831883  0.497602  1
  Si  Si19  1  0.168117  0.336233  0.497602  1
  Rh  Rh20  1  0.666667  0.333333  0.467838  1
  Rh  Rh21  1  0.666667  0.333333  0.032162  1
  Rh  Rh22  1  0.333333  0.666667  0.962366  1
  Rh  Rh23  1  0.333333  0.666667  0.537634  1
