# generated using pymatgen
data_TaHgRh3S8
_symmetry_space_group_name_H-M   'P 1'
_cell_length_a   6.85165204
_cell_length_b   6.85299373
_cell_length_c   6.85293300
_cell_angle_alpha   63.77023289
_cell_angle_beta   63.78303174
_cell_angle_gamma   63.78561768
_symmetry_Int_Tables_number   1
_chemical_formula_structural   TaHgRh3S8
_chemical_formula_sum   'Ta1 Hg1 Rh3 S8'
_cell_volume   246.50325920
_cell_formula_units_Z   1
loop_
 _symmetry_equiv_pos_site_id
 _symmetry_equiv_pos_as_xyz
  1  'x, y, z'
loop_
 _atom_site_type_symbol
 _atom_site_label
 _atom_site_symmetry_multiplicity
 _atom_site_fract_x
 _atom_site_fract_y
 _atom_site_fract_z
 _atom_site_occupancy
  Ta  Ta0  1  0.530772  0.530835  0.530867  1
  Hg  Hg1  1  0.106488  0.106269  0.106399  1
  Rh  Rh2  1  0.498555  0.498567  0.989425  1
  Rh  Rh3  1  0.989455  0.498522  0.498544  1
  Rh  Rh4  1  0.498544  0.989483  0.498516  1
  S  S5  1  0.738553  0.738457  0.738411  1
  S  S6  1  0.271461  0.271408  0.690124  1
  S  S7  1  0.271503  0.690067  0.271425  1
  S  S8  1  0.690184  0.271514  0.271441  1
  S  S9  1  0.759713  0.249498  0.759888  1
  S  S10  1  0.249434  0.759789  0.759780  1
  S  S11  1  0.260611  0.260720  0.260653  1
  S  S12  1  0.759742  0.759862  0.249508  1
