# generated using pymatgen
data_Sr3Be8TlAs8
_symmetry_space_group_name_H-M   'P 1'
_cell_length_a   7.16858660
_cell_length_b   8.38883069
_cell_length_c   7.41287300
_cell_angle_alpha   63.71657852
_cell_angle_beta   75.06223009
_cell_angle_gamma   96.97768125
_symmetry_Int_Tables_number   1
_chemical_formula_structural   Sr3Be8TlAs8
_chemical_formula_sum   'Sr3 Be8 Tl1 As8'
_cell_volume   371.62776084
_cell_formula_units_Z   1
loop_
 _symmetry_equiv_pos_site_id
 _symmetry_equiv_pos_as_xyz
  1  'x, y, z'
loop_
 _atom_site_type_symbol
 _atom_site_label
 _atom_site_symmetry_multiplicity
 _atom_site_fract_x
 _atom_site_fract_y
 _atom_site_fract_z
 _atom_site_occupancy
  Sr  Sr0  1  0.999214  0.478973  0.761147  1
  Sr  Sr1  1  0.000000  0.000000  0.500000  1
  Sr  Sr2  1  0.000786  0.521027  0.238853  1
  Be  Be3  1  0.502032  0.624773  0.311622  1
  Be  Be4  1  0.491644  0.618895  0.817531  1
  Be  Be5  1  0.493935  0.124611  0.066915  1
  Be  Be6  1  0.482405  0.124847  0.564561  1
  Be  Be7  1  0.497968  0.375227  0.688378  1
  Be  Be8  1  0.508356  0.381105  0.182469  1
  Be  Be9  1  0.517595  0.875153  0.435439  1
  Be  Be10  1  0.506065  0.875389  0.933085  1
  Tl  Tl11  1  0.000000  0.000000  0.000000  1
  As  As12  1  0.290266  0.329389  0.507557  1
  As  As13  1  0.290593  0.321835  0.021772  1
  As  As14  1  0.301924  0.822935  0.268214  1
  As  As15  1  0.294312  0.820439  0.760027  1
  As  As16  1  0.709734  0.670611  0.492443  1
  As  As17  1  0.709407  0.678165  0.978228  1
  As  As18  1  0.705688  0.179561  0.239973  1
  As  As19  1  0.698076  0.177065  0.731786  1
