# generated using pymatgen
data_Dy5Sn2Os
_symmetry_space_group_name_H-M   'P 1'
_cell_length_a   7.79023500
_cell_length_b   9.07824800
_cell_length_c   12.23383400
_cell_angle_alpha   90.00000000
_cell_angle_beta   90.00000000
_cell_angle_gamma   90.00000000
_symmetry_Int_Tables_number   1
_chemical_formula_structural   Dy5Sn2Os
_chemical_formula_sum   'Dy20 Sn8 Os4'
_cell_volume   865.19735826
_cell_formula_units_Z   4
loop_
 _symmetry_equiv_pos_site_id
 _symmetry_equiv_pos_as_xyz
  1  'x, y, z'
loop_
 _atom_site_type_symbol
 _atom_site_label
 _atom_site_symmetry_multiplicity
 _atom_site_fract_x
 _atom_site_fract_y
 _atom_site_fract_z
 _atom_site_occupancy
  Dy  Dy0  1  0.844963  0.750000  0.785424  1
  Dy  Dy1  1  0.155037  0.250000  0.214576  1
  Dy  Dy2  1  0.344963  0.250000  0.714576  1
  Dy  Dy3  1  0.655037  0.750000  0.285424  1
  Dy  Dy4  1  0.375669  0.750000  0.697454  1
  Dy  Dy5  1  0.624331  0.250000  0.302546  1
  Dy  Dy6  1  0.875669  0.250000  0.802546  1
  Dy  Dy7  1  0.124331  0.750000  0.197454  1
  Dy  Dy8  1  0.955433  0.750000  0.503058  1
  Dy  Dy9  1  0.044567  0.250000  0.496942  1
  Dy  Dy10  1  0.455433  0.250000  0.996942  1
  Dy  Dy11  1  0.544567  0.750000  0.003058  1
  Dy  Dy12  1  0.677236  0.035715  0.569961  1
  Dy  Dy13  1  0.322764  0.964285  0.430039  1
  Dy  Dy14  1  0.177236  0.964285  0.930039  1
  Dy  Dy15  1  0.322764  0.535715  0.430039  1
  Dy  Dy16  1  0.822764  0.035715  0.069961  1
  Dy  Dy17  1  0.677236  0.464285  0.569961  1
  Dy  Dy18  1  0.822764  0.464285  0.069961  1
  Dy  Dy19  1  0.177236  0.535715  0.930039  1
  Sn  Sn20  1  0.574488  0.495290  0.830905  1
  Sn  Sn21  1  0.425512  0.504710  0.169095  1
  Sn  Sn22  1  0.074488  0.504710  0.669095  1
  Sn  Sn23  1  0.425512  0.995290  0.169095  1
  Sn  Sn24  1  0.925512  0.495290  0.330905  1
  Sn  Sn25  1  0.574488  0.004710  0.830905  1
  Sn  Sn26  1  0.925512  0.004710  0.330905  1
  Sn  Sn27  1  0.074488  0.995290  0.669095  1
  Os  Os28  1  0.575797  0.750000  0.508649  1
  Os  Os29  1  0.424203  0.250000  0.491351  1
  Os  Os30  1  0.075797  0.250000  0.991351  1
  Os  Os31  1  0.924203  0.750000  0.008649  1
