# generated using pymatgen
data_Pr3Dy10Y7Bi12
_symmetry_space_group_name_H-M   'P 1'
_cell_length_a   8.30500665
_cell_length_b   9.51977348
_cell_length_c   12.16083300
_cell_angle_alpha   90.00445377
_cell_angle_beta   89.95425999
_cell_angle_gamma   89.98244126
_symmetry_Int_Tables_number   1
_chemical_formula_structural   Pr3Dy10Y7Bi12
_chemical_formula_sum   'Pr3 Dy10 Y7 Bi12'
_cell_volume   961.45677302
_cell_formula_units_Z   1
loop_
 _symmetry_equiv_pos_site_id
 _symmetry_equiv_pos_as_xyz
  1  'x, y, z'
loop_
 _atom_site_type_symbol
 _atom_site_label
 _atom_site_symmetry_multiplicity
 _atom_site_fract_x
 _atom_site_fract_y
 _atom_site_fract_z
 _atom_site_occupancy
  Pr  Pr0  1  0.182159  0.749936  0.720186  1
  Pr  Pr1  1  0.682953  0.750113  0.779424  1
  Pr  Pr2  1  0.817099  0.249880  0.279865  1
  Dy  Dy3  1  0.024882  0.749883  0.988272  1
  Dy  Dy4  1  0.522994  0.750111  0.511649  1
  Dy  Dy5  1  0.975387  0.249986  0.013894  1
  Dy  Dy6  1  0.476612  0.250000  0.487578  1
  Dy  Dy7  1  0.307606  0.435692  0.939745  1
  Dy  Dy8  1  0.809408  0.065166  0.560260  1
  Dy  Dy9  1  0.692504  0.936113  0.060378  1
  Dy  Dy10  1  0.190907  0.564426  0.439228  1
  Dy  Dy11  1  0.693119  0.562876  0.060765  1
  Dy  Dy12  1  0.191335  0.936664  0.438871  1
  Y  Y13  1  0.315078  0.250102  0.218824  1
  Y  Y14  1  0.307967  0.061358  0.939885  1
  Y  Y15  1  0.809528  0.437834  0.560162  1
  Y  Y16  1  0.352529  0.750234  0.217080  1
  Y  Y17  1  0.853635  0.749743  0.281949  1
  Y  Y18  1  0.647055  0.249817  0.784250  1
  Y  Y19  1  0.147498  0.250074  0.716323  1
  Bi  Bi20  1  0.434014  0.008846  0.670997  1
  Bi  Bi21  1  0.933458  0.490785  0.829780  1
  Bi  Bi22  1  0.563044  0.506568  0.327560  1
  Bi  Bi23  1  0.070199  0.993538  0.171946  1
  Bi  Bi24  1  0.563281  0.993598  0.327652  1
  Bi  Bi25  1  0.070507  0.506280  0.171846  1
  Bi  Bi26  1  0.433672  0.491039  0.670969  1
  Bi  Bi27  1  0.933146  0.009295  0.829841  1
  Bi  Bi28  1  0.406324  0.748309  0.963509  1
  Bi  Bi29  1  0.904457  0.751567  0.536161  1
  Bi  Bi30  1  0.590117  0.249676  0.040304  1
  Bi  Bi31  1  0.097527  0.250489  0.460850  1
