# generated using pymatgen
data_Er3TmHfSc3Pt4
_symmetry_space_group_name_H-M   'P 1'
_cell_length_a   4.62559200
_cell_length_b   6.94663732
_cell_length_c   8.33940901
_cell_angle_alpha   89.36358596
_cell_angle_beta   90.00000000
_cell_angle_gamma   90.00000000
_symmetry_Int_Tables_number   1
_chemical_formula_structural   Er3TmHfSc3Pt4
_chemical_formula_sum   'Er3 Tm1 Hf1 Sc3 Pt4'
_cell_volume   267.94794533
_cell_formula_units_Z   1
loop_
 _symmetry_equiv_pos_site_id
 _symmetry_equiv_pos_as_xyz
  1  'x, y, z'
loop_
 _atom_site_type_symbol
 _atom_site_label
 _atom_site_symmetry_multiplicity
 _atom_site_fract_x
 _atom_site_fract_y
 _atom_site_fract_z
 _atom_site_occupancy
  Er  Er0  1  0.250000  0.483449  0.178467  1
  Er  Er1  1  0.750000  0.016980  0.673529  1
  Er  Er2  1  0.750000  0.519234  0.823435  1
  Tm  Tm3  1  0.250000  0.982647  0.323831  1
  Hf  Hf4  1  0.750000  0.141206  0.072660  1
  Sc  Sc5  1  0.250000  0.355549  0.574969  1
  Sc  Sc6  1  0.250000  0.858221  0.924693  1
  Sc  Sc7  1  0.750000  0.639852  0.427731  1
  Pt  Pt8  1  0.250000  0.243021  0.909192  1
  Pt  Pt9  1  0.250000  0.744618  0.599278  1
  Pt  Pt10  1  0.750000  0.760990  0.097969  1
  Pt  Pt11  1  0.750000  0.254235  0.394245  1
