# generated using pymatgen
data_Sc5Si6Mo2P6Ir17
_symmetry_space_group_name_H-M   'P 1'
_cell_length_a   12.68579653
_cell_length_b   12.68579593
_cell_length_c   3.93061700
_cell_angle_alpha   90.00000000
_cell_angle_beta   90.00000000
_cell_angle_gamma   120.35397574
_symmetry_Int_Tables_number   1
_chemical_formula_structural   Sc5Si6Mo2P6Ir17
_chemical_formula_sum   'Sc5 Si6 Mo2 P6 Ir17'
_cell_volume   545.84163885
_cell_formula_units_Z   1
loop_
 _symmetry_equiv_pos_site_id
 _symmetry_equiv_pos_as_xyz
  1  'x, y, z'
loop_
 _atom_site_type_symbol
 _atom_site_label
 _atom_site_symmetry_multiplicity
 _atom_site_fract_x
 _atom_site_fract_y
 _atom_site_fract_z
 _atom_site_occupancy
  Sc  Sc0  1  0.329173  0.667350  0.000000  1
  Sc  Sc1  1  0.667350  0.329173  0.000000  1
  Sc  Sc2  1  0.814516  0.003243  0.500000  1
  Sc  Sc3  1  0.003243  0.814516  0.500000  1
  Sc  Sc4  1  0.187853  0.187853  0.500000  1
  Si  Si5  1  0.168476  0.484775  0.500000  1
  Si  Si6  1  0.516460  0.686666  0.500000  1
  Si  Si7  1  0.314807  0.834108  0.500000  1
  Si  Si8  1  0.686666  0.516460  0.500000  1
  Si  Si9  1  0.834108  0.314807  0.500000  1
  Si  Si10  1  0.484775  0.168476  0.500000  1
  Mo  Mo11  1  0.447019  0.000024  0.000000  1
  Mo  Mo12  1  0.000024  0.447019  0.000000  1
  P  P13  1  0.176844  0.001845  0.000000  1
  P  P14  1  0.001845  0.176844  0.000000  1
  P  P15  1  0.821696  0.821696  0.000000  1
  P  P16  1  0.633402  0.998622  0.000000  1
  P  P17  1  0.998622  0.633402  0.000000  1
  P  P18  1  0.361820  0.361820  0.000000  1
  Ir  Ir19  1  0.547506  0.547506  0.000000  1
  Ir  Ir20  1  0.358504  0.488244  0.500000  1
  Ir  Ir21  1  0.512775  0.870911  0.500000  1
  Ir  Ir22  1  0.129793  0.643253  0.500000  1
  Ir  Ir23  1  0.870911  0.512775  0.500000  1
  Ir  Ir24  1  0.643253  0.129793  0.500000  1
  Ir  Ir25  1  0.488244  0.358504  0.500000  1
  Ir  Ir26  1  0.182723  0.372983  0.000000  1
  Ir  Ir27  1  0.629967  0.810111  0.000000  1
  Ir  Ir28  1  0.186796  0.820382  0.000000  1
  Ir  Ir29  1  0.810111  0.629967  0.000000  1
  Ir  Ir30  1  0.820382  0.186796  0.000000  1
  Ir  Ir31  1  0.372983  0.182723  0.000000  1
  Ir  Ir32  1  0.275352  0.001995  0.500000  1
  Ir  Ir33  1  0.001995  0.275352  0.500000  1
  Ir  Ir34  1  0.721036  0.721036  0.500000  1
  Ir  Ir35  1  0.998974  0.998974  0.000000  1
