# generated using pymatgen
data_Np4Ga11AsRh
_symmetry_space_group_name_H-M   'P 1'
_cell_length_a   7.48101381
_cell_length_b   7.48101454
_cell_length_c   7.48101445
_cell_angle_alpha   110.35734993
_cell_angle_beta   110.35735500
_cell_angle_gamma   107.71312600
_symmetry_Int_Tables_number   1
_chemical_formula_structural   Np4Ga11AsRh
_chemical_formula_sum   'Np4 Ga11 As1 Rh1'
_cell_volume   322.07274010
_cell_formula_units_Z   1
loop_
 _symmetry_equiv_pos_site_id
 _symmetry_equiv_pos_as_xyz
  1  'x, y, z'
loop_
 _atom_site_type_symbol
 _atom_site_label
 _atom_site_symmetry_multiplicity
 _atom_site_fract_x
 _atom_site_fract_y
 _atom_site_fract_z
 _atom_site_occupancy
  Np  Np0  1  0.507776  0.492224  0.500000  1
  Np  Np1  1  0.992224  0.492224  0.984448  1
  Np  Np2  1  0.992224  0.007776  0.500000  1
  Np  Np3  1  0.507776  0.007776  0.015552  1
  Ga  Ga4  1  0.013367  0.721723  0.708356  1
  Ga  Ga5  1  0.278277  0.986633  0.291644  1
  Ga  Ga6  1  0.492115  0.244737  0.752622  1
  Ga  Ga7  1  0.755263  0.507885  0.247378  1
  Ga  Ga8  1  0.250000  0.750000  0.500000  1
  Ga  Ga9  1  0.260506  0.507885  0.752622  1
  Ga  Ga10  1  0.694989  0.986633  0.708356  1
  Ga  Ga11  1  0.492115  0.739494  0.247378  1
  Ga  Ga12  1  0.712111  0.712111  0.000000  1
  Ga  Ga13  1  0.287889  0.287889  0.000000  1
  Ga  Ga14  1  0.013367  0.305011  0.291644  1
  As  As15  1  0.750000  0.250000  0.500000  1
  Rh  Rh16  1  0.000000  0.000000  0.000000  1
