# generated using pymatgen
data_Ca3MnCrC6
_symmetry_space_group_name_H-M   'P 1'
_cell_length_a   8.11999700
_cell_length_b   8.11999603
_cell_length_c   5.09948500
_cell_angle_alpha   90.00000000
_cell_angle_beta   90.00000000
_cell_angle_gamma   119.99999771
_symmetry_Int_Tables_number   1
_chemical_formula_structural   Ca3MnCrC6
_chemical_formula_sum   'Ca6 Mn2 Cr2 C12'
_cell_volume   291.18476316
_cell_formula_units_Z   2
loop_
 _symmetry_equiv_pos_site_id
 _symmetry_equiv_pos_as_xyz
  1  'x, y, z'
loop_
 _atom_site_type_symbol
 _atom_site_label
 _atom_site_symmetry_multiplicity
 _atom_site_fract_x
 _atom_site_fract_y
 _atom_site_fract_z
 _atom_site_occupancy
  Ca  Ca0  1  0.605393  0.685742  0.750000  1
  Ca  Ca1  1  0.919652  0.605393  0.250000  1
  Ca  Ca2  1  0.685742  0.080348  0.250000  1
  Ca  Ca3  1  0.314258  0.919652  0.750000  1
  Ca  Ca4  1  0.080348  0.394607  0.750000  1
  Ca  Ca5  1  0.394607  0.314258  0.250000  1
  Mn  Mn6  1  0.666667  0.333333  0.750000  1
  Mn  Mn7  1  0.333333  0.666667  0.250000  1
  Cr  Cr8  1  0.000000  0.000000  0.500000  1
  Cr  Cr9  1  0.000000  0.000000  0.000000  1
  C  C10  1  0.950389  0.772404  0.750000  1
  C  C11  1  0.177985  0.950389  0.250000  1
  C  C12  1  0.772404  0.822015  0.250000  1
  C  C13  1  0.227596  0.177985  0.750000  1
  C  C14  1  0.822015  0.049611  0.750000  1
  C  C15  1  0.049611  0.227596  0.250000  1
  C  C16  1  0.854189  0.580464  0.750000  1
  C  C17  1  0.273724  0.854189  0.250000  1
  C  C18  1  0.580464  0.726276  0.250000  1
  C  C19  1  0.419536  0.273724  0.750000  1
  C  C20  1  0.145811  0.419536  0.250000  1
  C  C21  1  0.726276  0.145811  0.750000  1
