# generated using pymatgen
data_Er6Nb4Al12Os7
_symmetry_space_group_name_H-M   'P 1'
_cell_length_a   9.01341307
_cell_length_b   9.01341306
_cell_length_c   9.01341300
_cell_angle_alpha   60.00000390
_cell_angle_beta   60.00000392
_cell_angle_gamma   59.99999835
_symmetry_Int_Tables_number   1
_chemical_formula_structural   Er6Nb4Al12Os7
_chemical_formula_sum   'Er6 Nb4 Al12 Os7'
_cell_volume   517.78902644
_cell_formula_units_Z   1
loop_
 _symmetry_equiv_pos_site_id
 _symmetry_equiv_pos_as_xyz
  1  'x, y, z'
loop_
 _atom_site_type_symbol
 _atom_site_label
 _atom_site_symmetry_multiplicity
 _atom_site_fract_x
 _atom_site_fract_y
 _atom_site_fract_z
 _atom_site_occupancy
  Er  Er0  1  0.706114  0.706114  0.293886  1
  Er  Er1  1  0.293886  0.706114  0.293886  1
  Er  Er2  1  0.706114  0.293886  0.293886  1
  Er  Er3  1  0.293886  0.293886  0.706114  1
  Er  Er4  1  0.706114  0.293886  0.706114  1
  Er  Er5  1  0.293886  0.706114  0.706114  1
  Nb  Nb6  1  0.879707  0.879707  0.360879  1
  Nb  Nb7  1  0.879707  0.360879  0.879707  1
  Nb  Nb8  1  0.360879  0.879707  0.879707  1
  Nb  Nb9  1  0.879707  0.879707  0.879707  1
  Al  Al10  1  0.120647  0.120647  0.638059  1
  Al  Al11  1  0.120647  0.638059  0.120647  1
  Al  Al12  1  0.638059  0.120647  0.120647  1
  Al  Al13  1  0.120647  0.120647  0.120647  1
  Al  Al14  1  0.666660  0.666660  0.000022  1
  Al  Al15  1  0.666660  0.000022  0.666660  1
  Al  Al16  1  0.000022  0.666660  0.666660  1
  Al  Al17  1  0.666660  0.666660  0.666660  1
  Al  Al18  1  0.331224  0.331224  0.006327  1
  Al  Al19  1  0.331224  0.006327  0.331224  1
  Al  Al20  1  0.006327  0.331224  0.331224  1
  Al  Al21  1  0.331224  0.331224  0.331224  1
  Os  Os22  1  0.000000  0.000000  0.000000  1
  Os  Os23  1  0.997178  0.997178  0.502822  1
  Os  Os24  1  0.502822  0.997178  0.502822  1
  Os  Os25  1  0.997178  0.502822  0.502822  1
  Os  Os26  1  0.502822  0.502822  0.997178  1
  Os  Os27  1  0.997178  0.502822  0.997178  1
  Os  Os28  1  0.502822  0.997178  0.997178  1
