# generated using pymatgen
data_MgCu3Pd4
_symmetry_space_group_name_H-M   'P 1'
_cell_length_a   5.28429539
_cell_length_b   5.28457184
_cell_length_c   4.31414300
_cell_angle_alpha   90.00000000
_cell_angle_beta   90.00000000
_cell_angle_gamma   110.02552232
_symmetry_Int_Tables_number   1
_chemical_formula_structural   MgCu3Pd4
_chemical_formula_sum   'Mg1 Cu3 Pd4'
_cell_volume   113.18966775
_cell_formula_units_Z   1
loop_
 _symmetry_equiv_pos_site_id
 _symmetry_equiv_pos_as_xyz
  1  'x, y, z'
loop_
 _atom_site_type_symbol
 _atom_site_label
 _atom_site_symmetry_multiplicity
 _atom_site_fract_x
 _atom_site_fract_y
 _atom_site_fract_z
 _atom_site_occupancy
  Mg  Mg0  1  0.130839  0.370099  0.250000  1
  Cu  Cu1  1  0.631174  0.867633  0.250000  1
  Cu  Cu2  1  0.370901  0.132231  0.750001  1
  Cu  Cu3  1  0.868071  0.629121  0.750001  1
  Pd  Pd4  1  0.629811  0.369215  0.250000  1
  Pd  Pd5  1  0.129739  0.870879  0.250000  1
  Pd  Pd6  1  0.863992  0.122809  0.750001  1
  Pd  Pd7  1  0.375477  0.638017  0.750001  1
