# generated using pymatgen
data_Ho13Er3(TmBi3)4
_symmetry_space_group_name_H-M   'P 1'
_cell_length_a   8.22010606
_cell_length_b   9.47804502
_cell_length_c   11.99238002
_cell_angle_alpha   90.00236842
_cell_angle_beta   90.00992553
_cell_angle_gamma   89.99495029
_symmetry_Int_Tables_number   1
_chemical_formula_structural   Ho13Er3(TmBi3)4
_chemical_formula_sum   'Ho13 Er3 Tm4 Bi12'
_cell_volume   934.33272836
_cell_formula_units_Z   1
loop_
 _symmetry_equiv_pos_site_id
 _symmetry_equiv_pos_as_xyz
  1  'x, y, z'
loop_
 _atom_site_type_symbol
 _atom_site_label
 _atom_site_symmetry_multiplicity
 _atom_site_fract_x
 _atom_site_fract_y
 _atom_site_fract_z
 _atom_site_occupancy
  Ho  Ho0  1  0.353542  0.750115  0.216458  1
  Ho  Ho1  1  0.853341  0.750042  0.283447  1
  Ho  Ho2  1  0.646589  0.250032  0.783478  1
  Ho  Ho3  1  0.146618  0.250030  0.716494  1
  Ho  Ho4  1  0.191835  0.564405  0.440978  1
  Ho  Ho5  1  0.476620  0.250011  0.488836  1
  Ho  Ho6  1  0.976573  0.249983  0.011139  1
  Ho  Ho7  1  0.523583  0.750112  0.511192  1
  Ho  Ho8  1  0.023426  0.749966  0.988834  1
  Ho  Ho9  1  0.314189  0.249928  0.218057  1
  Ho  Ho10  1  0.814259  0.250053  0.281945  1
  Ho  Ho11  1  0.685782  0.749938  0.781952  1
  Ho  Ho12  1  0.185789  0.750121  0.718104  1
  Er  Er13  1  0.308152  0.435335  0.940948  1
  Er  Er14  1  0.808186  0.064721  0.559065  1
  Er  Er15  1  0.691830  0.935442  0.059017  1
  Tm  Tm16  1  0.691856  0.564946  0.058982  1
  Tm  Tm17  1  0.191795  0.935105  0.440996  1
  Tm  Tm18  1  0.308130  0.064929  0.941020  1
  Tm  Tm19  1  0.808198  0.435009  0.558989  1
  Bi  Bi20  1  0.405533  0.750288  0.957484  1
  Bi  Bi21  1  0.905384  0.749853  0.542574  1
  Bi  Bi22  1  0.594468  0.250298  0.042512  1
  Bi  Bi23  1  0.094357  0.249239  0.457544  1
  Bi  Bi24  1  0.566221  0.996113  0.325670  1
  Bi  Bi25  1  0.066172  0.503920  0.174252  1
  Bi  Bi26  1  0.433767  0.496103  0.674372  1
  Bi  Bi27  1  0.933761  0.003931  0.825698  1
  Bi  Bi28  1  0.433722  0.003967  0.674320  1
  Bi  Bi29  1  0.933647  0.496049  0.825718  1
  Bi  Bi30  1  0.566396  0.503949  0.325649  1
  Bi  Bi31  1  0.066279  0.996067  0.174278  1
