# generated using pymatgen
data_InS8Br3
_symmetry_space_group_name_H-M   'P 1'
_cell_length_a   8.88350081
_cell_length_b   10.39518132
_cell_length_c   12.07155671
_cell_angle_alpha   93.86332539
_cell_angle_beta   117.78278236
_cell_angle_gamma   103.45353787
_symmetry_Int_Tables_number   1
_chemical_formula_structural   InS8Br3
_chemical_formula_sum   'In2 S16 Br6'
_cell_volume   938.94493579
_cell_formula_units_Z   2
loop_
 _symmetry_equiv_pos_site_id
 _symmetry_equiv_pos_as_xyz
  1  'x, y, z'
loop_
 _atom_site_type_symbol
 _atom_site_label
 _atom_site_symmetry_multiplicity
 _atom_site_fract_x
 _atom_site_fract_y
 _atom_site_fract_z
 _atom_site_occupancy
  In  In0  1  0.806353  0.993350  0.834425  1
  In  In1  1  0.193647  0.006650  0.165575  1
  S  S2  1  0.874646  0.486404  0.817038  1
  S  S3  1  0.125354  0.513596  0.182962  1
  S  S4  1  0.706484  0.380822  0.631657  1
  S  S5  1  0.293516  0.619178  0.368343  1
  S  S6  1  0.760838  0.201082  0.608597  1
  S  S7  1  0.239162  0.798918  0.391403  1
  S  S8  1  0.930574  0.225082  0.534032  1
  S  S9  1  0.069426  0.774918  0.465968  1
  S  S10  1  0.913183  0.370804  0.173887  1
  S  S11  1  0.086817  0.629196  0.826113  1
  S  S12  1  0.698734  0.446410  0.112955  1
  S  S13  1  0.301266  0.553590  0.887045  1
  S  S14  1  0.689939  0.524949  0.270658  1
  S  S15  1  0.310061  0.475051  0.729342  1
  S  S16  1  0.809928  0.731137  0.320452  1
  S  S17  1  0.190072  0.268863  0.679548  1
  Br  Br18  1  0.566182  0.083155  0.825363  1
  Br  Br19  1  0.433818  0.916845  0.174637  1
  Br  Br20  1  0.863845  0.843195  0.020138  1
  Br  Br21  1  0.136155  0.156805  0.979862  1
  Br  Br22  1  0.777367  0.841537  0.652891  1
  Br  Br23  1  0.222633  0.158463  0.347109  1
