# generated using pymatgen
data_Y5(GaSb)2
_symmetry_space_group_name_H-M   'P 1'
_cell_length_a   8.68351001
_cell_length_b   8.68351060
_cell_length_c   7.93121000
_cell_angle_alpha   90.00000000
_cell_angle_beta   90.00000000
_cell_angle_gamma   125.62564149
_symmetry_Int_Tables_number   1
_chemical_formula_structural   Y5(GaSb)2
_chemical_formula_sum   'Y10 Ga4 Sb4'
_cell_volume   486.11077939
_cell_formula_units_Z   2
loop_
 _symmetry_equiv_pos_site_id
 _symmetry_equiv_pos_as_xyz
  1  'x, y, z'
loop_
 _atom_site_type_symbol
 _atom_site_label
 _atom_site_symmetry_multiplicity
 _atom_site_fract_x
 _atom_site_fract_y
 _atom_site_fract_z
 _atom_site_occupancy
  Y  Y0  1  0.038550  0.299932  0.332824  1
  Y  Y1  1  0.961450  0.700068  0.667176  1
  Y  Y2  1  0.461450  0.200068  0.832824  1
  Y  Y3  1  0.799932  0.538550  0.167176  1
  Y  Y4  1  0.538550  0.799932  0.167176  1
  Y  Y5  1  0.200068  0.461450  0.832824  1
  Y  Y6  1  0.700068  0.961450  0.667176  1
  Y  Y7  1  0.299932  0.038550  0.332824  1
  Y  Y8  1  0.000000  0.000000  0.000000  1
  Y  Y9  1  0.500000  0.500000  0.500000  1
  Ga  Ga10  1  0.374678  0.374678  0.124708  1
  Ga  Ga11  1  0.625322  0.625322  0.875292  1
  Ga  Ga12  1  0.125322  0.125322  0.624708  1
  Ga  Ga13  1  0.874678  0.874678  0.375292  1
  Sb  Sb14  1  0.794938  0.205062  0.000000  1
  Sb  Sb15  1  0.205062  0.794938  0.000000  1
  Sb  Sb16  1  0.705062  0.294938  0.500000  1
  Sb  Sb17  1  0.294938  0.705062  0.500000  1
