# generated using pymatgen
data_CaAs12Os3Rh
_symmetry_space_group_name_H-M   'P 1'
_cell_length_a   7.46753396
_cell_length_b   7.46753330
_cell_length_c   7.46753390
_cell_angle_alpha   109.39490755
_cell_angle_beta   109.39491099
_cell_angle_gamma   109.39491491
_symmetry_Int_Tables_number   1
_chemical_formula_structural   CaAs12Os3Rh
_chemical_formula_sum   'Ca1 As12 Os3 Rh1'
_cell_volume   321.46274736
_cell_formula_units_Z   1
loop_
 _symmetry_equiv_pos_site_id
 _symmetry_equiv_pos_as_xyz
  1  'x, y, z'
loop_
 _atom_site_type_symbol
 _atom_site_label
 _atom_site_symmetry_multiplicity
 _atom_site_fract_x
 _atom_site_fract_y
 _atom_site_fract_z
 _atom_site_occupancy
  Ca  Ca0  1  0.000000  0.000000  0.000000  1
  As  As1  1  0.347783  0.199314  0.850658  1
  As  As2  1  0.652217  0.800686  0.149342  1
  As  As3  1  0.651605  0.502639  0.853842  1
  As  As4  1  0.348395  0.497361  0.146158  1
  As  As5  1  0.199314  0.850658  0.347783  1
  As  As6  1  0.800686  0.149342  0.652217  1
  As  As7  1  0.502639  0.853842  0.651605  1
  As  As8  1  0.497361  0.146158  0.348395  1
  As  As9  1  0.850658  0.347783  0.199314  1
  As  As10  1  0.149342  0.652217  0.800686  1
  As  As11  1  0.853842  0.651605  0.502639  1
  As  As12  1  0.146158  0.348395  0.497361  1
  Os  Os13  1  0.000000  0.000000  0.500000  1
  Os  Os14  1  0.500000  0.000000  0.000000  1
  Os  Os15  1  0.000000  0.500000  0.000000  1
  Rh  Rh16  1  0.500000  0.500000  0.500000  1
