# generated using pymatgen
data_Pr12Si(PBr4)3
_symmetry_space_group_name_H-M   'P 1'
_cell_length_a   10.40678788
_cell_length_b   10.40678804
_cell_length_c   10.40678792
_cell_angle_alpha   109.35608584
_cell_angle_beta   109.35608512
_cell_angle_gamma   109.35608642
_symmetry_Int_Tables_number   1
_chemical_formula_structural   Pr12Si(PBr4)3
_chemical_formula_sum   'Pr12 Si1 P3 Br12'
_cell_volume   871.29615949
_cell_formula_units_Z   1
loop_
 _symmetry_equiv_pos_site_id
 _symmetry_equiv_pos_as_xyz
  1  'x, y, z'
loop_
 _atom_site_type_symbol
 _atom_site_label
 _atom_site_symmetry_multiplicity
 _atom_site_fract_x
 _atom_site_fract_y
 _atom_site_fract_z
 _atom_site_occupancy
  Pr  Pr0  1  0.474486  0.490213  0.235924  1
  Pr  Pr1  1  0.750000  0.235218  0.264782  1
  Pr  Pr2  1  0.750000  0.014930  0.485070  1
  Pr  Pr3  1  0.235924  0.474486  0.490213  1
  Pr  Pr4  1  0.264782  0.750000  0.235218  1
  Pr  Pr5  1  0.025514  0.264076  0.009787  1
  Pr  Pr6  1  0.009787  0.025514  0.264076  1
  Pr  Pr7  1  0.485070  0.750000  0.014930  1
  Pr  Pr8  1  0.490213  0.235924  0.474486  1
  Pr  Pr9  1  0.014930  0.485070  0.750000  1
  Pr  Pr10  1  0.264076  0.009787  0.025514  1
  Pr  Pr11  1  0.235218  0.264782  0.750000  1
  Si  Si12  1  0.250000  0.250000  0.250000  1
  P  P13  1  0.500040  0.999960  0.250000  1
  P  P14  1  0.999960  0.250000  0.500040  1
  P  P15  1  0.250000  0.500040  0.999960  1
  Br  Br16  1  0.250000  0.754581  0.745419  1
  Br  Br17  1  0.508922  0.505294  0.755737  1
  Br  Br18  1  0.991078  0.744263  0.994706  1
  Br  Br19  1  0.745419  0.250000  0.754581  1
  Br  Br20  1  0.994706  0.991078  0.744263  1
  Br  Br21  1  0.250000  0.995093  0.504907  1
  Br  Br22  1  0.755737  0.508922  0.505294  1
  Br  Br23  1  0.504907  0.250000  0.995093  1
  Br  Br24  1  0.754581  0.745419  0.250000  1
  Br  Br25  1  0.744263  0.994706  0.991078  1
  Br  Br26  1  0.995093  0.504907  0.250000  1
  Br  Br27  1  0.505294  0.755737  0.508922  1
