# generated using pymatgen
data_Er10Si16Hg
_symmetry_space_group_name_H-M   'P 1'
_cell_length_a   11.01153585
_cell_length_b   10.95373582
_cell_length_c   11.01153598
_cell_angle_alpha   144.52094281
_cell_angle_beta   136.02240303
_cell_angle_gamma   57.82821175
_symmetry_Int_Tables_number   1
_chemical_formula_structural   Er10Si16Hg
_chemical_formula_sum   'Er10 Si16 Hg1'
_cell_volume   530.54023951
_cell_formula_units_Z   1
loop_
 _symmetry_equiv_pos_site_id
 _symmetry_equiv_pos_as_xyz
  1  'x, y, z'
loop_
 _atom_site_type_symbol
 _atom_site_label
 _atom_site_symmetry_multiplicity
 _atom_site_fract_x
 _atom_site_fract_y
 _atom_site_fract_z
 _atom_site_occupancy
  Er  Er0  1  0.755353  0.759738  0.516134  1
  Er  Er1  1  0.443565  0.969246  0.015685  1
  Er  Er2  1  0.849854  0.367856  0.020447  1
  Er  Er3  1  0.953560  0.969246  0.525680  1
  Er  Er4  1  0.151976  0.165907  0.519039  1
  Er  Er5  1  0.347410  0.367856  0.518003  1
  Er  Er6  1  0.243604  0.759738  0.004385  1
  Er  Er7  1  0.544526  0.559766  0.496895  1
  Er  Er8  1  0.062871  0.559766  0.015240  1
  Er  Er9  1  0.646868  0.165907  0.013930  1
  Si  Si10  1  0.199154  0.577430  0.378274  1
  Si  Si11  1  0.000421  0.080156  0.079734  1
  Si  Si12  1  0.699651  0.280296  0.580646  1
  Si  Si13  1  0.800628  0.169059  0.368432  1
  Si  Si14  1  0.895173  0.504768  0.609593  1
  Si  Si15  1  0.418794  0.873791  0.454996  1
  Si  Si16  1  0.103547  0.715964  0.612417  1
  Si  Si17  1  0.301571  0.896259  0.594688  1
  Si  Si18  1  0.580277  0.042386  0.462109  1
  Si  Si19  1  0.999105  0.429428  0.430323  1
  Si  Si20  1  0.877565  0.843340  0.965776  1
  Si  Si21  1  0.400525  0.499187  0.098662  1
  Si  Si22  1  0.122427  0.095761  0.973335  1
  Si  Si23  1  0.285232  0.238218  0.952987  1
  Si  Si24  1  0.499895  0.386341  0.886446  1
  Si  Si25  1  0.597031  0.705808  0.108777  1
  Hg  Hg26  1  0.719415  0.678282  0.958868  1
