# generated using pymatgen
data_TbTm15Cd2(InNi2)2
_symmetry_space_group_name_H-M   'P 1'
_cell_length_a   9.41721501
_cell_length_b   9.41703301
_cell_length_c   9.43858240
_cell_angle_alpha   59.97359974
_cell_angle_beta   59.97353876
_cell_angle_gamma   60.08932344
_symmetry_Int_Tables_number   1
_chemical_formula_structural   TbTm15Cd2(InNi2)2
_chemical_formula_sum   'Tb1 Tm15 Cd2 In2 Ni4'
_cell_volume   592.03423303
_cell_formula_units_Z   1
loop_
 _symmetry_equiv_pos_site_id
 _symmetry_equiv_pos_as_xyz
  1  'x, y, z'
loop_
 _atom_site_type_symbol
 _atom_site_label
 _atom_site_symmetry_multiplicity
 _atom_site_fract_x
 _atom_site_fract_y
 _atom_site_fract_z
 _atom_site_occupancy
  Tb  Tb0  1  0.347565  0.347562  0.348624  1
  Tm  Tm1  1  0.347699  0.347696  0.956057  1
  Tm  Tm2  1  0.350883  0.951700  0.348097  1
  Tm  Tm3  1  0.951696  0.350883  0.348100  1
  Tm  Tm4  1  0.812562  0.188750  0.187896  1
  Tm  Tm5  1  0.189566  0.811426  0.811262  1
  Tm  Tm6  1  0.188748  0.812559  0.187896  1
  Tm  Tm7  1  0.811428  0.189567  0.811259  1
  Tm  Tm8  1  0.187248  0.187252  0.813451  1
  Tm  Tm9  1  0.810517  0.810512  0.189937  1
  Tm  Tm10  1  0.937194  0.564253  0.564320  1
  Tm  Tm11  1  0.563892  0.937948  0.934414  1
  Tm  Tm12  1  0.564252  0.937193  0.564321  1
  Tm  Tm13  1  0.937950  0.563892  0.934414  1
  Tm  Tm14  1  0.565132  0.565133  0.934600  1
  Tm  Tm15  1  0.937861  0.937860  0.562063  1
  Cd  Cd16  1  0.580964  0.252905  0.583651  1
  Cd  Cd17  1  0.252908  0.580965  0.583648  1
  In  In18  1  0.581651  0.581650  0.583923  1
  In  In19  1  0.582114  0.582116  0.252688  1
  Ni  Ni20  1  0.142054  0.142053  0.143467  1
  Ni  Ni21  1  0.141309  0.141298  0.572551  1
  Ni  Ni22  1  0.140612  0.574155  0.141665  1
  Ni  Ni23  1  0.574197  0.140671  0.141699  1
