# generated using pymatgen
data_Er5(TcO6)2
_symmetry_space_group_name_H-M   'P 1'
_cell_length_a   6.77279381
_cell_length_b   6.77279488
_cell_length_c   7.47272103
_cell_angle_alpha   73.76405008
_cell_angle_beta   73.76404867
_cell_angle_gamma   49.20623387
_symmetry_Int_Tables_number   1
_chemical_formula_structural   Er5(TcO6)2
_chemical_formula_sum   'Er5 Tc2 O12'
_cell_volume   246.93202245
_cell_formula_units_Z   1
loop_
 _symmetry_equiv_pos_site_id
 _symmetry_equiv_pos_as_xyz
  1  'x, y, z'
loop_
 _atom_site_type_symbol
 _atom_site_label
 _atom_site_symmetry_multiplicity
 _atom_site_fract_x
 _atom_site_fract_y
 _atom_site_fract_z
 _atom_site_occupancy
  Er  Er0  1  0.696006  0.696006  0.641188  1
  Er  Er1  1  0.303994  0.303994  0.358812  1
  Er  Er2  1  0.684792  0.684792  0.175965  1
  Er  Er3  1  0.315208  0.315208  0.824035  1
  Er  Er4  1  0.000000  0.000000  0.500000  1
  Tc  Tc5  1  0.785369  0.214631  0.000000  1
  Tc  Tc6  1  0.214631  0.785369  0.000000  1
  O  O7  1  0.001016  0.001016  0.206022  1
  O  O8  1  0.998984  0.998984  0.793978  1
  O  O9  1  0.580846  0.087241  0.085672  1
  O  O10  1  0.419154  0.912759  0.914328  1
  O  O11  1  0.912759  0.419154  0.914328  1
  O  O12  1  0.087241  0.580846  0.085672  1
  O  O13  1  0.499119  0.499119  0.180174  1
  O  O14  1  0.500881  0.500881  0.819826  1
  O  O15  1  0.405728  0.901737  0.426113  1
  O  O16  1  0.594272  0.098263  0.573887  1
  O  O17  1  0.098263  0.594272  0.573887  1
  O  O18  1  0.901737  0.405728  0.426113  1
