# generated using pymatgen
data_Lu2GaB2Rh5
_symmetry_space_group_name_H-M   'P 1'
_cell_length_a   9.41996300
_cell_length_b   9.41996300
_cell_length_c   3.17458600
_cell_angle_alpha   90.00000000
_cell_angle_beta   90.00000000
_cell_angle_gamma   90.00000000
_symmetry_Int_Tables_number   1
_chemical_formula_structural   Lu2GaB2Rh5
_chemical_formula_sum   'Lu4 Ga2 B4 Rh10'
_cell_volume   281.69912019
_cell_formula_units_Z   2
loop_
 _symmetry_equiv_pos_site_id
 _symmetry_equiv_pos_as_xyz
  1  'x, y, z'
loop_
 _atom_site_type_symbol
 _atom_site_label
 _atom_site_symmetry_multiplicity
 _atom_site_fract_x
 _atom_site_fract_y
 _atom_site_fract_z
 _atom_site_occupancy
  Lu  Lu0  1  0.825620  0.325620  0.000000  1
  Lu  Lu1  1  0.325620  0.174380  0.000000  1
  Lu  Lu2  1  0.674380  0.825620  0.000000  1
  Lu  Lu3  1  0.174380  0.674380  0.000000  1
  Ga  Ga4  1  0.000000  0.000000  0.000000  1
  Ga  Ga5  1  0.500000  0.500000  0.000000  1
  B  B6  1  0.623672  0.123672  0.000000  1
  B  B7  1  0.123672  0.376328  0.000000  1
  B  B8  1  0.876328  0.623672  0.000000  1
  B  B9  1  0.376328  0.876328  0.000000  1
  Rh  Rh10  1  0.070769  0.217890  0.500000  1
  Rh  Rh11  1  0.217890  0.929231  0.500000  1
  Rh  Rh12  1  0.782110  0.070769  0.500000  1
  Rh  Rh13  1  0.929231  0.782110  0.500000  1
  Rh  Rh14  1  0.429231  0.717890  0.500000  1
  Rh  Rh15  1  0.570769  0.282110  0.500000  1
  Rh  Rh16  1  0.717890  0.570769  0.500000  1
  Rh  Rh17  1  0.282110  0.429231  0.500000  1
  Rh  Rh18  1  0.500000  0.000000  0.500000  1
  Rh  Rh19  1  0.000000  0.500000  0.500000  1
