# generated using pymatgen
data_Nd2ThIn3IrRh2
_symmetry_space_group_name_H-M   'P 1'
_cell_length_a   7.83613196
_cell_length_b   7.65501510
_cell_length_c   4.00371700
_cell_angle_alpha   90.00000000
_cell_angle_beta   90.00000000
_cell_angle_gamma   120.59437944
_symmetry_Int_Tables_number   1
_chemical_formula_structural   Nd2ThIn3IrRh2
_chemical_formula_sum   'Nd2 Th1 In3 Ir1 Rh2'
_cell_volume   206.73278981
_cell_formula_units_Z   1
loop_
 _symmetry_equiv_pos_site_id
 _symmetry_equiv_pos_as_xyz
  1  'x, y, z'
loop_
 _atom_site_type_symbol
 _atom_site_label
 _atom_site_symmetry_multiplicity
 _atom_site_fract_x
 _atom_site_fract_y
 _atom_site_fract_z
 _atom_site_occupancy
  Nd  Nd0  1  0.409727  0.412222  0.500000  1
  Nd  Nd1  1  0.004721  0.591573  0.500000  1
  Th  Th2  1  0.582211  0.999594  0.500000  1
  In  In3  1  0.240147  0.001118  0.000000  1
  In  In4  1  0.748563  0.738041  0.000000  1
  In  In5  1  0.008119  0.260114  0.000000  1
  Ir  Ir6  1  0.354925  0.690560  0.000000  1
  Rh  Rh7  1  0.987255  0.999978  0.500000  1
  Rh  Rh8  1  0.664331  0.306799  0.000000  1
