# generated using pymatgen
data_Ac7NdSe16
_symmetry_space_group_name_H-M   'P 1'
_cell_length_a   4.39685751
_cell_length_b   8.71531428
_cell_length_c   17.71615554
_cell_angle_alpha   89.96376893
_cell_angle_beta   89.86421324
_cell_angle_gamma   90.11122892
_symmetry_Int_Tables_number   1
_chemical_formula_structural   Ac7NdSe16
_chemical_formula_sum   'Ac7 Nd1 Se16'
_cell_volume   678.87966874
_cell_formula_units_Z   1
loop_
 _symmetry_equiv_pos_site_id
 _symmetry_equiv_pos_as_xyz
  1  'x, y, z'
loop_
 _atom_site_type_symbol
 _atom_site_label
 _atom_site_symmetry_multiplicity
 _atom_site_fract_x
 _atom_site_fract_y
 _atom_site_fract_z
 _atom_site_occupancy
  Ac  Ac0  1  0.229243  0.126310  0.139887  1
  Ac  Ac1  1  0.269962  0.626706  0.139651  1
  Ac  Ac2  1  0.730258  0.372870  0.364956  1
  Ac  Ac3  1  0.770334  0.872693  0.364924  1
  Ac  Ac4  1  0.729214  0.374688  0.642420  1
  Ac  Ac5  1  0.769706  0.872342  0.642395  1
  Ac  Ac6  1  0.224213  0.127242  0.864996  1
  Nd  Nd7  1  0.270441  0.626806  0.864448  1
  Se  Se8  1  0.159142  0.388385  0.999769  1
  Se  Se9  1  0.346984  0.880159  0.000849  1
  Se  Se10  1  0.689724  0.109785  0.001764  1
  Se  Se11  1  0.817059  0.613982  0.998368  1
  Se  Se12  1  0.743768  0.374595  0.185171  1
  Se  Se13  1  0.756067  0.873995  0.185625  1
  Se  Se14  1  0.243923  0.124970  0.319276  1
  Se  Se15  1  0.256521  0.624726  0.319317  1
  Se  Se16  1  0.650338  0.116458  0.503324  1
  Se  Se17  1  0.850291  0.616453  0.503645  1
  Se  Se18  1  0.192721  0.387943  0.503421  1
  Se  Se19  1  0.307522  0.888004  0.503479  1
  Se  Se20  1  0.242367  0.125737  0.687164  1
  Se  Se21  1  0.255142  0.625687  0.690352  1
  Se  Se22  1  0.738920  0.384023  0.821342  1
  Se  Se23  1  0.756135  0.865439  0.821457  1
