# generated using pymatgen
data_Hf4CoSi4Ni
_symmetry_space_group_name_H-M   'P 1'
_cell_length_a   5.23586123
_cell_length_b   5.23586178
_cell_length_c   9.39141799
_cell_angle_alpha   115.78272963
_cell_angle_beta   115.78273086
_cell_angle_gamma   43.60839804
_symmetry_Int_Tables_number   1
_chemical_formula_structural   Hf4CoSi4Ni
_chemical_formula_sum   'Hf4 Co1 Si4 Ni1'
_cell_volume   156.88411649
_cell_formula_units_Z   1
loop_
 _symmetry_equiv_pos_site_id
 _symmetry_equiv_pos_as_xyz
  1  'x, y, z'
loop_
 _atom_site_type_symbol
 _atom_site_label
 _atom_site_symmetry_multiplicity
 _atom_site_fract_x
 _atom_site_fract_y
 _atom_site_fract_z
 _atom_site_occupancy
  Hf  Hf0  1  0.188734  0.188734  0.103348  1
  Hf  Hf1  1  0.996707  0.996707  0.322252  1
  Hf  Hf2  1  0.002334  0.002334  0.674939  1
  Hf  Hf3  1  0.812368  0.812368  0.898453  1
  Co  Co4  1  0.719789  0.719789  0.358510  1
  Si  Si5  1  0.483067  0.483067  0.119995  1
  Si  Si6  1  0.353836  0.353836  0.432714  1
  Si  Si7  1  0.643288  0.643288  0.564310  1
  Si  Si8  1  0.519986  0.519986  0.880545  1
  Ni  Ni9  1  0.279892  0.279892  0.644935  1
