# generated using pymatgen
data_Lu19ThSn16
_symmetry_space_group_name_H-M   'P 1'
_cell_length_a   7.92141407
_cell_length_b   8.01560632
_cell_length_c   15.18010100
_cell_angle_alpha   90.00946399
_cell_angle_beta   89.57000714
_cell_angle_gamma   89.90861454
_symmetry_Int_Tables_number   1
_chemical_formula_structural   Lu19ThSn16
_chemical_formula_sum   'Lu19 Th1 Sn16'
_cell_volume   963.83116826
_cell_formula_units_Z   1
loop_
 _symmetry_equiv_pos_site_id
 _symmetry_equiv_pos_as_xyz
  1  'x, y, z'
loop_
 _atom_site_type_symbol
 _atom_site_label
 _atom_site_symmetry_multiplicity
 _atom_site_fract_x
 _atom_site_fract_y
 _atom_site_fract_z
 _atom_site_occupancy
  Lu  Lu0  1  0.366761  0.837897  0.876073  1
  Lu  Lu1  1  0.870818  0.662104  0.621916  1
  Lu  Lu2  1  0.628940  0.160773  0.376574  1
  Lu  Lu3  1  0.132226  0.339260  0.124447  1
  Lu  Lu4  1  0.633317  0.162255  0.124277  1
  Lu  Lu5  1  0.129251  0.338811  0.377043  1
  Lu  Lu6  1  0.371780  0.838380  0.622921  1
  Lu  Lu7  1  0.869411  0.661541  0.876360  1
  Lu  Lu8  1  0.524554  0.322418  0.904367  1
  Lu  Lu9  1  0.027993  0.178524  0.597775  1
  Lu  Lu10  1  0.474275  0.678244  0.402829  1
  Lu  Lu11  1  0.977819  0.820575  0.096238  1
  Lu  Lu12  1  0.476141  0.678620  0.096587  1
  Lu  Lu13  1  0.973553  0.822046  0.402873  1
  Lu  Lu14  1  0.525668  0.322314  0.595524  1
  Lu  Lu15  1  0.199640  0.504008  0.748929  1
  Lu  Lu16  1  0.699177  0.994904  0.748885  1
  Lu  Lu17  1  0.800541  0.495577  0.250678  1
  Lu  Lu18  1  0.301344  0.004476  0.250640  1
  Th  Th19  1  0.018023  0.178851  0.905068  1
  Sn  Sn20  1  0.296255  0.035672  0.043363  1
  Sn  Sn21  1  0.788721  0.463216  0.458059  1
  Sn  Sn22  1  0.711903  0.966286  0.541437  1
  Sn  Sn23  1  0.210103  0.537987  0.958895  1
  Sn  Sn24  1  0.699737  0.955785  0.960648  1
  Sn  Sn25  1  0.210666  0.536715  0.541108  1
  Sn  Sn26  1  0.289626  0.036033  0.458871  1
  Sn  Sn27  1  0.792662  0.462836  0.041043  1
  Sn  Sn28  1  0.565348  0.620611  0.750023  1
  Sn  Sn29  1  0.065412  0.878541  0.749896  1
  Sn  Sn30  1  0.434474  0.381670  0.250299  1
  Sn  Sn31  1  0.935079  0.118434  0.250691  1
  Sn  Sn32  1  0.338999  0.152678  0.749643  1
  Sn  Sn33  1  0.831482  0.352737  0.746885  1
  Sn  Sn34  1  0.664837  0.847453  0.249316  1
  Sn  Sn35  1  0.163461  0.651766  0.249817  1
