# generated using pymatgen
data_CeYMnC4
_symmetry_space_group_name_H-M   'P 1'
_cell_length_a   6.61201508
_cell_length_b   6.77043764
_cell_length_c   6.77043795
_cell_angle_alpha   135.98702701
_cell_angle_beta   111.43356872
_cell_angle_gamma   85.53349414
_symmetry_Int_Tables_number   1
_chemical_formula_structural   CeYMnC4
_chemical_formula_sum   'Ce2 Y2 Mn2 C8'
_cell_volume   187.84330827
_cell_formula_units_Z   2
loop_
 _symmetry_equiv_pos_site_id
 _symmetry_equiv_pos_as_xyz
  1  'x, y, z'
loop_
 _atom_site_type_symbol
 _atom_site_label
 _atom_site_symmetry_multiplicity
 _atom_site_fract_x
 _atom_site_fract_y
 _atom_site_fract_z
 _atom_site_occupancy
  Ce  Ce0  1  0.507626  0.353068  0.154558  1
  Ce  Ce1  1  0.492374  0.646932  0.845442  1
  Y  Y2  1  0.193672  0.857311  0.336361  1
  Y  Y3  1  0.806328  0.142689  0.663639  1
  Mn  Mn4  1  0.000000  0.251280  0.251280  1
  Mn  Mn5  1  0.000000  0.748720  0.748720  1
  C  C6  1  0.246306  0.075636  0.170671  1
  C  C7  1  0.753694  0.924364  0.829329  1
  C  C8  1  0.919819  0.581161  0.338658  1
  C  C9  1  0.080181  0.418839  0.661342  1
  C  C10  1  0.469990  0.124847  0.345142  1
  C  C11  1  0.530010  0.875153  0.654858  1
  C  C12  1  0.790790  0.626365  0.164425  1
  C  C13  1  0.209210  0.373635  0.835575  1
