# generated using pymatgen
data_TbZnCu3Au
_symmetry_space_group_name_H-M   'P 1'
_cell_length_a   5.08451152
_cell_length_b   5.08451140
_cell_length_c   5.07038385
_cell_angle_alpha   59.90777989
_cell_angle_beta   59.90778696
_cell_angle_gamma   59.99999717
_symmetry_Int_Tables_number   1
_chemical_formula_structural   TbZnCu3Au
_chemical_formula_sum   'Tb1 Zn1 Cu3 Au1'
_cell_volume   92.55876303
_cell_formula_units_Z   1
loop_
 _symmetry_equiv_pos_site_id
 _symmetry_equiv_pos_as_xyz
  1  'x, y, z'
loop_
 _atom_site_type_symbol
 _atom_site_label
 _atom_site_symmetry_multiplicity
 _atom_site_fract_x
 _atom_site_fract_y
 _atom_site_fract_z
 _atom_site_occupancy
  Tb  Tb0  1  0.001820  0.001820  0.994540  1
  Zn  Zn1  1  0.622434  0.622434  0.132699  1
  Cu  Cu2  1  0.623657  0.127413  0.625273  1
  Cu  Cu3  1  0.127413  0.623657  0.625273  1
  Cu  Cu4  1  0.623657  0.623657  0.625273  1
  Au  Au5  1  0.251019  0.251019  0.246943  1
