# generated using pymatgen
data_Zr16Ir3Pd5O4
_symmetry_space_group_name_H-M   'P 1'
_cell_length_a   8.90083456
_cell_length_b   8.87923474
_cell_length_c   8.90083500
_cell_angle_alpha   59.91949893
_cell_angle_beta   60.00000206
_cell_angle_gamma   59.91950255
_symmetry_Int_Tables_number   1
_chemical_formula_structural   Zr16Ir3Pd5O4
_chemical_formula_sum   'Zr16 Ir3 Pd5 O4'
_cell_volume   496.81251389
_cell_formula_units_Z   1
loop_
 _symmetry_equiv_pos_site_id
 _symmetry_equiv_pos_as_xyz
  1  'x, y, z'
loop_
 _atom_site_type_symbol
 _atom_site_label
 _atom_site_symmetry_multiplicity
 _atom_site_fract_x
 _atom_site_fract_y
 _atom_site_fract_z
 _atom_site_occupancy
  Zr  Zr0  1  0.315460  0.684795  0.315460  1
  Zr  Zr1  1  0.933236  0.568847  0.933236  1
  Zr  Zr2  1  0.682201  0.317751  0.682201  1
  Zr  Zr3  1  0.682201  0.317751  0.317847  1
  Zr  Zr4  1  0.315460  0.684795  0.684284  1
  Zr  Zr5  1  0.637237  0.118714  0.122025  1
  Zr  Zr6  1  0.933323  0.933147  0.566765  1
  Zr  Zr7  1  0.684284  0.684795  0.315460  1
  Zr  Zr8  1  0.118740  0.643781  0.118740  1
  Zr  Zr9  1  0.122025  0.118714  0.637237  1
  Zr  Zr10  1  0.317847  0.317751  0.682201  1
  Zr  Zr11  1  0.122025  0.118714  0.122025  1
  Zr  Zr12  1  0.564681  0.568847  0.933236  1
  Zr  Zr13  1  0.566765  0.933147  0.933323  1
  Zr  Zr14  1  0.933236  0.568847  0.564681  1
  Zr  Zr15  1  0.566765  0.933147  0.566765  1
  Ir  Ir16  1  0.295491  0.902929  0.900790  1
  Ir  Ir17  1  0.900790  0.902929  0.900790  1
  Ir  Ir18  1  0.900790  0.902929  0.295491  1
  Pd  Pd19  1  0.339380  0.981858  0.339380  1
  Pd  Pd20  1  0.338989  0.339770  0.338989  1
  Pd  Pd21  1  0.982252  0.339770  0.338989  1
  Pd  Pd22  1  0.338989  0.339770  0.982252  1
  Pd  Pd23  1  0.907038  0.278887  0.907038  1
  O  O24  1  0.625014  0.624072  0.625014  1
  O  O25  1  0.125900  0.624072  0.625014  1
  O  O26  1  0.625014  0.624072  0.125900  1
  O  O27  1  0.624867  0.125399  0.624867  1
