# generated using pymatgen
data_Yb13(YSb4)3
_symmetry_space_group_name_H-M   'P 1'
_cell_length_a   9.41065690
_cell_length_b   9.41065674
_cell_length_c   9.41065700
_cell_angle_alpha   90.27816761
_cell_angle_beta   90.27816151
_cell_angle_gamma   89.72183074
_symmetry_Int_Tables_number   1
_chemical_formula_structural   Yb13(YSb4)3
_chemical_formula_sum   'Yb13 Y3 Sb12'
_cell_volume   833.38275965
_cell_formula_units_Z   1
loop_
 _symmetry_equiv_pos_site_id
 _symmetry_equiv_pos_as_xyz
  1  'x, y, z'
loop_
 _atom_site_type_symbol
 _atom_site_label
 _atom_site_symmetry_multiplicity
 _atom_site_fract_x
 _atom_site_fract_y
 _atom_site_fract_z
 _atom_site_occupancy
  Yb  Yb0  1  0.825054  0.325054  0.174946  1
  Yb  Yb1  1  0.931518  0.926459  0.930984  1
  Yb  Yb2  1  0.826953  0.673804  0.325627  1
  Yb  Yb3  1  0.176742  0.822232  0.322254  1
  Yb  Yb4  1  0.173804  0.174373  0.173047  1
  Yb  Yb5  1  0.324925  0.824925  0.675075  1
  Yb  Yb6  1  0.069016  0.431518  0.573541  1
  Yb  Yb7  1  0.322232  0.177746  0.823258  1
  Yb  Yb8  1  0.674373  0.326953  0.826196  1
  Yb  Yb9  1  0.677746  0.676742  0.677768  1
  Yb  Yb10  1  0.568806  0.068806  0.431194  1
  Yb  Yb11  1  0.426459  0.569016  0.068482  1
  Yb  Yb12  1  0.073360  0.573360  0.926640  1
  Y  Y13  1  0.929722  0.072067  0.572564  1
  Y  Y14  1  0.427436  0.429722  0.427933  1
  Y  Y15  1  0.572067  0.927436  0.070278  1
  Sb  Sb16  1  0.746210  0.368857  0.500038  1
  Sb  Sb17  1  0.868857  0.999962  0.253790  1
  Sb  Sb18  1  0.999146  0.757282  0.625642  1
  Sb  Sb19  1  0.245835  0.129074  0.498958  1
  Sb  Sb20  1  0.131191  0.498146  0.251315  1
  Sb  Sb21  1  0.998146  0.248685  0.868809  1
  Sb  Sb22  1  0.257282  0.874358  0.000854  1
  Sb  Sb23  1  0.374358  0.499146  0.742718  1
  Sb  Sb24  1  0.499962  0.246210  0.131143  1
  Sb  Sb25  1  0.748685  0.631191  0.001854  1
  Sb  Sb26  1  0.629074  0.001042  0.754165  1
  Sb  Sb27  1  0.501042  0.745835  0.370926  1
