# generated using pymatgen
data_DyHo3(IrOs3)2
_symmetry_space_group_name_H-M   'P 1'
_cell_length_a   5.27175200
_cell_length_b   5.27175100
_cell_length_c   8.97397100
_cell_angle_alpha   90.00000000
_cell_angle_beta   90.00000000
_cell_angle_gamma   120.00000627
_symmetry_Int_Tables_number   1
_chemical_formula_structural   DyHo3(IrOs3)2
_chemical_formula_sum   'Dy1 Ho3 Ir2 Os6'
_cell_volume   215.98576379
_cell_formula_units_Z   1
loop_
 _symmetry_equiv_pos_site_id
 _symmetry_equiv_pos_as_xyz
  1  'x, y, z'
loop_
 _atom_site_type_symbol
 _atom_site_label
 _atom_site_symmetry_multiplicity
 _atom_site_fract_x
 _atom_site_fract_y
 _atom_site_fract_z
 _atom_site_occupancy
  Dy  Dy0  1  0.333333  0.666667  0.432352  1
  Ho  Ho1  1  0.666667  0.333333  0.567863  1
  Ho  Ho2  1  0.666667  0.333333  0.932226  1
  Ho  Ho3  1  0.333333  0.666667  0.067690  1
  Ir  Ir4  1  0.000000  0.000000  0.500133  1
  Ir  Ir5  1  0.000000  0.000000  0.000037  1
  Os  Os6  1  0.829026  0.170974  0.249769  1
  Os  Os7  1  0.829026  0.658053  0.249769  1
  Os  Os8  1  0.341947  0.170974  0.249769  1
  Os  Os9  1  0.170973  0.829027  0.750131  1
  Os  Os10  1  0.170973  0.341947  0.750131  1
  Os  Os11  1  0.658053  0.829027  0.750131  1
