# generated using pymatgen
data_ErNbFe3Co9P7
_symmetry_space_group_name_H-M   'P 1'
_cell_length_a   8.98097700
_cell_length_b   8.98097618
_cell_length_c   3.60824900
_cell_angle_alpha   90.00000000
_cell_angle_beta   90.00000000
_cell_angle_gamma   120.00000669
_symmetry_Int_Tables_number   1
_chemical_formula_structural   ErNbFe3Co9P7
_chemical_formula_sum   'Er1 Nb1 Fe3 Co9 P7'
_cell_volume   252.04276257
_cell_formula_units_Z   1
loop_
 _symmetry_equiv_pos_site_id
 _symmetry_equiv_pos_as_xyz
  1  'x, y, z'
loop_
 _atom_site_type_symbol
 _atom_site_label
 _atom_site_symmetry_multiplicity
 _atom_site_fract_x
 _atom_site_fract_y
 _atom_site_fract_z
 _atom_site_occupancy
  Er  Er0  1  0.333333  0.666667  0.500000  1
  Nb  Nb1  1  0.000000  0.000000  0.000000  1
  Fe  Fe2  1  0.538671  0.113074  0.500000  1
  Fe  Fe3  1  0.574403  0.461329  0.500000  1
  Fe  Fe4  1  0.886926  0.425597  0.500000  1
  Co  Co5  1  0.290268  0.899941  0.000000  1
  Co  Co6  1  0.609674  0.709732  0.000000  1
  Co  Co7  1  0.100059  0.390326  0.000000  1
  Co  Co8  1  0.784804  0.174058  0.000000  1
  Co  Co9  1  0.389254  0.215196  0.000000  1
  Co  Co10  1  0.825942  0.610746  0.000000  1
  Co  Co11  1  0.723973  0.950774  0.500000  1
  Co  Co12  1  0.226802  0.276027  0.500000  1
  Co  Co13  1  0.049226  0.773198  0.500000  1
  P  P14  1  0.551738  0.924749  0.000000  1
  P  P15  1  0.373011  0.448262  0.000000  1
  P  P16  1  0.075251  0.626989  0.000000  1
  P  P17  1  0.957053  0.214422  0.500000  1
  P  P18  1  0.257368  0.042947  0.500000  1
  P  P19  1  0.785578  0.742632  0.500000  1
  P  P20  1  0.666667  0.333333  0.000000  1
