# generated using pymatgen
data_UCr3(CuSe4)2
_symmetry_space_group_name_H-M   'P 1'
_cell_length_a   7.55173300
_cell_length_b   7.58722300
_cell_length_c   10.61545200
_cell_angle_alpha   90.00000000
_cell_angle_beta   90.00000000
_cell_angle_gamma   90.00000000
_symmetry_Int_Tables_number   1
_chemical_formula_structural   UCr3(CuSe4)2
_chemical_formula_sum   'U2 Cr6 Cu4 Se16'
_cell_volume   608.23018079
_cell_formula_units_Z   2
loop_
 _symmetry_equiv_pos_site_id
 _symmetry_equiv_pos_as_xyz
  1  'x, y, z'
loop_
 _atom_site_type_symbol
 _atom_site_label
 _atom_site_symmetry_multiplicity
 _atom_site_fract_x
 _atom_site_fract_y
 _atom_site_fract_z
 _atom_site_occupancy
  U  U0  1  0.500000  0.752845  0.250000  1
  U  U1  1  0.500000  0.247155  0.750000  1
  Cr  Cr2  1  0.752638  0.000000  0.500000  1
  Cr  Cr3  1  0.752137  0.500000  0.500000  1
  Cr  Cr4  1  0.247863  0.500000  0.000000  1
  Cr  Cr5  1  0.000000  0.750765  0.250000  1
  Cr  Cr6  1  0.247362  0.000000  0.000000  1
  Cr  Cr7  1  0.000000  0.249235  0.750000  1
  Cu  Cu8  1  0.766606  0.746703  0.878141  1
  Cu  Cu9  1  0.233394  0.253297  0.378141  1
  Cu  Cu10  1  0.233394  0.746703  0.621859  1
  Cu  Cu11  1  0.766606  0.253297  0.121859  1
  Se  Se12  1  0.770575  0.997883  0.260148  1
  Se  Se13  1  0.517704  0.750009  0.509094  1
  Se  Se14  1  0.769376  0.506123  0.260018  1
  Se  Se15  1  0.482296  0.249991  0.009094  1
  Se  Se16  1  0.230624  0.506123  0.239982  1
  Se  Se17  1  0.023237  0.749827  0.010605  1
  Se  Se18  1  0.229425  0.997883  0.239852  1
  Se  Se19  1  0.482296  0.750009  0.990906  1
  Se  Se20  1  0.230624  0.493877  0.760018  1
  Se  Se21  1  0.023237  0.250173  0.989395  1
  Se  Se22  1  0.229425  0.002117  0.760148  1
  Se  Se23  1  0.976763  0.749827  0.489395  1
  Se  Se24  1  0.770575  0.002117  0.739852  1
  Se  Se25  1  0.517704  0.249991  0.490906  1
  Se  Se26  1  0.769376  0.493877  0.739982  1
  Se  Se27  1  0.976763  0.250173  0.510605  1
