# generated using pymatgen
data_Sm3Y3Cd23Sb
_symmetry_space_group_name_H-M   'P 1'
_cell_length_a   10.02609528
_cell_length_b   10.02609492
_cell_length_c   10.04447140
_cell_angle_alpha   60.06049953
_cell_angle_beta   60.06049999
_cell_angle_gamma   59.99999914
_symmetry_Int_Tables_number   1
_chemical_formula_structural   Sm3Y3Cd23Sb
_chemical_formula_sum   'Sm3 Y3 Cd23 Sb1'
_cell_volume   714.61522134
_cell_formula_units_Z   1
loop_
 _symmetry_equiv_pos_site_id
 _symmetry_equiv_pos_as_xyz
  1  'x, y, z'
loop_
 _atom_site_type_symbol
 _atom_site_label
 _atom_site_symmetry_multiplicity
 _atom_site_fract_x
 _atom_site_fract_y
 _atom_site_fract_z
 _atom_site_occupancy
  Sm  Sm0  1  0.215328  0.215328  0.784978  1
  Sm  Sm1  1  0.784365  0.215328  0.784978  1
  Sm  Sm2  1  0.215328  0.784365  0.784978  1
  Y  Y3  1  0.784709  0.784709  0.215419  1
  Y  Y4  1  0.215163  0.784709  0.215419  1
  Y  Y5  1  0.784709  0.215163  0.215419  1
  Cd  Cd6  1  0.838700  0.838700  0.483901  1
  Cd  Cd7  1  0.837042  0.487910  0.838007  1
  Cd  Cd8  1  0.487910  0.837042  0.838007  1
  Cd  Cd9  1  0.837042  0.837042  0.838007  1
  Cd  Cd10  1  0.163359  0.163359  0.509921  1
  Cd  Cd11  1  0.161264  0.514260  0.163210  1
  Cd  Cd12  1  0.514260  0.161264  0.163210  1
  Cd  Cd13  1  0.161264  0.161264  0.163210  1
  Cd  Cd14  1  0.622248  0.622248  0.133258  1
  Cd  Cd15  1  0.624230  0.130669  0.620873  1
  Cd  Cd16  1  0.130669  0.624230  0.620873  1
  Cd  Cd17  1  0.624230  0.624230  0.620873  1
  Cd  Cd18  1  0.376498  0.376498  0.870505  1
  Cd  Cd19  1  0.378505  0.868063  0.374925  1
  Cd  Cd20  1  0.868063  0.378505  0.374925  1
  Cd  Cd21  1  0.378505  0.378505  0.374925  1
  Cd  Cd22  1  0.999673  0.999673  0.499876  1
  Cd  Cd23  1  0.500778  0.999673  0.499876  1
  Cd  Cd24  1  0.999673  0.500778  0.499876  1
  Cd  Cd25  1  0.499664  0.499664  0.001153  1
  Cd  Cd26  1  0.999519  0.499664  0.001153  1
  Cd  Cd27  1  0.499664  0.999519  0.001153  1
  Cd  Cd28  1  0.499541  0.499541  0.501378  1
  Sb  Sb29  1  0.998096  0.998096  0.005713  1
