# generated using pymatgen
data_Pa2GaCuTc2
_symmetry_space_group_name_H-M   'P 1'
_cell_length_a   5.48075223
_cell_length_b   5.48075293
_cell_length_c   4.64052200
_cell_angle_alpha   63.53989605
_cell_angle_beta   63.53989244
_cell_angle_gamma   63.46600854
_symmetry_Int_Tables_number   1
_chemical_formula_structural   Pa2GaCuTc2
_chemical_formula_sum   'Pa2 Ga1 Cu1 Tc2'
_cell_volume   106.22815975
_cell_formula_units_Z   1
loop_
 _symmetry_equiv_pos_site_id
 _symmetry_equiv_pos_as_xyz
  1  'x, y, z'
loop_
 _atom_site_type_symbol
 _atom_site_label
 _atom_site_symmetry_multiplicity
 _atom_site_fract_x
 _atom_site_fract_y
 _atom_site_fract_z
 _atom_site_occupancy
  Pa  Pa0  1  0.623127  0.623127  0.628698  1
  Pa  Pa1  1  0.376873  0.376873  0.371302  1
  Ga  Ga2  1  0.000000  0.000000  0.500000  1
  Cu  Cu3  1  0.000000  0.000000  0.000000  1
  Tc  Tc4  1  0.000000  0.500000  0.000000  1
  Tc  Tc5  1  0.500000  0.000000  0.000000  1
