# generated using pymatgen
data_Li(HfS2)4
_symmetry_space_group_name_H-M   'P 1'
_cell_length_a   7.31555879
_cell_length_b   7.31555882
_cell_length_c   8.92058330
_cell_angle_alpha   51.65606266
_cell_angle_beta   51.65606361
_cell_angle_gamma   59.19741521
_symmetry_Int_Tables_number   1
_chemical_formula_structural   Li(HfS2)4
_chemical_formula_sum   'Li1 Hf4 S8'
_cell_volume   287.31777970
_cell_formula_units_Z   1
loop_
 _symmetry_equiv_pos_site_id
 _symmetry_equiv_pos_as_xyz
  1  'x, y, z'
loop_
 _atom_site_type_symbol
 _atom_site_label
 _atom_site_symmetry_multiplicity
 _atom_site_fract_x
 _atom_site_fract_y
 _atom_site_fract_z
 _atom_site_occupancy
  Li  Li0  1  0.000000  0.000000  0.000000  1
  Hf  Hf1  1  0.257035  0.257035  0.002330  1
  Hf  Hf2  1  0.742965  0.742965  0.997670  1
  Hf  Hf3  1  0.246985  0.753015  0.500000  1
  Hf  Hf4  1  0.753015  0.246985  0.500000  1
  S  S5  1  0.300889  0.300889  0.671544  1
  S  S6  1  0.799919  0.799919  0.662738  1
  S  S7  1  0.293483  0.805661  0.166133  1
  S  S8  1  0.805661  0.293483  0.166133  1
  S  S9  1  0.194339  0.706517  0.833867  1
  S  S10  1  0.706517  0.194339  0.833867  1
  S  S11  1  0.200081  0.200081  0.337262  1
  S  S12  1  0.699111  0.699111  0.328456  1
