# generated using pymatgen
data_Ta5Si2B4W5
_symmetry_space_group_name_H-M   'P 1'
_cell_length_a   7.17722461
_cell_length_b   7.14683550
_cell_length_c   7.16323750
_cell_angle_alpha   129.12074661
_cell_angle_beta   129.27272683
_cell_angle_gamma   74.67315456
_symmetry_Int_Tables_number   1
_chemical_formula_structural   Ta5Si2B4W5
_chemical_formula_sum   'Ta5 Si2 B4 W5'
_cell_volume   215.02464326
_cell_formula_units_Z   1
loop_
 _symmetry_equiv_pos_site_id
 _symmetry_equiv_pos_as_xyz
  1  'x, y, z'
loop_
 _atom_site_type_symbol
 _atom_site_label
 _atom_site_symmetry_multiplicity
 _atom_site_fract_x
 _atom_site_fract_y
 _atom_site_fract_z
 _atom_site_occupancy
  Ta  Ta0  1  0.803924  0.978018  0.501799  1
  Ta  Ta1  1  0.306422  0.806236  0.828577  1
  Ta  Ta2  1  0.195184  0.027255  0.501718  1
  Ta  Ta3  1  0.527325  0.692919  0.501589  1
  Ta  Ta4  1  0.023607  0.521839  0.827919  1
  Si  Si5  1  0.750815  0.748504  0.000952  1
  Si  Si6  1  0.253123  0.251565  0.006563  1
  B  B7  1  0.374590  0.876570  0.251116  1
  B  B8  1  0.876300  0.620284  0.495840  1
  B  B9  1  0.624939  0.126408  0.751380  1
  B  B10  1  0.122022  0.377106  0.496432  1
  W  W11  1  0.001447  0.000258  0.000867  1
  W  W12  1  0.695851  0.194299  0.165745  1
  W  W13  1  0.971300  0.471209  0.166161  1
  W  W14  1  0.501434  0.501767  0.001275  1
  W  W15  1  0.471715  0.305761  0.502068  1
