# generated using pymatgen
data_Tm3Lu3Al21Si3Os8
_symmetry_space_group_name_H-M   'P 1'
_cell_length_a   8.68298001
_cell_length_b   8.68353240
_cell_length_c   9.60219800
_cell_angle_alpha   90.00050618
_cell_angle_beta   90.00263847
_cell_angle_gamma   119.99259170
_symmetry_Int_Tables_number   1
_chemical_formula_structural   Tm3Lu3Al21Si3Os8
_chemical_formula_sum   'Tm3 Lu3 Al21 Si3 Os8'
_cell_volume   627.04532478
_cell_formula_units_Z   1
loop_
 _symmetry_equiv_pos_site_id
 _symmetry_equiv_pos_as_xyz
  1  'x, y, z'
loop_
 _atom_site_type_symbol
 _atom_site_label
 _atom_site_symmetry_multiplicity
 _atom_site_fract_x
 _atom_site_fract_y
 _atom_site_fract_z
 _atom_site_occupancy
  Tm  Tm0  1  0.393646  0.196932  0.752485  1
  Tm  Tm1  1  0.196318  0.803667  0.247719  1
  Tm  Tm2  1  0.803297  0.196887  0.752486  1
  Lu  Lu3  1  0.196991  0.393822  0.247636  1
  Lu  Lu4  1  0.802536  0.605105  0.752525  1
  Lu  Lu5  1  0.606257  0.803042  0.247639  1
  Al  Al6  1  0.333521  0.666596  0.474812  1
  Al  Al7  1  0.164222  0.328426  0.575059  1
  Al  Al8  1  0.835092  0.670403  0.422607  1
  Al  Al9  1  0.671729  0.835736  0.575104  1
  Al  Al10  1  0.834910  0.670057  0.077406  1
  Al  Al11  1  0.329645  0.164945  0.422473  1
  Al  Al12  1  0.165398  0.330771  0.922179  1
  Al  Al13  1  0.164059  0.835712  0.575249  1
  Al  Al14  1  0.330005  0.165140  0.077586  1
  Al  Al15  1  0.835273  0.164757  0.422414  1
  Al  Al16  1  0.669396  0.834557  0.922129  1
  Al  Al17  1  0.835094  0.164949  0.077631  1
  Al  Al18  1  0.165205  0.834547  0.921978  1
  Al  Al19  1  0.563432  0.126427  0.248872  1
  Al  Al20  1  0.437026  0.873975  0.748802  1
  Al  Al21  1  0.873651  0.436646  0.248875  1
  Al  Al22  1  0.125667  0.563028  0.748800  1
  Al  Al23  1  0.563020  0.437054  0.248893  1
  Al  Al24  1  0.437429  0.563041  0.748783  1
  Al  Al25  1  0.999696  0.000328  0.248955  1
  Al  Al26  1  0.999697  0.999366  0.749425  1
  Si  Si27  1  0.333595  0.666526  0.041145  1
  Si  Si28  1  0.666908  0.333696  0.960773  1
  Si  Si29  1  0.666870  0.333667  0.540601  1
  Os  Os30  1  0.500106  0.000044  0.998826  1
  Os  Os31  1  0.999948  0.499987  0.998747  1
  Os  Os32  1  0.504275  0.008324  0.501392  1
  Os  Os33  1  0.500136  0.500065  0.998808  1
  Os  Os34  1  0.991660  0.495828  0.501472  1
  Os  Os35  1  0.504273  0.495940  0.501404  1
  Os  Os36  1  0.000008  0.000003  0.999065  1
  Os  Os37  1  0.000006  0.000006  0.499246  1
