# generated using pymatgen
data_Zr5In3Ga
_symmetry_space_group_name_H-M   'P 1'
_cell_length_a   8.79852300
_cell_length_b   8.79852324
_cell_length_c   5.89398800
_cell_angle_alpha   90.00000000
_cell_angle_beta   90.00000000
_cell_angle_gamma   119.99999534
_symmetry_Int_Tables_number   1
_chemical_formula_structural   Zr5In3Ga
_chemical_formula_sum   'Zr10 In6 Ga2'
_cell_volume   395.14770014
_cell_formula_units_Z   2
loop_
 _symmetry_equiv_pos_site_id
 _symmetry_equiv_pos_as_xyz
  1  'x, y, z'
loop_
 _atom_site_type_symbol
 _atom_site_label
 _atom_site_symmetry_multiplicity
 _atom_site_fract_x
 _atom_site_fract_y
 _atom_site_fract_z
 _atom_site_occupancy
  Zr  Zr0  1  0.666667  0.333333  0.000000  1
  Zr  Zr1  1  0.333333  0.666667  0.000000  1
  Zr  Zr2  1  0.333333  0.666667  0.500000  1
  Zr  Zr3  1  0.666667  0.333333  0.500000  1
  Zr  Zr4  1  0.736431  0.736431  0.750000  1
  Zr  Zr5  1  0.263569  0.000000  0.750000  1
  Zr  Zr6  1  0.000000  0.263569  0.750000  1
  Zr  Zr7  1  0.263569  0.263569  0.250000  1
  Zr  Zr8  1  0.736431  0.000000  0.250000  1
  Zr  Zr9  1  0.000000  0.736431  0.250000  1
  In  In10  1  0.384878  0.384878  0.750000  1
  In  In11  1  0.615122  0.000000  0.750000  1
  In  In12  1  0.000000  0.615122  0.750000  1
  In  In13  1  0.615122  0.615122  0.250000  1
  In  In14  1  0.384878  0.000000  0.250000  1
  In  In15  1  0.000000  0.384878  0.250000  1
  Ga  Ga16  1  0.000000  0.000000  0.000000  1
  Ga  Ga17  1  0.000000  0.000000  0.500000  1
