# generated using pymatgen
data_SmErGa3Cu7
_symmetry_space_group_name_H-M   'P 1'
_cell_length_a   4.18642300
_cell_length_b   5.08933826
_cell_length_c   8.85497011
_cell_angle_alpha   89.42829549
_cell_angle_beta   90.00000000
_cell_angle_gamma   90.00000000
_symmetry_Int_Tables_number   1
_chemical_formula_structural   SmErGa3Cu7
_chemical_formula_sum   'Sm1 Er1 Ga3 Cu7'
_cell_volume   188.65568821
_cell_formula_units_Z   1
loop_
 _symmetry_equiv_pos_site_id
 _symmetry_equiv_pos_as_xyz
  1  'x, y, z'
loop_
 _atom_site_type_symbol
 _atom_site_label
 _atom_site_symmetry_multiplicity
 _atom_site_fract_x
 _atom_site_fract_y
 _atom_site_fract_z
 _atom_site_occupancy
  Sm  Sm0  1  0.000000  0.751360  0.249590  1
  Er  Er1  1  0.000000  0.249614  0.751242  1
  Ga  Ga2  1  0.500000  0.732754  0.744433  1
  Ga  Ga3  1  0.500000  0.264637  0.255009  1
  Ga  Ga4  1  0.500000  0.001836  0.998771  1
  Cu  Cu5  1  0.000000  0.254604  0.077687  1
  Cu  Cu6  1  0.000000  0.751923  0.585688  1
  Cu  Cu7  1  0.000000  0.747227  0.911350  1
  Cu  Cu8  1  0.000000  0.249290  0.423768  1
  Cu  Cu9  1  0.500000  0.497317  0.501794  1
  Cu  Cu10  1  0.500000  0.498785  0.997947  1
  Cu  Cu11  1  0.500000  0.000653  0.502721  1
