# generated using pymatgen
data_YbY3Ga5Tc3
_symmetry_space_group_name_H-M   'P 1'
_cell_length_a   5.51456932
_cell_length_b   5.55645798
_cell_length_c   8.64823507
_cell_angle_alpha   89.99999706
_cell_angle_beta   90.04914941
_cell_angle_gamma   120.25160242
_symmetry_Int_Tables_number   1
_chemical_formula_structural   YbY3Ga5Tc3
_chemical_formula_sum   'Yb1 Y3 Ga5 Tc3'
_cell_volume   228.90794836
_cell_formula_units_Z   1
loop_
 _symmetry_equiv_pos_site_id
 _symmetry_equiv_pos_as_xyz
  1  'x, y, z'
loop_
 _atom_site_type_symbol
 _atom_site_label
 _atom_site_symmetry_multiplicity
 _atom_site_fract_x
 _atom_site_fract_y
 _atom_site_fract_z
 _atom_site_occupancy
  Yb  Yb0  1  0.331079  0.665540  0.441337  1
  Y  Y1  1  0.664536  0.332267  0.548604  1
  Y  Y2  1  0.661080  0.330539  0.949723  1
  Y  Y3  1  0.330835  0.665417  0.059030  1
  Ga  Ga4  1  0.834393  0.159985  0.250341  1
  Ga  Ga5  1  0.834393  0.674408  0.250341  1
  Ga  Ga6  1  0.324142  0.162071  0.248628  1
  Ga  Ga7  1  0.194036  0.846487  0.749782  1
  Ga  Ga8  1  0.194036  0.347549  0.749782  1
  Tc  Tc9  1  0.973273  0.986637  0.512742  1
  Tc  Tc10  1  0.976388  0.988195  0.988516  1
  Tc  Tc11  1  0.681808  0.840904  0.751174  1
