# generated using pymatgen
data_Ho8Co17Si10Ru
_symmetry_space_group_name_H-M   'P 1'
_cell_length_a   5.19951468
_cell_length_b   5.19951463
_cell_length_c   21.88343304
_cell_angle_alpha   89.90152928
_cell_angle_beta   90.09847146
_cell_angle_gamma   120.49081362
_symmetry_Int_Tables_number   1
_chemical_formula_structural   Ho8Co17Si10Ru
_chemical_formula_sum   'Ho8 Co17 Si10 Ru1'
_cell_volume   509.80209269
_cell_formula_units_Z   1
loop_
 _symmetry_equiv_pos_site_id
 _symmetry_equiv_pos_as_xyz
  1  'x, y, z'
loop_
 _atom_site_type_symbol
 _atom_site_label
 _atom_site_symmetry_multiplicity
 _atom_site_fract_x
 _atom_site_fract_y
 _atom_site_fract_z
 _atom_site_occupancy
  Ho  Ho0  1  0.332454  0.667546  0.529929  1
  Ho  Ho1  1  0.665283  0.334717  0.473851  1
  Ho  Ho2  1  0.666778  0.333222  0.027752  1
  Ho  Ho3  1  0.333519  0.666481  0.971777  1
  Ho  Ho4  1  0.333002  0.666998  0.675290  1
  Ho  Ho5  1  0.667539  0.332461  0.325752  1
  Ho  Ho6  1  0.666945  0.333055  0.174185  1
  Ho  Ho7  1  0.333416  0.666584  0.825876  1
  Co  Co8  1  0.166755  0.333189  0.087243  1
  Co  Co9  1  0.833203  0.667216  0.912099  1
  Co  Co10  1  0.666811  0.833245  0.087243  1
  Co  Co11  1  0.832544  0.667348  0.589309  1
  Co  Co12  1  0.332784  0.166797  0.912099  1
  Co  Co13  1  0.164211  0.331800  0.412560  1
  Co  Co14  1  0.166414  0.833586  0.087442  1
  Co  Co15  1  0.332652  0.167456  0.589309  1
  Co  Co16  1  0.833935  0.166065  0.911487  1
  Co  Co17  1  0.668200  0.835789  0.412560  1
  Co  Co18  1  0.833158  0.166842  0.589564  1
  Co  Co19  1  0.167976  0.334179  0.247874  1
  Co  Co20  1  0.832693  0.665032  0.750386  1
  Co  Co21  1  0.665821  0.832024  0.247874  1
  Co  Co22  1  0.334968  0.167307  0.750386  1
  Co  Co23  1  0.167577  0.832423  0.249712  1
  Co  Co24  1  0.832795  0.167205  0.750612  1
  Si  Si25  1  0.999617  0.000383  0.999718  1
  Si  Si26  1  0.997573  0.002427  0.502398  1
  Si  Si27  1  0.332670  0.667330  0.167029  1
  Si  Si28  1  0.665881  0.334119  0.832180  1
  Si  Si29  1  0.666427  0.333573  0.668866  1
  Si  Si30  1  0.342681  0.657319  0.329157  1
  Si  Si31  1  0.000738  0.999262  0.167749  1
  Si  Si32  1  0.001073  0.998927  0.831220  1
  Si  Si33  1  0.000113  0.999887  0.669683  1
  Si  Si34  1  0.993242  0.006758  0.328695  1
  Ru  Ru35  1  0.168552  0.831448  0.411130  1
