# generated using pymatgen
data_Y2HfZr(NiP)6
_symmetry_space_group_name_H-M   'P 1'
_cell_length_a   3.73916100
_cell_length_b   10.16934201
_cell_length_c   12.31185901
_cell_angle_alpha   89.99567960
_cell_angle_beta   90.00000000
_cell_angle_gamma   90.00000000
_symmetry_Int_Tables_number   1
_chemical_formula_structural   Y2HfZr(NiP)6
_chemical_formula_sum   'Y4 Hf2 Zr2 Ni12 P12'
_cell_volume   468.15606165
_cell_formula_units_Z   2
loop_
 _symmetry_equiv_pos_site_id
 _symmetry_equiv_pos_as_xyz
  1  'x, y, z'
loop_
 _atom_site_type_symbol
 _atom_site_label
 _atom_site_symmetry_multiplicity
 _atom_site_fract_x
 _atom_site_fract_y
 _atom_site_fract_z
 _atom_site_occupancy
  Y  Y0  1  0.250000  0.071588  0.208030  1
  Y  Y1  1  0.750000  0.928412  0.791970  1
  Y  Y2  1  0.750000  0.571342  0.293405  1
  Y  Y3  1  0.250000  0.428658  0.706595  1
  Hf  Hf4  1  0.250000  0.159835  0.497499  1
  Hf  Hf5  1  0.750000  0.840165  0.502501  1
  Zr  Zr6  1  0.750000  0.659462  0.002723  1
  Zr  Zr7  1  0.250000  0.340538  0.997277  1
  Ni  Ni8  1  0.250000  0.728800  0.663408  1
  Ni  Ni9  1  0.750000  0.271200  0.336592  1
  Ni  Ni10  1  0.750000  0.227682  0.834915  1
  Ni  Ni11  1  0.250000  0.772318  0.165085  1
  Ni  Ni12  1  0.250000  0.365516  0.219635  1
  Ni  Ni13  1  0.750000  0.634484  0.780365  1
  Ni  Ni14  1  0.750000  0.866089  0.282528  1
  Ni  Ni15  1  0.250000  0.133911  0.717472  1
  Ni  Ni16  1  0.250000  0.598941  0.483705  1
  Ni  Ni17  1  0.750000  0.401059  0.516295  1
  Ni  Ni18  1  0.750000  0.098287  0.016257  1
  Ni  Ni19  1  0.250000  0.901713  0.983743  1
  P  P20  1  0.250000  0.945114  0.621006  1
  P  P21  1  0.750000  0.054886  0.378994  1
  P  P22  1  0.750000  0.444940  0.875716  1
  P  P23  1  0.250000  0.555060  0.124284  1
  P  P24  1  0.250000  0.393411  0.403168  1
  P  P25  1  0.750000  0.606589  0.596832  1
  P  P26  1  0.750000  0.894442  0.098219  1
  P  P27  1  0.250000  0.105558  0.901781  1
  P  P28  1  0.250000  0.771051  0.355725  1
  P  P29  1  0.750000  0.228949  0.644275  1
  P  P30  1  0.750000  0.270508  0.146294  1
  P  P31  1  0.250000  0.729492  0.853706  1
