# generated using pymatgen
data_LiPm2Os3
_symmetry_space_group_name_H-M   'P 1'
_cell_length_a   5.29239517
_cell_length_b   5.54938502
_cell_length_c   5.29239500
_cell_angle_alpha   61.52044819
_cell_angle_beta   60.00000730
_cell_angle_gamma   61.52044591
_symmetry_Int_Tables_number   1
_chemical_formula_structural   LiPm2Os3
_chemical_formula_sum   'Li1 Pm2 Os3'
_cell_volume   112.36780246
_cell_formula_units_Z   1
loop_
 _symmetry_equiv_pos_site_id
 _symmetry_equiv_pos_as_xyz
  1  'x, y, z'
loop_
 _atom_site_type_symbol
 _atom_site_label
 _atom_site_symmetry_multiplicity
 _atom_site_fract_x
 _atom_site_fract_y
 _atom_site_fract_z
 _atom_site_occupancy
  Li  Li0  1  0.125000  0.625000  0.125000  1
  Pm  Pm1  1  0.744245  0.767265  0.744245  1
  Pm  Pm2  1  0.505755  0.482735  0.505755  1
  Os  Os3  1  0.125000  0.125000  0.125000  1
  Os  Os4  1  0.625000  0.125000  0.125000  1
  Os  Os5  1  0.125000  0.125000  0.625000  1
