# generated using pymatgen
data_Ce3AlAgS7
_symmetry_space_group_name_H-M   'P 1'
_cell_length_a   10.21816609
_cell_length_b   10.22030653
_cell_length_c   5.83142201
_cell_angle_alpha   90.00730119
_cell_angle_beta   89.99888824
_cell_angle_gamma   119.97745946
_symmetry_Int_Tables_number   1
_chemical_formula_structural   Ce3AlAgS7
_chemical_formula_sum   'Ce6 Al2 Ag2 S14'
_cell_volume   527.52200070
_cell_formula_units_Z   2
loop_
 _symmetry_equiv_pos_site_id
 _symmetry_equiv_pos_as_xyz
  1  'x, y, z'
loop_
 _atom_site_type_symbol
 _atom_site_label
 _atom_site_symmetry_multiplicity
 _atom_site_fract_x
 _atom_site_fract_y
 _atom_site_fract_z
 _atom_site_occupancy
  Ce  Ce0  1  0.127718  0.366790  0.257248  1
  Ce  Ce1  1  0.633264  0.761967  0.257056  1
  Ce  Ce2  1  0.239595  0.872678  0.256449  1
  Ce  Ce3  1  0.871959  0.632891  0.756991  1
  Ce  Ce4  1  0.760281  0.127180  0.756759  1
  Ce  Ce5  1  0.367127  0.238535  0.757009  1
  Al  Al6  1  0.666725  0.333261  0.174368  1
  Al  Al7  1  0.333422  0.666875  0.674318  1
  Ag  Ag8  1  0.999562  0.999426  0.305089  1
  Ag  Ag9  1  0.999315  0.999728  0.804766  1
  S  S10  1  0.517074  0.102379  0.017117  1
  S  S11  1  0.585421  0.482861  0.016823  1
  S  S12  1  0.897278  0.414087  0.016815  1
  S  S13  1  0.333842  0.667259  0.054435  1
  S  S14  1  0.270179  0.174708  0.271847  1
  S  S15  1  0.824909  0.095063  0.272231  1
  S  S16  1  0.904358  0.729801  0.272114  1
  S  S17  1  0.414752  0.517451  0.516539  1
  S  S18  1  0.483329  0.897770  0.517105  1
  S  S19  1  0.102961  0.585853  0.516919  1
  S  S20  1  0.666620  0.332905  0.554342  1
  S  S21  1  0.729595  0.825382  0.771681  1
  S  S22  1  0.095445  0.270079  0.771728  1
  S  S23  1  0.175271  0.905073  0.772240  1
