# generated using pymatgen
data_Cs6As3IrBr18
_symmetry_space_group_name_H-M   'P 1'
_cell_length_a   7.83309600
_cell_length_b   7.83309726
_cell_length_c   19.96694900
_cell_angle_alpha   90.00000000
_cell_angle_beta   90.00000000
_cell_angle_gamma   120.00000314
_symmetry_Int_Tables_number   1
_chemical_formula_structural   Cs6As3IrBr18
_chemical_formula_sum   'Cs6 As3 Ir1 Br18'
_cell_volume   1060.98512366
_cell_formula_units_Z   1
loop_
 _symmetry_equiv_pos_site_id
 _symmetry_equiv_pos_as_xyz
  1  'x, y, z'
loop_
 _atom_site_type_symbol
 _atom_site_label
 _atom_site_symmetry_multiplicity
 _atom_site_fract_x
 _atom_site_fract_y
 _atom_site_fract_z
 _atom_site_occupancy
  Cs  Cs0  1  0.000000  0.000000  0.249140  1
  Cs  Cs1  1  0.000000  0.000000  0.735828  1
  Cs  Cs2  1  0.333333  0.666667  0.082734  1
  Cs  Cs3  1  0.666667  0.333333  0.578667  1
  Cs  Cs4  1  0.666667  0.333333  0.933286  1
  Cs  Cs5  1  0.333333  0.666667  0.435603  1
  As  As6  1  0.333333  0.666667  0.843255  1
  As  As7  1  0.666667  0.333333  0.342831  1
  As  As8  1  0.666667  0.333333  0.158638  1
  Ir  Ir9  1  0.333333  0.666667  0.665968  1
  Br  Br10  1  0.505976  0.011952  0.247735  1
  Br  Br11  1  0.485072  0.514928  0.741259  1
  Br  Br12  1  0.029855  0.514928  0.741259  1
  Br  Br13  1  0.988048  0.494024  0.247735  1
  Br  Br14  1  0.505976  0.494024  0.247735  1
  Br  Br15  1  0.485072  0.970145  0.741259  1
  Br  Br16  1  0.825355  0.650710  0.088116  1
  Br  Br17  1  0.182375  0.817625  0.593489  1
  Br  Br18  1  0.635251  0.817625  0.593489  1
  Br  Br19  1  0.349290  0.174645  0.088116  1
  Br  Br20  1  0.825355  0.174645  0.088116  1
  Br  Br21  1  0.175222  0.350444  0.910121  1
  Br  Br22  1  0.175222  0.824778  0.910121  1
  Br  Br23  1  0.182375  0.364749  0.593489  1
  Br  Br24  1  0.649556  0.824778  0.910121  1
  Br  Br25  1  0.351635  0.175818  0.410629  1
  Br  Br26  1  0.824182  0.648365  0.410629  1
  Br  Br27  1  0.824182  0.175818  0.410629  1
