# generated using pymatgen
data_Sb4Pb
_symmetry_space_group_name_H-M   'P 1'
_cell_length_a   12.18108988
_cell_length_b   12.18109160
_cell_length_c   12.18109040
_cell_angle_alpha   164.23298951
_cell_angle_beta   115.22068094
_cell_angle_gamma   67.14001635
_symmetry_Int_Tables_number   1
_chemical_formula_structural   Sb4Pb
_chemical_formula_sum   'Sb12 Pb3'
_cell_volume   442.58820057
_cell_formula_units_Z   3
loop_
 _symmetry_equiv_pos_site_id
 _symmetry_equiv_pos_as_xyz
  1  'x, y, z'
loop_
 _atom_site_type_symbol
 _atom_site_label
 _atom_site_symmetry_multiplicity
 _atom_site_fract_x
 _atom_site_fract_y
 _atom_site_fract_z
 _atom_site_occupancy
  Sb  Sb0  1  0.402632  0.402632  0.000000  1
  Sb  Sb1  1  0.598984  0.598984  0.000000  1
  Sb  Sb2  1  0.868841  0.702195  0.166645  1
  Sb  Sb3  1  0.466054  0.299424  0.166630  1
  Sb  Sb4  1  0.932268  0.599081  0.333187  1
  Sb  Sb5  1  0.735966  0.402477  0.333489  1
  Sb  Sb6  1  0.799350  0.299349  0.500000  1
  Sb  Sb7  1  0.202136  0.702136  0.500000  1
  Sb  Sb8  1  0.068987  0.402477  0.666510  1
  Sb  Sb9  1  0.265894  0.599080  0.666812  1
  Sb  Sb10  1  0.132796  0.299424  0.833369  1
  Sb  Sb11  1  0.535551  0.702195  0.833355  1
  Pb  Pb12  1  0.000654  0.000654  0.000000  1
  Pb  Pb13  1  0.333437  0.000445  0.332992  1
  Pb  Pb14  1  0.667454  0.000445  0.667009  1
