# generated using pymatgen
data_Sc5Cr4P12(Ir2Rh3)3
_symmetry_space_group_name_H-M   'P 1'
_cell_length_a   12.58542434
_cell_length_b   12.52883555
_cell_length_c   3.85113400
_cell_angle_alpha   90.00000000
_cell_angle_beta   90.00000000
_cell_angle_gamma   119.83931491
_symmetry_Int_Tables_number   1
_chemical_formula_structural   Sc5Cr4P12(Ir2Rh3)3
_chemical_formula_sum   'Sc5 Cr4 P12 Ir6 Rh9'
_cell_volume   526.74297902
_cell_formula_units_Z   1
loop_
 _symmetry_equiv_pos_site_id
 _symmetry_equiv_pos_as_xyz
  1  'x, y, z'
loop_
 _atom_site_type_symbol
 _atom_site_label
 _atom_site_symmetry_multiplicity
 _atom_site_fract_x
 _atom_site_fract_y
 _atom_site_fract_z
 _atom_site_occupancy
  Sc  Sc0  1  0.329497  0.663480  0.000000  1
  Sc  Sc1  1  0.664705  0.331445  0.000000  1
  Sc  Sc2  1  0.814947  0.001953  0.500000  1
  Sc  Sc3  1  0.000134  0.813188  0.500000  1
  Sc  Sc4  1  0.187251  0.187474  0.500000  1
  Cr  Cr5  1  0.451671  0.999470  0.000000  1
  Cr  Cr6  1  0.006284  0.452189  0.000000  1
  Cr  Cr7  1  0.549638  0.545323  0.000000  1
  Cr  Cr8  1  0.179768  0.380921  0.000000  1
  P  P9  1  0.175496  0.001414  0.000000  1
  P  P10  1  0.011858  0.185550  0.000000  1
  P  P11  1  0.822594  0.824322  0.000000  1
  P  P12  1  0.171038  0.484284  0.500000  1
  P  P13  1  0.514018  0.681646  0.500000  1
  P  P14  1  0.315918  0.832392  0.500000  1
  P  P15  1  0.686744  0.516141  0.500000  1
  P  P16  1  0.830564  0.314221  0.500000  1
  P  P17  1  0.483110  0.165956  0.500000  1
  P  P18  1  0.633125  0.999390  0.000000  1
  P  P19  1  0.001072  0.638492  0.000000  1
  P  P20  1  0.352366  0.359346  0.000000  1
  Ir  Ir21  1  0.640407  0.129462  0.500000  1
  Ir  Ir22  1  0.494708  0.358116  0.500000  1
  Ir  Ir23  1  0.282292  0.000548  0.500000  1
  Ir  Ir24  1  0.999933  0.284166  0.500000  1
  Ir  Ir25  1  0.716587  0.716871  0.500000  1
  Ir  Ir26  1  0.998433  0.000983  0.000000  1
  Rh  Rh27  1  0.358399  0.485543  0.500000  1
  Rh  Rh28  1  0.508079  0.866764  0.500000  1
  Rh  Rh29  1  0.131112  0.642320  0.500000  1
  Rh  Rh30  1  0.870117  0.509779  0.500000  1
  Rh  Rh31  1  0.624722  0.805645  0.000000  1
  Rh  Rh32  1  0.194926  0.821468  0.000000  1
  Rh  Rh33  1  0.806915  0.626304  0.000000  1
  Rh  Rh34  1  0.819025  0.192808  0.000000  1
  Rh  Rh35  1  0.372546  0.180629  0.000000  1
