# generated using pymatgen
data_Sc12InCo4Os
_symmetry_space_group_name_H-M   'P 1'
_cell_length_a   7.72469338
_cell_length_b   7.72469349
_cell_length_c   7.72469277
_cell_angle_alpha   111.26431718
_cell_angle_beta   111.44171696
_cell_angle_gamma   105.76988926
_symmetry_Int_Tables_number   1
_chemical_formula_structural   Sc12InCo4Os
_chemical_formula_sum   'Sc12 In1 Co4 Os1'
_cell_volume   353.72898574
_cell_formula_units_Z   1
loop_
 _symmetry_equiv_pos_site_id
 _symmetry_equiv_pos_as_xyz
  1  'x, y, z'
loop_
 _atom_site_type_symbol
 _atom_site_label
 _atom_site_symmetry_multiplicity
 _atom_site_fract_x
 _atom_site_fract_y
 _atom_site_fract_z
 _atom_site_occupancy
  Sc  Sc0  1  0.424674  0.226184  0.198490  1
  Sc  Sc1  1  0.575326  0.773816  0.801510  1
  Sc  Sc2  1  0.027693  0.226184  0.801510  1
  Sc  Sc3  1  0.972307  0.773816  0.198490  1
  Sc  Sc4  1  0.311942  0.612239  0.300297  1
  Sc  Sc5  1  0.688058  0.387761  0.699703  1
  Sc  Sc6  1  0.311942  0.011645  0.699703  1
  Sc  Sc7  1  0.688058  0.988355  0.300297  1
  Sc  Sc8  1  0.183805  0.273521  0.457327  1
  Sc  Sc9  1  0.816195  0.726478  0.542673  1
  Sc  Sc10  1  0.183805  0.726478  0.910284  1
  Sc  Sc11  1  0.816195  0.273521  0.089716  1
  In  In12  1  0.500000  0.500000  0.000000  1
  Co  Co13  1  0.368962  0.000000  0.368962  1
  Co  Co14  1  0.631038  0.000000  0.631038  1
  Co  Co15  1  0.117692  0.617692  0.500000  1
  Co  Co16  1  0.882308  0.382308  0.500000  1
  Os  Os17  1  0.000000  0.000000  0.000000  1
