# generated using pymatgen
data_Dy4CBr6
_symmetry_space_group_name_H-M   'P 1'
_cell_length_a   3.88023100
_cell_length_b   13.09567000
_cell_length_c   13.55280200
_cell_angle_alpha   90.00000000
_cell_angle_beta   90.00000000
_cell_angle_gamma   90.00000000
_symmetry_Int_Tables_number   1
_chemical_formula_structural   Dy4CBr6
_chemical_formula_sum   'Dy8 C2 Br12'
_cell_volume   688.67512614
_cell_formula_units_Z   2
loop_
 _symmetry_equiv_pos_site_id
 _symmetry_equiv_pos_as_xyz
  1  'x, y, z'
loop_
 _atom_site_type_symbol
 _atom_site_label
 _atom_site_symmetry_multiplicity
 _atom_site_fract_x
 _atom_site_fract_y
 _atom_site_fract_z
 _atom_site_occupancy
  Dy  Dy0  1  0.000000  0.098796  0.078567  1
  Dy  Dy1  1  0.000000  0.901204  0.921433  1
  Dy  Dy2  1  0.000000  0.598796  0.421433  1
  Dy  Dy3  1  0.000000  0.401204  0.578567  1
  Dy  Dy4  1  0.500000  0.119525  0.859678  1
  Dy  Dy5  1  0.500000  0.880475  0.140322  1
  Dy  Dy6  1  0.500000  0.619525  0.640322  1
  Dy  Dy7  1  0.500000  0.380475  0.359678  1
  C  C8  1  0.500000  0.000000  0.000000  1
  C  C9  1  0.500000  0.500000  0.500000  1
  Br  Br10  1  0.500000  0.269460  0.681272  1
  Br  Br11  1  0.500000  0.730540  0.318728  1
  Br  Br12  1  0.500000  0.769460  0.818728  1
  Br  Br13  1  0.500000  0.230540  0.181272  1
  Br  Br14  1  0.000000  0.260326  0.933011  1
  Br  Br15  1  0.000000  0.739674  0.066989  1
  Br  Br16  1  0.000000  0.481806  0.240199  1
  Br  Br17  1  0.000000  0.518194  0.759801  1
  Br  Br18  1  0.000000  0.981806  0.259801  1
  Br  Br19  1  0.000000  0.018194  0.740199  1
  Br  Br20  1  0.000000  0.239674  0.433011  1
  Br  Br21  1  0.000000  0.760326  0.566989  1
