# generated using pymatgen
data_TiNb9Ge6BH
_symmetry_space_group_name_H-M   'P 1'
_cell_length_a   7.72619800
_cell_length_b   7.72619822
_cell_length_c   5.34011300
_cell_angle_alpha   90.00000000
_cell_angle_beta   90.00000000
_cell_angle_gamma   119.99999905
_symmetry_Int_Tables_number   1
_chemical_formula_structural   TiNb9Ge6BH
_chemical_formula_sum   'Ti1 Nb9 Ge6 B1 H1'
_cell_volume   276.06589835
_cell_formula_units_Z   1
loop_
 _symmetry_equiv_pos_site_id
 _symmetry_equiv_pos_as_xyz
  1  'x, y, z'
loop_
 _atom_site_type_symbol
 _atom_site_label
 _atom_site_symmetry_multiplicity
 _atom_site_fract_x
 _atom_site_fract_y
 _atom_site_fract_z
 _atom_site_occupancy
  Ti  Ti0  1  0.666667  0.333333  0.500000  1
  Nb  Nb1  1  0.333333  0.666667  0.500000  1
  Nb  Nb2  1  0.333333  0.666667  0.000000  1
  Nb  Nb3  1  0.666667  0.333333  0.000000  1
  Nb  Nb4  1  0.757477  0.758419  0.251514  1
  Nb  Nb5  1  0.241581  0.999058  0.251514  1
  Nb  Nb6  1  0.000942  0.242523  0.251514  1
  Nb  Nb7  1  0.241581  0.242523  0.748486  1
  Nb  Nb8  1  0.757477  0.999058  0.748486  1
  Nb  Nb9  1  0.000942  0.758419  0.748486  1
  Ge  Ge10  1  0.400410  0.397379  0.254533  1
  Ge  Ge11  1  0.602621  0.003031  0.254533  1
  Ge  Ge12  1  0.996969  0.599590  0.254533  1
  Ge  Ge13  1  0.602621  0.599590  0.745467  1
  Ge  Ge14  1  0.400410  0.003031  0.745467  1
  Ge  Ge15  1  0.996969  0.397379  0.745467  1
  B  B16  1  0.000000  0.000000  0.000000  1
  H  H17  1  0.000000  0.000000  0.500000  1
