# generated using pymatgen
data_NbB4P2Ru10W3
_symmetry_space_group_name_H-M   'P 1'
_cell_length_a   9.29935371
_cell_length_b   9.29935371
_cell_length_c   2.88038200
_cell_angle_alpha   90.00000000
_cell_angle_beta   90.00000000
_cell_angle_gamma   91.30574811
_symmetry_Int_Tables_number   1
_chemical_formula_structural   NbB4P2Ru10W3
_chemical_formula_sum   'Nb1 B4 P2 Ru10 W3'
_cell_volume   249.02493403
_cell_formula_units_Z   1
loop_
 _symmetry_equiv_pos_site_id
 _symmetry_equiv_pos_as_xyz
  1  'x, y, z'
loop_
 _atom_site_type_symbol
 _atom_site_label
 _atom_site_symmetry_multiplicity
 _atom_site_fract_x
 _atom_site_fract_y
 _atom_site_fract_z
 _atom_site_occupancy
  Nb  Nb0  1  0.676094  0.176094  0.000000  1
  B  B1  1  0.621431  0.873881  0.000000  1
  B  B2  1  0.373881  0.121431  0.000000  1
  B  B3  1  0.135465  0.635465  0.000000  1
  B  B4  1  0.879217  0.379217  0.000000  1
  P  P5  1  0.503722  0.494398  0.000000  1
  P  P6  1  0.994398  0.003722  0.000000  1
  Ru  Ru7  1  0.566395  0.705798  0.500000  1
  Ru  Ru8  1  0.435792  0.286701  0.500000  1
  Ru  Ru9  1  0.051584  0.802664  0.500000  1
  Ru  Ru10  1  0.938519  0.211725  0.500000  1
  Ru  Ru11  1  0.302664  0.551584  0.500000  1
  Ru  Ru12  1  0.711725  0.438519  0.500000  1
  Ru  Ru13  1  0.205798  0.066395  0.500000  1
  Ru  Ru14  1  0.786701  0.935792  0.500000  1
  Ru  Ru15  1  0.493072  0.993072  0.500000  1
  Ru  Ru16  1  0.006219  0.506219  0.500000  1
  W  W17  1  0.823329  0.679973  0.000000  1
  W  W18  1  0.179973  0.323329  0.000000  1
  W  W19  1  0.314019  0.814019  0.000000  1
