# generated using pymatgen
data_Y2BeAlI2
_symmetry_space_group_name_H-M   'P 1'
_cell_length_a   4.12387100
_cell_length_b   4.12387071
_cell_length_c   12.11323300
_cell_angle_alpha   90.00000000
_cell_angle_beta   90.00000000
_cell_angle_gamma   119.99999432
_symmetry_Int_Tables_number   1
_chemical_formula_structural   Y2BeAlI2
_chemical_formula_sum   'Y2 Be1 Al1 I2'
_cell_volume   178.40246056
_cell_formula_units_Z   1
loop_
 _symmetry_equiv_pos_site_id
 _symmetry_equiv_pos_as_xyz
  1  'x, y, z'
loop_
 _atom_site_type_symbol
 _atom_site_label
 _atom_site_symmetry_multiplicity
 _atom_site_fract_x
 _atom_site_fract_y
 _atom_site_fract_z
 _atom_site_occupancy
  Y  Y0  1  0.000000  0.000000  0.838178  1
  Y  Y1  1  0.000000  0.000000  0.163749  1
  Be  Be2  1  0.333333  0.666667  0.992582  1
  Al  Al3  1  0.666667  0.333333  0.004677  1
  I  I4  1  0.666667  0.333333  0.669069  1
  I  I5  1  0.333333  0.666667  0.331746  1
