# generated using pymatgen
data_Lu8ReTc2B24Rh
_symmetry_space_group_name_H-M   'P 1'
_cell_length_a   3.61268900
_cell_length_b   9.04697019
_cell_length_c   11.40701534
_cell_angle_alpha   90.09167625
_cell_angle_beta   90.00000000
_cell_angle_gamma   90.00000000
_symmetry_Int_Tables_number   1
_chemical_formula_structural   Lu8ReTc2B24Rh
_chemical_formula_sum   'Lu8 Re1 Tc2 B24 Rh1'
_cell_volume   372.82515383
_cell_formula_units_Z   1
loop_
 _symmetry_equiv_pos_site_id
 _symmetry_equiv_pos_as_xyz
  1  'x, y, z'
loop_
 _atom_site_type_symbol
 _atom_site_label
 _atom_site_symmetry_multiplicity
 _atom_site_fract_x
 _atom_site_fract_y
 _atom_site_fract_z
 _atom_site_occupancy
  Lu  Lu0  1  0.500000  0.317520  0.415901  1
  Lu  Lu1  1  0.500000  0.679046  0.591708  1
  Lu  Lu2  1  0.500000  0.177349  0.912722  1
  Lu  Lu3  1  0.500000  0.827307  0.080864  1
  Lu  Lu4  1  0.500000  0.440736  0.128487  1
  Lu  Lu5  1  0.500000  0.557082  0.871830  1
  Lu  Lu6  1  0.500000  0.055042  0.629204  1
  Lu  Lu7  1  0.500000  0.944271  0.370182  1
  Re  Re8  1  0.500000  0.362399  0.677767  1
  Tc  Tc9  1  0.500000  0.138769  0.180338  1
  Tc  Tc10  1  0.500000  0.861106  0.820725  1
  B  B11  1  0.000000  0.100961  0.471535  1
  B  B12  1  0.000000  0.896010  0.527883  1
  B  B13  1  0.000000  0.397872  0.972209  1
  B  B14  1  0.000000  0.603165  0.029079  1
  B  B15  1  0.000000  0.130913  0.315914  1
  B  B16  1  0.000000  0.868446  0.684429  1
  B  B17  1  0.000000  0.369271  0.815437  1
  B  B18  1  0.000000  0.631873  0.183034  1
  B  B19  1  0.000000  0.053334  0.066063  1
  B  B20  1  0.000000  0.947257  0.933313  1
  B  B21  1  0.000000  0.446908  0.565562  1
  B  B22  1  0.000000  0.554007  0.434199  1
  B  B23  1  0.000000  0.482181  0.287664  1
  B  B24  1  0.000000  0.519405  0.712497  1
  B  B25  1  0.000000  0.018227  0.787041  1
  B  B26  1  0.000000  0.981754  0.212188  1
  B  B27  1  0.000000  0.250093  0.080390  1
  B  B28  1  0.000000  0.750569  0.919728  1
  B  B29  1  0.000000  0.248962  0.579911  1
  B  B30  1  0.000000  0.750127  0.420971  1
  B  B31  1  0.000000  0.293232  0.235842  1
  B  B32  1  0.000000  0.707095  0.765316  1
  B  B33  1  0.000000  0.206863  0.734789  1
  B  B34  1  0.000000  0.792478  0.264399  1
  Rh  Rh35  1  0.500000  0.638370  0.320879  1
