# generated using pymatgen
data_Er7TmTi6(Nb3Si8)2
_symmetry_space_group_name_H-M   'P 1'
_cell_length_a   7.02850523
_cell_length_b   7.02861639
_cell_length_c   12.92812902
_cell_angle_alpha   90.08486323
_cell_angle_beta   89.98914063
_cell_angle_gamma   90.02121524
_symmetry_Int_Tables_number   1
_chemical_formula_structural   Er7TmTi6(Nb3Si8)2
_chemical_formula_sum   'Er7 Tm1 Ti6 Nb6 Si16'
_cell_volume   638.65744159
_cell_formula_units_Z   1
loop_
 _symmetry_equiv_pos_site_id
 _symmetry_equiv_pos_as_xyz
  1  'x, y, z'
loop_
 _atom_site_type_symbol
 _atom_site_label
 _atom_site_symmetry_multiplicity
 _atom_site_fract_x
 _atom_site_fract_y
 _atom_site_fract_z
 _atom_site_occupancy
  Er  Er0  1  0.498963  0.841771  0.716065  1
  Er  Er1  1  0.501231  0.157337  0.216913  1
  Er  Er2  1  0.840405  0.499592  0.283696  1
  Er  Er3  1  0.158636  0.500832  0.782852  1
  Er  Er4  1  0.657779  0.998477  0.966717  1
  Er  Er5  1  0.000580  0.341309  0.533005  1
  Er  Er6  1  0.999000  0.659927  0.033326  1
  Tm  Tm7  1  0.341933  0.000393  0.466187  1
  Ti  Ti8  1  0.507898  0.347459  0.624453  1
  Ti  Ti9  1  0.652852  0.491341  0.875702  1
  Ti  Ti10  1  0.348549  0.507954  0.376013  1
  Ti  Ti11  1  0.847751  0.991749  0.373938  1
  Ti  Ti12  1  0.008041  0.151632  0.125850  1
  Ti  Ti13  1  0.991738  0.847519  0.626008  1
  Nb  Nb14  1  0.327897  0.327917  0.000318  1
  Nb  Nb15  1  0.172154  0.828062  0.250660  1
  Nb  Nb16  1  0.828386  0.172225  0.749857  1
  Nb  Nb17  1  0.671842  0.671742  0.500038  1
  Nb  Nb18  1  0.151767  0.007708  0.874230  1
  Nb  Nb19  1  0.492208  0.652068  0.123597  1
  Si  Si20  1  0.205676  0.132237  0.681718  1
  Si  Si21  1  0.368817  0.704641  0.931590  1
  Si  Si22  1  0.630728  0.295665  0.433534  1
  Si  Si23  1  0.706247  0.365373  0.067449  1
  Si  Si24  1  0.295886  0.631529  0.566437  1
  Si  Si25  1  0.796546  0.869597  0.183572  1
  Si  Si26  1  0.131386  0.204005  0.317499  1
  Si  Si27  1  0.865543  0.794081  0.816879  1
  Si  Si28  1  0.292796  0.954305  0.064174  1
  Si  Si29  1  0.546687  0.793670  0.314689  1
  Si  Si30  1  0.454282  0.209159  0.812664  1
  Si  Si31  1  0.792874  0.546060  0.686223  1
  Si  Si32  1  0.205635  0.451957  0.187429  1
  Si  Si33  1  0.707854  0.046645  0.563078  1
  Si  Si34  1  0.952616  0.295747  0.936693  1
  Si  Si35  1  0.046823  0.708314  0.436946  1
