# generated using pymatgen
data_YbPr5HoCoI12
_symmetry_space_group_name_H-M   'P 1'
_cell_length_a   9.90215456
_cell_length_b   10.04246375
_cell_length_c   10.01452464
_cell_angle_alpha   106.81992934
_cell_angle_beta   107.09010255
_cell_angle_gamma   107.05002728
_symmetry_Int_Tables_number   1
_chemical_formula_structural   YbPr5HoCoI12
_chemical_formula_sum   'Yb1 Pr5 Ho1 Co1 I12'
_cell_volume   829.66247517
_cell_formula_units_Z   1
loop_
 _symmetry_equiv_pos_site_id
 _symmetry_equiv_pos_as_xyz
  1  'x, y, z'
loop_
 _atom_site_type_symbol
 _atom_site_label
 _atom_site_symmetry_multiplicity
 _atom_site_fract_x
 _atom_site_fract_y
 _atom_site_fract_z
 _atom_site_occupancy
  Yb  Yb0  1  0.500914  0.500311  0.499592  1
  Pr  Pr1  1  0.025376  0.100209  0.305934  1
  Pr  Pr2  1  0.101012  0.303919  0.024939  1
  Pr  Pr3  1  0.290185  0.024566  0.093579  1
  Pr  Pr4  1  0.898918  0.695546  0.975022  1
  Pr  Pr5  1  0.708529  0.974046  0.901461  1
  Ho  Ho6  1  0.974211  0.902474  0.707127  1
  Co  Co7  1  0.999082  0.999562  0.999653  1
  I  I8  1  0.532758  0.614980  0.837653  1
  I  I9  1  0.466957  0.385105  0.161294  1
  I  I10  1  0.308102  0.924877  0.767296  1
  I  I11  1  0.386862  0.160333  0.462856  1
  I  I12  1  0.928495  0.775218  0.326221  1
  I  I13  1  0.677047  0.071604  0.222740  1
  I  I14  1  0.068473  0.212969  0.677569  1
  I  I15  1  0.771020  0.319239  0.925821  1
  I  I16  1  0.228917  0.680763  0.073758  1
  I  I17  1  0.848222  0.548752  0.616726  1
  I  I18  1  0.158780  0.463938  0.383343  1
  I  I19  1  0.626141  0.841589  0.537416  1
