# generated using pymatgen
data_Li6Cu16Si7
_symmetry_space_group_name_H-M   'P 1'
_cell_length_a   8.17522875
_cell_length_b   8.17522904
_cell_length_c   8.17523000
_cell_angle_alpha   60.00000421
_cell_angle_beta   60.00000305
_cell_angle_gamma   60.00000553
_symmetry_Int_Tables_number   1
_chemical_formula_structural   Li6Cu16Si7
_chemical_formula_sum   'Li6 Cu16 Si7'
_cell_volume   386.35351388
_cell_formula_units_Z   1
loop_
 _symmetry_equiv_pos_site_id
 _symmetry_equiv_pos_as_xyz
  1  'x, y, z'
loop_
 _atom_site_type_symbol
 _atom_site_label
 _atom_site_symmetry_multiplicity
 _atom_site_fract_x
 _atom_site_fract_y
 _atom_site_fract_z
 _atom_site_occupancy
  Li  Li0  1  0.286974  0.713026  0.286974  1
  Li  Li1  1  0.286974  0.713026  0.713026  1
  Li  Li2  1  0.713026  0.286974  0.286974  1
  Li  Li3  1  0.713026  0.713026  0.286974  1
  Li  Li4  1  0.286974  0.286974  0.713026  1
  Li  Li5  1  0.713026  0.286974  0.713026  1
  Cu  Cu6  1  0.119426  0.119426  0.119426  1
  Cu  Cu7  1  0.358277  0.880574  0.880574  1
  Cu  Cu8  1  0.880574  0.358277  0.880574  1
  Cu  Cu9  1  0.880574  0.880574  0.358277  1
  Cu  Cu10  1  0.119426  0.641723  0.119426  1
  Cu  Cu11  1  0.119426  0.119426  0.641723  1
  Cu  Cu12  1  0.641723  0.119426  0.119426  1
  Cu  Cu13  1  0.880574  0.880574  0.880574  1
  Cu  Cu14  1  0.332840  0.332840  0.332840  1
  Cu  Cu15  1  0.998519  0.667160  0.667160  1
  Cu  Cu16  1  0.667160  0.998519  0.667160  1
  Cu  Cu17  1  0.667160  0.667160  0.998519  1
  Cu  Cu18  1  0.332840  0.001481  0.332840  1
  Cu  Cu19  1  0.332840  0.332840  0.001481  1
  Cu  Cu20  1  0.001481  0.332840  0.332840  1
  Cu  Cu21  1  0.667160  0.667160  0.667160  1
  Si  Si22  1  0.000000  0.000000  0.000000  1
  Si  Si23  1  0.000000  0.500000  0.000000  1
  Si  Si24  1  0.500000  0.000000  0.000000  1
  Si  Si25  1  0.000000  0.500000  0.500000  1
  Si  Si26  1  0.500000  0.000000  0.500000  1
  Si  Si27  1  0.000000  0.000000  0.500000  1
  Si  Si28  1  0.500000  0.500000  0.000000  1
