# generated using pymatgen
data_Y3TmAl14(Ga2Ir3)2
_symmetry_space_group_name_H-M   'P 1'
_cell_length_a   7.52867003
_cell_length_b   7.53100099
_cell_length_c   9.55037500
_cell_angle_alpha   90.00000000
_cell_angle_beta   90.00000000
_cell_angle_gamma   119.53629133
_symmetry_Int_Tables_number   1
_chemical_formula_structural   Y3TmAl14(Ga2Ir3)2
_chemical_formula_sum   'Y3 Tm1 Al14 Ga4 Ir6'
_cell_volume   471.12095131
_cell_formula_units_Z   1
loop_
 _symmetry_equiv_pos_site_id
 _symmetry_equiv_pos_as_xyz
  1  'x, y, z'
loop_
 _atom_site_type_symbol
 _atom_site_label
 _atom_site_symmetry_multiplicity
 _atom_site_fract_x
 _atom_site_fract_y
 _atom_site_fract_z
 _atom_site_occupancy
  Y  Y0  1  0.997517  0.673258  0.250000  1
  Y  Y1  1  0.002590  0.326723  0.750000  1
  Y  Y2  1  0.669907  0.993623  0.250000  1
  Tm  Tm3  1  0.329863  0.006300  0.750000  1
  Al  Al4  1  0.001519  0.334955  0.073272  1
  Al  Al5  1  0.998918  0.665526  0.926429  1
  Al  Al6  1  0.998918  0.665526  0.573571  1
  Al  Al7  1  0.335391  0.002054  0.427113  1
  Al  Al8  1  0.001519  0.334955  0.426728  1
  Al  Al9  1  0.664110  0.997957  0.573770  1
  Al  Al10  1  0.664110  0.997957  0.926230  1
  Al  Al11  1  0.335391  0.002054  0.072887  1
  Al  Al12  1  0.333878  0.333775  0.555451  1
  Al  Al13  1  0.666170  0.665792  0.445060  1
  Al  Al14  1  0.666170  0.665792  0.054940  1
  Al  Al15  1  0.333878  0.333775  0.944549  1
  Al  Al16  1  0.548733  0.338457  0.250000  1
  Al  Al17  1  0.451198  0.661968  0.750000  1
  Ga  Ga18  1  0.130364  0.130889  0.250000  1
  Ga  Ga19  1  0.870287  0.869192  0.750000  1
  Ga  Ga20  1  0.338160  0.545841  0.250000  1
  Ga  Ga21  1  0.661147  0.453455  0.750000  1
  Ir  Ir22  1  0.670962  0.327920  0.002212  1
  Ir  Ir23  1  0.328763  0.672021  0.997275  1
  Ir  Ir24  1  0.328763  0.672021  0.502725  1
  Ir  Ir25  1  0.670962  0.327920  0.497788  1
  Ir  Ir26  1  0.000407  0.000147  0.999654  1
  Ir  Ir27  1  0.000407  0.000147  0.500346  1
