# generated using pymatgen
data_Tm5Lu5Si5Sb
_symmetry_space_group_name_H-M   'P 1'
_cell_length_a   8.35421570
_cell_length_b   8.37621133
_cell_length_c   6.18741800
_cell_angle_alpha   90.00000000
_cell_angle_beta   90.00000000
_cell_angle_gamma   119.86621535
_symmetry_Int_Tables_number   1
_chemical_formula_structural   Tm5Lu5Si5Sb
_chemical_formula_sum   'Tm5 Lu5 Si5 Sb1'
_cell_volume   375.47177434
_cell_formula_units_Z   1
loop_
 _symmetry_equiv_pos_site_id
 _symmetry_equiv_pos_as_xyz
  1  'x, y, z'
loop_
 _atom_site_type_symbol
 _atom_site_label
 _atom_site_symmetry_multiplicity
 _atom_site_fract_x
 _atom_site_fract_y
 _atom_site_fract_z
 _atom_site_occupancy
  Tm  Tm0  1  0.765677  0.000075  0.750000  1
  Tm  Tm1  1  0.756050  0.756675  0.250000  1
  Tm  Tm2  1  0.999461  0.243144  0.250000  1
  Tm  Tm3  1  0.987607  0.748030  0.750000  1
  Tm  Tm4  1  0.240662  0.000119  0.250000  1
  Lu  Lu5  1  0.674441  0.343024  0.003406  1
  Lu  Lu6  1  0.331430  0.656849  0.496608  1
  Lu  Lu7  1  0.331430  0.656849  0.003392  1
  Lu  Lu8  1  0.674441  0.343024  0.496594  1
  Lu  Lu9  1  0.239535  0.252228  0.750000  1
  Si  Si10  1  0.394380  0.392164  0.250000  1
  Si  Si11  1  0.002215  0.607908  0.250000  1
  Si  Si12  1  0.999269  0.394959  0.750000  1
  Si  Si13  1  0.603481  0.604575  0.750000  1
  Si  Si14  1  0.606354  0.000021  0.250000  1
  Sb  Sb15  1  0.393570  0.000358  0.750000  1
