# generated using pymatgen
data_Tb2Co5CuNiB3
_symmetry_space_group_name_H-M   'P 1'
_cell_length_a   5.04776550
_cell_length_b   5.04482907
_cell_length_c   12.78717100
_cell_angle_alpha   89.99991811
_cell_angle_beta   90.00015561
_cell_angle_gamma   119.80892227
_symmetry_Int_Tables_number   1
_chemical_formula_structural   Tb2Co5CuNiB3
_chemical_formula_sum   'Tb4 Co10 Cu2 Ni2 B6'
_cell_volume   282.54245709
_cell_formula_units_Z   2
loop_
 _symmetry_equiv_pos_site_id
 _symmetry_equiv_pos_as_xyz
  1  'x, y, z'
loop_
 _atom_site_type_symbol
 _atom_site_label
 _atom_site_symmetry_multiplicity
 _atom_site_fract_x
 _atom_site_fract_y
 _atom_site_fract_z
 _atom_site_occupancy
  Tb  Tb0  1  0.999988  0.000000  0.000039  1
  Tb  Tb1  1  0.999992  0.000000  0.500036  1
  Tb  Tb2  1  0.999987  0.999999  0.261517  1
  Tb  Tb3  1  0.999998  0.000000  0.738437  1
  Co  Co4  1  0.499987  0.000000  0.161330  1
  Co  Co5  1  0.999987  0.500000  0.161293  1
  Co  Co6  1  0.499997  0.000000  0.838782  1
  Co  Co7  1  0.999995  0.499999  0.838734  1
  Co  Co8  1  0.499990  0.000001  0.385367  1
  Co  Co9  1  0.499990  0.500000  0.385641  1
  Co  Co10  1  0.999990  0.500000  0.385311  1
  Co  Co11  1  0.499995  0.999999  0.614602  1
  Co  Co12  1  0.499994  0.500001  0.614333  1
  Co  Co13  1  0.999996  0.500001  0.614661  1
  Cu  Cu14  1  0.329863  0.670356  0.999966  1
  Cu  Cu15  1  0.670116  0.329644  0.999966  1
  Ni  Ni16  1  0.499985  0.499999  0.158245  1
  Ni  Ni17  1  0.499997  0.500000  0.841733  1
  B  B18  1  0.333848  0.666026  0.500019  1
  B  B19  1  0.666137  0.333975  0.500019  1
  B  B20  1  0.332014  0.668011  0.269833  1
  B  B21  1  0.667960  0.331990  0.269833  1
  B  B22  1  0.667833  0.331784  0.730149  1
  B  B23  1  0.332158  0.668215  0.730149  1
