# generated using pymatgen
data_Tb2ThCd3Ga2Ag
_symmetry_space_group_name_H-M   'P 1'
_cell_length_a   7.39502699
_cell_length_b   7.36034152
_cell_length_c   4.48274100
_cell_angle_alpha   90.00000000
_cell_angle_beta   90.00000000
_cell_angle_gamma   119.84497283
_symmetry_Int_Tables_number   1
_chemical_formula_structural   Tb2ThCd3Ga2Ag
_chemical_formula_sum   'Tb2 Th1 Cd3 Ga2 Ag1'
_cell_volume   211.63540670
_cell_formula_units_Z   1
loop_
 _symmetry_equiv_pos_site_id
 _symmetry_equiv_pos_as_xyz
  1  'x, y, z'
loop_
 _atom_site_type_symbol
 _atom_site_label
 _atom_site_symmetry_multiplicity
 _atom_site_fract_x
 _atom_site_fract_y
 _atom_site_fract_z
 _atom_site_occupancy
  Tb  Tb0  1  0.419080  0.418683  0.500000  1
  Tb  Tb1  1  0.580920  0.999602  0.500000  1
  Th  Th2  1  0.000000  0.580165  0.500000  1
  Cd  Cd3  1  0.748029  0.750880  0.000000  1
  Cd  Cd4  1  0.251971  0.002851  0.000000  1
  Cd  Cd5  1  0.000000  0.245330  0.000000  1
  Ga  Ga6  1  0.664508  0.331746  0.000000  1
  Ga  Ga7  1  0.335492  0.667239  0.000000  1
  Ag  Ag8  1  0.000000  0.003506  0.500000  1
