# generated using pymatgen
data_La3PrAs7Ir8
_symmetry_space_group_name_H-M   'P 1'
_cell_length_a   4.15922300
_cell_length_b   13.29983115
_cell_length_c   13.72413824
_cell_angle_alpha   81.89022940
_cell_angle_beta   90.00000000
_cell_angle_gamma   90.00000000
_symmetry_Int_Tables_number   1
_chemical_formula_structural   La3PrAs7Ir8
_chemical_formula_sum   'La6 Pr2 As14 Ir16'
_cell_volume   751.58558733
_cell_formula_units_Z   2
loop_
 _symmetry_equiv_pos_site_id
 _symmetry_equiv_pos_as_xyz
  1  'x, y, z'
loop_
 _atom_site_type_symbol
 _atom_site_label
 _atom_site_symmetry_multiplicity
 _atom_site_fract_x
 _atom_site_fract_y
 _atom_site_fract_z
 _atom_site_occupancy
  La  La0  1  0.250000  0.100068  0.791352  1
  La  La1  1  0.750000  0.899932  0.208648  1
  La  La2  1  0.250000  0.286442  0.104260  1
  La  La3  1  0.750000  0.713558  0.895740  1
  La  La4  1  0.250000  0.517665  0.292923  1
  La  La5  1  0.750000  0.482335  0.707077  1
  Pr  Pr6  1  0.250000  0.206978  0.440156  1
  Pr  Pr7  1  0.750000  0.793022  0.559844  1
  As  As8  1  0.250000  0.057649  0.099848  1
  As  As9  1  0.750000  0.942351  0.900152  1
  As  As10  1  0.250000  0.311764  0.687249  1
  As  As11  1  0.750000  0.688236  0.312751  1
  As  As12  1  0.250000  0.607368  0.565656  1
  As  As13  1  0.750000  0.392632  0.434344  1
  As  As14  1  0.250000  0.846695  0.719728  1
  As  As15  1  0.750000  0.153305  0.280272  1
  As  As16  1  0.750000  0.255025  0.918204  1
  As  As17  1  0.250000  0.744975  0.081796  1
  As  As18  1  0.750000  0.094980  0.587342  1
  As  As19  1  0.250000  0.905020  0.412658  1
  As  As20  1  0.750000  0.473504  0.126939  1
  As  As21  1  0.250000  0.526496  0.873061  1
  Ir  Ir22  1  0.250000  0.988937  0.574457  1
  Ir  Ir23  1  0.750000  0.011063  0.425543  1
  Ir  Ir24  1  0.250000  0.663495  0.734257  1
  Ir  Ir25  1  0.750000  0.336505  0.265743  1
  Ir  Ir26  1  0.250000  0.555292  0.046460  1
  Ir  Ir27  1  0.750000  0.444708  0.953540  1
  Ir  Ir28  1  0.250000  0.055319  0.278790  1
  Ir  Ir29  1  0.750000  0.944681  0.721210  1
  Ir  Ir30  1  0.250000  0.425229  0.526009  1
  Ir  Ir31  1  0.750000  0.574771  0.473991  1
  Ir  Ir32  1  0.250000  0.920705  0.996545  1
  Ir  Ir33  1  0.750000  0.079295  0.003455  1
  Ir  Ir34  1  0.250000  0.721785  0.401457  1
  Ir  Ir35  1  0.750000  0.278215  0.598543  1
  Ir  Ir36  1  0.250000  0.341778  0.861463  1
  Ir  Ir37  1  0.750000  0.658222  0.138537  1
