# generated using pymatgen
data_NaHoPa2(Ga3Ir)6
_symmetry_space_group_name_H-M   'P 1'
_cell_length_a   7.62927502
_cell_length_b   7.63255480
_cell_length_c   9.39962200
_cell_angle_alpha   90.00000000
_cell_angle_beta   90.00000000
_cell_angle_gamma   119.94657091
_symmetry_Int_Tables_number   1
_chemical_formula_structural   NaHoPa2(Ga3Ir)6
_chemical_formula_sum   'Na1 Ho1 Pa2 Ga18 Ir6'
_cell_volume   474.27233151
_cell_formula_units_Z   1
loop_
 _symmetry_equiv_pos_site_id
 _symmetry_equiv_pos_as_xyz
  1  'x, y, z'
loop_
 _atom_site_type_symbol
 _atom_site_label
 _atom_site_symmetry_multiplicity
 _atom_site_fract_x
 _atom_site_fract_y
 _atom_site_fract_z
 _atom_site_occupancy
  Na  Na0  1  0.668392  0.995468  0.250000  1
  Ho  Ho1  1  0.332344  0.003849  0.750000  1
  Pa  Pa2  1  0.998823  0.668451  0.250000  1
  Pa  Pa3  1  0.001174  0.331388  0.750000  1
  Ga  Ga4  1  0.127452  0.126053  0.250000  1
  Ga  Ga5  1  0.869118  0.871381  0.750000  1
  Ga  Ga6  1  0.994029  0.325687  0.085006  1
  Ga  Ga7  1  0.000824  0.669699  0.916829  1
  Ga  Ga8  1  0.000824  0.669699  0.583171  1
  Ga  Ga9  1  0.342891  0.002284  0.417798  1
  Ga  Ga10  1  0.994029  0.325687  0.414994  1
  Ga  Ga11  1  0.661761  0.997764  0.576486  1
  Ga  Ga12  1  0.661761  0.997764  0.923514  1
  Ga  Ga13  1  0.342891  0.002284  0.082202  1
  Ga  Ga14  1  0.334745  0.331748  0.566995  1
  Ga  Ga15  1  0.665131  0.672262  0.431355  1
  Ga  Ga16  1  0.665131  0.672262  0.068645  1
  Ga  Ga17  1  0.334745  0.331748  0.933005  1
  Ga  Ga18  1  0.340923  0.548581  0.250000  1
  Ga  Ga19  1  0.659918  0.455283  0.750000  1
  Ga  Ga20  1  0.546971  0.340031  0.250000  1
  Ga  Ga21  1  0.456074  0.662101  0.750000  1
  Ir  Ir22  1  0.676003  0.333884  0.997794  1
  Ir  Ir23  1  0.320489  0.665347  0.998171  1
  Ir  Ir24  1  0.320489  0.665347  0.501829  1
  Ir  Ir25  1  0.676003  0.333884  0.502206  1
  Ir  Ir26  1  0.003532  0.000030  0.997922  1
  Ir  Ir27  1  0.003532  0.000030  0.502078  1
