# generated using pymatgen
data_Tb2Sm2Ho2CoBr10
_symmetry_space_group_name_H-M   'P 1'
_cell_length_a   7.38011433
_cell_length_b   9.20633778
_cell_length_c   9.21246822
_cell_angle_alpha   107.26132446
_cell_angle_beta   96.53597282
_cell_angle_gamma   105.53160333
_symmetry_Int_Tables_number   1
_chemical_formula_structural   Tb2Sm2Ho2CoBr10
_chemical_formula_sum   'Tb2 Sm2 Ho2 Co1 Br10'
_cell_volume   563.06094573
_cell_formula_units_Z   1
loop_
 _symmetry_equiv_pos_site_id
 _symmetry_equiv_pos_as_xyz
  1  'x, y, z'
loop_
 _atom_site_type_symbol
 _atom_site_label
 _atom_site_symmetry_multiplicity
 _atom_site_fract_x
 _atom_site_fract_y
 _atom_site_fract_z
 _atom_site_occupancy
  Tb  Tb0  1  0.354747  0.131747  0.676489  1
  Tb  Tb1  1  0.645253  0.868253  0.323511  1
  Sm  Sm2  1  0.877026  0.951839  0.736124  1
  Sm  Sm3  1  0.122974  0.048161  0.263876  1
  Ho  Ho4  1  0.030572  0.707050  0.408807  1
  Ho  Ho5  1  0.969428  0.292950  0.591193  1
  Co  Co6  1  0.000000  0.000000  0.500000  1
  Br  Br7  1  0.451154  0.820787  0.583132  1
  Br  Br8  1  0.548846  0.179213  0.416868  1
  Br  Br9  1  0.916011  0.624014  0.668981  1
  Br  Br10  1  0.083989  0.375986  0.331019  1
  Br  Br11  1  0.253195  0.084668  0.955727  1
  Br  Br12  1  0.746805  0.915332  0.044273  1
  Br  Br13  1  0.344565  0.449360  0.769653  1
  Br  Br14  1  0.655435  0.550640  0.230347  1
  Br  Br15  1  0.783036  0.257637  0.841933  1
  Br  Br16  1  0.216964  0.742363  0.158067  1
