# generated using pymatgen
data_Pr3Nd(BPd4)4
_symmetry_space_group_name_H-M   'P 1'
_cell_length_a   5.49436100
_cell_length_b   6.17307381
_cell_length_c   11.86095557
_cell_angle_alpha   89.98836898
_cell_angle_beta   90.00000000
_cell_angle_gamma   90.00000000
_symmetry_Int_Tables_number   1
_chemical_formula_structural   Pr3Nd(BPd4)4
_chemical_formula_sum   'Pr3 Nd1 B4 Pd16'
_cell_volume   402.28916051
_cell_formula_units_Z   1
loop_
 _symmetry_equiv_pos_site_id
 _symmetry_equiv_pos_as_xyz
  1  'x, y, z'
loop_
 _atom_site_type_symbol
 _atom_site_label
 _atom_site_symmetry_multiplicity
 _atom_site_fract_x
 _atom_site_fract_y
 _atom_site_fract_z
 _atom_site_occupancy
  Pr  Pr0  1  0.750000  0.304561  0.156676  1
  Pr  Pr1  1  0.750000  0.804785  0.343769  1
  Pr  Pr2  1  0.250000  0.694860  0.842918  1
  Nd  Nd3  1  0.250000  0.195337  0.655871  1
  B  B4  1  0.750000  0.399656  0.551856  1
  B  B5  1  0.750000  0.899637  0.948575  1
  B  B6  1  0.250000  0.600820  0.448188  1
  B  B7  1  0.250000  0.100578  0.051421  1
  Pd  Pd8  1  0.750000  0.381780  0.734733  1
  Pd  Pd9  1  0.750000  0.881367  0.765310  1
  Pd  Pd10  1  0.250000  0.617771  0.265167  1
  Pd  Pd11  1  0.250000  0.118774  0.234742  1
  Pd  Pd12  1  0.750000  0.057926  0.556294  1
  Pd  Pd13  1  0.750000  0.557541  0.944529  1
  Pd  Pd14  1  0.250000  0.942814  0.444456  1
  Pd  Pd15  1  0.250000  0.442332  0.055415  1
  Pd  Pd16  1  0.001463  0.159591  0.910007  1
  Pd  Pd17  1  0.498570  0.659746  0.589611  1
  Pd  Pd18  1  0.501370  0.840348  0.089802  1
  Pd  Pd19  1  0.998647  0.340043  0.410621  1
  Pd  Pd20  1  0.998630  0.840348  0.089802  1
  Pd  Pd21  1  0.501353  0.340043  0.410621  1
  Pd  Pd22  1  0.498537  0.159591  0.910007  1
  Pd  Pd23  1  0.001430  0.659746  0.589611  1
