# generated using pymatgen
data_Ca6Al24Os7Rh
_symmetry_space_group_name_H-M   'P 1'
_cell_length_a   8.85213227
_cell_length_b   8.85213201
_cell_length_c   9.67961856
_cell_angle_alpha   89.77838674
_cell_angle_beta   90.22161495
_cell_angle_gamma   119.84467470
_symmetry_Int_Tables_number   1
_chemical_formula_structural   Ca6Al24Os7Rh
_chemical_formula_sum   'Ca6 Al24 Os7 Rh1'
_cell_volume   657.89703458
_cell_formula_units_Z   1
loop_
 _symmetry_equiv_pos_site_id
 _symmetry_equiv_pos_as_xyz
  1  'x, y, z'
loop_
 _atom_site_type_symbol
 _atom_site_label
 _atom_site_symmetry_multiplicity
 _atom_site_fract_x
 _atom_site_fract_y
 _atom_site_fract_z
 _atom_site_occupancy
  Ca  Ca0  1  0.191433  0.386875  0.250745  1
  Ca  Ca1  1  0.808567  0.613125  0.749255  1
  Ca  Ca2  1  0.613125  0.808567  0.250745  1
  Ca  Ca3  1  0.386875  0.191433  0.749255  1
  Ca  Ca4  1  0.195221  0.804779  0.250170  1
  Ca  Ca5  1  0.804779  0.195221  0.749830  1
  Al  Al6  1  0.332353  0.667647  0.999365  1
  Al  Al7  1  0.667647  0.332353  0.000635  1
  Al  Al8  1  0.667009  0.332991  0.503532  1
  Al  Al9  1  0.332991  0.667009  0.496468  1
  Al  Al10  1  0.163397  0.324376  0.573455  1
  Al  Al11  1  0.836603  0.675624  0.426545  1
  Al  Al12  1  0.675624  0.836603  0.573455  1
  Al  Al13  1  0.840858  0.676818  0.074858  1
  Al  Al14  1  0.324376  0.163397  0.426545  1
  Al  Al15  1  0.159142  0.323182  0.925142  1
  Al  Al16  1  0.162984  0.837016  0.571151  1
  Al  Al17  1  0.323182  0.159142  0.074858  1
  Al  Al18  1  0.837016  0.162984  0.428849  1
  Al  Al19  1  0.676818  0.840858  0.925142  1
  Al  Al20  1  0.837722  0.162278  0.072297  1
  Al  Al21  1  0.162278  0.837722  0.927703  1
  Al  Al22  1  0.559648  0.122085  0.250023  1
  Al  Al23  1  0.440352  0.877915  0.749977  1
  Al  Al24  1  0.877915  0.440352  0.250023  1
  Al  Al25  1  0.122085  0.559648  0.749977  1
  Al  Al26  1  0.561253  0.438747  0.249970  1
  Al  Al27  1  0.438747  0.561253  0.750030  1
  Al  Al28  1  0.000124  0.999876  0.250113  1
  Al  Al29  1  0.999876  0.000124  0.749887  1
  Os  Os30  1  0.500000  0.000000  0.000000  1
  Os  Os31  1  0.000000  0.500000  0.000000  1
  Os  Os32  1  0.500000  0.000000  0.500000  1
  Os  Os33  1  0.000000  0.500000  0.500000  1
  Os  Os34  1  0.500000  0.500000  0.500000  1
  Os  Os35  1  0.000000  0.000000  0.000000  1
  Os  Os36  1  0.000000  0.000000  0.500000  1
  Rh  Rh37  1  0.500000  0.500000  0.000000  1
