# generated using pymatgen
data_Sr5ReSnN7
_symmetry_space_group_name_H-M   'P 1'
_cell_length_a   6.50155233
_cell_length_b   9.38755268
_cell_length_c   9.52733347
_cell_angle_alpha   113.14817398
_cell_angle_beta   99.22089559
_cell_angle_gamma   89.56482252
_symmetry_Int_Tables_number   1
_chemical_formula_structural   Sr5ReSnN7
_chemical_formula_sum   'Sr10 Re2 Sn2 N14'
_cell_volume   526.78012652
_cell_formula_units_Z   2
loop_
 _symmetry_equiv_pos_site_id
 _symmetry_equiv_pos_as_xyz
  1  'x, y, z'
loop_
 _atom_site_type_symbol
 _atom_site_label
 _atom_site_symmetry_multiplicity
 _atom_site_fract_x
 _atom_site_fract_y
 _atom_site_fract_z
 _atom_site_occupancy
  Sr  Sr0  1  0.847312  0.605715  0.352658  1
  Sr  Sr1  1  0.264484  0.977652  0.555542  1
  Sr  Sr2  1  0.704394  0.417959  0.856309  1
  Sr  Sr3  1  0.295606  0.582041  0.143691  1
  Sr  Sr4  1  0.384575  0.783405  0.898773  1
  Sr  Sr5  1  0.615425  0.216595  0.101227  1
  Sr  Sr6  1  0.152688  0.394285  0.647342  1
  Sr  Sr7  1  0.879986  0.846715  0.759915  1
  Sr  Sr8  1  0.120014  0.153285  0.240085  1
  Sr  Sr9  1  0.735516  0.022348  0.444458  1
  Re  Re10  1  0.130316  0.218996  0.913402  1
  Re  Re11  1  0.869684  0.781004  0.086598  1
  Sn  Sn12  1  0.589080  0.351789  0.476559  1
  Sn  Sn13  1  0.410920  0.648211  0.523441  1
  N  N14  1  0.540631  0.549340  0.682339  1
  N  N15  1  0.459369  0.450660  0.317661  1
  N  N16  1  0.132265  0.718286  0.594539  1
  N  N17  1  0.867735  0.281714  0.405461  1
  N  N18  1  0.399150  0.177500  0.477764  1
  N  N19  1  0.600850  0.822500  0.522236  1
  N  N20  1  0.968631  0.155037  0.719790  1
  N  N21  1  0.031369  0.844963  0.280210  1
  N  N22  1  0.234229  0.056414  0.960185  1
  N  N23  1  0.765771  0.943586  0.039815  1
  N  N24  1  0.358275  0.335537  0.916138  1
  N  N25  1  0.974019  0.337540  0.059656  1
  N  N26  1  0.025981  0.662460  0.940344  1
  N  N27  1  0.641725  0.664463  0.083862  1
