# generated using pymatgen
data_V4FeTe4
_symmetry_space_group_name_H-M   'P 1'
_cell_length_a   4.59691600
_cell_length_b   10.41870600
_cell_length_c   18.21435300
_cell_angle_alpha   90.00000000
_cell_angle_beta   90.00000000
_cell_angle_gamma   90.00000000
_symmetry_Int_Tables_number   1
_chemical_formula_structural   V4FeTe4
_chemical_formula_sum   'V16 Fe4 Te16'
_cell_volume   872.35669824
_cell_formula_units_Z   4
loop_
 _symmetry_equiv_pos_site_id
 _symmetry_equiv_pos_as_xyz
  1  'x, y, z'
loop_
 _atom_site_type_symbol
 _atom_site_label
 _atom_site_symmetry_multiplicity
 _atom_site_fract_x
 _atom_site_fract_y
 _atom_site_fract_z
 _atom_site_occupancy
  V  V0  1  0.500000  0.595795  0.605849  1
  V  V1  1  0.500000  0.404205  0.394151  1
  V  V2  1  0.500000  0.095795  0.894151  1
  V  V3  1  0.500000  0.904205  0.105849  1
  V  V4  1  0.000000  0.299627  0.463575  1
  V  V5  1  0.000000  0.700373  0.536425  1
  V  V6  1  0.000000  0.799627  0.036425  1
  V  V7  1  0.000000  0.200373  0.963575  1
  V  V8  1  0.500000  0.313392  0.554914  1
  V  V9  1  0.500000  0.686608  0.445086  1
  V  V10  1  0.500000  0.813392  0.945086  1
  V  V11  1  0.500000  0.186608  0.054914  1
  V  V12  1  0.000000  0.435863  0.613538  1
  V  V13  1  0.000000  0.564137  0.386462  1
  V  V14  1  0.000000  0.935863  0.886462  1
  V  V15  1  0.000000  0.064137  0.113538  1
  Fe  Fe16  1  0.249595  0.500000  0.500000  1
  Fe  Fe17  1  0.750405  0.000000  0.000000  1
  Fe  Fe18  1  0.750405  0.500000  0.500000  1
  Fe  Fe19  1  0.249595  0.000000  0.000000  1
  Te  Te20  1  0.000000  0.665060  0.683525  1
  Te  Te21  1  0.000000  0.334940  0.316475  1
  Te  Te22  1  0.000000  0.165060  0.816475  1
  Te  Te23  1  0.000000  0.834940  0.183525  1
  Te  Te24  1  0.500000  0.390275  0.696953  1
  Te  Te25  1  0.500000  0.609725  0.303047  1
  Te  Te26  1  0.500000  0.890275  0.803047  1
  Te  Te27  1  0.500000  0.109725  0.196953  1
  Te  Te28  1  0.500000  0.154470  0.436596  1
  Te  Te29  1  0.500000  0.845530  0.563404  1
  Te  Te30  1  0.500000  0.654470  0.063404  1
  Te  Te31  1  0.500000  0.345530  0.936596  1
  Te  Te32  1  0.000000  0.322942  0.094885  1
  Te  Te33  1  0.000000  0.677058  0.905115  1
  Te  Te34  1  0.000000  0.822942  0.405115  1
  Te  Te35  1  0.000000  0.177058  0.594885  1
