# generated using pymatgen
data_SrSm6Sn23Ir6
_symmetry_space_group_name_H-M   'P 1'
_cell_length_a   9.93925400
_cell_length_b   9.93925410
_cell_length_c   10.11481100
_cell_angle_alpha   90.00000000
_cell_angle_beta   90.00000000
_cell_angle_gamma   120.00000631
_symmetry_Int_Tables_number   1
_chemical_formula_structural   SrSm6Sn23Ir6
_chemical_formula_sum   'Sr1 Sm6 Sn23 Ir6'
_cell_volume   865.35829143
_cell_formula_units_Z   1
loop_
 _symmetry_equiv_pos_site_id
 _symmetry_equiv_pos_as_xyz
  1  'x, y, z'
loop_
 _atom_site_type_symbol
 _atom_site_label
 _atom_site_symmetry_multiplicity
 _atom_site_fract_x
 _atom_site_fract_y
 _atom_site_fract_z
 _atom_site_occupancy
  Sr  Sr0  1  0.000000  0.000000  0.000000  1
  Sm  Sm1  1  0.481267  0.518733  0.305657  1
  Sm  Sm2  1  0.518733  0.481267  0.694343  1
  Sm  Sm3  1  0.481267  0.962533  0.305657  1
  Sm  Sm4  1  0.518733  0.037467  0.694343  1
  Sm  Sm5  1  0.037467  0.518733  0.305657  1
  Sm  Sm6  1  0.962533  0.481267  0.694343  1
  Sn  Sn7  1  0.352441  0.000000  0.000000  1
  Sn  Sn8  1  0.647559  0.000000  0.000000  1
  Sn  Sn9  1  0.000000  0.352441  0.000000  1
  Sn  Sn10  1  0.000000  0.647559  0.000000  1
  Sn  Sn11  1  0.647559  0.647559  0.000000  1
  Sn  Sn12  1  0.352441  0.352441  0.000000  1
  Sn  Sn13  1  0.333333  0.666667  0.826778  1
  Sn  Sn14  1  0.666667  0.333333  0.173222  1
  Sn  Sn15  1  0.000000  0.000000  0.500000  1
  Sn  Sn16  1  0.777667  0.222333  0.458316  1
  Sn  Sn17  1  0.222333  0.777667  0.541684  1
  Sn  Sn18  1  0.777667  0.555334  0.458316  1
  Sn  Sn19  1  0.222333  0.444666  0.541684  1
  Sn  Sn20  1  0.444666  0.222333  0.458316  1
  Sn  Sn21  1  0.555334  0.777667  0.541684  1
  Sn  Sn22  1  0.333333  0.666667  0.120417  1
  Sn  Sn23  1  0.666667  0.333333  0.879583  1
  Sn  Sn24  1  0.117355  0.882645  0.284679  1
  Sn  Sn25  1  0.882645  0.117355  0.715321  1
  Sn  Sn26  1  0.117355  0.234710  0.284679  1
  Sn  Sn27  1  0.882645  0.765290  0.715321  1
  Sn  Sn28  1  0.765290  0.882645  0.284679  1
  Sn  Sn29  1  0.234710  0.117355  0.715321  1
  Ir  Ir30  1  0.829659  0.170341  0.200825  1
  Ir  Ir31  1  0.170341  0.829659  0.799175  1
  Ir  Ir32  1  0.829659  0.659318  0.200825  1
  Ir  Ir33  1  0.170341  0.340682  0.799175  1
  Ir  Ir34  1  0.340682  0.170341  0.200825  1
  Ir  Ir35  1  0.659318  0.829659  0.799175  1
