# generated using pymatgen
data_Tb2Er3Sc5Bi6
_symmetry_space_group_name_H-M   'P 1'
_cell_length_a   7.98233900
_cell_length_b   9.20878923
_cell_length_c   11.82370390
_cell_angle_alpha   90.08000430
_cell_angle_beta   90.00000000
_cell_angle_gamma   90.00000000
_symmetry_Int_Tables_number   1
_chemical_formula_structural   Tb2Er3Sc5Bi6
_chemical_formula_sum   'Tb4 Er6 Sc10 Bi12'
_cell_volume   869.13216483
_cell_formula_units_Z   2
loop_
 _symmetry_equiv_pos_site_id
 _symmetry_equiv_pos_as_xyz
  1  'x, y, z'
loop_
 _atom_site_type_symbol
 _atom_site_label
 _atom_site_symmetry_multiplicity
 _atom_site_fract_x
 _atom_site_fract_y
 _atom_site_fract_z
 _atom_site_occupancy
  Tb  Tb0  1  0.317292  0.250634  0.218992  1
  Tb  Tb1  1  0.817292  0.249366  0.281008  1
  Tb  Tb2  1  0.683667  0.750394  0.781041  1
  Tb  Tb3  1  0.183667  0.749606  0.718959  1
  Er  Er4  1  0.350467  0.748901  0.218424  1
  Er  Er5  1  0.850467  0.751099  0.281576  1
  Er  Er6  1  0.651186  0.250349  0.780593  1
  Er  Er7  1  0.151186  0.249651  0.719407  1
  Er  Er8  1  0.690793  0.563994  0.059706  1
  Er  Er9  1  0.190793  0.936006  0.440294  1
  Sc  Sc10  1  0.307057  0.067067  0.939955  1
  Sc  Sc11  1  0.807057  0.432933  0.560045  1
  Sc  Sc12  1  0.307709  0.432928  0.940455  1
  Sc  Sc13  1  0.807709  0.067072  0.559545  1
  Sc  Sc14  1  0.692230  0.932954  0.059470  1
  Sc  Sc15  1  0.192230  0.567046  0.440530  1
  Sc  Sc16  1  0.482267  0.250688  0.489598  1
  Sc  Sc17  1  0.982267  0.249312  0.010402  1
  Sc  Sc18  1  0.520042  0.748280  0.511753  1
  Sc  Sc19  1  0.020042  0.751720  0.988247  1
  Bi  Bi20  1  0.398511  0.752910  0.960052  1
  Bi  Bi21  1  0.898511  0.747090  0.539948  1
  Bi  Bi22  1  0.595687  0.242638  0.036987  1
  Bi  Bi23  1  0.095687  0.257362  0.463013  1
  Bi  Bi24  1  0.566147  0.994934  0.331852  1
  Bi  Bi25  1  0.066147  0.505066  0.168148  1
  Bi  Bi26  1  0.436065  0.494234  0.668141  1
  Bi  Bi27  1  0.936065  0.005766  0.831859  1
  Bi  Bi28  1  0.437162  0.005522  0.668455  1
  Bi  Bi29  1  0.937162  0.494478  0.831545  1
  Bi  Bi30  1  0.563720  0.504640  0.333650  1
  Bi  Bi31  1  0.063720  0.995360  0.166350  1
