# generated using pymatgen
data_Be2V12Ga5FeN4
_symmetry_space_group_name_H-M   'P 1'
_cell_length_a   6.50675628
_cell_length_b   6.49644188
_cell_length_c   6.50133471
_cell_angle_alpha   90.15461108
_cell_angle_beta   90.15297839
_cell_angle_gamma   90.05516002
_symmetry_Int_Tables_number   1
_chemical_formula_structural   Be2V12Ga5FeN4
_chemical_formula_sum   'Be2 V12 Ga5 Fe1 N4'
_cell_volume   274.81427566
_cell_formula_units_Z   1
loop_
 _symmetry_equiv_pos_site_id
 _symmetry_equiv_pos_as_xyz
  1  'x, y, z'
loop_
 _atom_site_type_symbol
 _atom_site_label
 _atom_site_symmetry_multiplicity
 _atom_site_fract_x
 _atom_site_fract_y
 _atom_site_fract_z
 _atom_site_occupancy
  Be  Be0  1  0.179200  0.825465  0.321214  1
  Be  Be1  1  0.319040  0.174131  0.822771  1
  V  V2  1  0.792561  0.964421  0.372159  1
  V  V3  1  0.709770  0.044933  0.878497  1
  V  V4  1  0.204393  0.460051  0.126219  1
  V  V5  1  0.292974  0.538000  0.627757  1
  V  V6  1  0.961181  0.370822  0.797900  1
  V  V7  1  0.040615  0.875818  0.705466  1
  V  V8  1  0.461680  0.123692  0.209195  1
  V  V9  1  0.543008  0.623859  0.289271  1
  V  V10  1  0.371107  0.795093  0.962769  1
  V  V11  1  0.876185  0.703584  0.042327  1
  V  V12  1  0.123418  0.209880  0.457007  1
  V  V13  1  0.624996  0.289876  0.537120  1
  Ga  Ga14  1  0.678522  0.679378  0.679915  1
  Ga  Ga15  1  0.563033  0.414788  0.932889  1
  Ga  Ga16  1  0.414150  0.935903  0.570534  1
  Ga  Ga17  1  0.939934  0.575631  0.419830  1
  Ga  Ga18  1  0.077807  0.070150  0.073050  1
  Fe  Fe19  1  0.824947  0.322757  0.176036  1
  N  N20  1  0.876368  0.126937  0.624858  1
  N  N21  1  0.626656  0.874360  0.123187  1
  N  N22  1  0.123567  0.623694  0.876439  1
  N  N23  1  0.374888  0.376777  0.373588  1
