# generated using pymatgen
data_Y4AlRe4Os3
_symmetry_space_group_name_H-M   'P 1'
_cell_length_a   5.38289828
_cell_length_b   5.37275547
_cell_length_c   9.02755800
_cell_angle_alpha   90.00000000
_cell_angle_beta   90.00000000
_cell_angle_gamma   121.18127041
_symmetry_Int_Tables_number   1
_chemical_formula_structural   Y4AlRe4Os3
_chemical_formula_sum   'Y4 Al1 Re4 Os3'
_cell_volume   223.36780835
_cell_formula_units_Z   1
loop_
 _symmetry_equiv_pos_site_id
 _symmetry_equiv_pos_as_xyz
  1  'x, y, z'
loop_
 _atom_site_type_symbol
 _atom_site_label
 _atom_site_symmetry_multiplicity
 _atom_site_fract_x
 _atom_site_fract_y
 _atom_site_fract_z
 _atom_site_occupancy
  Y  Y0  1  0.337802  0.668561  0.438325  1
  Y  Y1  1  0.665360  0.335962  0.559361  1
  Y  Y2  1  0.665360  0.335962  0.940639  1
  Y  Y3  1  0.337802  0.668561  0.061675  1
  Al  Al4  1  0.164837  0.824931  0.750000  1
  Re  Re5  1  0.837118  0.170027  0.250000  1
  Re  Re6  1  0.834048  0.663009  0.250000  1
  Re  Re7  1  0.343110  0.170244  0.250000  1
  Re  Re8  1  0.163858  0.326790  0.750000  1
  Os  Os9  1  0.003578  0.013137  0.504761  1
  Os  Os10  1  0.003578  0.013137  0.995239  1
  Os  Os11  1  0.643547  0.809679  0.750000  1
