# generated using pymatgen
data_ThSnF36
_symmetry_space_group_name_H-M   'P 1'
_cell_length_a   6.20327115
_cell_length_b   10.66908094
_cell_length_c   11.05206009
_cell_angle_alpha   92.06999534
_cell_angle_beta   101.70691092
_cell_angle_gamma   76.06198421
_symmetry_Int_Tables_number   1
_chemical_formula_structural   ThSnF36
_chemical_formula_sum   'Th1 Sn1 F36'
_cell_volume   695.09403710
_cell_formula_units_Z   1
loop_
 _symmetry_equiv_pos_site_id
 _symmetry_equiv_pos_as_xyz
  1  'x, y, z'
loop_
 _atom_site_type_symbol
 _atom_site_label
 _atom_site_symmetry_multiplicity
 _atom_site_fract_x
 _atom_site_fract_y
 _atom_site_fract_z
 _atom_site_occupancy
  Th  Th0  1  0.736403  0.845705  0.880286  1
  Sn  Sn1  1  0.246896  0.172982  0.132288  1
  F  F2  1  0.372166  0.352481  0.900417  1
  F  F3  1  0.627280  0.627523  0.119959  1
  F  F4  1  0.329525  0.285370  0.595190  1
  F  F5  1  0.668251  0.751560  0.423980  1
  F  F6  1  0.854886  0.236194  0.796446  1
  F  F7  1  0.163731  0.761660  0.199691  1
  F  F8  1  0.675953  0.841751  0.060676  1
  F  F9  1  0.319480  0.134798  0.969012  1
  F  F10  1  0.775616  0.620223  0.869075  1
  F  F11  1  0.288600  0.352785  0.122893  1
  F  F12  1  0.410252  0.462947  0.847830  1
  F  F13  1  0.582571  0.505721  0.141540  1
  F  F14  1  0.724052  0.711689  0.707447  1
  F  F15  1  0.225858  0.239308  0.301741  1
  F  F16  1  0.746529  0.969884  0.553860  1
  F  F17  1  0.242729  0.015064  0.464477  1
  F  F18  1  0.290421  0.185467  0.664328  1
  F  F19  1  0.685477  0.816274  0.316856  1
  F  F20  1  0.811002  0.087864  0.588132  1
  F  F21  1  0.155173  0.913848  0.401575  1
  F  F22  1  0.822010  0.020518  0.854847  1
  F  F23  1  0.199925  0.004672  0.164574  1
  F  F24  1  0.871354  0.366578  0.785802  1
  F  F25  1  0.124246  0.635322  0.200518  1
  F  F26  1  0.143656  0.760951  0.913494  1
  F  F27  1  0.902184  0.252351  0.066963  1
  F  F28  1  0.380828  0.944387  0.751041  1
  F  F29  1  0.599935  0.096492  0.212571  1
  F  F30  1  0.138546  0.741777  0.577134  1
  F  F31  1  0.871372  0.256546  0.423326  1
  F  F32  1  0.182844  0.626737  0.649054  1
  F  F33  1  0.789385  0.371757  0.350890  1
  F  F34  1  0.265486  0.851428  0.832944  1
  F  F35  1  0.748151  0.172143  0.141608  1
  F  F36  1  0.545476  0.452348  0.553081  1
  F  F37  1  0.481749  0.554896  0.464459  1
