# generated using pymatgen
data_Tm3LuOs7W
_symmetry_space_group_name_H-M   'P 1'
_cell_length_a   5.44527304
_cell_length_b   5.25645842
_cell_length_c   8.82096900
_cell_angle_alpha   89.99902892
_cell_angle_beta   90.00011100
_cell_angle_gamma   121.18089487
_symmetry_Int_Tables_number   1
_chemical_formula_structural   Tm3LuOs7W
_chemical_formula_sum   'Tm3 Lu1 Os7 W1'
_cell_volume   216.00706727
_cell_formula_units_Z   1
loop_
 _symmetry_equiv_pos_site_id
 _symmetry_equiv_pos_as_xyz
  1  'x, y, z'
loop_
 _atom_site_type_symbol
 _atom_site_label
 _atom_site_symmetry_multiplicity
 _atom_site_fract_x
 _atom_site_fract_y
 _atom_site_fract_z
 _atom_site_occupancy
  Tm  Tm0  1  0.333726  0.667441  0.433487  1
  Tm  Tm1  1  0.671259  0.342486  0.562983  1
  Tm  Tm2  1  0.671250  0.342470  0.937148  1
  Lu  Lu3  1  0.333621  0.667220  0.066444  1
  Os  Os4  1  0.174170  0.824622  0.750322  1
  Os  Os5  1  0.338887  0.165639  0.249579  1
  Os  Os6  1  0.823057  0.646106  0.249626  1
  Os  Os7  1  0.650396  0.824652  0.750320  1
  Os  Os8  1  0.006657  0.013363  0.002972  1
  Os  Os9  1  0.826753  0.165620  0.249578  1
  Os  Os10  1  0.006525  0.013098  0.497204  1
  W  W11  1  0.163698  0.327286  0.750337  1
