# generated using pymatgen
data_Dy13Er(Tm3Sn8)2
_symmetry_space_group_name_H-M   'P 1'
_cell_length_a   8.00070718
_cell_length_b   8.14305106
_cell_length_c   15.40312905
_cell_angle_alpha   90.00742031
_cell_angle_beta   89.98997704
_cell_angle_gamma   90.03039679
_symmetry_Int_Tables_number   1
_chemical_formula_structural   Dy13Er(Tm3Sn8)2
_chemical_formula_sum   'Dy13 Er1 Tm6 Sn16'
_cell_volume   1003.51626607
_cell_formula_units_Z   1
loop_
 _symmetry_equiv_pos_site_id
 _symmetry_equiv_pos_as_xyz
  1  'x, y, z'
loop_
 _atom_site_type_symbol
 _atom_site_label
 _atom_site_symmetry_multiplicity
 _atom_site_fract_x
 _atom_site_fract_y
 _atom_site_fract_z
 _atom_site_occupancy
  Dy  Dy0  1  0.132512  0.336262  0.121938  1
  Dy  Dy1  1  0.632162  0.163817  0.122288  1
  Dy  Dy2  1  0.131986  0.336251  0.377967  1
  Dy  Dy3  1  0.368011  0.836308  0.622169  1
  Dy  Dy4  1  0.868083  0.663656  0.877862  1
  Dy  Dy5  1  0.521038  0.320429  0.902520  1
  Dy  Dy6  1  0.021361  0.179711  0.597547  1
  Dy  Dy7  1  0.478823  0.679893  0.402648  1
  Dy  Dy8  1  0.978699  0.820458  0.097510  1
  Dy  Dy9  1  0.479029  0.679605  0.097236  1
  Dy  Dy10  1  0.978765  0.820565  0.402939  1
  Dy  Dy11  1  0.521226  0.320571  0.597273  1
  Dy  Dy12  1  0.021090  0.179179  0.902245  1
  Er  Er13  1  0.367477  0.836738  0.877184  1
  Tm  Tm14  1  0.867216  0.663419  0.622333  1
  Tm  Tm15  1  0.632618  0.163323  0.377920  1
  Tm  Tm16  1  0.198503  0.503226  0.750064  1
  Tm  Tm17  1  0.698705  0.996751  0.749670  1
  Tm  Tm18  1  0.801214  0.496924  0.250510  1
  Tm  Tm19  1  0.301749  0.002979  0.250053  1
  Sn  Sn20  1  0.292685  0.034802  0.041437  1
  Sn  Sn21  1  0.791838  0.463994  0.458541  1
  Sn  Sn22  1  0.708239  0.963901  0.541616  1
  Sn  Sn23  1  0.208326  0.536574  0.957627  1
  Sn  Sn24  1  0.705960  0.964267  0.957567  1
  Sn  Sn25  1  0.205658  0.535763  0.542525  1
  Sn  Sn26  1  0.294277  0.035807  0.457642  1
  Sn  Sn27  1  0.792476  0.464703  0.042284  1
  Sn  Sn28  1  0.565029  0.619539  0.749808  1
  Sn  Sn29  1  0.064558  0.880279  0.749809  1
  Sn  Sn30  1  0.435761  0.380559  0.250531  1
  Sn  Sn31  1  0.934661  0.118700  0.250473  1
  Sn  Sn32  1  0.329990  0.148093  0.750131  1
  Sn  Sn33  1  0.830017  0.352337  0.749735  1
  Sn  Sn34  1  0.670084  0.852348  0.250285  1
  Sn  Sn35  1  0.170175  0.648274  0.250112  1
