# generated using pymatgen
data_Tb3SmAl5Tc3
_symmetry_space_group_name_H-M   'P 1'
_cell_length_a   5.54953535
_cell_length_b   5.61394198
_cell_length_c   8.82060450
_cell_angle_alpha   90.00000084
_cell_angle_beta   90.03313844
_cell_angle_gamma   120.38466411
_symmetry_Int_Tables_number   1
_chemical_formula_structural   Tb3SmAl5Tc3
_chemical_formula_sum   'Tb3 Sm1 Al5 Tc3'
_cell_volume   237.05927937
_cell_formula_units_Z   1
loop_
 _symmetry_equiv_pos_site_id
 _symmetry_equiv_pos_as_xyz
  1  'x, y, z'
loop_
 _atom_site_type_symbol
 _atom_site_label
 _atom_site_symmetry_multiplicity
 _atom_site_fract_x
 _atom_site_fract_y
 _atom_site_fract_z
 _atom_site_occupancy
  Tb  Tb0  1  0.663636  0.331817  0.556220  1
  Tb  Tb1  1  0.664011  0.332004  0.943636  1
  Tb  Tb2  1  0.338343  0.669172  0.055857  1
  Sm  Sm3  1  0.336857  0.668429  0.443447  1
  Al  Al4  1  0.839208  0.161556  0.249089  1
  Al  Al5  1  0.839208  0.677652  0.249089  1
  Al  Al6  1  0.321490  0.160745  0.249406  1
  Al  Al7  1  0.181886  0.842649  0.751057  1
  Al  Al8  1  0.181886  0.339237  0.751057  1
  Tc  Tc9  1  0.978011  0.989006  0.510180  1
  Tc  Tc10  1  0.976968  0.988484  0.990256  1
  Tc  Tc11  1  0.678496  0.839248  0.750703  1
