# generated using pymatgen
data_Pr7Nd2Ho11Sn16
_symmetry_space_group_name_H-M   'P 1'
_cell_length_a   8.09331488
_cell_length_b   8.30412502
_cell_length_c   15.59262200
_cell_angle_alpha   90.20035323
_cell_angle_beta   90.08487491
_cell_angle_gamma   90.19501252
_symmetry_Int_Tables_number   1
_chemical_formula_structural   Pr7Nd2Ho11Sn16
_chemical_formula_sum   'Pr7 Nd2 Ho11 Sn16'
_cell_volume   1047.93371240
_cell_formula_units_Z   1
loop_
 _symmetry_equiv_pos_site_id
 _symmetry_equiv_pos_as_xyz
  1  'x, y, z'
loop_
 _atom_site_type_symbol
 _atom_site_label
 _atom_site_symmetry_multiplicity
 _atom_site_fract_x
 _atom_site_fract_y
 _atom_site_fract_z
 _atom_site_occupancy
  Pr  Pr0  1  0.006420  0.175767  0.594707  1
  Pr  Pr1  1  0.494423  0.676116  0.404440  1
  Pr  Pr2  1  0.994596  0.822087  0.097714  1
  Pr  Pr3  1  0.493828  0.674164  0.097280  1
  Pr  Pr4  1  0.993672  0.824622  0.403457  1
  Pr  Pr5  1  0.504710  0.322508  0.594945  1
  Pr  Pr6  1  0.005167  0.178159  0.903979  1
  Nd  Nd7  1  0.846505  0.666263  0.878362  1
  Nd  Nd8  1  0.507014  0.324070  0.902575  1
  Ho  Ho9  1  0.344622  0.834472  0.873612  1
  Ho  Ho10  1  0.845072  0.665701  0.624322  1
  Ho  Ho11  1  0.655204  0.163989  0.375364  1
  Ho  Ho12  1  0.153991  0.335841  0.124941  1
  Ho  Ho13  1  0.653558  0.163987  0.127936  1
  Ho  Ho14  1  0.155244  0.334419  0.375031  1
  Ho  Ho15  1  0.345044  0.836828  0.622869  1
  Ho  Ho16  1  0.178770  0.500615  0.750183  1
  Ho  Ho17  1  0.678039  0.000371  0.748544  1
  Ho  Ho18  1  0.821279  0.499033  0.250811  1
  Ho  Ho19  1  0.321143  0.000117  0.250055  1
  Sn  Sn20  1  0.318733  0.041594  0.041376  1
  Sn  Sn21  1  0.819697  0.458499  0.458289  1
  Sn  Sn22  1  0.684343  0.957697  0.540941  1
  Sn  Sn23  1  0.194178  0.539892  0.959186  1
  Sn  Sn24  1  0.674720  0.965388  0.959455  1
  Sn  Sn25  1  0.179979  0.541665  0.541311  1
  Sn  Sn26  1  0.316835  0.041789  0.457105  1
  Sn  Sn27  1  0.814159  0.453496  0.045092  1
  Sn  Sn28  1  0.540934  0.624161  0.746341  1
  Sn  Sn29  1  0.044606  0.879510  0.748531  1
  Sn  Sn30  1  0.456680  0.376062  0.251847  1
  Sn  Sn31  1  0.958134  0.123566  0.250099  1
  Sn  Sn32  1  0.312793  0.144926  0.749218  1
  Sn  Sn33  1  0.812065  0.354286  0.748130  1
  Sn  Sn34  1  0.686839  0.854684  0.251232  1
  Sn  Sn35  1  0.187001  0.643657  0.250720  1
