# generated using pymatgen
data_Dy3Er7Si5Sn
_symmetry_space_group_name_H-M   'P 1'
_cell_length_a   8.46256900
_cell_length_b   8.48993361
_cell_length_c   6.33581400
_cell_angle_alpha   90.00000000
_cell_angle_beta   90.00000000
_cell_angle_gamma   119.89343121
_symmetry_Int_Tables_number   1
_chemical_formula_structural   Dy3Er7Si5Sn
_chemical_formula_sum   'Dy3 Er7 Si5 Sn1'
_cell_volume   394.64348493
_cell_formula_units_Z   1
loop_
 _symmetry_equiv_pos_site_id
 _symmetry_equiv_pos_as_xyz
  1  'x, y, z'
loop_
 _atom_site_type_symbol
 _atom_site_label
 _atom_site_symmetry_multiplicity
 _atom_site_fract_x
 _atom_site_fract_y
 _atom_site_fract_z
 _atom_site_occupancy
  Dy  Dy0  1  0.998298  0.242147  0.250000  1
  Dy  Dy1  1  0.756151  0.757853  0.250000  1
  Dy  Dy2  1  0.241041  0.000000  0.250000  1
  Er  Er3  1  0.989709  0.749287  0.750000  1
  Er  Er4  1  0.765872  0.000000  0.750000  1
  Er  Er5  1  0.240423  0.250713  0.750000  1
  Er  Er6  1  0.331289  0.657453  0.497090  1
  Er  Er7  1  0.673837  0.342547  0.002910  1
  Er  Er8  1  0.673837  0.342547  0.497090  1
  Er  Er9  1  0.331289  0.657453  0.002910  1
  Si  Si10  1  0.393564  0.392118  0.250000  1
  Si  Si11  1  0.001446  0.607882  0.250000  1
  Si  Si12  1  0.998598  0.394219  0.750000  1
  Si  Si13  1  0.604379  0.605781  0.750000  1
  Si  Si14  1  0.604832  0.000000  0.250000  1
  Sn  Sn15  1  0.395437  0.000000  0.750000  1
