# generated using pymatgen
data_SrCaLaSbO6
_symmetry_space_group_name_H-M   'P 1'
_cell_length_a   8.32990424
_cell_length_b   8.35327315
_cell_length_c   8.35322604
_cell_angle_alpha   88.31624219
_cell_angle_beta   89.87294347
_cell_angle_gamma   90.12745528
_symmetry_Int_Tables_number   1
_chemical_formula_structural   SrCaLaSbO6
_chemical_formula_sum   'Sr4 Ca4 La4 Sb4 O24'
_cell_volume   580.97997311
_cell_formula_units_Z   4
loop_
 _symmetry_equiv_pos_site_id
 _symmetry_equiv_pos_as_xyz
  1  'x, y, z'
loop_
 _atom_site_type_symbol
 _atom_site_label
 _atom_site_symmetry_multiplicity
 _atom_site_fract_x
 _atom_site_fract_y
 _atom_site_fract_z
 _atom_site_occupancy
  Sr  Sr0  1  0.248279  0.025948  0.015911  1
  Sr  Sr1  1  0.248278  0.525948  0.515911  1
  Sr  Sr2  1  0.748280  0.484086  0.974056  1
  Sr  Sr3  1  0.748280  0.984087  0.474055  1
  Ca  Ca4  1  0.499129  0.246345  0.247347  1
  Ca  Ca5  1  0.999131  0.752653  0.253656  1
  Ca  Ca6  1  0.499128  0.746344  0.747347  1
  Ca  Ca7  1  0.999130  0.252652  0.753655  1
  La  La8  1  0.247120  0.519096  0.034872  1
  La  La9  1  0.247121  0.019096  0.534872  1
  La  La10  1  0.747118  0.965131  0.980906  1
  La  La11  1  0.747119  0.465135  0.480906  1
  Sb  Sb12  1  0.499818  0.250396  0.750834  1
  Sb  Sb13  1  0.499819  0.750397  0.250834  1
  Sb  Sb14  1  0.999819  0.749164  0.749603  1
  Sb  Sb15  1  0.999819  0.249164  0.249603  1
  O  O16  1  0.768592  0.317570  0.227049  1
  O  O17  1  0.768593  0.817570  0.727050  1
  O  O18  1  0.268595  0.772952  0.182427  1
  O  O19  1  0.268595  0.272952  0.682427  1
  O  O20  1  0.058351  0.480745  0.288561  1
  O  O21  1  0.058351  0.980745  0.788562  1
  O  O22  1  0.558348  0.711438  0.019250  1
  O  O23  1  0.558347  0.211438  0.519250  1
  O  O24  1  0.453987  0.515974  0.290383  1
  O  O25  1  0.453987  0.015973  0.790381  1
  O  O26  1  0.953989  0.709617  0.984031  1
  O  O27  1  0.953988  0.209617  0.484031  1
  O  O28  1  0.053922  0.300611  0.018119  1
  O  O29  1  0.053923  0.800611  0.518118  1
  O  O30  1  0.553922  0.481876  0.699387  1
  O  O31  1  0.553922  0.981876  0.199388  1
  O  O32  1  0.441256  0.307479  0.978290  1
  O  O33  1  0.441257  0.807479  0.478291  1
  O  O34  1  0.941252  0.521715  0.692522  1
  O  O35  1  0.941251  0.021714  0.192522  1
  O  O36  1  0.729546  0.211759  0.824554  1
  O  O37  1  0.729547  0.711760  0.324554  1
  O  O38  1  0.229546  0.675443  0.788243  1
  O  O39  1  0.229546  0.175443  0.288243  1
