# generated using pymatgen
data_Nb8AlCoTe8
_symmetry_space_group_name_H-M   'P 1'
_cell_length_a   4.91440100
_cell_length_b   11.28279300
_cell_length_c   19.94971400
_cell_angle_alpha   90.00000000
_cell_angle_beta   90.00000000
_cell_angle_gamma   90.00000000
_symmetry_Int_Tables_number   1
_chemical_formula_structural   Nb8AlCoTe8
_chemical_formula_sum   'Nb16 Al2 Co2 Te16'
_cell_volume   1106.17511740
_cell_formula_units_Z   2
loop_
 _symmetry_equiv_pos_site_id
 _symmetry_equiv_pos_as_xyz
  1  'x, y, z'
loop_
 _atom_site_type_symbol
 _atom_site_label
 _atom_site_symmetry_multiplicity
 _atom_site_fract_x
 _atom_site_fract_y
 _atom_site_fract_z
 _atom_site_occupancy
  Nb  Nb0  1  0.501180  0.563317  0.387124  1
  Nb  Nb1  1  0.501180  0.436683  0.612876  1
  Nb  Nb2  1  0.498820  0.063317  0.112876  1
  Nb  Nb3  1  0.498820  0.936683  0.887124  1
  Nb  Nb4  1  0.501388  0.699950  0.535572  1
  Nb  Nb5  1  0.501388  0.300050  0.464428  1
  Nb  Nb6  1  0.498612  0.199950  0.964428  1
  Nb  Nb7  1  0.498612  0.800050  0.035572  1
  Nb  Nb8  1  0.998905  0.686022  0.445261  1
  Nb  Nb9  1  0.998905  0.313978  0.554739  1
  Nb  Nb10  1  0.001095  0.186022  0.054739  1
  Nb  Nb11  1  0.001095  0.813978  0.945261  1
  Nb  Nb12  1  0.999679  0.403577  0.394990  1
  Nb  Nb13  1  0.999679  0.596423  0.605010  1
  Nb  Nb14  1  0.000321  0.903577  0.105010  1
  Nb  Nb15  1  0.000321  0.096423  0.894990  1
  Al  Al16  1  0.750330  0.500000  0.500000  1
  Al  Al17  1  0.249670  0.000000  0.000000  1
  Co  Co18  1  0.250326  0.500000  0.500000  1
  Co  Co19  1  0.749674  0.000000  0.000000  1
  Te  Te20  1  0.007588  0.835498  0.559921  1
  Te  Te21  1  0.007588  0.164502  0.440079  1
  Te  Te22  1  0.992412  0.335498  0.940079  1
  Te  Te23  1  0.992412  0.664502  0.059921  1
  Te  Te24  1  0.492768  0.337878  0.323708  1
  Te  Te25  1  0.492768  0.662122  0.676292  1
  Te  Te26  1  0.507232  0.837878  0.176292  1
  Te  Te27  1  0.507232  0.162122  0.823708  1
  Te  Te28  1  0.492611  0.812498  0.408166  1
  Te  Te29  1  0.492611  0.187502  0.591834  1
  Te  Te30  1  0.507389  0.312498  0.091834  1
  Te  Te31  1  0.507389  0.687502  0.908166  1
  Te  Te32  1  0.007774  0.606127  0.310322  1
  Te  Te33  1  0.007774  0.393873  0.689678  1
  Te  Te34  1  0.992226  0.106127  0.189678  1
  Te  Te35  1  0.992226  0.893873  0.810322  1
