# generated using pymatgen
data_La8SnHg3Au8
_symmetry_space_group_name_H-M   'P 1'
_cell_length_a   8.30963600
_cell_length_b   8.30963600
_cell_length_c   7.83860200
_cell_angle_alpha   90.00000000
_cell_angle_beta   90.00000000
_cell_angle_gamma   90.00000000
_symmetry_Int_Tables_number   1
_chemical_formula_structural   La8SnHg3Au8
_chemical_formula_sum   'La8 Sn1 Hg3 Au8'
_cell_volume   541.25586358
_cell_formula_units_Z   1
loop_
 _symmetry_equiv_pos_site_id
 _symmetry_equiv_pos_as_xyz
  1  'x, y, z'
loop_
 _atom_site_type_symbol
 _atom_site_label
 _atom_site_symmetry_multiplicity
 _atom_site_fract_x
 _atom_site_fract_y
 _atom_site_fract_z
 _atom_site_occupancy
  La  La0  1  0.182492  0.180389  0.001090  1
  La  La1  1  0.319611  0.682492  0.498910  1
  La  La2  1  0.680389  0.317508  0.498910  1
  La  La3  1  0.817508  0.819611  0.001090  1
  La  La4  1  0.330762  0.673676  0.000180  1
  La  La5  1  0.669238  0.326324  0.000180  1
  La  La6  1  0.826324  0.830762  0.499820  1
  La  La7  1  0.173676  0.169238  0.499820  1
  Sn  Sn8  1  0.500000  0.000000  0.750000  1
  Hg  Hg9  1  0.000000  0.500000  0.750000  1
  Hg  Hg10  1  0.500000  0.000000  0.250000  1
  Hg  Hg11  1  0.000000  0.500000  0.250000  1
  Au  Au12  1  0.121547  0.874697  0.759889  1
  Au  Au13  1  0.878861  0.125873  0.239788  1
  Au  Au14  1  0.374127  0.378861  0.260212  1
  Au  Au15  1  0.625303  0.621547  0.740111  1
  Au  Au16  1  0.625873  0.621139  0.260212  1
  Au  Au17  1  0.878453  0.125303  0.759889  1
  Au  Au18  1  0.374697  0.378453  0.740111  1
  Au  Au19  1  0.121139  0.874127  0.239788  1
