# generated using pymatgen
data_Tb7Y5Ho8(CoSb2)4
_symmetry_space_group_name_H-M   'P 1'
_cell_length_a   7.89762228
_cell_length_b   8.76057900
_cell_length_c   12.23888843
_cell_angle_alpha   90.00000000
_cell_angle_beta   89.96965970
_cell_angle_gamma   90.00000000
_symmetry_Int_Tables_number   1
_chemical_formula_structural   Tb7Y5Ho8(CoSb2)4
_chemical_formula_sum   'Tb7 Y5 Ho8 Co4 Sb8'
_cell_volume   846.78095913
_cell_formula_units_Z   1
loop_
 _symmetry_equiv_pos_site_id
 _symmetry_equiv_pos_as_xyz
  1  'x, y, z'
loop_
 _atom_site_type_symbol
 _atom_site_label
 _atom_site_symmetry_multiplicity
 _atom_site_fract_x
 _atom_site_fract_y
 _atom_site_fract_z
 _atom_site_occupancy
  Tb  Tb0  1  0.954481  0.250000  0.501953  1
  Tb  Tb1  1  0.545454  0.250000  0.001977  1
  Tb  Tb2  1  0.045528  0.750000  0.498022  1
  Tb  Tb3  1  0.622781  0.750000  0.306847  1
  Tb  Tb4  1  0.123056  0.250000  0.193090  1
  Tb  Tb5  1  0.377163  0.250000  0.693135  1
  Tb  Tb6  1  0.877276  0.750000  0.806899  1
  Y  Y7  1  0.154038  0.750000  0.203700  1
  Y  Y8  1  0.654142  0.250000  0.296149  1
  Y  Y9  1  0.845822  0.250000  0.796269  1
  Y  Y10  1  0.345810  0.750000  0.703802  1
  Y  Y11  1  0.455399  0.750000  0.998022  1
  Ho  Ho12  1  0.822682  0.965212  0.065198  1
  Ho  Ho13  1  0.322519  0.035032  0.434939  1
  Ho  Ho14  1  0.177578  0.465274  0.934972  1
  Ho  Ho15  1  0.677474  0.534985  0.565032  1
  Ho  Ho16  1  0.177578  0.034726  0.934972  1
  Ho  Ho17  1  0.677474  0.965015  0.565032  1
  Ho  Ho18  1  0.822682  0.534788  0.065198  1
  Ho  Ho19  1  0.322519  0.464968  0.434939  1
  Co  Co20  1  0.436235  0.750000  0.490447  1
  Co  Co21  1  0.936353  0.250000  0.009494  1
  Co  Co22  1  0.563804  0.250000  0.509505  1
  Co  Co23  1  0.062574  0.750000  0.990636  1
  Sb  Sb24  1  0.928805  0.992131  0.326752  1
  Sb  Sb25  1  0.428742  0.007595  0.172974  1
  Sb  Sb26  1  0.071265  0.492124  0.673247  1
  Sb  Sb27  1  0.570977  0.508126  0.826910  1
  Sb  Sb28  1  0.071265  0.007876  0.673247  1
  Sb  Sb29  1  0.570977  0.991874  0.826910  1
  Sb  Sb30  1  0.928805  0.507869  0.326752  1
  Sb  Sb31  1  0.428742  0.492405  0.172974  1
