# generated using pymatgen
data_Rb4NbInBr12
_symmetry_space_group_name_H-M   'P 1'
_cell_length_a   7.76499900
_cell_length_b   7.76499900
_cell_length_c   11.61646600
_cell_angle_alpha   90.00000000
_cell_angle_beta   90.00000000
_cell_angle_gamma   90.00000000
_symmetry_Int_Tables_number   1
_chemical_formula_structural   Rb4NbInBr12
_chemical_formula_sum   'Rb4 Nb1 In1 Br12'
_cell_volume   700.41725077
_cell_formula_units_Z   1
loop_
 _symmetry_equiv_pos_site_id
 _symmetry_equiv_pos_as_xyz
  1  'x, y, z'
loop_
 _atom_site_type_symbol
 _atom_site_label
 _atom_site_symmetry_multiplicity
 _atom_site_fract_x
 _atom_site_fract_y
 _atom_site_fract_z
 _atom_site_occupancy
  Rb  Rb0  1  0.500000  0.000000  0.799411  1
  Rb  Rb1  1  0.000000  0.500000  0.200589  1
  Rb  Rb2  1  0.500000  0.000000  0.200589  1
  Rb  Rb3  1  0.000000  0.500000  0.799411  1
  Nb  Nb4  1  0.500000  0.500000  0.500000  1
  In  In5  1  0.000000  0.000000  0.000000  1
  Br  Br6  1  0.000000  0.000000  0.765585  1
  Br  Br7  1  0.500000  0.500000  0.277771  1
  Br  Br8  1  0.731322  0.731322  0.500000  1
  Br  Br9  1  0.247884  0.247884  0.000000  1
  Br  Br10  1  0.731322  0.268678  0.500000  1
  Br  Br11  1  0.247884  0.752116  0.000000  1
  Br  Br12  1  0.000000  0.000000  0.234415  1
  Br  Br13  1  0.500000  0.500000  0.722229  1
  Br  Br14  1  0.268678  0.268678  0.500000  1
  Br  Br15  1  0.752116  0.752116  0.000000  1
  Br  Br16  1  0.268678  0.731322  0.500000  1
  Br  Br17  1  0.752116  0.247884  0.000000  1
