# generated using pymatgen
data_Er2LuCo9(GeB2)2
_symmetry_space_group_name_H-M   'P 1'
_cell_length_a   5.13486903
_cell_length_b   5.12974507
_cell_length_c   9.43336906
_cell_angle_alpha   89.99906630
_cell_angle_beta   89.99949676
_cell_angle_gamma   120.03789950
_symmetry_Int_Tables_number   1
_chemical_formula_structural   Er2LuCo9(GeB2)2
_chemical_formula_sum   'Er2 Lu1 Co9 Ge2 B4'
_cell_volume   215.10803212
_cell_formula_units_Z   1
loop_
 _symmetry_equiv_pos_site_id
 _symmetry_equiv_pos_as_xyz
  1  'x, y, z'
loop_
 _atom_site_type_symbol
 _atom_site_label
 _atom_site_symmetry_multiplicity
 _atom_site_fract_x
 _atom_site_fract_y
 _atom_site_fract_z
 _atom_site_occupancy
  Er  Er0  1  0.000130  0.000149  0.999758  1
  Er  Er1  1  0.000053  0.000098  0.340178  1
  Lu  Lu2  1  0.000082  0.000119  0.660460  1
  Co  Co3  1  0.499978  0.999989  0.500618  1
  Co  Co4  1  0.499956  0.500000  0.500657  1
  Co  Co5  1  0.000024  0.500018  0.500664  1
  Co  Co6  1  0.499970  0.999948  0.203450  1
  Co  Co7  1  0.500002  0.499996  0.203399  1
  Co  Co8  1  0.999973  0.499980  0.203405  1
  Co  Co9  1  0.499910  0.999834  0.795976  1
  Co  Co10  1  0.500020  0.500036  0.796071  1
  Co  Co11  1  0.999878  0.499946  0.796067  1
  Ge  Ge12  1  0.333551  0.666905  0.999376  1
  Ge  Ge13  1  0.666512  0.333123  0.999444  1
  B  B14  1  0.333271  0.666567  0.348629  1
  B  B15  1  0.666697  0.333400  0.348530  1
  B  B16  1  0.666619  0.333306  0.651690  1
  B  B17  1  0.333273  0.666586  0.651630  1
