# generated using pymatgen
data_Ho5LuTh2(CdIr)2
_symmetry_space_group_name_H-M   'P 1'
_cell_length_a   9.69866948
_cell_length_b   9.70834817
_cell_length_c   9.70834682
_cell_angle_alpha   59.93405918
_cell_angle_beta   60.03296427
_cell_angle_gamma   60.03296587
_symmetry_Int_Tables_number   1
_chemical_formula_structural   Ho5LuTh2(CdIr)2
_chemical_formula_sum   'Ho10 Lu2 Th4 Cd4 Ir4'
_cell_volume   646.37848117
_cell_formula_units_Z   2
loop_
 _symmetry_equiv_pos_site_id
 _symmetry_equiv_pos_as_xyz
  1  'x, y, z'
loop_
 _atom_site_type_symbol
 _atom_site_label
 _atom_site_symmetry_multiplicity
 _atom_site_fract_x
 _atom_site_fract_y
 _atom_site_fract_z
 _atom_site_occupancy
  Ho  Ho0  1  0.437158  0.062842  0.437158  1
  Ho  Ho1  1  0.062842  0.437158  0.062842  1
  Ho  Ho2  1  0.437158  0.437158  0.062842  1
  Ho  Ho3  1  0.062842  0.062842  0.437158  1
  Ho  Ho4  1  0.185262  0.814738  0.814738  1
  Ho  Ho5  1  0.814738  0.185262  0.185262  1
  Ho  Ho6  1  0.814739  0.185261  0.814739  1
  Ho  Ho7  1  0.185261  0.814739  0.185261  1
  Ho  Ho8  1  0.814739  0.814739  0.185261  1
  Ho  Ho9  1  0.185261  0.185261  0.814739  1
  Lu  Lu10  1  0.062373  0.437627  0.437627  1
  Lu  Lu11  1  0.437627  0.062373  0.062373  1
  Th  Th12  1  0.600946  0.599733  0.599733  1
  Th  Th13  1  0.599733  0.600946  0.199588  1
  Th  Th14  1  0.599733  0.199588  0.600946  1
  Th  Th15  1  0.199588  0.599733  0.599733  1
  Cd  Cd16  1  0.832706  0.832866  0.832866  1
  Cd  Cd17  1  0.832866  0.832706  0.501561  1
  Cd  Cd18  1  0.832866  0.501561  0.832706  1
  Cd  Cd19  1  0.501561  0.832866  0.832866  1
  Ir  Ir20  1  0.391397  0.393385  0.393385  1
  Ir  Ir21  1  0.393385  0.391397  0.821834  1
  Ir  Ir22  1  0.393385  0.821834  0.391397  1
  Ir  Ir23  1  0.821834  0.393385  0.393385  1
