# generated using pymatgen
data_Tb8Zr7Si16Mo5
_symmetry_space_group_name_H-M   'P 1'
_cell_length_a   7.18653295
_cell_length_b   7.18266583
_cell_length_c   13.18051491
_cell_angle_alpha   89.72007899
_cell_angle_beta   89.88138298
_cell_angle_gamma   90.08721772
_symmetry_Int_Tables_number   1
_chemical_formula_structural   Tb8Zr7Si16Mo5
_chemical_formula_sum   'Tb8 Zr7 Si16 Mo5'
_cell_volume   680.34756627
_cell_formula_units_Z   1
loop_
 _symmetry_equiv_pos_site_id
 _symmetry_equiv_pos_as_xyz
  1  'x, y, z'
loop_
 _atom_site_type_symbol
 _atom_site_label
 _atom_site_symmetry_multiplicity
 _atom_site_fract_x
 _atom_site_fract_y
 _atom_site_fract_z
 _atom_site_occupancy
  Tb  Tb0  1  0.999458  0.345514  0.218530  1
  Tb  Tb1  1  0.001081  0.655822  0.713366  1
  Tb  Tb2  1  0.153693  0.500448  0.465107  1
  Tb  Tb3  1  0.498495  0.846467  0.036818  1
  Tb  Tb4  1  0.845543  0.501077  0.965121  1
  Tb  Tb5  1  0.499810  0.153721  0.532390  1
  Tb  Tb6  1  0.346478  0.000201  0.784840  1
  Tb  Tb7  1  0.655115  0.000393  0.284724  1
  Zr  Zr8  1  0.853101  0.006013  0.874763  1
  Zr  Zr9  1  0.504369  0.648639  0.620925  1
  Zr  Zr10  1  0.353407  0.493139  0.875801  1
  Zr  Zr11  1  0.491544  0.349385  0.126360  1
  Zr  Zr12  1  0.647328  0.510403  0.376792  1
  Zr  Zr13  1  0.994812  0.147488  0.625253  1
  Zr  Zr14  1  0.003996  0.852787  0.124733  1
  Si  Si15  1  0.359586  0.287533  0.321087  1
  Si  Si16  1  0.640186  0.701629  0.814714  1
  Si  Si17  1  0.198620  0.863322  0.559559  1
  Si  Si18  1  0.140442  0.796905  0.933293  1
  Si  Si19  1  0.798047  0.141548  0.066744  1
  Si  Si20  1  0.870707  0.195396  0.429981  1
  Si  Si21  1  0.300129  0.359176  0.683235  1
  Si  Si22  1  0.702318  0.639332  0.183861  1
  Si  Si23  1  0.293284  0.045917  0.190361  1
  Si  Si24  1  0.705523  0.948734  0.683438  1
  Si  Si25  1  0.436860  0.798198  0.430031  1
  Si  Si26  1  0.204090  0.550538  0.066710  1
  Si  Si27  1  0.550995  0.204037  0.934606  1
  Si  Si28  1  0.794569  0.446193  0.566693  1
  Si  Si29  1  0.051046  0.296196  0.816363  1
  Si  Si30  1  0.957244  0.715444  0.318140  1
  Mo  Mo31  1  0.174081  0.174343  0.002046  1
  Mo  Mo32  1  0.828471  0.828012  0.498552  1
  Mo  Mo33  1  0.321975  0.676280  0.250498  1
  Mo  Mo34  1  0.676692  0.325013  0.749959  1
  Mo  Mo35  1  0.146902  0.994756  0.374605  1
