# generated using pymatgen
data_La3MgCd2Pd2Ru
_symmetry_space_group_name_H-M   'P 1'
_cell_length_a   7.75275971
_cell_length_b   7.62638820
_cell_length_c   4.15914000
_cell_angle_alpha   90.00000000
_cell_angle_beta   90.00000000
_cell_angle_gamma   119.72820097
_symmetry_Int_Tables_number   1
_chemical_formula_structural   La3MgCd2Pd2Ru
_chemical_formula_sum   'La3 Mg1 Cd2 Pd2 Ru1'
_cell_volume   213.54645043
_cell_formula_units_Z   1
loop_
 _symmetry_equiv_pos_site_id
 _symmetry_equiv_pos_as_xyz
  1  'x, y, z'
loop_
 _atom_site_type_symbol
 _atom_site_label
 _atom_site_symmetry_multiplicity
 _atom_site_fract_x
 _atom_site_fract_y
 _atom_site_fract_z
 _atom_site_occupancy
  La  La0  1  0.428824  0.411302  0.500000  1
  La  La1  1  0.589082  0.014964  0.500000  1
  La  La2  1  0.981795  0.577272  0.500000  1
  Mg  Mg3  1  0.001758  0.239316  0.000000  1
  Cd  Cd4  1  0.754246  0.758684  0.000000  1
  Cd  Cd5  1  0.243120  0.997662  0.000000  1
  Pd  Pd6  1  0.328236  0.657610  0.000000  1
  Pd  Pd7  1  0.000645  0.013062  0.500000  1
  Ru  Ru8  1  0.672294  0.330128  0.000000  1
