# generated using pymatgen
data_Lu4As6Ru5Rh2
_symmetry_space_group_name_H-M   'P 1'
_cell_length_a   7.18025045
_cell_length_b   7.18289872
_cell_length_c   7.18289992
_cell_angle_alpha   109.76067579
_cell_angle_beta   109.33409908
_cell_angle_gamma   109.33410401
_symmetry_Int_Tables_number   1
_chemical_formula_structural   Lu4As6Ru5Rh2
_chemical_formula_sum   'Lu4 As6 Ru5 Rh2'
_cell_volume   285.12129103
_cell_formula_units_Z   1
loop_
 _symmetry_equiv_pos_site_id
 _symmetry_equiv_pos_as_xyz
  1  'x, y, z'
loop_
 _atom_site_type_symbol
 _atom_site_label
 _atom_site_symmetry_multiplicity
 _atom_site_fract_x
 _atom_site_fract_y
 _atom_site_fract_z
 _atom_site_occupancy
  Lu  Lu0  1  0.000354  0.000177  0.500177  1
  Lu  Lu1  1  0.000354  0.500177  0.000177  1
  Lu  Lu2  1  0.499532  0.000073  0.000073  1
  Lu  Lu3  1  0.499532  0.499459  0.499459  1
  As  As4  1  0.680568  0.684153  0.996415  1
  As  As5  1  0.313948  0.997693  0.316255  1
  As  As6  1  0.004412  0.317307  0.317307  1
  As  As7  1  0.313948  0.316255  0.997693  1
  As  As8  1  0.680568  0.996415  0.684153  1
  As  As9  1  0.004412  0.687106  0.687106  1
  Ru  Ru10  1  0.498926  0.249463  0.749463  1
  Ru  Ru11  1  0.251085  0.501818  0.749267  1
  Ru  Ru12  1  0.251085  0.749267  0.501818  1
  Ru  Ru13  1  0.498926  0.749463  0.249463  1
  Ru  Ru14  1  0.997982  0.998991  0.998991  1
  Rh  Rh15  1  0.752184  0.250018  0.502165  1
  Rh  Rh16  1  0.752184  0.502165  0.250018  1
