# generated using pymatgen
data_Gd4Al18Ir5Au
_symmetry_space_group_name_H-M   'P 1'
_cell_length_a   7.59979801
_cell_length_b   7.59980184
_cell_length_c   9.48762700
_cell_angle_alpha   90.00256330
_cell_angle_beta   90.00251807
_cell_angle_gamma   119.68990024
_symmetry_Int_Tables_number   1
_chemical_formula_structural   Gd4Al18Ir5Au
_chemical_formula_sum   'Gd4 Al18 Ir5 Au1'
_cell_volume   476.03749098
_cell_formula_units_Z   1
loop_
 _symmetry_equiv_pos_site_id
 _symmetry_equiv_pos_as_xyz
  1  'x, y, z'
loop_
 _atom_site_type_symbol
 _atom_site_label
 _atom_site_symmetry_multiplicity
 _atom_site_fract_x
 _atom_site_fract_y
 _atom_site_fract_z
 _atom_site_occupancy
  Gd  Gd0  1  0.995841  0.672926  0.750804  1
  Gd  Gd1  1  0.004159  0.327074  0.249196  1
  Gd  Gd2  1  0.672926  0.995842  0.750804  1
  Gd  Gd3  1  0.327074  0.004158  0.249196  1
  Al  Al4  1  0.135810  0.135810  0.756276  1
  Al  Al5  1  0.864190  0.864190  0.243724  1
  Al  Al6  1  0.002071  0.344134  0.578601  1
  Al  Al7  1  0.997929  0.655866  0.421399  1
  Al  Al8  1  0.999842  0.664433  0.073503  1
  Al  Al9  1  0.335567  0.000158  0.926497  1
  Al  Al10  1  0.000158  0.335567  0.926497  1
  Al  Al11  1  0.664433  0.999842  0.073503  1
  Al  Al12  1  0.655866  0.997930  0.421399  1
  Al  Al13  1  0.344134  0.002070  0.578601  1
  Al  Al14  1  0.333565  0.333565  0.051536  1
  Al  Al15  1  0.666435  0.666435  0.948464  1
  Al  Al16  1  0.657632  0.657631  0.558128  1
  Al  Al17  1  0.342368  0.342369  0.441872  1
  Al  Al18  1  0.339401  0.549683  0.751137  1
  Al  Al19  1  0.660599  0.450317  0.248863  1
  Al  Al20  1  0.549683  0.339401  0.751137  1
  Al  Al21  1  0.450317  0.660599  0.248863  1
  Ir  Ir22  1  0.671731  0.328269  0.500000  1
  Ir  Ir23  1  0.328269  0.671731  0.500000  1
  Ir  Ir24  1  0.328300  0.671699  0.000000  1
  Ir  Ir25  1  0.671700  0.328301  0.000000  1
  Ir  Ir26  1  0.000000  0.000000  0.000000  1
  Au  Au27  1  0.000000  0.000000  0.500000  1
