# generated using pymatgen
data_Dy3Y5Ta10(TiSi8)2
_symmetry_space_group_name_H-M   'P 1'
_cell_length_a   7.05173612
_cell_length_b   7.05187021
_cell_length_c   12.98377402
_cell_angle_alpha   89.94829340
_cell_angle_beta   90.05092997
_cell_angle_gamma   90.00238999
_symmetry_Int_Tables_number   1
_chemical_formula_structural   Dy3Y5Ta10(TiSi8)2
_chemical_formula_sum   'Dy3 Y5 Ta10 Ti2 Si16'
_cell_volume   645.65565913
_cell_formula_units_Z   1
loop_
 _symmetry_equiv_pos_site_id
 _symmetry_equiv_pos_as_xyz
  1  'x, y, z'
loop_
 _atom_site_type_symbol
 _atom_site_label
 _atom_site_symmetry_multiplicity
 _atom_site_fract_x
 _atom_site_fract_y
 _atom_site_fract_z
 _atom_site_occupancy
  Dy  Dy0  1  0.502761  0.159372  0.217748  1
  Dy  Dy1  1  0.498146  0.841534  0.718014  1
  Dy  Dy2  1  0.341363  0.001747  0.467987  1
  Y  Y3  1  0.998485  0.657941  0.032492  1
  Y  Y4  1  0.001989  0.341162  0.531956  1
  Y  Y5  1  0.657890  0.998493  0.967566  1
  Y  Y6  1  0.159589  0.502961  0.782234  1
  Y  Y7  1  0.841303  0.497918  0.281918  1
  Ta  Ta8  1  0.346439  0.508639  0.375989  1
  Ta  Ta9  1  0.847081  0.992057  0.374470  1
  Ta  Ta10  1  0.008410  0.153047  0.126330  1
  Ta  Ta11  1  0.992244  0.847341  0.625423  1
  Ta  Ta12  1  0.508852  0.346164  0.623896  1
  Ta  Ta13  1  0.153186  0.008496  0.873627  1
  Ta  Ta14  1  0.671883  0.672434  0.500044  1
  Ta  Ta15  1  0.829194  0.170141  0.749975  1
  Ta  Ta16  1  0.170647  0.829654  0.250043  1
  Ta  Ta17  1  0.326384  0.326195  0.000069  1
  Ti  Ti18  1  0.492239  0.652972  0.123977  1
  Ti  Ti19  1  0.652792  0.492475  0.875990  1
  Si  Si20  1  0.045788  0.706221  0.436097  1
  Si  Si21  1  0.952636  0.294554  0.935903  1
  Si  Si22  1  0.705609  0.045357  0.563983  1
  Si  Si23  1  0.208579  0.455058  0.185489  1
  Si  Si24  1  0.793168  0.545547  0.687390  1
  Si  Si25  1  0.455322  0.208248  0.814524  1
  Si  Si26  1  0.545101  0.793802  0.312722  1
  Si  Si27  1  0.294761  0.952774  0.064249  1
  Si  Si28  1  0.794755  0.865915  0.181778  1
  Si  Si29  1  0.296866  0.633576  0.568404  1
  Si  Si30  1  0.701232  0.368357  0.066410  1
  Si  Si31  1  0.632890  0.296329  0.431554  1
  Si  Si32  1  0.368650  0.701408  0.933604  1
  Si  Si33  1  0.133796  0.204012  0.317804  1
  Si  Si34  1  0.204528  0.133108  0.682172  1
  Si  Si35  1  0.865444  0.794992  0.818169  1
