# generated using pymatgen
data_Re24Mo2W3
_symmetry_space_group_name_H-M   'P 1'
_cell_length_a   8.35317149
_cell_length_b   8.35549246
_cell_length_c   8.35317100
_cell_angle_alpha   109.46472563
_cell_angle_beta   109.47296844
_cell_angle_gamma   109.46472516
_symmetry_Int_Tables_number   1
_chemical_formula_structural   Re24Mo2W3
_chemical_formula_sum   'Re24 Mo2 W3'
_cell_volume   448.86234261
_cell_formula_units_Z   1
loop_
 _symmetry_equiv_pos_site_id
 _symmetry_equiv_pos_as_xyz
  1  'x, y, z'
loop_
 _atom_site_type_symbol
 _atom_site_label
 _atom_site_symmetry_multiplicity
 _atom_site_fract_x
 _atom_site_fract_y
 _atom_site_fract_z
 _atom_site_occupancy
  Re  Re0  1  0.315238  0.315331  0.716689  1
  Re  Re1  1  0.401358  0.684669  0.999906  1
  Re  Re2  1  0.684618  0.401485  0.999889  1
  Re  Re3  1  0.598668  0.283349  0.598668  1
  Re  Re4  1  0.401537  0.000000  0.684636  1
  Re  Re5  1  0.999889  0.401485  0.684618  1
  Re  Re6  1  0.283133  0.598515  0.598403  1
  Re  Re7  1  0.716689  0.315331  0.315238  1
  Re  Re8  1  0.315319  0.716651  0.315319  1
  Re  Re9  1  0.684636  0.000000  0.401537  1
  Re  Re10  1  0.999906  0.684669  0.401358  1
  Re  Re11  1  0.598403  0.598515  0.283133  1
  Re  Re12  1  0.806625  0.806548  0.182378  1
  Re  Re13  1  0.375832  0.193452  0.000077  1
  Re  Re14  1  0.193461  0.375705  0.000081  1
  Re  Re15  1  0.624111  0.817600  0.624111  1
  Re  Re16  1  0.375546  0.000000  0.193496  1
  Re  Re17  1  0.000081  0.375705  0.193461  1
  Re  Re18  1  0.817758  0.624295  0.624376  1
  Re  Re19  1  0.182378  0.806548  0.806625  1
  Re  Re20  1  0.806512  0.182400  0.806512  1
  Re  Re21  1  0.193496  0.000000  0.375546  1
  Re  Re22  1  0.000077  0.193452  0.375832  1
  Re  Re23  1  0.624376  0.624295  0.817758  1
  Mo  Mo24  1  0.999996  0.641244  0.999996  1
  Mo  Mo25  1  0.358753  0.358756  0.358753  1
  W  W26  1  0.000266  0.000000  0.000266  1
  W  W27  1  0.000010  0.000000  0.641331  1
  W  W28  1  0.641331  0.000000  0.000010  1
