# generated using pymatgen
data_TmU(P2O7)2
_symmetry_space_group_name_H-M   'P 1'
_cell_length_a   8.84734873
_cell_length_b   5.27482626
_cell_length_c   7.35389645
_cell_angle_alpha   73.22163439
_cell_angle_beta   89.37551145
_cell_angle_gamma   89.80389978
_symmetry_Int_Tables_number   1
_chemical_formula_structural   TmU(P2O7)2
_chemical_formula_sum   'Tm1 U1 P4 O14'
_cell_volume   328.56354953
_cell_formula_units_Z   1
loop_
 _symmetry_equiv_pos_site_id
 _symmetry_equiv_pos_as_xyz
  1  'x, y, z'
loop_
 _atom_site_type_symbol
 _atom_site_label
 _atom_site_symmetry_multiplicity
 _atom_site_fract_x
 _atom_site_fract_y
 _atom_site_fract_z
 _atom_site_occupancy
  Tm  Tm0  1  0.548620  0.206117  0.271210  1
  U  U1  1  0.049942  0.795076  0.725174  1
  P  P2  1  0.370844  0.606089  0.511052  1
  P  P3  1  0.289148  0.249932  0.888481  1
  P  P4  1  0.858331  0.391953  0.483802  1
  P  P5  1  0.782615  0.750643  0.114446  1
  O  O6  1  0.156661  0.439623  0.903324  1
  O  O7  1  0.221409  0.021137  0.821851  1
  O  O8  1  0.734250  0.991973  0.170566  1
  O  O9  1  0.379858  0.155603  0.065807  1
  O  O10  1  0.977198  0.164875  0.526207  1
  O  O11  1  0.699242  0.291510  0.490099  1
  O  O12  1  0.375191  0.435058  0.378872  1
  O  O13  1  0.658270  0.569700  0.088341  1
  O  O14  1  0.483310  0.828525  0.476028  1
  O  O15  1  0.401441  0.415660  0.725846  1
  O  O16  1  0.900444  0.577791  0.275010  1
  O  O17  1  0.887348  0.561992  0.620919  1
  O  O18  1  0.205832  0.716257  0.526115  1
  O  O19  1  0.892135  0.830486  0.936850  1
