# generated using pymatgen
data_K3H9O
_symmetry_space_group_name_H-M   'P 1'
_cell_length_a   8.59186257
_cell_length_b   5.34211457
_cell_length_c   8.11222867
_cell_angle_alpha   70.22824455
_cell_angle_beta   35.85831888
_cell_angle_gamma   71.74954102
_symmetry_Int_Tables_number   1
_chemical_formula_structural   K3H9O
_chemical_formula_sum   'K3 H9 O1'
_cell_volume   204.73814871
_cell_formula_units_Z   1
loop_
 _symmetry_equiv_pos_site_id
 _symmetry_equiv_pos_as_xyz
  1  'x, y, z'
loop_
 _atom_site_type_symbol
 _atom_site_label
 _atom_site_symmetry_multiplicity
 _atom_site_fract_x
 _atom_site_fract_y
 _atom_site_fract_z
 _atom_site_occupancy
  K  K0  1  0.495952  0.166619  0.475496  1
  K  K1  1  0.637517  0.509842  0.861576  1
  K  K2  1  0.130058  0.014671  0.364999  1
  H  H3  1  0.778028  0.592904  0.368653  1
  H  H4  1  0.107033  0.370992  0.585850  1
  H  H5  1  0.127954  0.696673  0.808863  1
  H  H6  1  0.657081  0.781783  0.147766  1
  H  H7  1  0.540406  0.705484  0.236702  1
  H  H8  1  0.584165  0.076050  0.758743  1
  H  H9  1  0.109501  0.562616  0.814229  1
  H  H10  1  0.947300  0.164864  0.905418  1
  H  H11  1  0.714857  0.465891  0.476731  1
  O  O12  1  0.199011  0.470015  0.398787  1
