# generated using pymatgen
data_Er3Sc3Si2Ru
_symmetry_space_group_name_H-M   'P 1'
_cell_length_a   7.37791200
_cell_length_b   7.37791181
_cell_length_c   4.21907000
_cell_angle_alpha   90.00000000
_cell_angle_beta   90.00000000
_cell_angle_gamma   120.00000085
_symmetry_Int_Tables_number   1
_chemical_formula_structural   Er3Sc3Si2Ru
_chemical_formula_sum   'Er3 Sc3 Si2 Ru1'
_cell_volume   198.89061448
_cell_formula_units_Z   1
loop_
 _symmetry_equiv_pos_site_id
 _symmetry_equiv_pos_as_xyz
  1  'x, y, z'
loop_
 _atom_site_type_symbol
 _atom_site_label
 _atom_site_symmetry_multiplicity
 _atom_site_fract_x
 _atom_site_fract_y
 _atom_site_fract_z
 _atom_site_occupancy
  Er  Er0  1  0.416374  0.000000  0.000000  1
  Er  Er1  1  0.000000  0.416374  0.000000  1
  Er  Er2  1  0.583626  0.583626  0.000000  1
  Sc  Sc3  1  0.757750  0.000000  0.500000  1
  Sc  Sc4  1  0.242250  0.242250  0.500000  1
  Sc  Sc5  1  0.000000  0.757750  0.500000  1
  Si  Si6  1  0.666666  0.333333  0.500000  1
  Si  Si7  1  0.333334  0.666667  0.500000  1
  Ru  Ru8  1  0.000000  0.000000  0.000000  1
