# generated using pymatgen
data_PrMg3P6N13
_symmetry_space_group_name_H-M   'P 1'
_cell_length_a   7.17558416
_cell_length_b   7.17558473
_cell_length_c   7.17558362
_cell_angle_alpha   109.11931082
_cell_angle_beta   109.11931073
_cell_angle_gamma   109.11930760
_symmetry_Int_Tables_number   1
_chemical_formula_structural   PrMg3P6N13
_chemical_formula_sum   'Pr1 Mg3 P6 N13'
_cell_volume   288.05936562
_cell_formula_units_Z   1
loop_
 _symmetry_equiv_pos_site_id
 _symmetry_equiv_pos_as_xyz
  1  'x, y, z'
loop_
 _atom_site_type_symbol
 _atom_site_label
 _atom_site_symmetry_multiplicity
 _atom_site_fract_x
 _atom_site_fract_y
 _atom_site_fract_z
 _atom_site_occupancy
  Pr  Pr0  1  0.276984  0.276984  0.276984  1
  Mg  Mg1  1  0.984795  0.685989  0.984795  1
  Mg  Mg2  1  0.685989  0.984795  0.984795  1
  Mg  Mg3  1  0.984795  0.984795  0.685989  1
  P  P4  1  0.507501  0.254235  0.760749  1
  P  P5  1  0.507501  0.760749  0.254235  1
  P  P6  1  0.760749  0.254235  0.507501  1
  P  P7  1  0.254235  0.507501  0.760749  1
  P  P8  1  0.760749  0.507501  0.254235  1
  P  P9  1  0.254235  0.760749  0.507501  1
  N  N10  1  0.963880  0.963880  0.963880  1
  N  N11  1  0.003190  0.734593  0.445130  1
  N  N12  1  0.276379  0.719855  0.276379  1
  N  N13  1  0.283126  0.568510  0.568510  1
  N  N14  1  0.568510  0.568510  0.283126  1
  N  N15  1  0.568510  0.283126  0.568510  1
  N  N16  1  0.734593  0.003190  0.445130  1
  N  N17  1  0.445130  0.003190  0.734593  1
  N  N18  1  0.734593  0.445130  0.003190  1
  N  N19  1  0.276379  0.276379  0.719855  1
  N  N20  1  0.719855  0.276379  0.276379  1
  N  N21  1  0.003190  0.445130  0.734593  1
  N  N22  1  0.445130  0.734593  0.003190  1
