# generated using pymatgen
data_Lu5Sc5In5Te
_symmetry_space_group_name_H-M   'P 1'
_cell_length_a   6.16250602
_cell_length_b   8.76977597
_cell_length_c   8.67571192
_cell_angle_alpha   120.34607180
_cell_angle_beta   89.99787600
_cell_angle_gamma   90.00787209
_symmetry_Int_Tables_number   1
_chemical_formula_structural   Lu5Sc5In5Te
_chemical_formula_sum   'Lu5 Sc5 In5 Te1'
_cell_volume   404.62855235
_cell_formula_units_Z   1
loop_
 _symmetry_equiv_pos_site_id
 _symmetry_equiv_pos_as_xyz
  1  'x, y, z'
loop_
 _atom_site_type_symbol
 _atom_site_label
 _atom_site_symmetry_multiplicity
 _atom_site_fract_x
 _atom_site_fract_y
 _atom_site_fract_z
 _atom_site_occupancy
  Lu  Lu0  1  0.749919  0.233986  0.999873  1
  Lu  Lu1  1  0.749987  0.769534  0.762140  1
  Lu  Lu2  1  0.750016  0.007384  0.237659  1
  Lu  Lu3  1  0.250038  0.232105  0.234015  1
  Lu  Lu4  1  0.249959  0.997853  0.765766  1
  Sc  Sc5  1  0.495779  0.331154  0.665054  1
  Sc  Sc6  1  0.496039  0.666717  0.335274  1
  Sc  Sc7  1  0.004419  0.666029  0.334726  1
  Sc  Sc8  1  0.004086  0.331166  0.665042  1
  Sc  Sc9  1  0.250004  0.760732  0.999971  1
  In  In10  1  0.750458  0.407442  0.407108  1
  In  In11  1  0.750217  0.000616  0.592184  1
  In  In12  1  0.249602  0.399850  0.000283  1
  In  In13  1  0.249606  0.595976  0.604110  1
  In  In14  1  0.250067  0.992942  0.396678  1
  Te  Te15  1  0.749807  0.606519  0.000119  1
