# generated using pymatgen
data_TbHoEr2(CuP2)4
_symmetry_space_group_name_H-M   'P 1'
_cell_length_a   3.70363500
_cell_length_b   3.73636707
_cell_length_c   19.36466701
_cell_angle_alpha   90.00941767
_cell_angle_beta   90.00000000
_cell_angle_gamma   90.00000000
_symmetry_Int_Tables_number   1
_chemical_formula_structural   TbHoEr2(CuP2)4
_chemical_formula_sum   'Tb1 Ho1 Er2 Cu4 P8'
_cell_volume   267.97096681
_cell_formula_units_Z   1
loop_
 _symmetry_equiv_pos_site_id
 _symmetry_equiv_pos_as_xyz
  1  'x, y, z'
loop_
 _atom_site_type_symbol
 _atom_site_label
 _atom_site_symmetry_multiplicity
 _atom_site_fract_x
 _atom_site_fract_y
 _atom_site_fract_z
 _atom_site_occupancy
  Tb  Tb0  1  0.250000  0.723802  0.383148  1
  Ho  Ho1  1  0.250000  0.775705  0.882890  1
  Er  Er2  1  0.750000  0.276520  0.618046  1
  Er  Er3  1  0.750000  0.224241  0.116668  1
  Cu  Cu4  1  0.250000  0.227799  0.248796  1
  Cu  Cu5  1  0.750000  0.772020  0.750165  1
  Cu  Cu6  1  0.250000  0.271889  0.749888  1
  Cu  Cu7  1  0.750000  0.727912  0.249445  1
  P  P8  1  0.750000  0.799633  0.502762  1
  P  P9  1  0.750000  0.701434  0.001272  1
  P  P10  1  0.250000  0.200947  0.500125  1
  P  P11  1  0.250000  0.298598  0.998737  1
  P  P12  1  0.250000  0.725849  0.170300  1
  P  P13  1  0.750000  0.225261  0.327368  1
  P  P14  1  0.750000  0.274038  0.829153  1
  P  P15  1  0.250000  0.774350  0.671234  1
