# generated using pymatgen
data_Nd11In9Ni2PdPt
_symmetry_space_group_name_H-M   'P 1'
_cell_length_a   13.39810300
_cell_length_b   13.44389189
_cell_length_c   3.78924800
_cell_angle_alpha   90.00000000
_cell_angle_beta   90.00000000
_cell_angle_gamma   111.31177036
_symmetry_Int_Tables_number   1
_chemical_formula_structural   Nd11In9Ni2PdPt
_chemical_formula_sum   'Nd11 In9 Ni2 Pd1 Pt1'
_cell_volume   635.85569420
_cell_formula_units_Z   1
loop_
 _symmetry_equiv_pos_site_id
 _symmetry_equiv_pos_as_xyz
  1  'x, y, z'
loop_
 _atom_site_type_symbol
 _atom_site_label
 _atom_site_symmetry_multiplicity
 _atom_site_fract_x
 _atom_site_fract_y
 _atom_site_fract_z
 _atom_site_occupancy
  Nd  Nd0  1  0.073303  0.417554  0.000000  1
  Nd  Nd1  1  0.928554  0.582864  0.000000  1
  Nd  Nd2  1  0.419544  0.075370  0.000000  1
  Nd  Nd3  1  0.580203  0.924123  0.000000  1
  Nd  Nd4  1  0.622257  0.367149  0.000000  1
  Nd  Nd5  1  0.375064  0.630059  0.000000  1
  Nd  Nd6  1  0.839805  0.157982  0.000000  1
  Nd  Nd7  1  0.160357  0.841804  0.000000  1
  Nd  Nd8  1  0.000058  0.000068  0.000000  1
  Nd  Nd9  1  0.312895  0.308930  0.000000  1
  Nd  Nd10  1  0.686082  0.693272  0.000000  1
  In  In11  1  0.837611  0.367315  0.500000  1
  In  In12  1  0.161669  0.633295  0.500000  1
  In  In13  1  0.368017  0.839192  0.500000  1
  In  In14  1  0.632266  0.160804  0.500000  1
  In  In15  1  0.077648  0.218994  0.500000  1
  In  In16  1  0.921664  0.780289  0.500000  1
  In  In17  1  0.221301  0.077697  0.500000  1
  In  In18  1  0.779110  0.922524  0.500000  1
  In  In19  1  0.500428  0.499982  0.500000  1
  Ni  Ni20  1  0.449015  0.243036  0.500000  1
  Ni  Ni21  1  0.552673  0.757162  0.500000  1
  Pd  Pd22  1  0.750508  0.549679  0.500000  1
  Pt  Pt23  1  0.249967  0.450856  0.500000  1
