# generated using pymatgen
data_Ho5ScCoTe2
_symmetry_space_group_name_H-M   'P 1'
_cell_length_a   3.92808100
_cell_length_b   8.32867464
_cell_length_c   8.17046293
_cell_angle_alpha   120.64264102
_cell_angle_beta   90.00000000
_cell_angle_gamma   90.00000000
_symmetry_Int_Tables_number   1
_chemical_formula_structural   Ho5ScCoTe2
_chemical_formula_sum   'Ho5 Sc1 Co1 Te2'
_cell_volume   229.97715319
_cell_formula_units_Z   1
loop_
 _symmetry_equiv_pos_site_id
 _symmetry_equiv_pos_as_xyz
  1  'x, y, z'
loop_
 _atom_site_type_symbol
 _atom_site_label
 _atom_site_symmetry_multiplicity
 _atom_site_fract_x
 _atom_site_fract_y
 _atom_site_fract_z
 _atom_site_occupancy
  Ho  Ho0  1  0.500000  0.763915  0.769759  1
  Ho  Ho1  1  0.500000  0.994156  0.230241  1
  Ho  Ho2  1  0.000000  0.386965  0.384135  1
  Ho  Ho3  1  0.000000  0.002829  0.615865  1
  Ho  Ho4  1  0.000000  0.590616  0.000000  1
  Sc  Sc5  1  0.500000  0.232077  0.000000  1
  Co  Co6  1  0.000000  0.036363  0.000000  1
  Te  Te7  1  0.500000  0.661597  0.330114  1
  Te  Te8  1  0.500000  0.331482  0.669886  1
