# generated using pymatgen
data_Pr8Y2Ir5Ru
_symmetry_space_group_name_H-M   'P 1'
_cell_length_a   11.26519800
_cell_length_b   11.26519800
_cell_length_c   6.56914700
_cell_angle_alpha   90.00000000
_cell_angle_beta   90.00000000
_cell_angle_gamma   90.00000000
_symmetry_Int_Tables_number   1
_chemical_formula_structural   Pr8Y2Ir5Ru
_chemical_formula_sum   'Pr16 Y4 Ir10 Ru2'
_cell_volume   833.65553719
_cell_formula_units_Z   2
loop_
 _symmetry_equiv_pos_site_id
 _symmetry_equiv_pos_as_xyz
  1  'x, y, z'
loop_
 _atom_site_type_symbol
 _atom_site_label
 _atom_site_symmetry_multiplicity
 _atom_site_fract_x
 _atom_site_fract_y
 _atom_site_fract_z
 _atom_site_occupancy
  Pr  Pr0  1  0.291559  0.085833  0.383023  1
  Pr  Pr1  1  0.291559  0.914167  0.883023  1
  Pr  Pr2  1  0.708441  0.085833  0.883023  1
  Pr  Pr3  1  0.708441  0.914167  0.383023  1
  Pr  Pr4  1  0.585833  0.791559  0.883023  1
  Pr  Pr5  1  0.585833  0.208441  0.383023  1
  Pr  Pr6  1  0.414167  0.791559  0.383023  1
  Pr  Pr7  1  0.414167  0.208441  0.883023  1
  Pr  Pr8  1  0.211518  0.412020  0.619114  1
  Pr  Pr9  1  0.211518  0.587980  0.119114  1
  Pr  Pr10  1  0.788482  0.412020  0.119114  1
  Pr  Pr11  1  0.788482  0.587980  0.619114  1
  Pr  Pr12  1  0.912020  0.711518  0.119114  1
  Pr  Pr13  1  0.912020  0.288482  0.619114  1
  Pr  Pr14  1  0.087980  0.711518  0.619114  1
  Pr  Pr15  1  0.087980  0.288482  0.119114  1
  Y  Y16  1  0.000000  0.000000  0.497148  1
  Y  Y17  1  0.000000  0.000000  0.997148  1
  Y  Y18  1  0.500000  0.500000  0.997148  1
  Y  Y19  1  0.500000  0.500000  0.497148  1
  Ir  Ir20  1  0.852546  0.149327  0.248893  1
  Ir  Ir21  1  0.852546  0.850673  0.748893  1
  Ir  Ir22  1  0.147454  0.149327  0.748893  1
  Ir  Ir23  1  0.147454  0.850673  0.248893  1
  Ir  Ir24  1  0.649327  0.352546  0.748893  1
  Ir  Ir25  1  0.649327  0.647454  0.248893  1
  Ir  Ir26  1  0.350673  0.352546  0.248893  1
  Ir  Ir27  1  0.350673  0.647454  0.748893  1
  Ir  Ir28  1  0.000000  0.500000  0.882122  1
  Ir  Ir29  1  0.000000  0.500000  0.382122  1
  Ru  Ru30  1  0.500000  0.000000  0.119459  1
  Ru  Ru31  1  0.500000  0.000000  0.619459  1
