# generated using pymatgen
data_Ac3Nd3ThPt3
_symmetry_space_group_name_H-M   'P 1'
_cell_length_a   6.72829600
_cell_length_b   10.53825645
_cell_length_c   10.53825700
_cell_angle_alpha   120.09592932
_cell_angle_beta   90.00000000
_cell_angle_gamma   90.00000000
_symmetry_Int_Tables_number   1
_chemical_formula_structural   Ac3Nd3ThPt3
_chemical_formula_sum   'Ac6 Nd6 Th2 Pt6'
_cell_volume   646.47635897
_cell_formula_units_Z   2
loop_
 _symmetry_equiv_pos_site_id
 _symmetry_equiv_pos_as_xyz
  1  'x, y, z'
loop_
 _atom_site_type_symbol
 _atom_site_label
 _atom_site_symmetry_multiplicity
 _atom_site_fract_x
 _atom_site_fract_y
 _atom_site_fract_z
 _atom_site_occupancy
  Ac  Ac0  1  0.250200  0.132199  0.867801  1
  Ac  Ac1  1  0.250453  0.735107  0.867573  1
  Ac  Ac2  1  0.250453  0.132427  0.264893  1
  Ac  Ac3  1  0.750200  0.867801  0.132199  1
  Ac  Ac4  1  0.750453  0.264893  0.132427  1
  Ac  Ac5  1  0.750453  0.867573  0.735107  1
  Nd  Nd6  1  0.438107  0.539382  0.460618  1
  Nd  Nd7  1  0.438527  0.921287  0.460553  1
  Nd  Nd8  1  0.438527  0.539447  0.078713  1
  Nd  Nd9  1  0.938107  0.460618  0.539382  1
  Nd  Nd10  1  0.938527  0.078713  0.539447  1
  Nd  Nd11  1  0.938527  0.460553  0.921287  1
  Th  Th12  1  0.475595  0.333213  0.666787  1
  Th  Th13  1  0.975595  0.666787  0.333213  1
  Pt  Pt14  1  0.183581  0.805242  0.194758  1
  Pt  Pt15  1  0.183779  0.389690  0.194731  1
  Pt  Pt16  1  0.183779  0.805269  0.610310  1
  Pt  Pt17  1  0.683581  0.194758  0.805242  1
  Pt  Pt18  1  0.683779  0.610310  0.805269  1
  Pt  Pt19  1  0.683779  0.194731  0.389690  1
