# generated using pymatgen
data_Er4CoMoRu6
_symmetry_space_group_name_H-M   'P 1'
_cell_length_a   5.38634108
_cell_length_b   5.13531989
_cell_length_c   8.95521000
_cell_angle_alpha   90.00000000
_cell_angle_beta   90.00000000
_cell_angle_gamma   121.42243962
_symmetry_Int_Tables_number   1
_chemical_formula_structural   Er4CoMoRu6
_chemical_formula_sum   'Er4 Co1 Mo1 Ru6'
_cell_volume   211.37938560
_cell_formula_units_Z   1
loop_
 _symmetry_equiv_pos_site_id
 _symmetry_equiv_pos_as_xyz
  1  'x, y, z'
loop_
 _atom_site_type_symbol
 _atom_site_label
 _atom_site_symmetry_multiplicity
 _atom_site_fract_x
 _atom_site_fract_y
 _atom_site_fract_z
 _atom_site_occupancy
  Er  Er0  1  0.332458  0.667781  0.430515  1
  Er  Er1  1  0.671097  0.344387  0.561400  1
  Er  Er2  1  0.671097  0.344387  0.938600  1
  Er  Er3  1  0.332458  0.667781  0.069485  1
  Co  Co4  1  0.331533  0.163976  0.250000  1
  Mo  Mo5  1  0.161355  0.322447  0.750000  1
  Ru  Ru6  1  0.172651  0.820637  0.750000  1
  Ru  Ru7  1  0.825278  0.646654  0.250000  1
  Ru  Ru8  1  0.654135  0.824880  0.750000  1
  Ru  Ru9  1  0.007612  0.015308  0.004088  1
  Ru  Ru10  1  0.832714  0.166451  0.250000  1
  Ru  Ru11  1  0.007612  0.015308  0.495912  1
