# generated using pymatgen
data_TbNp3Ga12Pd
_symmetry_space_group_name_H-M   'P 1'
_cell_length_a   7.48501062
_cell_length_b   7.53591309
_cell_length_c   7.48501165
_cell_angle_alpha   109.60903688
_cell_angle_beta   109.33305246
_cell_angle_gamma   109.60904167
_symmetry_Int_Tables_number   1
_chemical_formula_structural   TbNp3Ga12Pd
_chemical_formula_sum   'Tb1 Np3 Ga12 Pd1'
_cell_volume   324.45717276
_cell_formula_units_Z   1
loop_
 _symmetry_equiv_pos_site_id
 _symmetry_equiv_pos_as_xyz
  1  'x, y, z'
loop_
 _atom_site_type_symbol
 _atom_site_label
 _atom_site_symmetry_multiplicity
 _atom_site_fract_x
 _atom_site_fract_y
 _atom_site_fract_z
 _atom_site_occupancy
  Tb  Tb0  1  0.000000  0.500000  0.000000  1
  Np  Np1  1  0.500000  0.000000  0.000000  1
  Np  Np2  1  0.000000  0.000000  0.500000  1
  Np  Np3  1  0.500000  0.500000  0.500000  1
  Ga  Ga4  1  0.295679  0.001513  0.295679  1
  Ga  Ga5  1  0.499131  0.249565  0.749565  1
  Ga  Ga6  1  0.000000  0.705835  0.704321  1
  Ga  Ga7  1  0.704321  0.998487  0.704321  1
  Ga  Ga8  1  0.749565  0.500000  0.250435  1
  Ga  Ga9  1  0.250435  0.750435  0.500869  1
  Ga  Ga10  1  0.749565  0.249565  0.499131  1
  Ga  Ga11  1  0.704321  0.705835  0.000000  1
  Ga  Ga12  1  0.250435  0.500000  0.749565  1
  Ga  Ga13  1  0.500869  0.750435  0.250435  1
  Ga  Ga14  1  0.295679  0.294165  0.000000  1
  Ga  Ga15  1  0.000000  0.294165  0.295679  1
  Pd  Pd16  1  0.000000  0.000000  0.000000  1
