# generated using pymatgen
data_Tb4Lu4B24Os3W
_symmetry_space_group_name_H-M   'P 1'
_cell_length_a   3.61965500
_cell_length_b   9.12929896
_cell_length_c   11.53825701
_cell_angle_alpha   89.89746423
_cell_angle_beta   90.00000000
_cell_angle_gamma   90.00000000
_symmetry_Int_Tables_number   1
_chemical_formula_structural   Tb4Lu4B24Os3W
_chemical_formula_sum   'Tb4 Lu4 B24 Os3 W1'
_cell_volume   381.28008418
_cell_formula_units_Z   1
loop_
 _symmetry_equiv_pos_site_id
 _symmetry_equiv_pos_as_xyz
  1  'x, y, z'
loop_
 _atom_site_type_symbol
 _atom_site_label
 _atom_site_symmetry_multiplicity
 _atom_site_fract_x
 _atom_site_fract_y
 _atom_site_fract_z
 _atom_site_occupancy
  Tb  Tb0  1  0.000000  0.320281  0.413455  1
  Tb  Tb1  1  0.000000  0.678747  0.585813  1
  Tb  Tb2  1  0.000000  0.819799  0.086422  1
  Tb  Tb3  1  0.000000  0.177956  0.914523  1
  Lu  Lu4  1  0.000000  0.945855  0.373577  1
  Lu  Lu5  1  0.000000  0.057452  0.628108  1
  Lu  Lu6  1  0.000000  0.442763  0.125857  1
  Lu  Lu7  1  0.000000  0.556586  0.871749  1
  B  B8  1  0.500000  0.550281  0.436015  1
  B  B9  1  0.500000  0.445583  0.568881  1
  B  B10  1  0.500000  0.054331  0.067185  1
  B  B11  1  0.500000  0.945791  0.932707  1
  B  B12  1  0.500000  0.753698  0.421852  1
  B  B13  1  0.500000  0.250467  0.581947  1
  B  B14  1  0.500000  0.249564  0.080531  1
  B  B15  1  0.500000  0.750145  0.918459  1
  B  B16  1  0.500000  0.795936  0.264289  1
  B  B17  1  0.500000  0.208426  0.734356  1
  B  B18  1  0.500000  0.290610  0.232327  1
  B  B19  1  0.500000  0.709159  0.765907  1
  B  B20  1  0.500000  0.630455  0.181415  1
  B  B21  1  0.500000  0.369444  0.815433  1
  B  B22  1  0.500000  0.130343  0.314430  1
  B  B23  1  0.500000  0.870749  0.685164  1
  B  B24  1  0.500000  0.983258  0.213329  1
  B  B25  1  0.500000  0.017747  0.787370  1
  B  B26  1  0.500000  0.476454  0.285330  1
  B  B27  1  0.500000  0.517087  0.713957  1
  B  B28  1  0.500000  0.602352  0.026510  1
  B  B29  1  0.500000  0.396652  0.970652  1
  B  B30  1  0.500000  0.103777  0.472253  1
  B  B31  1  0.500000  0.899820  0.529624  1
  Os  Os32  1  0.000000  0.361044  0.681102  1
  Os  Os33  1  0.000000  0.137777  0.178690  1
  Os  Os34  1  0.000000  0.861827  0.819951  1
  W  W35  1  0.000000  0.637785  0.320829  1
