# generated using pymatgen
data_Tb5Th3MgInRu2
_symmetry_space_group_name_H-M   'P 1'
_cell_length_a   9.75033804
_cell_length_b   9.84006427
_cell_length_c   9.86146086
_cell_angle_alpha   59.32654985
_cell_angle_beta   60.22745234
_cell_angle_gamma   60.34757265
_symmetry_Int_Tables_number   1
_chemical_formula_structural   Tb5Th3MgInRu2
_chemical_formula_sum   'Tb10 Th6 Mg2 In2 Ru4'
_cell_volume   668.40339014
_cell_formula_units_Z   2
loop_
 _symmetry_equiv_pos_site_id
 _symmetry_equiv_pos_as_xyz
  1  'x, y, z'
loop_
 _atom_site_type_symbol
 _atom_site_label
 _atom_site_symmetry_multiplicity
 _atom_site_fract_x
 _atom_site_fract_y
 _atom_site_fract_z
 _atom_site_occupancy
  Tb  Tb0  1  0.440227  0.059223  0.441104  1
  Tb  Tb1  1  0.059223  0.440227  0.059446  1
  Tb  Tb2  1  0.438494  0.438494  0.061506  1
  Tb  Tb3  1  0.056582  0.056582  0.443418  1
  Tb  Tb4  1  0.186431  0.815214  0.814920  1
  Tb  Tb5  1  0.815214  0.186431  0.183436  1
  Tb  Tb6  1  0.812311  0.189402  0.811734  1
  Tb  Tb7  1  0.189402  0.812311  0.186554  1
  Tb  Tb8  1  0.812473  0.812473  0.187527  1
  Tb  Tb9  1  0.187905  0.187905  0.812095  1
  Th  Th10  1  0.591969  0.600166  0.597856  1
  Th  Th11  1  0.600166  0.591969  0.210011  1
  Th  Th12  1  0.600257  0.207310  0.593596  1
  Th  Th13  1  0.207310  0.600257  0.598839  1
  Th  Th14  1  0.064592  0.433796  0.435620  1
  Th  Th15  1  0.433796  0.064592  0.065993  1
  Mg  Mg16  1  0.828114  0.514409  0.829823  1
  Mg  Mg17  1  0.514409  0.828114  0.827653  1
  In  In18  1  0.833482  0.830906  0.833064  1
  In  In19  1  0.830906  0.833482  0.502548  1
  Ru  Ru20  1  0.376730  0.398778  0.400142  1
  Ru  Ru21  1  0.398778  0.376730  0.824350  1
  Ru  Ru22  1  0.398566  0.822665  0.378057  1
  Ru  Ru23  1  0.822665  0.398566  0.400712  1
