# generated using pymatgen
data_Pr4Se3Br3N
_symmetry_space_group_name_H-M   'P 1'
_cell_length_a   9.83395100
_cell_length_b   9.83398093
_cell_length_c   7.18461000
_cell_angle_alpha   90.00011750
_cell_angle_beta   89.99998620
_cell_angle_gamma   120.00011429
_symmetry_Int_Tables_number   1
_chemical_formula_structural   Pr4Se3Br3N
_chemical_formula_sum   'Pr8 Se6 Br6 N2'
_cell_volume   601.71485287
_cell_formula_units_Z   2
loop_
 _symmetry_equiv_pos_site_id
 _symmetry_equiv_pos_as_xyz
  1  'x, y, z'
loop_
 _atom_site_type_symbol
 _atom_site_label
 _atom_site_symmetry_multiplicity
 _atom_site_fract_x
 _atom_site_fract_y
 _atom_site_fract_z
 _atom_site_occupancy
  Pr  Pr0  1  0.205765  0.411532  0.248137  1
  Pr  Pr1  1  0.205768  0.794234  0.248135  1
  Pr  Pr2  1  0.588468  0.794235  0.248135  1
  Pr  Pr3  1  0.666667  0.333333  0.296738  1
  Pr  Pr4  1  0.411530  0.205764  0.748137  1
  Pr  Pr5  1  0.794233  0.205764  0.748138  1
  Pr  Pr6  1  0.794235  0.588469  0.748137  1
  Pr  Pr7  1  0.333333  0.666668  0.796737  1
  Se  Se8  1  0.532047  0.467955  0.032290  1
  Se  Se9  1  0.935908  0.467954  0.032289  1
  Se  Se10  1  0.532047  0.064094  0.032291  1
  Se  Se11  1  0.064092  0.532046  0.532289  1
  Se  Se12  1  0.467953  0.532047  0.532291  1
  Se  Se13  1  0.467952  0.935905  0.532293  1
  Br  Br14  1  0.868669  0.737337  0.360845  1
  Br  Br15  1  0.262664  0.131332  0.360845  1
  Br  Br16  1  0.868668  0.131332  0.360844  1
  Br  Br17  1  0.131330  0.262662  0.860845  1
  Br  Br18  1  0.131331  0.868670  0.860846  1
  Br  Br19  1  0.737337  0.868669  0.860845  1
  N  N20  1  0.333333  0.666666  0.131907  1
  N  N21  1  0.666667  0.333333  0.631906  1
