# generated using pymatgen
data_Tb3DyAl13Ga5Ir6
_symmetry_space_group_name_H-M   'P 1'
_cell_length_a   7.53907303
_cell_length_b   7.53871449
_cell_length_c   9.57691600
_cell_angle_alpha   90.00000000
_cell_angle_beta   90.00000000
_cell_angle_gamma   119.57888416
_symmetry_Int_Tables_number   1
_chemical_formula_structural   Tb3DyAl13Ga5Ir6
_chemical_formula_sum   'Tb3 Dy1 Al13 Ga5 Ir6'
_cell_volume   473.36796441
_cell_formula_units_Z   1
loop_
 _symmetry_equiv_pos_site_id
 _symmetry_equiv_pos_as_xyz
  1  'x, y, z'
loop_
 _atom_site_type_symbol
 _atom_site_label
 _atom_site_symmetry_multiplicity
 _atom_site_fract_x
 _atom_site_fract_y
 _atom_site_fract_z
 _atom_site_occupancy
  Tb  Tb0  1  0.994942  0.669711  0.750000  1
  Tb  Tb1  1  0.001591  0.327397  0.250000  1
  Tb  Tb2  1  0.669708  0.995900  0.750000  1
  Dy  Dy3  1  0.330513  0.006369  0.250000  1
  Al  Al4  1  0.002168  0.334833  0.572475  1
  Al  Al5  1  0.999180  0.665542  0.427164  1
  Al  Al6  1  0.999180  0.665542  0.072836  1
  Al  Al7  1  0.334711  0.001759  0.927740  1
  Al  Al8  1  0.002168  0.334833  0.927525  1
  Al  Al9  1  0.664790  0.998017  0.073150  1
  Al  Al10  1  0.664790  0.998017  0.426850  1
  Al  Al11  1  0.334711  0.001759  0.572260  1
  Al  Al12  1  0.333818  0.334170  0.055649  1
  Al  Al13  1  0.665940  0.665998  0.947025  1
  Al  Al14  1  0.665940  0.665998  0.552975  1
  Al  Al15  1  0.333818  0.334170  0.444351  1
  Al  Al16  1  0.451804  0.661665  0.250000  1
  Ga  Ga17  1  0.128396  0.128458  0.750000  1
  Ga  Ga18  1  0.870416  0.869800  0.250000  1
  Ga  Ga19  1  0.338608  0.546764  0.750000  1
  Ga  Ga20  1  0.661648  0.454294  0.250000  1
  Ga  Ga21  1  0.546970  0.339110  0.750000  1
  Ir  Ir22  1  0.672199  0.327998  0.500265  1
  Ir  Ir23  1  0.329445  0.671767  0.497617  1
  Ir  Ir24  1  0.329445  0.671767  0.002383  1
  Ir  Ir25  1  0.672199  0.327998  0.999735  1
  Ir  Ir26  1  0.000451  0.000183  0.500051  1
  Ir  Ir27  1  0.000451  0.000183  0.999949  1
