# generated using pymatgen
data_CuB4Ir4Pd2Pt
_symmetry_space_group_name_H-M   'P 1'
_cell_length_a   6.66170039
_cell_length_b   6.07573525
_cell_length_c   5.53672914
_cell_angle_alpha   71.42570775
_cell_angle_beta   59.08664156
_cell_angle_gamma   51.07066074
_symmetry_Int_Tables_number   1
_chemical_formula_structural   CuB4Ir4Pd2Pt
_chemical_formula_sum   'Cu1 B4 Ir4 Pd2 Pt1'
_cell_volume   149.56279470
_cell_formula_units_Z   1
loop_
 _symmetry_equiv_pos_site_id
 _symmetry_equiv_pos_as_xyz
  1  'x, y, z'
loop_
 _atom_site_type_symbol
 _atom_site_label
 _atom_site_symmetry_multiplicity
 _atom_site_fract_x
 _atom_site_fract_y
 _atom_site_fract_z
 _atom_site_occupancy
  Cu  Cu0  1  0.880992  0.387503  0.790864  1
  B  B1  1  0.054231  0.973093  0.556621  1
  B  B2  1  0.684444  0.855918  0.201144  1
  B  B3  1  0.401095  0.569184  0.975112  1
  B  B4  1  0.269142  0.196547  0.852832  1
  Ir  Ir5  1  0.098634  0.632246  0.868272  1
  Ir  Ir6  1  0.388343  0.849959  0.145176  1
  Ir  Ir7  1  0.620835  0.151283  0.851826  1
  Ir  Ir8  1  0.388222  0.876279  0.636106  1
  Pd  Pd9  1  0.458498  0.309616  0.368404  1
  Pd  Pd10  1  0.865779  0.368478  0.307763  1
  Pt  Pt11  1  0.940185  0.779495  0.395481  1
