# generated using pymatgen
data_CeSm3(ZnPt)4
_symmetry_space_group_name_H-M   'P 1'
_cell_length_a   4.27144000
_cell_length_b   7.04776138
_cell_length_c   8.17255708
_cell_angle_alpha   90.28914078
_cell_angle_beta   90.00000000
_cell_angle_gamma   90.00000000
_symmetry_Int_Tables_number   1
_chemical_formula_structural   CeSm3(ZnPt)4
_chemical_formula_sum   'Ce1 Sm3 Zn4 Pt4'
_cell_volume   246.02426006
_cell_formula_units_Z   1
loop_
 _symmetry_equiv_pos_site_id
 _symmetry_equiv_pos_as_xyz
  1  'x, y, z'
loop_
 _atom_site_type_symbol
 _atom_site_label
 _atom_site_symmetry_multiplicity
 _atom_site_fract_x
 _atom_site_fract_y
 _atom_site_fract_z
 _atom_site_occupancy
  Ce  Ce0  1  0.250000  0.532249  0.188139  1
  Sm  Sm1  1  0.750000  0.466486  0.805588  1
  Sm  Sm2  1  0.250000  0.033645  0.310767  1
  Sm  Sm3  1  0.750000  0.966110  0.691765  1
  Zn  Zn4  1  0.250000  0.645535  0.567253  1
  Zn  Zn5  1  0.250000  0.146064  0.933079  1
  Zn  Zn6  1  0.750000  0.352373  0.434066  1
  Zn  Zn7  1  0.750000  0.857688  0.066958  1
  Pt  Pt8  1  0.250000  0.758942  0.889334  1
  Pt  Pt9  1  0.250000  0.258202  0.615069  1
  Pt  Pt10  1  0.750000  0.736795  0.382919  1
  Pt  Pt11  1  0.750000  0.245913  0.115064  1
