# generated using pymatgen
data_Ti8Al10Si5Ir7
_symmetry_space_group_name_H-M   'P 1'
_cell_length_a   8.57337819
_cell_length_b   8.57337702
_cell_length_c   8.57337789
_cell_angle_alpha   120.16403919
_cell_angle_beta   119.77281745
_cell_angle_gamma   90.05502827
_symmetry_Int_Tables_number   1
_chemical_formula_structural   Ti8Al10Si5Ir7
_chemical_formula_sum   'Ti8 Al10 Si5 Ir7'
_cell_volume   445.80150086
_cell_formula_units_Z   1
loop_
 _symmetry_equiv_pos_site_id
 _symmetry_equiv_pos_as_xyz
  1  'x, y, z'
loop_
 _atom_site_type_symbol
 _atom_site_label
 _atom_site_symmetry_multiplicity
 _atom_site_fract_x
 _atom_site_fract_y
 _atom_site_fract_z
 _atom_site_occupancy
  Ti  Ti0  1  0.799665  0.297801  0.092589  1
  Ti  Ti1  1  0.205211  0.297801  0.498137  1
  Ti  Ti2  1  0.202306  0.702306  0.500000  1
  Ti  Ti3  1  0.205211  0.707075  0.907411  1
  Ti  Ti4  1  0.799665  0.707075  0.501863  1
  Ti  Ti5  1  0.794179  0.294179  0.500000  1
  Ti  Ti6  1  0.376734  0.124990  0.748256  1
  Ti  Ti7  1  0.376734  0.628478  0.251744  1
  Al  Al8  1  0.837821  0.661290  0.823470  1
  Al  Al9  1  0.837821  0.014352  0.176530  1
  Al  Al10  1  0.837032  0.662242  0.174790  1
  Al  Al11  1  0.487452  0.662242  0.825210  1
  Al  Al12  1  0.379725  0.120898  0.258829  1
  Al  Al13  1  0.862070  0.120898  0.741171  1
  Al  Al14  1  0.619366  0.880265  0.260899  1
  Al  Al15  1  0.619366  0.358467  0.739101  1
  Al  Al16  1  0.621160  0.879733  0.741428  1
  Al  Al17  1  0.138304  0.879733  0.258572  1
  Si  Si18  1  0.998957  0.498957  0.500000  1
  Si  Si19  1  0.153665  0.346495  0.192828  1
  Si  Si20  1  0.153665  0.960837  0.807172  1
  Si  Si21  1  0.149515  0.349099  0.800416  1
  Si  Si22  1  0.548682  0.349099  0.199584  1
  Ir  Ir23  1  0.005729  0.006353  0.512475  1
  Ir  Ir24  1  0.493878  0.006353  0.000623  1
  Ir  Ir25  1  0.493705  0.493705  0.000000  1
  Ir  Ir26  1  0.493878  0.493254  0.487525  1
  Ir  Ir27  1  0.005729  0.493254  0.999377  1
  Ir  Ir28  1  0.007435  0.007435  0.000000  1
  Ir  Ir29  1  0.495334  0.995334  0.500000  1
