# generated using pymatgen
data_PrPa3(Al8Pt3)3
_symmetry_space_group_name_H-M   'P 1'
_cell_length_a   7.59189947
_cell_length_b   7.58531223
_cell_length_c   13.17766401
_cell_angle_alpha   84.50301309
_cell_angle_beta   101.08514720
_cell_angle_gamma   119.87931714
_symmetry_Int_Tables_number   1
_chemical_formula_structural   PrPa3(Al8Pt3)3
_chemical_formula_sum   'Pr1 Pa3 Al24 Pt9'
_cell_volume   645.71436922
_cell_formula_units_Z   1
loop_
 _symmetry_equiv_pos_site_id
 _symmetry_equiv_pos_as_xyz
  1  'x, y, z'
loop_
 _atom_site_type_symbol
 _atom_site_label
 _atom_site_symmetry_multiplicity
 _atom_site_fract_x
 _atom_site_fract_y
 _atom_site_fract_z
 _atom_site_occupancy
  Pr  Pr0  1  0.230987  0.498838  0.190164  1
  Pa  Pa1  1  0.438058  0.832715  0.804825  1
  Pa  Pa2  1  0.564086  0.167640  0.196747  1
  Pa  Pa3  1  0.765164  0.501622  0.804769  1
  Al  Al4  1  0.483646  0.166307  0.947929  1
  Al  Al5  1  0.518534  0.836054  0.051889  1
  Al  Al6  1  0.021554  0.166948  0.560162  1
  Al  Al7  1  0.979545  0.833480  0.438990  1
  Al  Al8  1  0.351687  0.832692  0.557953  1
  Al  Al9  1  0.648243  0.166796  0.442521  1
  Al  Al10  1  0.618991  0.831982  0.333621  1
  Al  Al11  1  0.379241  0.165323  0.668135  1
  Al  Al12  1  0.055109  0.490324  0.668313  1
  Al  Al13  1  0.947512  0.509594  0.333381  1
  Al  Al14  1  0.732859  0.843788  0.666697  1
  Al  Al15  1  0.268328  0.159366  0.334363  1
  Al  Al16  1  0.147012  0.501034  0.942087  1
  Al  Al17  1  0.848364  0.499454  0.051899  1
  Al  Al18  1  0.816365  0.832197  0.952833  1
  Al  Al19  1  0.183055  0.165769  0.046773  1
  Al  Al20  1  0.313818  0.500048  0.441575  1
  Al  Al21  1  0.686070  0.500291  0.557973  1
  Al  Al22  1  0.101881  0.840014  0.183183  1
  Al  Al23  1  0.899874  0.163519  0.817429  1
  Al  Al24  1  0.307615  0.367017  0.816557  1
  Al  Al25  1  0.695808  0.629904  0.184433  1
  Al  Al26  1  0.104158  0.959915  0.817280  1
  Al  Al27  1  0.891417  0.036412  0.183547  1
  Pt  Pt28  1  0.388477  0.508883  0.640029  1
  Pt  Pt29  1  0.613593  0.491195  0.361985  1
  Pt  Pt30  1  0.169774  0.828602  0.999371  1
  Pt  Pt31  1  0.831236  0.172027  0.999592  1
  Pt  Pt32  1  0.296690  0.834998  0.362001  1
  Pt  Pt33  1  0.704443  0.167155  0.639660  1
  Pt  Pt34  1  0.046557  0.824366  0.638806  1
  Pt  Pt35  1  0.952568  0.174007  0.362580  1
  Pt  Pt36  1  0.497683  0.499721  0.999949  1
