# generated using pymatgen
data_Tb8Dy8Cd3AgIr4
_symmetry_space_group_name_H-M   'P 1'
_cell_length_a   9.64129529
_cell_length_b   9.64131156
_cell_length_c   9.64436714
_cell_angle_alpha   59.86962970
_cell_angle_beta   59.86957252
_cell_angle_gamma   59.89377766
_symmetry_Int_Tables_number   1
_chemical_formula_structural   Tb8Dy8Cd3AgIr4
_chemical_formula_sum   'Tb8 Dy8 Cd3 Ag1 Ir4'
_cell_volume   632.15410241
_cell_formula_units_Z   1
loop_
 _symmetry_equiv_pos_site_id
 _symmetry_equiv_pos_as_xyz
  1  'x, y, z'
loop_
 _atom_site_type_symbol
 _atom_site_label
 _atom_site_symmetry_multiplicity
 _atom_site_fract_x
 _atom_site_fract_y
 _atom_site_fract_z
 _atom_site_occupancy
  Tb  Tb0  1  0.439307  0.439306  0.060560  1
  Tb  Tb1  1  0.060350  0.060355  0.438148  1
  Tb  Tb2  1  0.185790  0.812041  0.812037  1
  Tb  Tb3  1  0.811624  0.187288  0.187237  1
  Tb  Tb4  1  0.812040  0.185792  0.812036  1
  Tb  Tb5  1  0.187287  0.811623  0.187238  1
  Tb  Tb6  1  0.811982  0.811983  0.185801  1
  Tb  Tb7  1  0.187289  0.187291  0.811644  1
  Dy  Dy8  1  0.598647  0.598642  0.598286  1
  Dy  Dy9  1  0.599815  0.599810  0.202562  1
  Dy  Dy10  1  0.599435  0.202557  0.599822  1
  Dy  Dy11  1  0.202556  0.599432  0.599824  1
  Dy  Dy12  1  0.060473  0.439329  0.439409  1
  Dy  Dy13  1  0.438175  0.060297  0.060262  1
  Dy  Dy14  1  0.439330  0.060475  0.439408  1
  Dy  Dy15  1  0.060295  0.438175  0.060264  1
  Cd  Cd16  1  0.831034  0.831034  0.508588  1
  Cd  Cd17  1  0.831151  0.508598  0.831022  1
  Cd  Cd18  1  0.508599  0.831151  0.831022  1
  Ag  Ag19  1  0.832632  0.832633  0.832761  1
  Ir  Ir20  1  0.391794  0.391793  0.392146  1
  Ir  Ir21  1  0.392262  0.392261  0.825400  1
  Ir  Ir22  1  0.392710  0.825428  0.392264  1
  Ir  Ir23  1  0.825427  0.392709  0.392265  1
