# generated using pymatgen
data_Sm6Cr4CoP12Rh13
_symmetry_space_group_name_H-M   'P 1'
_cell_length_a   3.89698800
_cell_length_b   11.21758252
_cell_length_c   12.83467892
_cell_angle_alpha   90.14941030
_cell_angle_beta   90.00000000
_cell_angle_gamma   90.00000000
_symmetry_Int_Tables_number   1
_chemical_formula_structural   Sm6Cr4CoP12Rh13
_chemical_formula_sum   'Sm6 Cr4 Co1 P12 Rh13'
_cell_volume   561.06331537
_cell_formula_units_Z   1
loop_
 _symmetry_equiv_pos_site_id
 _symmetry_equiv_pos_as_xyz
  1  'x, y, z'
loop_
 _atom_site_type_symbol
 _atom_site_label
 _atom_site_symmetry_multiplicity
 _atom_site_fract_x
 _atom_site_fract_y
 _atom_site_fract_z
 _atom_site_occupancy
  Sm  Sm0  1  0.000000  0.501041  0.519110  1
  Sm  Sm1  1  0.500000  0.998304  0.482428  1
  Sm  Sm2  1  0.500000  0.821025  0.199948  1
  Sm  Sm3  1  0.500000  0.180185  0.202506  1
  Sm  Sm4  1  0.000000  0.682464  0.798512  1
  Sm  Sm5  1  0.000000  0.316692  0.797089  1
  Cr  Cr6  1  0.500000  0.498311  0.158986  1
  Cr  Cr7  1  0.000000  0.006003  0.842788  1
  Cr  Cr8  1  0.000000  0.498660  0.989311  1
  Cr  Cr9  1  0.000000  0.163520  0.001961  1
  Co  Co10  1  0.500000  0.001685  0.010390  1
  P  P11  1  0.500000  0.498183  0.883443  1
  P  P12  1  0.000000  0.006346  0.113256  1
  P  P13  1  0.500000  0.500265  0.342406  1
  P  P14  1  0.000000  0.999148  0.661088  1
  P  P15  1  0.500000  0.310942  0.618469  1
  P  P16  1  0.500000  0.687767  0.619117  1
  P  P17  1  0.000000  0.186674  0.382559  1
  P  P18  1  0.000000  0.813425  0.382335  1
  P  P19  1  0.500000  0.854361  0.895559  1
  P  P20  1  0.500000  0.145514  0.893842  1
  P  P21  1  0.000000  0.649787  0.105845  1
  P  P22  1  0.000000  0.346016  0.106794  1
  Rh  Rh23  1  0.500000  0.499181  0.699811  1
  Rh  Rh24  1  0.000000  0.999842  0.297974  1
  Rh  Rh25  1  0.500000  0.328653  0.994247  1
  Rh  Rh26  1  0.500000  0.667279  0.993458  1
  Rh  Rh27  1  0.000000  0.838826  0.004131  1
  Rh  Rh28  1  0.500000  0.292968  0.430503  1
  Rh  Rh29  1  0.500000  0.706734  0.430132  1
  Rh  Rh30  1  0.000000  0.206435  0.569305  1
  Rh  Rh31  1  0.000000  0.792557  0.570148  1
  Rh  Rh32  1  0.500000  0.876773  0.714428  1
  Rh  Rh33  1  0.500000  0.122685  0.711365  1
  Rh  Rh34  1  0.000000  0.625222  0.287342  1
  Rh  Rh35  1  0.000000  0.376527  0.289416  1
