# generated using pymatgen
data_Sc9Re4As
_symmetry_space_group_name_H-M   'P 1'
_cell_length_a   8.69569530
_cell_length_b   8.69798307
_cell_length_c   8.60233200
_cell_angle_alpha   90.00000000
_cell_angle_beta   90.00000000
_cell_angle_gamma   119.97026804
_symmetry_Int_Tables_number   1
_chemical_formula_structural   Sc9Re4As
_chemical_formula_sum   'Sc18 Re8 As2'
_cell_volume   563.63731753
_cell_formula_units_Z   2
loop_
 _symmetry_equiv_pos_site_id
 _symmetry_equiv_pos_as_xyz
  1  'x, y, z'
loop_
 _atom_site_type_symbol
 _atom_site_label
 _atom_site_symmetry_multiplicity
 _atom_site_fract_x
 _atom_site_fract_y
 _atom_site_fract_z
 _atom_site_occupancy
  Sc  Sc0  1  0.805473  0.610946  0.548047  1
  Sc  Sc1  1  0.805326  0.194614  0.547718  1
  Sc  Sc2  1  0.389081  0.194512  0.547965  1
  Sc  Sc3  1  0.194527  0.389054  0.451953  1
  Sc  Sc4  1  0.194674  0.805386  0.452282  1
  Sc  Sc5  1  0.610919  0.805488  0.452035  1
  Sc  Sc6  1  0.194527  0.389054  0.048047  1
  Sc  Sc7  1  0.194674  0.805386  0.047718  1
  Sc  Sc8  1  0.610919  0.805488  0.047965  1
  Sc  Sc9  1  0.805473  0.610946  0.951953  1
  Sc  Sc10  1  0.805326  0.194614  0.952282  1
  Sc  Sc11  1  0.389081  0.194512  0.952035  1
  Sc  Sc12  1  0.461967  0.924042  0.750000  1
  Sc  Sc13  1  0.461987  0.538100  0.750000  1
  Sc  Sc14  1  0.075966  0.538073  0.750000  1
  Sc  Sc15  1  0.538033  0.075958  0.250000  1
  Sc  Sc16  1  0.538013  0.461900  0.250000  1
  Sc  Sc17  1  0.924034  0.461927  0.250000  1
  Re  Re18  1  0.107285  0.214794  0.750000  1
  Re  Re19  1  0.107482  0.892324  0.750000  1
  Re  Re20  1  0.785004  0.892526  0.750000  1
  Re  Re21  1  0.892715  0.785206  0.250000  1
  Re  Re22  1  0.892518  0.107676  0.250000  1
  Re  Re23  1  0.214996  0.107474  0.250000  1
  Re  Re24  1  0.000000  0.000000  0.500000  1
  Re  Re25  1  0.000000  0.000000  0.000000  1
  As  As26  1  0.666465  0.333515  0.750000  1
  As  As27  1  0.333535  0.666485  0.250000  1
