# generated using pymatgen
data_NdPa3Ge4Pt3Rh
_symmetry_space_group_name_H-M   'P 1'
_cell_length_a   4.33555300
_cell_length_b   7.24629220
_cell_length_c   7.68402812
_cell_angle_alpha   91.03234286
_cell_angle_beta   90.00000000
_cell_angle_gamma   90.00000000
_symmetry_Int_Tables_number   1
_chemical_formula_structural   NdPa3Ge4Pt3Rh
_chemical_formula_sum   'Nd1 Pa3 Ge4 Pt3 Rh1'
_cell_volume   241.36749833
_cell_formula_units_Z   1
loop_
 _symmetry_equiv_pos_site_id
 _symmetry_equiv_pos_as_xyz
  1  'x, y, z'
loop_
 _atom_site_type_symbol
 _atom_site_label
 _atom_site_symmetry_multiplicity
 _atom_site_fract_x
 _atom_site_fract_y
 _atom_site_fract_z
 _atom_site_occupancy
  Nd  Nd0  1  0.750000  0.001785  0.206161  1
  Pa  Pa1  1  0.250000  0.497076  0.708882  1
  Pa  Pa2  1  0.750000  0.493250  0.299078  1
  Pa  Pa3  1  0.250000  0.999545  0.783976  1
  Ge  Ge4  1  0.250000  0.270593  0.085189  1
  Ge  Ge5  1  0.750000  0.735967  0.908715  1
  Ge  Ge6  1  0.250000  0.793600  0.400766  1
  Ge  Ge7  1  0.750000  0.199033  0.607348  1
  Pt  Pt8  1  0.750000  0.771994  0.578063  1
  Pt  Pt9  1  0.250000  0.228692  0.425478  1
  Pt  Pt10  1  0.250000  0.655403  0.078802  1
  Rh  Rh11  1  0.750000  0.353059  0.917540  1
