# generated using pymatgen
data_Li4Yb4MgPd4
_symmetry_space_group_name_H-M   'P 1'
_cell_length_a   8.23762872
_cell_length_b   8.23762993
_cell_length_c   8.23762845
_cell_angle_alpha   93.74476837
_cell_angle_beta   93.74477211
_cell_angle_gamma   150.38617473
_symmetry_Int_Tables_number   1
_chemical_formula_structural   Li4Yb4MgPd4
_chemical_formula_sum   'Li4 Yb4 Mg1 Pd4'
_cell_volume   267.05474078
_cell_formula_units_Z   1
loop_
 _symmetry_equiv_pos_site_id
 _symmetry_equiv_pos_as_xyz
  1  'x, y, z'
loop_
 _atom_site_type_symbol
 _atom_site_label
 _atom_site_symmetry_multiplicity
 _atom_site_fract_x
 _atom_site_fract_y
 _atom_site_fract_z
 _atom_site_occupancy
  Li  Li0  1  0.603785  0.078071  0.681856  1
  Li  Li1  1  0.921929  0.603785  0.525714  1
  Li  Li2  1  0.078071  0.396215  0.474286  1
  Li  Li3  1  0.396215  0.921929  0.318144  1
  Yb  Yb4  1  0.125625  0.795815  0.921440  1
  Yb  Yb5  1  0.204185  0.125625  0.329809  1
  Yb  Yb6  1  0.874375  0.204185  0.078560  1
  Yb  Yb7  1  0.795815  0.874375  0.670191  1
  Mg  Mg8  1  0.500000  0.500000  0.000000  1
  Pd  Pd9  1  0.439251  0.260089  0.699339  1
  Pd  Pd10  1  0.560749  0.739911  0.300661  1
  Pd  Pd11  1  0.260089  0.560749  0.820838  1
  Pd  Pd12  1  0.739911  0.439251  0.179162  1
