# generated using pymatgen
data_Dy4Er5Tm(CoBi2)2
_symmetry_space_group_name_H-M   'P 1'
_cell_length_a   7.95130068
_cell_length_b   8.88979896
_cell_length_c   12.39994638
_cell_angle_alpha   89.97914685
_cell_angle_beta   90.04090528
_cell_angle_gamma   89.98205239
_symmetry_Int_Tables_number   1
_chemical_formula_structural   Dy4Er5Tm(CoBi2)2
_chemical_formula_sum   'Dy8 Er10 Tm2 Co4 Bi8'
_cell_volume   876.49564525
_cell_formula_units_Z   2
loop_
 _symmetry_equiv_pos_site_id
 _symmetry_equiv_pos_as_xyz
  1  'x, y, z'
loop_
 _atom_site_type_symbol
 _atom_site_label
 _atom_site_symmetry_multiplicity
 _atom_site_fract_x
 _atom_site_fract_y
 _atom_site_fract_z
 _atom_site_occupancy
  Dy  Dy0  1  0.654811  0.750059  0.699875  1
  Dy  Dy1  1  0.345189  0.249941  0.300125  1
  Dy  Dy2  1  0.154521  0.250191  0.800251  1
  Dy  Dy3  1  0.845479  0.749809  0.199749  1
  Dy  Dy4  1  0.121364  0.749486  0.813990  1
  Dy  Dy5  1  0.878636  0.250514  0.186010  1
  Dy  Dy6  1  0.621394  0.249763  0.686295  1
  Dy  Dy7  1  0.378606  0.750237  0.313705  1
  Er  Er8  1  0.553985  0.749479  0.996962  1
  Er  Er9  1  0.446015  0.250521  0.003038  1
  Er  Er10  1  0.053388  0.250046  0.502876  1
  Er  Er11  1  0.946612  0.749954  0.497124  1
  Er  Er12  1  0.326232  0.536639  0.564504  1
  Er  Er13  1  0.173781  0.963572  0.064497  1
  Er  Er14  1  0.673768  0.463361  0.435496  1
  Er  Er15  1  0.826219  0.036428  0.935503  1
  Er  Er16  1  0.673815  0.036639  0.435520  1
  Er  Er17  1  0.326185  0.963361  0.564480  1
  Tm  Tm18  1  0.827472  0.463282  0.935586  1
  Tm  Tm19  1  0.172528  0.536718  0.064414  1
  Co  Co20  1  0.936975  0.749487  0.993247  1
  Co  Co21  1  0.063025  0.250513  0.006753  1
  Co  Co22  1  0.436554  0.249994  0.506937  1
  Co  Co23  1  0.563446  0.750006  0.493063  1
  Bi  Bi24  1  0.933451  0.007305  0.672967  1
  Bi  Bi25  1  0.066549  0.992695  0.327033  1
  Bi  Bi26  1  0.433235  0.992609  0.827221  1
  Bi  Bi27  1  0.066859  0.507427  0.327023  1
  Bi  Bi28  1  0.566765  0.007391  0.172779  1
  Bi  Bi29  1  0.933141  0.492573  0.672977  1
  Bi  Bi30  1  0.565878  0.492841  0.172945  1
  Bi  Bi31  1  0.434122  0.507159  0.827055  1
