# generated using pymatgen
data_AcZn10Rh
_symmetry_space_group_name_H-M   'P 1'
_cell_length_a   8.39288075
_cell_length_b   8.31744662
_cell_length_c   8.48833024
_cell_angle_alpha   99.54292621
_cell_angle_beta   99.94776398
_cell_angle_gamma   130.98595573
_symmetry_Int_Tables_number   1
_chemical_formula_structural   AcZn10Rh
_chemical_formula_sum   'Ac2 Zn20 Rh2'
_cell_volume   408.35673129
_cell_formula_units_Z   2
loop_
 _symmetry_equiv_pos_site_id
 _symmetry_equiv_pos_as_xyz
  1  'x, y, z'
loop_
 _atom_site_type_symbol
 _atom_site_label
 _atom_site_symmetry_multiplicity
 _atom_site_fract_x
 _atom_site_fract_y
 _atom_site_fract_z
 _atom_site_occupancy
  Ac  Ac0  1  0.252497  0.752508  0.505019  1
  Ac  Ac1  1  0.997503  0.997492  0.994981  1
  Zn  Zn2  1  0.899772  0.567436  0.087155  1
  Zn  Zn3  1  0.432748  0.515648  0.329956  1
  Zn  Zn4  1  0.485901  0.569892  0.671536  1
  Zn  Zn5  1  0.433830  0.108862  0.922521  1
  Zn  Zn6  1  0.764099  0.180108  0.828464  1
  Zn  Zn7  1  0.488709  0.813644  0.922486  1
  Zn  Zn8  1  0.508191  0.508198  0.016386  1
  Zn  Zn9  1  0.761291  0.936356  0.577514  1
  Zn  Zn10  1  0.741809  0.241802  0.483614  1
  Zn  Zn11  1  0.064379  0.648347  0.828480  1
  Zn  Zn12  1  0.125000  0.375000  0.750000  1
  Zn  Zn13  1  0.350228  0.182564  0.412845  1
  Zn  Zn14  1  0.816170  0.641138  0.577479  1
  Zn  Zn15  1  0.897209  0.814278  0.329934  1
  Zn  Zn16  1  0.185621  0.101653  0.671520  1
  Zn  Zn17  1  0.062698  0.230329  0.412870  1
  Zn  Zn18  1  0.352791  0.935722  0.170066  1
  Zn  Zn19  1  0.817252  0.234352  0.170044  1
  Zn  Zn20  1  0.187302  0.519671  0.087130  1
  Zn  Zn21  1  0.625000  0.375000  0.750000  1
  Rh  Rh22  1  0.625000  0.875000  0.250000  1
  Rh  Rh23  1  0.625000  0.375000  0.250000  1
