# generated using pymatgen
data_Y4Sc(GaSb)2
_symmetry_space_group_name_H-M   'P 1'
_cell_length_a   8.55712234
_cell_length_b   8.55712426
_cell_length_c   7.85893100
_cell_angle_alpha   90.00000000
_cell_angle_beta   90.00000000
_cell_angle_gamma   125.31060919
_symmetry_Int_Tables_number   1
_chemical_formula_structural   Y4Sc(GaSb)2
_chemical_formula_sum   'Y8 Sc2 Ga4 Sb4'
_cell_volume   469.59718778
_cell_formula_units_Z   2
loop_
 _symmetry_equiv_pos_site_id
 _symmetry_equiv_pos_as_xyz
  1  'x, y, z'
loop_
 _atom_site_type_symbol
 _atom_site_label
 _atom_site_symmetry_multiplicity
 _atom_site_fract_x
 _atom_site_fract_y
 _atom_site_fract_z
 _atom_site_occupancy
  Y  Y0  1  0.040509  0.299909  0.331659  1
  Y  Y1  1  0.959491  0.700091  0.668341  1
  Y  Y2  1  0.459491  0.200091  0.831659  1
  Y  Y3  1  0.799909  0.540509  0.168341  1
  Y  Y4  1  0.540509  0.799909  0.168341  1
  Y  Y5  1  0.200091  0.459491  0.831659  1
  Y  Y6  1  0.700091  0.959491  0.668341  1
  Y  Y7  1  0.299909  0.040509  0.331659  1
  Sc  Sc8  1  0.000000  0.000000  0.000000  1
  Sc  Sc9  1  0.500000  0.500000  0.500000  1
  Ga  Ga10  1  0.373168  0.373168  0.126722  1
  Ga  Ga11  1  0.626832  0.626832  0.873278  1
  Ga  Ga12  1  0.126832  0.126832  0.626722  1
  Ga  Ga13  1  0.873168  0.873168  0.373278  1
  Sb  Sb14  1  0.797093  0.202907  0.000000  1
  Sb  Sb15  1  0.202907  0.797093  0.000000  1
  Sb  Sb16  1  0.702907  0.297093  0.500000  1
  Sb  Sb17  1  0.297093  0.702907  0.500000  1
