# generated using pymatgen
data_Yb3CeHf2(USb5)2
_symmetry_space_group_name_H-M   'P 1'
_cell_length_a   9.29670735
_cell_length_b   9.36957374
_cell_length_c   6.20791700
_cell_angle_alpha   90.00000000
_cell_angle_beta   90.00000000
_cell_angle_gamma   119.47550138
_symmetry_Int_Tables_number   1
_chemical_formula_structural   Yb3CeHf2(USb5)2
_chemical_formula_sum   'Yb3 Ce1 Hf2 U2 Sb10'
_cell_volume   470.75688527
_cell_formula_units_Z   1
loop_
 _symmetry_equiv_pos_site_id
 _symmetry_equiv_pos_as_xyz
  1  'x, y, z'
loop_
 _atom_site_type_symbol
 _atom_site_label
 _atom_site_symmetry_multiplicity
 _atom_site_fract_x
 _atom_site_fract_y
 _atom_site_fract_z
 _atom_site_occupancy
  Yb  Yb0  1  0.996045  0.613644  0.250000  1
  Yb  Yb1  1  0.005475  0.385659  0.750000  1
  Yb  Yb2  1  0.376196  0.382100  0.250000  1
  Ce  Ce3  1  0.619366  0.610573  0.750000  1
  Hf  Hf4  1  0.001296  0.001378  0.001549  1
  Hf  Hf5  1  0.001296  0.001378  0.498451  1
  U  U6  1  0.615493  0.003791  0.250000  1
  U  U7  1  0.384305  0.999909  0.750000  1
  Sb  Sb8  1  0.268516  0.998444  0.250000  1
  Sb  Sb9  1  0.730808  0.998714  0.750000  1
  Sb  Sb10  1  0.993956  0.261363  0.250000  1
  Sb  Sb11  1  0.006227  0.740311  0.750000  1
  Sb  Sb12  1  0.730958  0.737570  0.250000  1
  Sb  Sb13  1  0.266519  0.261688  0.750000  1
  Sb  Sb14  1  0.341872  0.677943  0.999381  1
  Sb  Sb15  1  0.659900  0.323796  0.999744  1
  Sb  Sb16  1  0.659900  0.323796  0.500256  1
  Sb  Sb17  1  0.341872  0.677943  0.500619  1
