# generated using pymatgen
data_KRh2PbF9
_symmetry_space_group_name_H-M   'P 1'
_cell_length_a   10.08476400
_cell_length_b   5.49367000
_cell_length_c   14.31509300
_cell_angle_alpha   90.00000000
_cell_angle_beta   90.00000000
_cell_angle_gamma   90.00000000
_symmetry_Int_Tables_number   1
_chemical_formula_structural   KRh2PbF9
_chemical_formula_sum   'K4 Rh8 Pb4 F36'
_cell_volume   793.09001375
_cell_formula_units_Z   4
loop_
 _symmetry_equiv_pos_site_id
 _symmetry_equiv_pos_as_xyz
  1  'x, y, z'
loop_
 _atom_site_type_symbol
 _atom_site_label
 _atom_site_symmetry_multiplicity
 _atom_site_fract_x
 _atom_site_fract_y
 _atom_site_fract_z
 _atom_site_occupancy
  K  K0  1  0.772564  0.750000  0.198011  1
  K  K1  1  0.272565  0.750000  0.301988  1
  K  K2  1  0.727436  0.249999  0.698011  1
  K  K3  1  0.227435  0.249999  0.801989  1
  Rh  Rh4  1  0.231090  0.750000  0.006946  1
  Rh  Rh5  1  0.065992  0.249999  0.154826  1
  Rh  Rh6  1  0.565991  0.249999  0.345173  1
  Rh  Rh7  1  0.731091  0.750000  0.493054  1
  Rh  Rh8  1  0.268910  0.249999  0.506947  1
  Rh  Rh9  1  0.434009  0.750000  0.654827  1
  Rh  Rh10  1  0.934009  0.750000  0.845173  1
  Rh  Rh11  1  0.768909  0.249999  0.993054  1
  Pb  Pb12  1  0.446523  0.249999  0.109237  1
  Pb  Pb13  1  0.946522  0.249999  0.390763  1
  Pb  Pb14  1  0.053477  0.750000  0.609236  1
  Pb  Pb15  1  0.553478  0.750000  0.890764  1
  F  F16  1  0.645843  0.498339  0.047873  1
  F  F17  1  0.645843  0.001661  0.047873  1
  F  F18  1  0.101715  0.001462  0.053515  1
  F  F19  1  0.101715  0.498538  0.053515  1
  F  F20  1  0.869767  0.249999  0.117256  1
  F  F21  1  0.347807  0.750000  0.118511  1
  F  F22  1  0.249025  0.249999  0.205420  1
  F  F23  1  0.521248  0.492983  0.246838  1
  F  F24  1  0.521248  0.007019  0.246838  1
  F  F25  1  0.021249  0.492983  0.253163  1
  F  F26  1  0.021249  0.007019  0.253163  1
  F  F27  1  0.749026  0.249999  0.294581  1
  F  F28  1  0.847808  0.750000  0.381489  1
  F  F29  1  0.369767  0.249999  0.382744  1
  F  F30  1  0.601715  0.001462  0.446486  1
  F  F31  1  0.601715  0.498538  0.446486  1
  F  F32  1  0.145844  0.498339  0.452126  1
  F  F33  1  0.145844  0.001661  0.452126  1
  F  F34  1  0.854157  0.998339  0.547874  1
  F  F35  1  0.854157  0.501660  0.547874  1
  F  F36  1  0.398285  0.501461  0.553515  1
  F  F37  1  0.398285  0.998537  0.553515  1
  F  F38  1  0.630233  0.750000  0.617256  1
  F  F39  1  0.152193  0.249999  0.618511  1
  F  F40  1  0.250975  0.750000  0.705420  1
  F  F41  1  0.978753  0.992981  0.746837  1
  F  F42  1  0.978753  0.507018  0.746837  1
  F  F43  1  0.478752  0.992981  0.753163  1
  F  F44  1  0.478752  0.507018  0.753163  1
  F  F45  1  0.750975  0.750000  0.794580  1
  F  F46  1  0.652192  0.249999  0.881489  1
  F  F47  1  0.130234  0.750000  0.882744  1
  F  F48  1  0.898284  0.501461  0.946485  1
  F  F49  1  0.898284  0.998537  0.946485  1
  F  F50  1  0.354157  0.998339  0.952127  1
  F  F51  1  0.354157  0.501660  0.952127  1
