# generated using pymatgen
data_EuAs12(IrRu)2
_symmetry_space_group_name_H-M   'P 1'
_cell_length_a   7.48721914
_cell_length_b   7.50050347
_cell_length_c   7.50050348
_cell_angle_alpha   109.54735419
_cell_angle_beta   109.45980970
_cell_angle_gamma   109.47826753
_symmetry_Int_Tables_number   1
_chemical_formula_structural   EuAs12(IrRu)2
_chemical_formula_sum   'Eu1 As12 Ir2 Ru2'
_cell_volume   323.96195398
_cell_formula_units_Z   1
loop_
 _symmetry_equiv_pos_site_id
 _symmetry_equiv_pos_as_xyz
  1  'x, y, z'
loop_
 _atom_site_type_symbol
 _atom_site_label
 _atom_site_symmetry_multiplicity
 _atom_site_fract_x
 _atom_site_fract_y
 _atom_site_fract_z
 _atom_site_occupancy
  Eu  Eu0  1  0.000000  0.000000  0.000000  1
  As  As1  1  0.849754  0.649754  0.503047  1
  As  As2  1  0.150246  0.350246  0.496953  1
  As  As3  1  0.150246  0.653293  0.800001  1
  As  As4  1  0.849754  0.346707  0.199999  1
  As  As5  1  0.649362  0.503060  0.849311  1
  As  As6  1  0.350638  0.496940  0.150689  1
  As  As7  1  0.649362  0.800051  0.146302  1
  As  As8  1  0.350638  0.199949  0.853698  1
  As  As9  1  0.503596  0.849759  0.653835  1
  As  As10  1  0.496404  0.150241  0.346165  1
  As  As11  1  0.203694  0.853422  0.350273  1
  As  As12  1  0.796306  0.146578  0.649727  1
  Ir  Ir13  1  0.000000  0.500000  0.000000  1
  Ir  Ir14  1  0.000000  0.000000  0.500000  1
  Ru  Ru15  1  0.500000  0.500000  0.500000  1
  Ru  Ru16  1  0.500000  0.000000  0.000000  1
