# generated using pymatgen
data_V4SiTe4
_symmetry_space_group_name_H-M   'P 1'
_cell_length_a   4.60639500
_cell_length_b   10.62988100
_cell_length_c   18.52303600
_cell_angle_alpha   90.00000000
_cell_angle_beta   90.00000000
_cell_angle_gamma   90.00000000
_symmetry_Int_Tables_number   1
_chemical_formula_structural   V4SiTe4
_chemical_formula_sum   'V16 Si4 Te16'
_cell_volume   906.98843541
_cell_formula_units_Z   4
loop_
 _symmetry_equiv_pos_site_id
 _symmetry_equiv_pos_as_xyz
  1  'x, y, z'
loop_
 _atom_site_type_symbol
 _atom_site_label
 _atom_site_symmetry_multiplicity
 _atom_site_fract_x
 _atom_site_fract_y
 _atom_site_fract_z
 _atom_site_occupancy
  V  V0  1  0.500000  0.561042  0.388005  1
  V  V1  1  0.500000  0.438958  0.611995  1
  V  V2  1  0.500000  0.061042  0.111995  1
  V  V3  1  0.500000  0.938958  0.888005  1
  V  V4  1  0.500000  0.695735  0.534605  1
  V  V5  1  0.500000  0.304265  0.465395  1
  V  V6  1  0.500000  0.195735  0.965395  1
  V  V7  1  0.500000  0.804265  0.034605  1
  V  V8  1  0.000000  0.681222  0.445000  1
  V  V9  1  0.000000  0.318778  0.555000  1
  V  V10  1  0.000000  0.181222  0.055000  1
  V  V11  1  0.000000  0.818778  0.945000  1
  V  V12  1  0.000000  0.404687  0.396278  1
  V  V13  1  0.000000  0.595313  0.603722  1
  V  V14  1  0.000000  0.904687  0.103722  1
  V  V15  1  0.000000  0.095313  0.896278  1
  Si  Si16  1  0.249926  0.500000  0.500000  1
  Si  Si17  1  0.750074  0.000000  0.000000  1
  Si  Si18  1  0.750074  0.500000  0.500000  1
  Si  Si19  1  0.249926  0.000000  0.000000  1
  Te  Te20  1  0.000000  0.838971  0.560217  1
  Te  Te21  1  0.000000  0.161029  0.439783  1
  Te  Te22  1  0.000000  0.338971  0.939783  1
  Te  Te23  1  0.000000  0.661029  0.060217  1
  Te  Te24  1  0.500000  0.335436  0.320292  1
  Te  Te25  1  0.500000  0.664564  0.679708  1
  Te  Te26  1  0.500000  0.835436  0.179708  1
  Te  Te27  1  0.500000  0.164564  0.820292  1
  Te  Te28  1  0.500000  0.814353  0.404844  1
  Te  Te29  1  0.500000  0.185647  0.595156  1
  Te  Te30  1  0.500000  0.314353  0.095156  1
  Te  Te31  1  0.500000  0.685647  0.904844  1
  Te  Te32  1  0.000000  0.604230  0.305522  1
  Te  Te33  1  0.000000  0.395770  0.694478  1
  Te  Te34  1  0.000000  0.104230  0.194478  1
  Te  Te35  1  0.000000  0.895770  0.805522  1
