# generated using pymatgen
data_YbDy3Os8
_symmetry_space_group_name_H-M   'P 1'
_cell_length_a   5.34325800
_cell_length_b   5.34325649
_cell_length_c   8.79333100
_cell_angle_alpha   90.00000000
_cell_angle_beta   90.00000000
_cell_angle_gamma   119.99999697
_symmetry_Int_Tables_number   1
_chemical_formula_structural   YbDy3Os8
_chemical_formula_sum   'Yb1 Dy3 Os8'
_cell_volume   217.41836863
_cell_formula_units_Z   1
loop_
 _symmetry_equiv_pos_site_id
 _symmetry_equiv_pos_as_xyz
  1  'x, y, z'
loop_
 _atom_site_type_symbol
 _atom_site_label
 _atom_site_symmetry_multiplicity
 _atom_site_fract_x
 _atom_site_fract_y
 _atom_site_fract_z
 _atom_site_occupancy
  Yb  Yb0  1  0.333333  0.666667  0.063641  1
  Dy  Dy1  1  0.333333  0.666667  0.429321  1
  Dy  Dy2  1  0.666667  0.333333  0.565175  1
  Dy  Dy3  1  0.666667  0.333333  0.939190  1
  Os  Os4  1  0.000000  0.000000  0.500734  1
  Os  Os5  1  0.000000  0.000000  0.000901  1
  Os  Os6  1  0.827868  0.172132  0.250244  1
  Os  Os7  1  0.827868  0.655736  0.250244  1
  Os  Os8  1  0.344264  0.172132  0.250244  1
  Os  Os9  1  0.172976  0.827024  0.750102  1
  Os  Os10  1  0.172976  0.345951  0.750102  1
  Os  Os11  1  0.654049  0.827024  0.750102  1
