# generated using pymatgen
data_CaLaReC2
_symmetry_space_group_name_H-M   'P 1'
_cell_length_a   5.30086700
_cell_length_b   6.61697700
_cell_length_c   10.80766300
_cell_angle_alpha   90.00000000
_cell_angle_beta   90.00000000
_cell_angle_gamma   90.00000000
_symmetry_Int_Tables_number   1
_chemical_formula_structural   CaLaReC2
_chemical_formula_sum   'Ca4 La4 Re4 C8'
_cell_volume   379.08650741
_cell_formula_units_Z   4
loop_
 _symmetry_equiv_pos_site_id
 _symmetry_equiv_pos_as_xyz
  1  'x, y, z'
loop_
 _atom_site_type_symbol
 _atom_site_label
 _atom_site_symmetry_multiplicity
 _atom_site_fract_x
 _atom_site_fract_y
 _atom_site_fract_z
 _atom_site_occupancy
  Ca  Ca0  1  0.250000  0.462139  0.772870  1
  Ca  Ca1  1  0.750000  0.037861  0.272870  1
  Ca  Ca2  1  0.250000  0.962139  0.727130  1
  Ca  Ca3  1  0.750000  0.537861  0.227130  1
  La  La4  1  0.250000  0.792696  0.048594  1
  La  La5  1  0.750000  0.707304  0.548594  1
  La  La6  1  0.250000  0.292696  0.451406  1
  La  La7  1  0.750000  0.207304  0.951406  1
  Re  Re8  1  0.250000  0.269287  0.149187  1
  Re  Re9  1  0.750000  0.230713  0.649187  1
  Re  Re10  1  0.250000  0.769287  0.350813  1
  Re  Re11  1  0.750000  0.730713  0.850813  1
  C  C12  1  0.250000  0.704194  0.521700  1
  C  C13  1  0.750000  0.795806  0.021700  1
  C  C14  1  0.250000  0.204194  0.978300  1
  C  C15  1  0.750000  0.295806  0.478300  1
  C  C16  1  0.250000  0.030330  0.255777  1
  C  C17  1  0.750000  0.469670  0.755777  1
  C  C18  1  0.250000  0.530330  0.244223  1
  C  C19  1  0.750000  0.969670  0.744223  1
