# generated using pymatgen
data_Ti4Nb(Re7Tc5)2
_symmetry_space_group_name_H-M   'P 1'
_cell_length_a   8.35200084
_cell_length_b   8.35222624
_cell_length_c   8.35169749
_cell_angle_alpha   109.52653748
_cell_angle_beta   109.57393973
_cell_angle_gamma   109.42459640
_symmetry_Int_Tables_number   1
_chemical_formula_structural   Ti4Nb(Re7Tc5)2
_chemical_formula_sum   'Ti4 Nb1 Re14 Tc10'
_cell_volume   447.86434022
_cell_formula_units_Z   1
loop_
 _symmetry_equiv_pos_site_id
 _symmetry_equiv_pos_as_xyz
  1  'x, y, z'
loop_
 _atom_site_type_symbol
 _atom_site_label
 _atom_site_symmetry_multiplicity
 _atom_site_fract_x
 _atom_site_fract_y
 _atom_site_fract_z
 _atom_site_occupancy
  Ti  Ti0  1  0.628976  0.000234  0.000288  1
  Ti  Ti1  1  0.000238  0.629003  0.000344  1
  Ti  Ti2  1  0.999543  0.999526  0.628486  1
  Ti  Ti3  1  0.370555  0.370572  0.369312  1
  Nb  Nb4  1  0.999232  0.999244  0.999627  1
  Re  Re5  1  0.280640  0.600288  0.600152  1
  Re  Re6  1  0.600290  0.280616  0.600137  1
  Re  Re7  1  0.376236  0.193884  0.000113  1
  Re  Re8  1  0.180525  0.806708  0.806392  1
  Re  Re9  1  0.376121  0.001332  0.194570  1
  Re  Re10  1  0.193905  0.376255  0.000129  1
  Re  Re11  1  0.001329  0.376142  0.194550  1
  Re  Re12  1  0.806673  0.180472  0.806352  1
  Re  Re13  1  0.805773  0.805790  0.181680  1
  Re  Re14  1  0.000853  0.193930  0.376510  1
  Re  Re15  1  0.193974  0.000882  0.376492  1
  Re  Re16  1  0.623431  0.623397  0.817295  1
  Re  Re17  1  0.815743  0.623165  0.622771  1
  Re  Re18  1  0.623229  0.815782  0.622795  1
  Tc  Tc19  1  0.400845  0.683858  0.000791  1
  Tc  Tc20  1  0.718995  0.317526  0.316684  1
  Tc  Tc21  1  0.400865  0.000803  0.682815  1
  Tc  Tc22  1  0.683862  0.400841  0.000786  1
  Tc  Tc23  1  0.000818  0.400901  0.682811  1
  Tc  Tc24  1  0.317514  0.719006  0.316701  1
  Tc  Tc25  1  0.317385  0.317390  0.719427  1
  Tc  Tc26  1  0.000786  0.682135  0.400553  1
  Tc  Tc27  1  0.682149  0.000806  0.400551  1
  Tc  Tc28  1  0.599517  0.599511  0.280886  1
