# generated using pymatgen
data_Th4Pd4Pt7Rh
_symmetry_space_group_name_H-M   'P 1'
_cell_length_a   5.99136925
_cell_length_b   5.95256248
_cell_length_c   9.79369512
_cell_angle_alpha   90.01398601
_cell_angle_beta   89.26288420
_cell_angle_gamma   120.08522711
_symmetry_Int_Tables_number   1
_chemical_formula_structural   Th4Pd4Pt7Rh
_chemical_formula_sum   'Th4 Pd4 Pt7 Rh1'
_cell_volume   302.19448647
_cell_formula_units_Z   1
loop_
 _symmetry_equiv_pos_site_id
 _symmetry_equiv_pos_as_xyz
  1  'x, y, z'
loop_
 _atom_site_type_symbol
 _atom_site_label
 _atom_site_symmetry_multiplicity
 _atom_site_fract_x
 _atom_site_fract_y
 _atom_site_fract_z
 _atom_site_occupancy
  Th  Th0  1  0.999867  0.999960  0.499943  1
  Th  Th1  1  0.999829  0.000059  0.000087  1
  Th  Th2  1  0.325182  0.663123  0.255015  1
  Th  Th3  1  0.675856  0.337044  0.744655  1
  Pd  Pd4  1  0.499614  0.499909  0.500692  1
  Pd  Pd5  1  0.499961  0.500026  0.999243  1
  Pd  Pd6  1  0.499997  0.000129  0.999610  1
  Pd  Pd7  1  0.179498  0.827329  0.750909  1
  Pt  Pt8  1  0.499854  0.999859  0.500490  1
  Pt  Pt9  1  0.999900  0.499918  0.999590  1
  Pt  Pt10  1  0.820909  0.648715  0.248991  1
  Pt  Pt11  1  0.349189  0.175211  0.248384  1
  Pt  Pt12  1  0.821065  0.172487  0.249386  1
  Pt  Pt13  1  0.179258  0.352056  0.751116  1
  Pt  Pt14  1  0.650439  0.824603  0.751448  1
  Rh  Rh15  1  0.999583  0.499573  0.500443  1
