# generated using pymatgen
data_Nb8Si6BMo2
_symmetry_space_group_name_H-M   'P 1'
_cell_length_a   7.57377800
_cell_length_b   7.57377787
_cell_length_c   5.25877800
_cell_angle_alpha   90.00000000
_cell_angle_beta   90.00000000
_cell_angle_gamma   120.00000057
_symmetry_Int_Tables_number   1
_chemical_formula_structural   Nb8Si6BMo2
_chemical_formula_sum   'Nb8 Si6 B1 Mo2'
_cell_volume   261.24055713
_cell_formula_units_Z   1
loop_
 _symmetry_equiv_pos_site_id
 _symmetry_equiv_pos_as_xyz
  1  'x, y, z'
loop_
 _atom_site_type_symbol
 _atom_site_label
 _atom_site_symmetry_multiplicity
 _atom_site_fract_x
 _atom_site_fract_y
 _atom_site_fract_z
 _atom_site_occupancy
  Nb  Nb0  1  0.000000  0.753935  0.254331  1
  Nb  Nb1  1  0.246065  0.246065  0.254331  1
  Nb  Nb2  1  0.753935  0.000000  0.254331  1
  Nb  Nb3  1  0.000000  0.246065  0.745669  1
  Nb  Nb4  1  0.753935  0.753935  0.745669  1
  Nb  Nb5  1  0.246065  0.000000  0.745669  1
  Nb  Nb6  1  0.333333  0.666667  0.500000  1
  Nb  Nb7  1  0.666667  0.333333  0.500000  1
  Si  Si8  1  0.000000  0.398773  0.231179  1
  Si  Si9  1  0.601227  0.601227  0.231179  1
  Si  Si10  1  0.398773  0.000000  0.231179  1
  Si  Si11  1  0.000000  0.601227  0.768821  1
  Si  Si12  1  0.398773  0.398773  0.768821  1
  Si  Si13  1  0.601227  0.000000  0.768821  1
  B  B14  1  0.000000  0.000000  0.500000  1
  Mo  Mo15  1  0.666667  0.333333  0.000000  1
  Mo  Mo16  1  0.333333  0.666667  0.000000  1
