# generated using pymatgen
data_Sm8Sc11Si16Hg
_symmetry_space_group_name_H-M   'P 1'
_cell_length_a   7.14001837
_cell_length_b   7.48152775
_cell_length_c   14.17200300
_cell_angle_alpha   90.00000000
_cell_angle_beta   90.00000000
_cell_angle_gamma   89.81469777
_symmetry_Int_Tables_number   1
_chemical_formula_structural   Sm8Sc11Si16Hg
_chemical_formula_sum   'Sm8 Sc11 Si16 Hg1'
_cell_volume   757.03957682
_cell_formula_units_Z   1
loop_
 _symmetry_equiv_pos_site_id
 _symmetry_equiv_pos_as_xyz
  1  'x, y, z'
loop_
 _atom_site_type_symbol
 _atom_site_label
 _atom_site_symmetry_multiplicity
 _atom_site_fract_x
 _atom_site_fract_y
 _atom_site_fract_z
 _atom_site_occupancy
  Sm  Sm0  1  0.010507  0.171927  0.097565  1
  Sm  Sm1  1  0.991134  0.819070  0.900429  1
  Sm  Sm2  1  0.482519  0.672138  0.900287  1
  Sm  Sm3  1  0.991134  0.819070  0.599571  1
  Sm  Sm4  1  0.511962  0.325596  0.097742  1
  Sm  Sm5  1  0.010507  0.171927  0.402435  1
  Sm  Sm6  1  0.511962  0.325596  0.402258  1
  Sm  Sm7  1  0.482519  0.672138  0.599713  1
  Sc  Sc8  1  0.839118  0.499763  0.250000  1
  Sc  Sc9  1  0.339440  0.000963  0.250000  1
  Sc  Sc10  1  0.658407  0.000287  0.750000  1
  Sc  Sc11  1  0.326422  0.183173  0.625136  1
  Sc  Sc12  1  0.671239  0.823706  0.375265  1
  Sc  Sc13  1  0.170547  0.679000  0.373726  1
  Sc  Sc14  1  0.671239  0.823706  0.124735  1
  Sc  Sc15  1  0.836467  0.325401  0.625300  1
  Sc  Sc16  1  0.326422  0.183173  0.874864  1
  Sc  Sc17  1  0.836467  0.325401  0.874700  1
  Sc  Sc18  1  0.170547  0.679000  0.126274  1
  Si  Si19  1  0.029738  0.103396  0.750000  1
  Si  Si20  1  0.966860  0.880802  0.250000  1
  Si  Si21  1  0.466763  0.622013  0.250000  1
  Si  Si22  1  0.546667  0.374958  0.750000  1
  Si  Si23  1  0.292346  0.897832  0.750000  1
  Si  Si24  1  0.711989  0.122207  0.250000  1
  Si  Si25  1  0.211920  0.377798  0.250000  1
  Si  Si26  1  0.770931  0.625258  0.750000  1
  Si  Si27  1  0.157070  0.459106  0.529407  1
  Si  Si28  1  0.845317  0.536876  0.461474  1
  Si  Si29  1  0.346817  0.964859  0.461600  1
  Si  Si30  1  0.845317  0.536876  0.038526  1
  Si  Si31  1  0.655136  0.033684  0.540727  1
  Si  Si32  1  0.157070  0.459106  0.970593  1
  Si  Si33  1  0.655136  0.033684  0.959273  1
  Si  Si34  1  0.346817  0.964859  0.038400  1
  Hg  Hg35  1  0.155552  0.505649  0.750000  1
