# generated using pymatgen
data_Nd5Tm(CI5)2
_symmetry_space_group_name_H-M   'P 1'
_cell_length_a   7.86825909
_cell_length_b   9.67265484
_cell_length_c   9.76056841
_cell_angle_alpha   107.22998853
_cell_angle_beta   96.42645810
_cell_angle_gamma   104.44539235
_symmetry_Int_Tables_number   1
_chemical_formula_structural   Nd5Tm(CI5)2
_chemical_formula_sum   'Nd5 Tm1 C2 I10'
_cell_volume   673.07162477
_cell_formula_units_Z   1
loop_
 _symmetry_equiv_pos_site_id
 _symmetry_equiv_pos_as_xyz
  1  'x, y, z'
loop_
 _atom_site_type_symbol
 _atom_site_label
 _atom_site_symmetry_multiplicity
 _atom_site_fract_x
 _atom_site_fract_y
 _atom_site_fract_z
 _atom_site_occupancy
  Nd  Nd0  1  0.105033  0.038562  0.775208  1
  Nd  Nd1  1  0.373513  0.133388  0.179144  1
  Nd  Nd2  1  0.892022  0.959961  0.223592  1
  Nd  Nd3  1  0.029258  0.734130  0.922012  1
  Nd  Nd4  1  0.969059  0.265861  0.077067  1
  Tm  Tm5  1  0.632860  0.869570  0.824754  1
  C  C6  1  0.907288  0.969020  0.957778  1
  C  C7  1  0.084246  0.028706  0.039242  1
  I  I8  1  0.207074  0.736534  0.648156  1
  I  I9  1  0.088745  0.370599  0.818370  1
  I  I10  1  0.460178  0.807277  0.082150  1
  I  I11  1  0.255223  0.084713  0.462730  1
  I  I12  1  0.545652  0.180266  0.901364  1
  I  I13  1  0.810426  0.268230  0.359460  1
  I  I14  1  0.347584  0.459089  0.274447  1
  I  I15  1  0.911775  0.629658  0.181300  1
  I  I16  1  0.646114  0.553069  0.726379  1
  I  I17  1  0.733949  0.911369  0.546845  1
