# generated using pymatgen
data_Er4GaSi3Ni4
_symmetry_space_group_name_H-M   'P 1'
_cell_length_a   4.16752400
_cell_length_b   6.80386689
_cell_length_c   7.15836286
_cell_angle_alpha   90.13744839
_cell_angle_beta   90.00000000
_cell_angle_gamma   90.00000000
_symmetry_Int_Tables_number   1
_chemical_formula_structural   Er4GaSi3Ni4
_chemical_formula_sum   'Er4 Ga1 Si3 Ni4'
_cell_volume   202.97678887
_cell_formula_units_Z   1
loop_
 _symmetry_equiv_pos_site_id
 _symmetry_equiv_pos_as_xyz
  1  'x, y, z'
loop_
 _atom_site_type_symbol
 _atom_site_label
 _atom_site_symmetry_multiplicity
 _atom_site_fract_x
 _atom_site_fract_y
 _atom_site_fract_z
 _atom_site_occupancy
  Er  Er0  1  0.750000  0.013935  0.295964  1
  Er  Er1  1  0.250000  0.991258  0.702952  1
  Er  Er2  1  0.250000  0.488819  0.800806  1
  Er  Er3  1  0.750000  0.509162  0.198059  1
  Ga  Ga4  1  0.750000  0.693282  0.587144  1
  Si  Si5  1  0.250000  0.315419  0.415022  1
  Si  Si6  1  0.250000  0.809985  0.088569  1
  Si  Si7  1  0.750000  0.190903  0.911634  1
  Ni  Ni8  1  0.750000  0.816640  0.925834  1
  Ni  Ni9  1  0.250000  0.190701  0.083493  1
  Ni  Ni10  1  0.250000  0.685036  0.406336  1
  Ni  Ni11  1  0.750000  0.294861  0.584189  1
