# generated using pymatgen
data_Sm6AlSi5Rh12
_symmetry_space_group_name_H-M   'P 1'
_cell_length_a   5.64273900
_cell_length_b   5.64273711
_cell_length_c   15.18992200
_cell_angle_alpha   90.00000000
_cell_angle_beta   90.00000000
_cell_angle_gamma   119.99999352
_symmetry_Int_Tables_number   1
_chemical_formula_structural   Sm6AlSi5Rh12
_chemical_formula_sum   'Sm6 Al1 Si5 Rh12'
_cell_volume   418.85719857
_cell_formula_units_Z   1
loop_
 _symmetry_equiv_pos_site_id
 _symmetry_equiv_pos_as_xyz
  1  'x, y, z'
loop_
 _atom_site_type_symbol
 _atom_site_label
 _atom_site_symmetry_multiplicity
 _atom_site_fract_x
 _atom_site_fract_y
 _atom_site_fract_z
 _atom_site_occupancy
  Sm  Sm0  1  0.666667  0.333333  0.962022  1
  Sm  Sm1  1  0.666667  0.333333  0.537758  1
  Sm  Sm2  1  0.333333  0.666667  0.037978  1
  Sm  Sm3  1  0.666667  0.333333  0.750067  1
  Sm  Sm4  1  0.333333  0.666667  0.462242  1
  Sm  Sm5  1  0.333333  0.666667  0.249933  1
  Al  Al6  1  0.000000  0.000000  0.500000  1
  Si  Si7  1  0.666667  0.333333  0.247821  1
  Si  Si8  1  0.000000  0.000000  0.248788  1
  Si  Si9  1  0.000000  0.000000  0.751212  1
  Si  Si10  1  0.333333  0.666667  0.752179  1
  Si  Si11  1  0.000000  0.000000  0.000000  1
  Rh  Rh12  1  0.166101  0.332202  0.869167  1
  Rh  Rh13  1  0.167221  0.334443  0.634945  1
  Rh  Rh14  1  0.667798  0.833899  0.869167  1
  Rh  Rh15  1  0.334443  0.167221  0.365055  1
  Rh  Rh16  1  0.832779  0.665557  0.365055  1
  Rh  Rh17  1  0.832779  0.167221  0.365055  1
  Rh  Rh18  1  0.833899  0.166101  0.130833  1
  Rh  Rh19  1  0.332202  0.166101  0.130833  1
  Rh  Rh20  1  0.665557  0.832779  0.634945  1
  Rh  Rh21  1  0.167221  0.832779  0.634945  1
  Rh  Rh22  1  0.833899  0.667798  0.130833  1
  Rh  Rh23  1  0.166101  0.833899  0.869167  1
