# generated using pymatgen
data_Mo3P4Ru5
_symmetry_space_group_name_H-M   'P 1'
_cell_length_a   3.92173900
_cell_length_b   6.03887799
_cell_length_c   6.92291798
_cell_angle_alpha   89.73226949
_cell_angle_beta   90.00000000
_cell_angle_gamma   90.00000000
_symmetry_Int_Tables_number   1
_chemical_formula_structural   Mo3P4Ru5
_chemical_formula_sum   'Mo3 P4 Ru5'
_cell_volume   163.95300744
_cell_formula_units_Z   1
loop_
 _symmetry_equiv_pos_site_id
 _symmetry_equiv_pos_as_xyz
  1  'x, y, z'
loop_
 _atom_site_type_symbol
 _atom_site_label
 _atom_site_symmetry_multiplicity
 _atom_site_fract_x
 _atom_site_fract_y
 _atom_site_fract_z
 _atom_site_occupancy
  Mo  Mo0  1  0.250000  0.521418  0.331390  1
  Mo  Mo1  1  0.750000  0.972071  0.837372  1
  Mo  Mo2  1  0.750000  0.477561  0.668779  1
  P  P3  1  0.250000  0.754137  0.613017  1
  P  P4  1  0.250000  0.258035  0.884833  1
  P  P5  1  0.750000  0.247932  0.390410  1
  P  P6  1  0.750000  0.740918  0.114729  1
  Ru  Ru7  1  0.250000  0.031729  0.158430  1
  Ru  Ru8  1  0.250000  0.138540  0.572726  1
  Ru  Ru9  1  0.250000  0.640234  0.932153  1
  Ru  Ru10  1  0.750000  0.863163  0.424606  1
  Ru  Ru11  1  0.750000  0.354261  0.071552  1
