# generated using pymatgen
data_Pm2ScAl3
_symmetry_space_group_name_H-M   'P 1'
_cell_length_a   5.85902346
_cell_length_b   5.79508278
_cell_length_c   5.85902400
_cell_angle_alpha   59.63433190
_cell_angle_beta   59.99999694
_cell_angle_gamma   59.63432632
_symmetry_Int_Tables_number   1
_chemical_formula_structural   Pm2ScAl3
_chemical_formula_sum   'Pm2 Sc1 Al3'
_cell_volume   139.88543948
_cell_formula_units_Z   1
loop_
 _symmetry_equiv_pos_site_id
 _symmetry_equiv_pos_as_xyz
  1  'x, y, z'
loop_
 _atom_site_type_symbol
 _atom_site_label
 _atom_site_symmetry_multiplicity
 _atom_site_fract_x
 _atom_site_fract_y
 _atom_site_fract_z
 _atom_site_occupancy
  Pm  Pm0  1  0.751187  0.746439  0.751187  1
  Pm  Pm1  1  0.498813  0.503561  0.498813  1
  Sc  Sc2  1  0.125000  0.625000  0.125000  1
  Al  Al3  1  0.125000  0.125000  0.125000  1
  Al  Al4  1  0.625000  0.125000  0.125000  1
  Al  Al5  1  0.125000  0.125000  0.625000  1
