# generated using pymatgen
data_YHo3Ga18Co5Pt
_symmetry_space_group_name_H-M   'P 1'
_cell_length_a   7.41809697
_cell_length_b   7.41754555
_cell_length_c   9.41432100
_cell_angle_alpha   89.88146753
_cell_angle_beta   89.87778543
_cell_angle_gamma   119.77966463
_symmetry_Int_Tables_number   1
_chemical_formula_structural   YHo3Ga18Co5Pt
_chemical_formula_sum   'Y1 Ho3 Ga18 Co5 Pt1'
_cell_volume   449.60229376
_cell_formula_units_Z   1
loop_
 _symmetry_equiv_pos_site_id
 _symmetry_equiv_pos_as_xyz
  1  'x, y, z'
loop_
 _atom_site_type_symbol
 _atom_site_label
 _atom_site_symmetry_multiplicity
 _atom_site_fract_x
 _atom_site_fract_y
 _atom_site_fract_z
 _atom_site_occupancy
  Y  Y0  1  0.328907  0.002905  0.748756  1
  Ho  Ho1  1  0.002850  0.328942  0.748717  1
  Ho  Ho2  1  0.671085  0.997141  0.251287  1
  Ho  Ho3  1  0.997128  0.671062  0.251283  1
  Ga  Ga4  1  0.656122  0.001077  0.923921  1
  Ga  Ga5  1  0.334949  0.998073  0.427831  1
  Ga  Ga6  1  0.998071  0.334943  0.428053  1
  Ga  Ga7  1  0.344162  0.998924  0.076431  1
  Ga  Ga8  1  0.000841  0.655599  0.923896  1
  Ga  Ga9  1  0.998920  0.344154  0.076244  1
  Ga  Ga10  1  0.333157  0.333380  0.558115  1
  Ga  Ga11  1  0.343390  0.343595  0.937273  1
  Ga  Ga12  1  0.656613  0.656614  0.062876  1
  Ga  Ga13  1  0.666848  0.666847  0.441724  1
  Ga  Ga14  1  0.871406  0.871613  0.741179  1
  Ga  Ga15  1  0.128309  0.128315  0.258818  1
  Ga  Ga16  1  0.335615  0.552520  0.251284  1
  Ga  Ga17  1  0.552525  0.335624  0.251284  1
  Ga  Ga18  1  0.664643  0.447805  0.748715  1
  Ga  Ga19  1  0.447550  0.664166  0.748713  1
  Ga  Ga20  1  0.665305  0.001932  0.571800  1
  Ga  Ga21  1  0.001678  0.664804  0.571804  1
  Co  Co22  1  0.329506  0.670456  0.000064  1
  Co  Co23  1  0.670925  0.329182  0.499929  1
  Co  Co24  1  0.670530  0.329538  0.000062  1
  Co  Co25  1  0.329134  0.670827  0.499933  1
  Co  Co26  1  0.999921  0.999979  0.499920  1
  Pt  Pt27  1  0.999911  0.999982  0.000090  1
