# generated using pymatgen
data_Yb4Dy2Si24Os3Ru5
_symmetry_space_group_name_H-M   'P 1'
_cell_length_a   10.14857728
_cell_length_b   10.14857722
_cell_length_c   8.15432761
_cell_angle_alpha   90.01779453
_cell_angle_beta   90.01780691
_cell_angle_gamma   132.62108892
_symmetry_Int_Tables_number   1
_chemical_formula_structural   Yb4Dy2Si24Os3Ru5
_chemical_formula_sum   'Yb4 Dy2 Si24 Os3 Ru5'
_cell_volume   617.99705293
_cell_formula_units_Z   1
loop_
 _symmetry_equiv_pos_site_id
 _symmetry_equiv_pos_as_xyz
  1  'x, y, z'
loop_
 _atom_site_type_symbol
 _atom_site_label
 _atom_site_symmetry_multiplicity
 _atom_site_fract_x
 _atom_site_fract_y
 _atom_site_fract_z
 _atom_site_occupancy
  Yb  Yb0  1  0.500143  0.499857  0.500000  1
  Yb  Yb1  1  0.999834  0.000166  0.000000  1
  Yb  Yb2  1  0.500371  0.000138  0.749893  1
  Yb  Yb3  1  0.999862  0.499629  0.250107  1
  Dy  Dy4  1  0.500096  0.000295  0.250019  1
  Dy  Dy5  1  0.999705  0.499904  0.749981  1
  Si  Si6  1  0.796015  0.203985  0.500000  1
  Si  Si7  1  0.295533  0.704467  0.000000  1
  Si  Si8  1  0.204520  0.795480  0.500000  1
  Si  Si9  1  0.704529  0.295471  0.000000  1
  Si  Si10  1  0.331963  0.335557  0.831914  1
  Si  Si11  1  0.664443  0.668037  0.168086  1
  Si  Si12  1  0.168331  0.164155  0.331639  1
  Si  Si13  1  0.835845  0.831669  0.668361  1
  Si  Si14  1  0.122858  0.890609  0.730261  1
  Si  Si15  1  0.109391  0.877142  0.269739  1
  Si  Si16  1  0.608244  0.375710  0.229278  1
  Si  Si17  1  0.624290  0.391756  0.770722  1
  Si  Si18  1  0.875211  0.107728  0.269042  1
  Si  Si19  1  0.892272  0.124789  0.730958  1
  Si  Si20  1  0.391533  0.623985  0.770019  1
  Si  Si21  1  0.376015  0.608467  0.229981  1
  Si  Si22  1  0.346475  0.113345  0.506578  1
  Si  Si23  1  0.886655  0.653525  0.493422  1
  Si  Si24  1  0.386919  0.153929  0.008365  1
  Si  Si25  1  0.846071  0.613081  0.991635  1
  Si  Si26  1  0.653610  0.886312  0.490525  1
  Si  Si27  1  0.113688  0.346390  0.509475  1
  Si  Si28  1  0.613635  0.847490  0.993462  1
  Si  Si29  1  0.152510  0.386365  0.006538  1
  Os  Os30  1  0.671045  0.328955  0.500000  1
  Os  Os31  1  0.170431  0.829569  0.000000  1
  Os  Os32  1  0.329686  0.670314  0.500000  1
  Ru  Ru33  1  0.828799  0.171201  0.000000  1
  Ru  Ru34  1  0.126502  0.126796  0.624650  1
  Ru  Ru35  1  0.873204  0.873498  0.375350  1
  Ru  Ru36  1  0.373258  0.373489  0.124493  1
  Ru  Ru37  1  0.626511  0.626742  0.875507  1
