# generated using pymatgen
data_Tm4Al7Ru
_symmetry_space_group_name_H-M   'P 1'
_cell_length_a   5.51833600
_cell_length_b   5.51833723
_cell_length_c   8.77086900
_cell_angle_alpha   90.00000000
_cell_angle_beta   90.00000000
_cell_angle_gamma   120.00000464
_symmetry_Int_Tables_number   1
_chemical_formula_structural   Tm4Al7Ru
_chemical_formula_sum   'Tm4 Al7 Ru1'
_cell_volume   231.30744571
_cell_formula_units_Z   1
loop_
 _symmetry_equiv_pos_site_id
 _symmetry_equiv_pos_as_xyz
  1  'x, y, z'
loop_
 _atom_site_type_symbol
 _atom_site_label
 _atom_site_symmetry_multiplicity
 _atom_site_fract_x
 _atom_site_fract_y
 _atom_site_fract_z
 _atom_site_occupancy
  Tm  Tm0  1  0.333333  0.666667  0.442539  1
  Tm  Tm1  1  0.666667  0.333333  0.557461  1
  Tm  Tm2  1  0.666667  0.333333  0.937441  1
  Tm  Tm3  1  0.333333  0.666667  0.062559  1
  Al  Al4  1  0.000000  0.000000  0.500000  1
  Al  Al5  1  0.831818  0.168182  0.240008  1
  Al  Al6  1  0.831818  0.663638  0.240008  1
  Al  Al7  1  0.336362  0.168182  0.240008  1
  Al  Al8  1  0.168182  0.831818  0.759992  1
  Al  Al9  1  0.168182  0.336362  0.759992  1
  Al  Al10  1  0.663638  0.831818  0.759992  1
  Ru  Ru11  1  0.000000  0.000000  0.000000  1
