# generated using pymatgen
data_Tb3Ho2Er3In3Os
_symmetry_space_group_name_H-M   'P 1'
_cell_length_a   10.33743700
_cell_length_b   10.33743720
_cell_length_c   7.12681600
_cell_angle_alpha   90.00000000
_cell_angle_beta   90.00000000
_cell_angle_gamma   120.00000254
_symmetry_Int_Tables_number   1
_chemical_formula_structural   Tb3Ho2Er3In3Os
_chemical_formula_sum   'Tb6 Ho4 Er6 In6 Os2'
_cell_volume   659.55638221
_cell_formula_units_Z   2
loop_
 _symmetry_equiv_pos_site_id
 _symmetry_equiv_pos_as_xyz
  1  'x, y, z'
loop_
 _atom_site_type_symbol
 _atom_site_label
 _atom_site_symmetry_multiplicity
 _atom_site_fract_x
 _atom_site_fract_y
 _atom_site_fract_z
 _atom_site_occupancy
  Tb  Tb0  1  0.533020  0.066040  0.506392  1
  Tb  Tb1  1  0.933960  0.466980  0.506392  1
  Tb  Tb2  1  0.533020  0.466980  0.506392  1
  Tb  Tb3  1  0.466980  0.933960  0.006392  1
  Tb  Tb4  1  0.066040  0.533020  0.006392  1
  Tb  Tb5  1  0.466980  0.533020  0.006392  1
  Ho  Ho6  1  0.666667  0.333333  0.883980  1
  Ho  Ho7  1  0.333333  0.666667  0.383980  1
  Ho  Ho8  1  0.000000  0.000000  0.492223  1
  Ho  Ho9  1  0.000000  0.000000  0.992223  1
  Er  Er10  1  0.177225  0.354451  0.711483  1
  Er  Er11  1  0.645549  0.822775  0.711483  1
  Er  Er12  1  0.177225  0.822775  0.711483  1
  Er  Er13  1  0.822775  0.645549  0.211483  1
  Er  Er14  1  0.354451  0.177225  0.211483  1
  Er  Er15  1  0.822775  0.177225  0.211483  1
  In  In16  1  0.837214  0.674430  0.756745  1
  In  In17  1  0.325570  0.162786  0.756745  1
  In  In18  1  0.837214  0.162786  0.756745  1
  In  In19  1  0.162786  0.325570  0.256745  1
  In  In20  1  0.674430  0.837214  0.256745  1
  In  In21  1  0.162786  0.837214  0.256745  1
  Os  Os22  1  0.666667  0.333333  0.278959  1
  Os  Os23  1  0.333333  0.666667  0.778959  1
