# generated using pymatgen
data_Y10Al2NiPd
_symmetry_space_group_name_H-M   'P 1'
_cell_length_a   9.69574127
_cell_length_b   9.51932802
_cell_length_c   9.37939000
_cell_angle_alpha   90.00000000
_cell_angle_beta   90.00000000
_cell_angle_gamma   119.81999652
_symmetry_Int_Tables_number   1
_chemical_formula_structural   Y10Al2NiPd
_chemical_formula_sum   'Y20 Al4 Ni2 Pd2'
_cell_volume   751.06482050
_cell_formula_units_Z   2
loop_
 _symmetry_equiv_pos_site_id
 _symmetry_equiv_pos_as_xyz
  1  'x, y, z'
loop_
 _atom_site_type_symbol
 _atom_site_label
 _atom_site_symmetry_multiplicity
 _atom_site_fract_x
 _atom_site_fract_y
 _atom_site_fract_z
 _atom_site_occupancy
  Y  Y0  1  0.983566  0.990761  0.460468  1
  Y  Y1  1  0.983566  0.990761  0.039532  1
  Y  Y2  1  0.557980  0.468483  0.250000  1
  Y  Y3  1  0.559080  0.091423  0.250000  1
  Y  Y4  1  0.920158  0.459610  0.250000  1
  Y  Y5  1  0.456917  0.546575  0.750000  1
  Y  Y6  1  0.458809  0.918029  0.750000  1
  Y  Y7  1  0.089550  0.548988  0.750000  1
  Y  Y8  1  0.208075  0.796017  0.436024  1
  Y  Y9  1  0.206637  0.411284  0.435932  1
  Y  Y10  1  0.576233  0.788269  0.440863  1
  Y  Y11  1  0.796296  0.208978  0.562038  1
  Y  Y12  1  0.794907  0.585864  0.563113  1
  Y  Y13  1  0.411419  0.206768  0.558444  1
  Y  Y14  1  0.796296  0.208978  0.937962  1
  Y  Y15  1  0.794907  0.585864  0.936887  1
  Y  Y16  1  0.411419  0.206768  0.941556  1
  Y  Y17  1  0.208075  0.796017  0.063976  1
  Y  Y18  1  0.206637  0.411284  0.064068  1
  Y  Y19  1  0.576233  0.788269  0.059137  1
  Al  Al20  1  0.260238  0.126743  0.250000  1
  Al  Al21  1  0.104410  0.896473  0.750000  1
  Al  Al22  1  0.103855  0.205973  0.750000  1
  Al  Al23  1  0.783503  0.891414  0.750000  1
  Ni  Ni24  1  0.333794  0.665950  0.250000  1
  Ni  Ni25  1  0.662729  0.328556  0.750000  1
  Pd  Pd26  1  0.876746  0.137663  0.250000  1
  Pd  Pd27  1  0.877964  0.738239  0.250000  1
