# generated using pymatgen
data_NdSm5Zn4Pd5Pt8
_symmetry_space_group_name_H-M   'P 1'
_cell_length_a   8.35436258
_cell_length_b   8.34089451
_cell_length_c   8.34719125
_cell_angle_alpha   109.40375094
_cell_angle_beta   109.43813412
_cell_angle_gamma   109.49770472
_symmetry_Int_Tables_number   1
_chemical_formula_structural   NdSm5Zn4Pd5Pt8
_chemical_formula_sum   'Nd1 Sm5 Zn4 Pd5 Pt8'
_cell_volume   448.16772011
_cell_formula_units_Z   1
loop_
 _symmetry_equiv_pos_site_id
 _symmetry_equiv_pos_as_xyz
  1  'x, y, z'
loop_
 _atom_site_type_symbol
 _atom_site_label
 _atom_site_symmetry_multiplicity
 _atom_site_fract_x
 _atom_site_fract_y
 _atom_site_fract_z
 _atom_site_occupancy
  Nd  Nd0  1  0.001259  0.700675  0.701809  1
  Sm  Sm1  1  0.699325  0.699479  0.001864  1
  Sm  Sm2  1  0.299034  0.998194  0.299878  1
  Sm  Sm3  1  0.999924  0.299957  0.299973  1
  Sm  Sm4  1  0.299910  0.302379  0.999283  1
  Sm  Sm5  1  0.700735  0.002197  0.700104  1
  Zn  Zn6  1  0.000008  0.999064  0.499011  1
  Zn  Zn7  1  0.999280  0.498911  0.999213  1
  Zn  Zn8  1  0.500837  0.000553  0.000087  1
  Zn  Zn9  1  0.499368  0.499534  0.499514  1
  Pd  Pd10  1  0.333882  0.000727  0.667836  1
  Pd  Pd11  1  0.663161  0.331986  0.332074  1
  Pd  Pd12  1  0.666975  0.667191  0.335586  1
  Pd  Pd13  1  0.665900  0.334140  0.666562  1
  Pd  Pd14  1  0.337167  0.668606  0.668508  1
  Pt  Pt15  1  0.331251  0.331042  0.661148  1
  Pt  Pt16  1  0.669060  0.001050  0.331924  1
  Pt  Pt17  1  0.000086  0.669095  0.330718  1
  Pt  Pt18  1  0.668731  0.330775  0.000624  1
  Pt  Pt19  1  0.331888  0.662788  0.332840  1
  Pt  Pt20  1  0.000057  0.330048  0.668923  1
  Pt  Pt21  1  0.332535  0.670110  0.001370  1
  Pt  Pt22  1  0.999629  0.001499  0.001152  1
