# generated using pymatgen
data_TiV3Cl16
_symmetry_space_group_name_H-M   'P 1'
_cell_length_a   7.02767245
_cell_length_b   10.47377813
_cell_length_c   10.66478393
_cell_angle_alpha   77.83715151
_cell_angle_beta   89.60539425
_cell_angle_gamma   89.63282295
_symmetry_Int_Tables_number   1
_chemical_formula_structural   TiV3Cl16
_chemical_formula_sum   'Ti1 V3 Cl16'
_cell_volume   767.34601760
_cell_formula_units_Z   1
loop_
 _symmetry_equiv_pos_site_id
 _symmetry_equiv_pos_as_xyz
  1  'x, y, z'
loop_
 _atom_site_type_symbol
 _atom_site_label
 _atom_site_symmetry_multiplicity
 _atom_site_fract_x
 _atom_site_fract_y
 _atom_site_fract_z
 _atom_site_occupancy
  Ti  Ti0  1  0.923951  0.251518  0.866637  1
  V  V1  1  0.576350  0.251083  0.366164  1
  V  V2  1  0.075908  0.748544  0.133368  1
  V  V3  1  0.423731  0.748828  0.633574  1
  Cl  Cl4  1  0.574782  0.415826  0.208020  1
  Cl  Cl5  1  0.075379  0.584808  0.292531  1
  Cl  Cl6  1  0.424513  0.585092  0.792956  1
  Cl  Cl7  1  0.924627  0.418412  0.704570  1
  Cl  Cl8  1  0.630723  0.194370  0.919241  1
  Cl  Cl9  1  0.136368  0.804687  0.581593  1
  Cl  Cl10  1  0.363964  0.804242  0.081720  1
  Cl  Cl11  1  0.863694  0.194461  0.418009  1
  Cl  Cl12  1  0.072506  0.089538  0.808725  1
  Cl  Cl13  1  0.569588  0.906773  0.690285  1
  Cl  Cl14  1  0.929977  0.907585  0.190410  1
  Cl  Cl15  1  0.431888  0.092365  0.310049  1
  Cl  Cl16  1  0.067640  0.302487  0.030271  1
  Cl  Cl17  1  0.565450  0.698492  0.471939  1
  Cl  Cl18  1  0.935061  0.698220  0.972767  1
  Cl  Cl19  1  0.433899  0.302668  0.527170  1
