# generated using pymatgen
data_Sm5(TcO6)2
_symmetry_space_group_name_H-M   'P 1'
_cell_length_a   6.98433792
_cell_length_b   6.98433881
_cell_length_c   7.71932925
_cell_angle_alpha   73.78824658
_cell_angle_beta   73.78824294
_cell_angle_gamma   48.60547439
_symmetry_Int_Tables_number   1
_chemical_formula_structural   Sm5(TcO6)2
_chemical_formula_sum   'Sm5 Tc2 O12'
_cell_volume   268.90230623
_cell_formula_units_Z   1
loop_
 _symmetry_equiv_pos_site_id
 _symmetry_equiv_pos_as_xyz
  1  'x, y, z'
loop_
 _atom_site_type_symbol
 _atom_site_label
 _atom_site_symmetry_multiplicity
 _atom_site_fract_x
 _atom_site_fract_y
 _atom_site_fract_z
 _atom_site_occupancy
  Sm  Sm0  1  0.306893  0.306893  0.356394  1
  Sm  Sm1  1  0.693107  0.693107  0.643606  1
  Sm  Sm2  1  0.684986  0.684986  0.171702  1
  Sm  Sm3  1  0.315014  0.315014  0.828298  1
  Sm  Sm4  1  0.000000  0.000000  0.500000  1
  Tc  Tc5  1  0.787059  0.212941  0.000000  1
  Tc  Tc6  1  0.212941  0.787059  0.000000  1
  O  O7  1  0.096065  0.593217  0.577031  1
  O  O8  1  0.999155  0.999155  0.201012  1
  O  O9  1  0.406783  0.903935  0.422969  1
  O  O10  1  0.498592  0.498592  0.171792  1
  O  O11  1  0.086092  0.591578  0.079457  1
  O  O12  1  0.903935  0.406783  0.422969  1
  O  O13  1  0.000845  0.000845  0.798988  1
  O  O14  1  0.593217  0.096064  0.577031  1
  O  O15  1  0.501408  0.501408  0.828208  1
  O  O16  1  0.591578  0.086092  0.079457  1
  O  O17  1  0.408422  0.913908  0.920543  1
  O  O18  1  0.913908  0.408422  0.920543  1
