# generated using pymatgen
data_Hf12Th8Si15Rh
_symmetry_space_group_name_H-M   'P 1'
_cell_length_a   7.42842368
_cell_length_b   7.36904018
_cell_length_c   13.62762002
_cell_angle_alpha   90.29613700
_cell_angle_beta   90.29572323
_cell_angle_gamma   90.29849556
_symmetry_Int_Tables_number   1
_chemical_formula_structural   Hf12Th8Si15Rh
_chemical_formula_sum   'Hf12 Th8 Si15 Rh1'
_cell_volume   745.95059681
_cell_formula_units_Z   1
loop_
 _symmetry_equiv_pos_site_id
 _symmetry_equiv_pos_as_xyz
  1  'x, y, z'
loop_
 _atom_site_type_symbol
 _atom_site_label
 _atom_site_symmetry_multiplicity
 _atom_site_fract_x
 _atom_site_fract_y
 _atom_site_fract_z
 _atom_site_occupancy
  Hf  Hf0  1  0.673537  0.326811  0.748882  1
  Hf  Hf1  1  0.325568  0.673816  0.249907  1
  Hf  Hf2  1  0.826383  0.827343  0.500184  1
  Hf  Hf3  1  0.179066  0.169804  0.999020  1
  Hf  Hf4  1  0.496472  0.343638  0.125724  1
  Hf  Hf5  1  0.503071  0.656019  0.623905  1
  Hf  Hf6  1  0.843773  0.005040  0.877607  1
  Hf  Hf7  1  0.154222  0.995555  0.375347  1
  Hf  Hf8  1  0.653220  0.501874  0.375102  1
  Hf  Hf9  1  0.346582  0.499894  0.874358  1
  Hf  Hf10  1  0.003756  0.847851  0.127326  1
  Hf  Hf11  1  0.997271  0.155376  0.623947  1
  Th  Th12  1  0.497475  0.157239  0.533846  1
  Th  Th13  1  0.504814  0.846763  0.034773  1
  Th  Th14  1  0.656735  0.002813  0.285645  1
  Th  Th15  1  0.343191  0.996588  0.782894  1
  Th  Th16  1  0.843502  0.498993  0.966222  1
  Th  Th17  1  0.156250  0.496192  0.465014  1
  Th  Th18  1  0.004087  0.658132  0.716764  1
  Th  Th19  1  0.992299  0.337384  0.213227  1
  Si  Si20  1  0.201415  0.865810  0.566233  1
  Si  Si21  1  0.633662  0.702625  0.815455  1
  Si  Si22  1  0.366893  0.296018  0.315510  1
  Si  Si23  1  0.867482  0.202033  0.434246  1
  Si  Si24  1  0.135039  0.797409  0.934815  1
  Si  Si25  1  0.700198  0.632098  0.185714  1
  Si  Si26  1  0.297695  0.368556  0.684367  1
  Si  Si27  1  0.543864  0.213721  0.934237  1
  Si  Si28  1  0.453731  0.788742  0.434944  1
  Si  Si29  1  0.710515  0.955150  0.685437  1
  Si  Si30  1  0.291757  0.045718  0.186512  1
  Si  Si31  1  0.790651  0.454442  0.564837  1
  Si  Si32  1  0.210951  0.547393  0.064257  1
  Si  Si33  1  0.951901  0.709437  0.315056  1
  Si  Si34  1  0.048080  0.288628  0.813330  1
  Rh  Rh35  1  0.794894  0.135096  0.065353  1
