# generated using pymatgen
data_BaLiLaB2Pt6Au
_symmetry_space_group_name_H-M   'P 1'
_cell_length_a   5.58170900
_cell_length_b   5.58170893
_cell_length_c   7.71882200
_cell_angle_alpha   90.00000000
_cell_angle_beta   90.00000000
_cell_angle_gamma   119.99999448
_symmetry_Int_Tables_number   1
_chemical_formula_structural   BaLiLaB2Pt6Au
_chemical_formula_sum   'Ba1 Li1 La1 B2 Pt6 Au1'
_cell_volume   208.26488865
_cell_formula_units_Z   1
loop_
 _symmetry_equiv_pos_site_id
 _symmetry_equiv_pos_as_xyz
  1  'x, y, z'
loop_
 _atom_site_type_symbol
 _atom_site_label
 _atom_site_symmetry_multiplicity
 _atom_site_fract_x
 _atom_site_fract_y
 _atom_site_fract_z
 _atom_site_occupancy
  Ba  Ba0  1  0.000000  0.000000  0.500000  1
  Li  Li1  1  0.333333  0.666667  0.500000  1
  La  La2  1  0.000000  0.000000  0.000000  1
  B  B3  1  0.333333  0.666667  0.000000  1
  B  B4  1  0.666667  0.333333  0.000000  1
  Pt  Pt5  1  0.499816  0.999632  0.195473  1
  Pt  Pt6  1  0.499816  0.999632  0.804527  1
  Pt  Pt7  1  0.000368  0.500184  0.195473  1
  Pt  Pt8  1  0.000368  0.500184  0.804527  1
  Pt  Pt9  1  0.499816  0.500184  0.195473  1
  Pt  Pt10  1  0.499816  0.500184  0.804527  1
  Au  Au11  1  0.666667  0.333333  0.500000  1
