# generated using pymatgen
data_Dy12AlInFe4
_symmetry_space_group_name_H-M   'P 1'
_cell_length_a   8.38404112
_cell_length_b   8.38404041
_cell_length_c   8.38404080
_cell_angle_alpha   111.50195897
_cell_angle_beta   110.25166577
_cell_angle_gamma   106.69773378
_symmetry_Int_Tables_number   1
_chemical_formula_structural   Dy12AlInFe4
_chemical_formula_sum   'Dy12 Al1 In1 Fe4'
_cell_volume   452.81891217
_cell_formula_units_Z   1
loop_
 _symmetry_equiv_pos_site_id
 _symmetry_equiv_pos_as_xyz
  1  'x, y, z'
loop_
 _atom_site_type_symbol
 _atom_site_label
 _atom_site_symmetry_multiplicity
 _atom_site_fract_x
 _atom_site_fract_y
 _atom_site_fract_z
 _atom_site_occupancy
  Dy  Dy0  1  0.187521  0.287641  0.475162  1
  Dy  Dy1  1  0.812479  0.712359  0.524838  1
  Dy  Dy2  1  0.187521  0.712359  0.899881  1
  Dy  Dy3  1  0.812479  0.287641  0.100119  1
  Dy  Dy4  1  0.310907  0.608192  0.297286  1
  Dy  Dy5  1  0.689093  0.391808  0.702714  1
  Dy  Dy6  1  0.310907  0.013621  0.702714  1
  Dy  Dy7  1  0.689093  0.986379  0.297286  1
  Dy  Dy8  1  0.435593  0.225723  0.209870  1
  Dy  Dy9  1  0.564407  0.774277  0.790130  1
  Dy  Dy10  1  0.015853  0.225723  0.790130  1
  Dy  Dy11  1  0.984147  0.774277  0.209870  1
  Al  Al12  1  0.000000  0.000000  0.000000  1
  In  In13  1  0.500000  0.500000  0.000000  1
  Fe  Fe14  1  0.108007  0.608007  0.500000  1
  Fe  Fe15  1  0.891993  0.391993  0.500000  1
  Fe  Fe16  1  0.385777  0.000000  0.385777  1
  Fe  Fe17  1  0.614223  0.000000  0.614223  1
