# generated using pymatgen
data_Tm8Lu12GaBi11
_symmetry_space_group_name_H-M   'P 1'
_cell_length_a   8.08669608
_cell_length_b   9.35551800
_cell_length_c   11.83075818
_cell_angle_alpha   90.00000000
_cell_angle_beta   89.69649695
_cell_angle_gamma   90.00000000
_symmetry_Int_Tables_number   1
_chemical_formula_structural   Tm8Lu12GaBi11
_chemical_formula_sum   'Tm8 Lu12 Ga1 Bi11'
_cell_volume   895.04618304
_cell_formula_units_Z   1
loop_
 _symmetry_equiv_pos_site_id
 _symmetry_equiv_pos_as_xyz
  1  'x, y, z'
loop_
 _atom_site_type_symbol
 _atom_site_label
 _atom_site_symmetry_multiplicity
 _atom_site_fract_x
 _atom_site_fract_y
 _atom_site_fract_z
 _atom_site_occupancy
  Tm  Tm0  1  0.356110  0.250000  0.293785  1
  Tm  Tm1  1  0.646779  0.750000  0.716857  1
  Tm  Tm2  1  0.147711  0.750000  0.782392  1
  Tm  Tm3  1  0.853868  0.250000  0.216395  1
  Tm  Tm4  1  0.192860  0.250000  0.777232  1
  Tm  Tm5  1  0.810319  0.750000  0.217939  1
  Tm  Tm6  1  0.312526  0.750000  0.281279  1
  Tm  Tm7  1  0.674663  0.250000  0.710435  1
  Lu  Lu8  1  0.037963  0.250000  0.509935  1
  Lu  Lu9  1  0.978987  0.750000  0.489991  1
  Lu  Lu10  1  0.475630  0.750000  0.010707  1
  Lu  Lu11  1  0.525356  0.250000  0.989007  1
  Lu  Lu12  1  0.193957  0.066415  0.060586  1
  Lu  Lu13  1  0.806261  0.934132  0.940585  1
  Lu  Lu14  1  0.308588  0.949307  0.559172  1
  Lu  Lu15  1  0.806261  0.565868  0.940585  1
  Lu  Lu16  1  0.684455  0.073021  0.444918  1
  Lu  Lu17  1  0.193957  0.433585  0.060586  1
  Lu  Lu18  1  0.684455  0.426979  0.444918  1
  Lu  Lu19  1  0.308588  0.550693  0.559172  1
  Ga  Ga20  1  0.408257  0.250000  0.539790  1
  Bi  Bi21  1  0.593879  0.750000  0.457438  1
  Bi  Bi22  1  0.094296  0.750000  0.042660  1
  Bi  Bi23  1  0.907321  0.250000  0.954731  1
  Bi  Bi24  1  0.063831  0.002733  0.324730  1
  Bi  Bi25  1  0.934605  0.997668  0.674800  1
  Bi  Bi26  1  0.435034  0.996256  0.825573  1
  Bi  Bi27  1  0.934605  0.502332  0.674800  1
  Bi  Bi28  1  0.565005  0.004360  0.174347  1
  Bi  Bi29  1  0.063831  0.497267  0.324730  1
  Bi  Bi30  1  0.565005  0.495640  0.174347  1
  Bi  Bi31  1  0.435034  0.503744  0.825573  1
