# generated using pymatgen
data_Tb2U2Ga16Ru3
_symmetry_space_group_name_H-M   'P 1'
_cell_length_a   6.14957900
_cell_length_b   6.14957900
_cell_length_c   11.21323200
_cell_angle_alpha   90.00000000
_cell_angle_beta   90.00000000
_cell_angle_gamma   90.00000000
_symmetry_Int_Tables_number   1
_chemical_formula_structural   Tb2U2Ga16Ru3
_chemical_formula_sum   'Tb2 U2 Ga16 Ru3'
_cell_volume   424.05440383
_cell_formula_units_Z   1
loop_
 _symmetry_equiv_pos_site_id
 _symmetry_equiv_pos_as_xyz
  1  'x, y, z'
loop_
 _atom_site_type_symbol
 _atom_site_label
 _atom_site_symmetry_multiplicity
 _atom_site_fract_x
 _atom_site_fract_y
 _atom_site_fract_z
 _atom_site_occupancy
  Tb  Tb0  1  0.500000  0.000000  0.191215  1
  Tb  Tb1  1  0.000000  0.500000  0.191215  1
  U  U2  1  0.500000  0.000000  0.807335  1
  U  U3  1  0.000000  0.500000  0.807335  1
  Ga  Ga4  1  0.250427  0.250427  0.621232  1
  Ga  Ga5  1  0.749573  0.749573  0.621232  1
  Ga  Ga6  1  0.749573  0.250427  0.621232  1
  Ga  Ga7  1  0.250427  0.749573  0.621232  1
  Ga  Ga8  1  0.750057  0.750057  0.381710  1
  Ga  Ga9  1  0.249943  0.249943  0.381710  1
  Ga  Ga10  1  0.249943  0.750057  0.381710  1
  Ga  Ga11  1  0.750057  0.249943  0.381710  1
  Ga  Ga12  1  0.285887  0.285887  0.997941  1
  Ga  Ga13  1  0.714113  0.714113  0.997941  1
  Ga  Ga14  1  0.714113  0.285887  0.997941  1
  Ga  Ga15  1  0.285887  0.714113  0.997941  1
  Ga  Ga16  1  0.500000  0.500000  0.801303  1
  Ga  Ga17  1  0.500000  0.500000  0.198663  1
  Ga  Ga18  1  0.000000  0.000000  0.777311  1
  Ga  Ga19  1  0.000000  0.000000  0.220272  1
  Ru  Ru20  1  0.500000  0.000000  0.501440  1
  Ru  Ru21  1  0.000000  0.500000  0.501440  1
  Ru  Ru22  1  0.000000  0.000000  0.998940  1
