# generated using pymatgen
data_Cs4K4SnBi4Pb3
_symmetry_space_group_name_H-M   'P 1'
_cell_length_a   6.82030336
_cell_length_b   7.25051546
_cell_length_c   14.36825630
_cell_angle_alpha   89.75397688
_cell_angle_beta   90.45394673
_cell_angle_gamma   90.09139985
_symmetry_Int_Tables_number   1
_chemical_formula_structural   Cs4K4SnBi4Pb3
_chemical_formula_sum   'Cs4 K4 Sn1 Bi4 Pb3'
_cell_volume   710.49083134
_cell_formula_units_Z   1
loop_
 _symmetry_equiv_pos_site_id
 _symmetry_equiv_pos_as_xyz
  1  'x, y, z'
loop_
 _atom_site_type_symbol
 _atom_site_label
 _atom_site_symmetry_multiplicity
 _atom_site_fract_x
 _atom_site_fract_y
 _atom_site_fract_z
 _atom_site_occupancy
  Cs  Cs0  1  0.749607  0.387961  0.665440  1
  Cs  Cs1  1  0.250541  0.609091  0.335830  1
  Cs  Cs2  1  0.749223  0.610217  0.160782  1
  Cs  Cs3  1  0.253307  0.163732  0.515469  1
  K  K4  1  0.249214  0.841523  0.001033  1
  K  K5  1  0.750171  0.836786  0.497250  1
  K  K6  1  0.746882  0.161498  0.990328  1
  K  K7  1  0.254659  0.398039  0.836898  1
  Sn  Sn8  1  0.502877  0.900730  0.751798  1
  Bi  Bi9  1  0.247718  0.327687  0.100032  1
  Bi  Bi10  1  0.256896  0.664215  0.617534  1
  Bi  Bi11  1  0.740392  0.674400  0.894057  1
  Bi  Bi12  1  0.752002  0.323895  0.390648  1
  Pb  Pb13  1  0.500030  0.098981  0.245369  1
  Pb  Pb14  1  0.999236  0.099410  0.245289  1
  Pb  Pb15  1  0.997246  0.901836  0.752243  1
