# generated using pymatgen
data_Er3Tm5InHgRh2
_symmetry_space_group_name_H-M   'P 1'
_cell_length_a   9.53275466
_cell_length_b   9.51520784
_cell_length_c   9.51926125
_cell_angle_alpha   59.86411214
_cell_angle_beta   59.92182280
_cell_angle_gamma   59.90542791
_symmetry_Int_Tables_number   1
_chemical_formula_structural   Er3Tm5InHgRh2
_chemical_formula_sum   'Er6 Tm10 In2 Hg2 Rh4'
_cell_volume   609.12982863
_cell_formula_units_Z   2
loop_
 _symmetry_equiv_pos_site_id
 _symmetry_equiv_pos_as_xyz
  1  'x, y, z'
loop_
 _atom_site_type_symbol
 _atom_site_label
 _atom_site_symmetry_multiplicity
 _atom_site_fract_x
 _atom_site_fract_y
 _atom_site_fract_z
 _atom_site_occupancy
  Er  Er0  1  0.060876  0.065286  0.437673  1
  Er  Er1  1  0.436430  0.064973  0.437864  1
  Er  Er2  1  0.060746  0.437986  0.065033  1
  Er  Er3  1  0.050746  0.649608  0.649683  1
  Er  Er4  1  0.436585  0.438082  0.064796  1
  Er  Er5  1  0.649044  0.053832  0.648136  1
  Tm  Tm6  1  0.189073  0.811749  0.189625  1
  Tm  Tm7  1  0.188796  0.189488  0.812048  1
  Tm  Tm8  1  0.809344  0.811588  0.189924  1
  Tm  Tm9  1  0.437245  0.062799  0.062932  1
  Tm  Tm10  1  0.811474  0.188520  0.188431  1
  Tm  Tm11  1  0.062165  0.437924  0.437711  1
  Tm  Tm12  1  0.809492  0.189743  0.811908  1
  Tm  Tm13  1  0.190517  0.809496  0.809684  1
  Tm  Tm14  1  0.649203  0.648337  0.053314  1
  Tm  Tm15  1  0.650074  0.649634  0.649620  1
  In  In16  1  0.418620  0.746466  0.416634  1
  In  In17  1  0.418546  0.416904  0.746328  1
  Hg  Hg18  1  0.413717  0.414205  0.413733  1
  Hg  Hg19  1  0.758242  0.414433  0.413962  1
  Rh  Rh20  1  0.857227  0.857245  0.427279  1
  Rh  Rh21  1  0.856440  0.857293  0.858278  1
  Rh  Rh22  1  0.428519  0.856812  0.857737  1
  Rh  Rh23  1  0.856882  0.427597  0.857667  1
