# generated using pymatgen
data_Yb3InIr2(RuO7)2
_symmetry_space_group_name_H-M   'P 1'
_cell_length_a   7.15378753
_cell_length_b   7.25905778
_cell_length_c   7.28305400
_cell_angle_alpha   59.89058814
_cell_angle_beta   59.40043854
_cell_angle_gamma   59.31772222
_symmetry_Int_Tables_number   1
_chemical_formula_structural   Yb3InIr2(RuO7)2
_chemical_formula_sum   'Yb3 In1 Ir2 Ru2 O14'
_cell_volume   264.59719009
_cell_formula_units_Z   1
loop_
 _symmetry_equiv_pos_site_id
 _symmetry_equiv_pos_as_xyz
  1  'x, y, z'
loop_
 _atom_site_type_symbol
 _atom_site_label
 _atom_site_symmetry_multiplicity
 _atom_site_fract_x
 _atom_site_fract_y
 _atom_site_fract_z
 _atom_site_occupancy
  Yb  Yb0  1  0.125000  0.125000  0.125000  1
  Yb  Yb1  1  0.125000  0.125000  0.625000  1
  Yb  Yb2  1  0.125000  0.625000  0.125000  1
  In  In3  1  0.625000  0.125000  0.125000  1
  Ir  Ir4  1  0.125000  0.625000  0.625000  1
  Ir  Ir5  1  0.625000  0.125000  0.625000  1
  Ru  Ru6  1  0.625000  0.625000  0.625000  1
  Ru  Ru7  1  0.625000  0.625000  0.125000  1
  O  O8  1  0.973310  0.008505  0.009093  1
  O  O9  1  0.276690  0.241495  0.240907  1
  O  O10  1  0.291658  0.293505  0.707418  1
  O  O11  1  0.558130  0.552800  0.944535  1
  O  O12  1  0.694426  0.301298  0.703678  1
  O  O13  1  0.694426  0.301298  0.300598  1
  O  O14  1  0.294663  0.703838  0.705749  1
  O  O15  1  0.294663  0.703838  0.295750  1
  O  O16  1  0.691870  0.697200  0.305465  1
  O  O17  1  0.955337  0.546162  0.544251  1
  O  O18  1  0.555574  0.948702  0.949402  1
  O  O19  1  0.958342  0.956495  0.542582  1
  O  O20  1  0.955337  0.546162  0.954250  1
  O  O21  1  0.555574  0.948702  0.546322  1
