# generated using pymatgen
data_Tm4FeCu2Si4Ru
_symmetry_space_group_name_H-M   'P 1'
_cell_length_a   4.15336600
_cell_length_b   6.82460100
_cell_length_c   7.28204344
_cell_angle_alpha   91.26339304
_cell_angle_beta   90.00000000
_cell_angle_gamma   90.00000000
_symmetry_Int_Tables_number   1
_chemical_formula_structural   Tm4FeCu2Si4Ru
_chemical_formula_sum   'Tm4 Fe1 Cu2 Si4 Ru1'
_cell_volume   206.35982212
_cell_formula_units_Z   1
loop_
 _symmetry_equiv_pos_site_id
 _symmetry_equiv_pos_as_xyz
  1  'x, y, z'
loop_
 _atom_site_type_symbol
 _atom_site_label
 _atom_site_symmetry_multiplicity
 _atom_site_fract_x
 _atom_site_fract_y
 _atom_site_fract_z
 _atom_site_occupancy
  Tm  Tm0  1  0.250000  0.993628  0.798506  1
  Tm  Tm1  1  0.750000  0.006750  0.199050  1
  Tm  Tm2  1  0.250000  0.492613  0.693566  1
  Tm  Tm3  1  0.750000  0.502418  0.306696  1
  Fe  Fe4  1  0.750000  0.349057  0.936241  1
  Cu  Cu5  1  0.750000  0.831615  0.574035  1
  Cu  Cu6  1  0.250000  0.168683  0.428322  1
  Si  Si7  1  0.250000  0.297688  0.082390  1
  Si  Si8  1  0.750000  0.697263  0.906387  1
  Si  Si9  1  0.250000  0.794619  0.391859  1
  Si  Si10  1  0.750000  0.209121  0.617498  1
  Ru  Ru11  1  0.250000  0.656544  0.065450  1
