# generated using pymatgen
data_Dy19Er(Ir2Rh)4
_symmetry_space_group_name_H-M   'P 1'
_cell_length_a   10.88291500
_cell_length_b   10.88291500
_cell_length_c   6.39187100
_cell_angle_alpha   90.00000000
_cell_angle_beta   90.00000000
_cell_angle_gamma   90.00000000
_symmetry_Int_Tables_number   1
_chemical_formula_structural   Dy19Er(Ir2Rh)4
_chemical_formula_sum   'Dy19 Er1 Ir8 Rh4'
_cell_volume   757.03938775
_cell_formula_units_Z   1
loop_
 _symmetry_equiv_pos_site_id
 _symmetry_equiv_pos_as_xyz
  1  'x, y, z'
loop_
 _atom_site_type_symbol
 _atom_site_label
 _atom_site_symmetry_multiplicity
 _atom_site_fract_x
 _atom_site_fract_y
 _atom_site_fract_z
 _atom_site_occupancy
  Dy  Dy0  1  0.290331  0.089048  0.379456  1
  Dy  Dy1  1  0.290489  0.910941  0.879335  1
  Dy  Dy2  1  0.709511  0.089059  0.879335  1
  Dy  Dy3  1  0.709669  0.910952  0.379456  1
  Dy  Dy4  1  0.589061  0.790559  0.879413  1
  Dy  Dy5  1  0.589117  0.209441  0.379370  1
  Dy  Dy6  1  0.410883  0.790559  0.379370  1
  Dy  Dy7  1  0.410939  0.209441  0.879413  1
  Dy  Dy8  1  0.209441  0.410883  0.620630  1
  Dy  Dy9  1  0.209441  0.589061  0.120587  1
  Dy  Dy10  1  0.790559  0.410939  0.120587  1
  Dy  Dy11  1  0.790559  0.589117  0.620630  1
  Dy  Dy12  1  0.910941  0.709511  0.120665  1
  Dy  Dy13  1  0.910952  0.290331  0.620544  1
  Dy  Dy14  1  0.089048  0.709669  0.620544  1
  Dy  Dy15  1  0.089059  0.290489  0.120665  1
  Dy  Dy16  1  0.000000  0.000000  0.000000  1
  Dy  Dy17  1  0.500000  0.500000  0.000000  1
  Dy  Dy18  1  0.500000  0.500000  0.500000  1
  Er  Er19  1  0.000000  0.000000  0.500000  1
  Ir  Ir20  1  0.846347  0.153663  0.250475  1
  Ir  Ir21  1  0.846337  0.846347  0.749525  1
  Ir  Ir22  1  0.153663  0.153653  0.749525  1
  Ir  Ir23  1  0.153653  0.846337  0.250475  1
  Ir  Ir24  1  0.654006  0.345983  0.750016  1
  Ir  Ir25  1  0.654017  0.654006  0.249984  1
  Ir  Ir26  1  0.345983  0.345994  0.249984  1
  Ir  Ir27  1  0.345994  0.654017  0.750016  1
  Rh  Rh28  1  0.500000  0.000000  0.124172  1
  Rh  Rh29  1  0.500000  0.000000  0.624173  1
  Rh  Rh30  1  0.000000  0.500000  0.875828  1
  Rh  Rh31  1  0.000000  0.500000  0.375827  1
