# generated using pymatgen
data_Rb4YbCl6
_symmetry_space_group_name_H-M   'P 1'
_cell_length_a   9.06706921
_cell_length_b   9.06706988
_cell_length_c   9.06706770
_cell_angle_alpha   89.31195137
_cell_angle_beta   89.31195298
_cell_angle_gamma   89.31195507
_symmetry_Int_Tables_number   1
_chemical_formula_structural   Rb4YbCl6
_chemical_formula_sum   'Rb8 Yb2 Cl12'
_cell_volume   745.25954097
_cell_formula_units_Z   2
loop_
 _symmetry_equiv_pos_site_id
 _symmetry_equiv_pos_as_xyz
  1  'x, y, z'
loop_
 _atom_site_type_symbol
 _atom_site_label
 _atom_site_symmetry_multiplicity
 _atom_site_fract_x
 _atom_site_fract_y
 _atom_site_fract_z
 _atom_site_occupancy
  Rb  Rb0  1  0.750000  0.750000  0.750000  1
  Rb  Rb1  1  0.250000  0.250000  0.250000  1
  Rb  Rb2  1  0.873915  0.250000  0.626085  1
  Rb  Rb3  1  0.626085  0.873915  0.250000  1
  Rb  Rb4  1  0.250000  0.626085  0.873915  1
  Rb  Rb5  1  0.126085  0.750000  0.373915  1
  Rb  Rb6  1  0.373915  0.126085  0.750000  1
  Rb  Rb7  1  0.750000  0.373915  0.126085  1
  Yb  Yb8  1  0.500000  0.500000  0.500000  1
  Yb  Yb9  1  0.000000  0.000000  0.000000  1
  Cl  Cl10  1  0.288207  0.941448  0.069419  1
  Cl  Cl11  1  0.069419  0.288207  0.941448  1
  Cl  Cl12  1  0.941448  0.069419  0.288207  1
  Cl  Cl13  1  0.211793  0.430581  0.558552  1
  Cl  Cl14  1  0.558552  0.211793  0.430581  1
  Cl  Cl15  1  0.430581  0.558552  0.211793  1
  Cl  Cl16  1  0.711793  0.058552  0.930581  1
  Cl  Cl17  1  0.930581  0.711793  0.058552  1
  Cl  Cl18  1  0.058552  0.930581  0.711793  1
  Cl  Cl19  1  0.788207  0.569419  0.441448  1
  Cl  Cl20  1  0.569419  0.441448  0.788207  1
  Cl  Cl21  1  0.441448  0.788207  0.569419  1
