# generated using pymatgen
data_NdHg3(Ir2O7)2
_symmetry_space_group_name_H-M   'P 1'
_cell_length_a   7.29468343
_cell_length_b   7.39316698
_cell_length_c   7.29468400
_cell_angle_alpha   60.43967921
_cell_angle_beta   59.99999742
_cell_angle_gamma   60.43967748
_symmetry_Int_Tables_number   1
_chemical_formula_structural   NdHg3(Ir2O7)2
_chemical_formula_sum   'Nd1 Hg3 Ir4 O14'
_cell_volume   280.01603643
_cell_formula_units_Z   1
loop_
 _symmetry_equiv_pos_site_id
 _symmetry_equiv_pos_as_xyz
  1  'x, y, z'
loop_
 _atom_site_type_symbol
 _atom_site_label
 _atom_site_symmetry_multiplicity
 _atom_site_fract_x
 _atom_site_fract_y
 _atom_site_fract_z
 _atom_site_occupancy
  Nd  Nd0  1  0.125000  0.625000  0.125000  1
  Hg  Hg1  1  0.625000  0.125000  0.125000  1
  Hg  Hg2  1  0.125000  0.125000  0.625000  1
  Hg  Hg3  1  0.125000  0.125000  0.125000  1
  Ir  Ir4  1  0.125000  0.625000  0.625000  1
  Ir  Ir5  1  0.625000  0.125000  0.625000  1
  Ir  Ir6  1  0.625000  0.625000  0.125000  1
  Ir  Ir7  1  0.625000  0.625000  0.625000  1
  O  O8  1  0.707433  0.694994  0.298786  1
  O  O9  1  0.304827  0.307445  0.693864  1
  O  O10  1  0.693864  0.307445  0.693864  1
  O  O11  1  0.298786  0.694994  0.298786  1
  O  O12  1  0.298786  0.694994  0.707433  1
  O  O13  1  0.693864  0.307445  0.304827  1
  O  O14  1  0.542567  0.555006  0.951214  1
  O  O15  1  0.945173  0.942555  0.556136  1
  O  O16  1  0.556136  0.942555  0.556136  1
  O  O17  1  0.951214  0.555006  0.951214  1
  O  O18  1  0.951214  0.555006  0.542567  1
  O  O19  1  0.556136  0.942555  0.945173  1
  O  O20  1  0.256080  0.231759  0.256080  1
  O  O21  1  0.993920  0.018241  0.993920  1
