# generated using pymatgen
data_Hf10BeSn5Sb2
_symmetry_space_group_name_H-M   'P 1'
_cell_length_a   5.84212507
_cell_length_b   8.65795598
_cell_length_c   8.65169830
_cell_angle_alpha   120.02393493
_cell_angle_beta   89.99977039
_cell_angle_gamma   90.00044695
_symmetry_Int_Tables_number   1
_chemical_formula_structural   Hf10BeSn5Sb2
_chemical_formula_sum   'Hf10 Be1 Sn5 Sb2'
_cell_volume   378.89024726
_cell_formula_units_Z   1
loop_
 _symmetry_equiv_pos_site_id
 _symmetry_equiv_pos_as_xyz
  1  'x, y, z'
loop_
 _atom_site_type_symbol
 _atom_site_label
 _atom_site_symmetry_multiplicity
 _atom_site_fract_x
 _atom_site_fract_y
 _atom_site_fract_z
 _atom_site_occupancy
  Hf  Hf0  1  0.499262  0.333913  0.667325  1
  Hf  Hf1  1  0.499262  0.666588  0.332675  1
  Hf  Hf2  1  0.000311  0.666464  0.332233  1
  Hf  Hf3  1  0.000311  0.334231  0.667767  1
  Hf  Hf4  1  0.723853  0.267434  0.000000  1
  Hf  Hf5  1  0.724130  0.733051  0.733686  1
  Hf  Hf6  1  0.724130  0.999365  0.266314  1
  Hf  Hf7  1  0.275667  0.731111  0.000000  1
  Hf  Hf8  1  0.276943  0.268415  0.267999  1
  Hf  Hf9  1  0.276943  0.000415  0.732001  1
  Be  Be10  1  0.498394  0.000218  0.000000  1
  Sn  Sn11  1  0.757047  0.391215  0.391155  1
  Sn  Sn12  1  0.757047  0.000061  0.608845  1
  Sn  Sn13  1  0.243264  0.389179  0.000000  1
  Sn  Sn14  1  0.243255  0.609844  0.609051  1
  Sn  Sn15  1  0.243255  0.000794  0.390949  1
  Sb  Sb16  1  0.755170  0.607339  0.000000  1
  Sb  Sb17  1  0.001755  0.000364  0.000000  1
