# generated using pymatgen
data_Th3GaPd3Au2
_symmetry_space_group_name_H-M   'P 1'
_cell_length_a   7.59513400
_cell_length_b   7.81374729
_cell_length_c   3.81120500
_cell_angle_alpha   90.00000000
_cell_angle_beta   90.00000000
_cell_angle_gamma   119.07873889
_symmetry_Int_Tables_number   1
_chemical_formula_structural   Th3GaPd3Au2
_chemical_formula_sum   'Th3 Ga1 Pd3 Au2'
_cell_volume   197.67193124
_cell_formula_units_Z   1
loop_
 _symmetry_equiv_pos_site_id
 _symmetry_equiv_pos_as_xyz
  1  'x, y, z'
loop_
 _atom_site_type_symbol
 _atom_site_label
 _atom_site_symmetry_multiplicity
 _atom_site_fract_x
 _atom_site_fract_y
 _atom_site_fract_z
 _atom_site_occupancy
  Th  Th0  1  0.007532  0.397908  0.500000  1
  Th  Th1  1  0.609624  0.602092  0.500000  1
  Th  Th2  1  0.384331  0.000000  0.500000  1
  Ga  Ga3  1  0.733818  0.000000  0.000000  1
  Pd  Pd4  1  0.355608  0.684729  0.000000  1
  Pd  Pd5  1  0.670881  0.315271  0.000000  1
  Pd  Pd6  1  0.968136  0.000000  0.500000  1
  Au  Au7  1  0.998002  0.725936  0.000000  1
  Au  Au8  1  0.272066  0.274064  0.000000  1
