# generated using pymatgen
data_ZrScAsRh5
_symmetry_space_group_name_H-M   'P 1'
_cell_length_a   4.05810900
_cell_length_b   5.59476202
_cell_length_c   10.94261994
_cell_angle_alpha   89.61798559
_cell_angle_beta   90.00000000
_cell_angle_gamma   90.00000000
_symmetry_Int_Tables_number   1
_chemical_formula_structural   ZrScAsRh5
_chemical_formula_sum   'Zr2 Sc2 As2 Rh10'
_cell_volume   248.43740730
_cell_formula_units_Z   2
loop_
 _symmetry_equiv_pos_site_id
 _symmetry_equiv_pos_as_xyz
  1  'x, y, z'
loop_
 _atom_site_type_symbol
 _atom_site_label
 _atom_site_symmetry_multiplicity
 _atom_site_fract_x
 _atom_site_fract_y
 _atom_site_fract_z
 _atom_site_occupancy
  Zr  Zr0  1  0.500000  0.322247  0.356384  1
  Zr  Zr1  1  0.500000  0.677753  0.643616  1
  Sc  Sc2  1  0.500000  0.176003  0.861209  1
  Sc  Sc3  1  0.500000  0.823997  0.138791  1
  As  As4  1  0.000000  0.000000  0.500000  1
  As  As5  1  0.000000  0.500000  0.000000  1
  Rh  Rh6  1  0.500000  0.315660  0.105583  1
  Rh  Rh7  1  0.500000  0.684340  0.894417  1
  Rh  Rh8  1  0.500000  0.813080  0.394144  1
  Rh  Rh9  1  0.500000  0.186920  0.605856  1
  Rh  Rh10  1  0.000000  0.933968  0.744955  1
  Rh  Rh11  1  0.000000  0.066032  0.255045  1
  Rh  Rh12  1  0.000000  0.432784  0.756730  1
  Rh  Rh13  1  0.000000  0.567216  0.243270  1
  Rh  Rh14  1  0.000000  0.500000  0.500000  1
  Rh  Rh15  1  0.000000  0.000000  0.000000  1
