# generated using pymatgen
data_CePrRh2Pb
_symmetry_space_group_name_H-M   'P 1'
_cell_length_a   7.83806469
_cell_length_b   7.83806391
_cell_length_c   3.75431000
_cell_angle_alpha   90.00000000
_cell_angle_beta   90.00000000
_cell_angle_gamma   93.34389945
_symmetry_Int_Tables_number   1
_chemical_formula_structural   CePrRh2Pb
_chemical_formula_sum   'Ce2 Pr2 Rh4 Pb2'
_cell_volume   230.25428576
_cell_formula_units_Z   2
loop_
 _symmetry_equiv_pos_site_id
 _symmetry_equiv_pos_as_xyz
  1  'x, y, z'
loop_
 _atom_site_type_symbol
 _atom_site_label
 _atom_site_symmetry_multiplicity
 _atom_site_fract_x
 _atom_site_fract_y
 _atom_site_fract_z
 _atom_site_occupancy
  Ce  Ce0  1  0.670092  0.170092  0.500000  1
  Ce  Ce1  1  0.329908  0.829908  0.500000  1
  Pr  Pr2  1  0.170872  0.329128  0.500000  1
  Pr  Pr3  1  0.829128  0.670872  0.500000  1
  Rh  Rh4  1  0.144979  0.644979  0.000000  1
  Rh  Rh5  1  0.855021  0.355021  0.000000  1
  Rh  Rh6  1  0.623536  0.876464  0.000000  1
  Rh  Rh7  1  0.376464  0.123536  0.000000  1
  Pb  Pb8  1  0.000000  0.000000  0.000000  1
  Pb  Pb9  1  0.500000  0.500000  0.000000  1
