# generated using pymatgen
data_Dy7HoC10
_symmetry_space_group_name_H-M   'P 1'
_cell_length_a   3.67262800
_cell_length_b   6.58009500
_cell_length_c   11.95701801
_cell_angle_alpha   89.99638626
_cell_angle_beta   90.00000000
_cell_angle_gamma   90.00000000
_symmetry_Int_Tables_number   1
_chemical_formula_structural   Dy7HoC10
_chemical_formula_sum   'Dy7 Ho1 C10'
_cell_volume   288.95618001
_cell_formula_units_Z   1
loop_
 _symmetry_equiv_pos_site_id
 _symmetry_equiv_pos_as_xyz
  1  'x, y, z'
loop_
 _atom_site_type_symbol
 _atom_site_label
 _atom_site_symmetry_multiplicity
 _atom_site_fract_x
 _atom_site_fract_y
 _atom_site_fract_z
 _atom_site_occupancy
  Dy  Dy0  1  0.000000  0.255708  0.542158  1
  Dy  Dy1  1  0.000000  0.744290  0.457791  1
  Dy  Dy2  1  0.000000  0.755878  0.957981  1
  Dy  Dy3  1  0.500000  0.105873  0.803563  1
  Dy  Dy4  1  0.500000  0.894536  0.196560  1
  Dy  Dy5  1  0.500000  0.605624  0.696591  1
  Dy  Dy6  1  0.500000  0.394317  0.303320  1
  Ho  Ho7  1  0.000000  0.243332  0.042286  1
  C  C8  1  0.500000  0.500047  0.500011  1
  C  C9  1  0.500000  0.000930  0.000163  1
  C  C10  1  0.000000  0.359280  0.735308  1
  C  C11  1  0.000000  0.640707  0.264838  1
  C  C12  1  0.000000  0.859195  0.765049  1
  C  C13  1  0.000000  0.141088  0.234494  1
  C  C14  1  0.000000  0.401764  0.844306  1
  C  C15  1  0.000000  0.597060  0.155987  1
  C  C16  1  0.000000  0.097997  0.343437  1
  C  C17  1  0.000000  0.902373  0.656157  1
