# generated using pymatgen
data_Zr8Ta12Si15Pd
_symmetry_space_group_name_H-M   'P 1'
_cell_length_a   6.91713021
_cell_length_b   6.89680437
_cell_length_c   12.74579864
_cell_angle_alpha   89.92922451
_cell_angle_beta   89.76798050
_cell_angle_gamma   89.98413446
_symmetry_Int_Tables_number   1
_chemical_formula_structural   Zr8Ta12Si15Pd
_chemical_formula_sum   'Zr8 Ta12 Si15 Pd1'
_cell_volume   608.04679417
_cell_formula_units_Z   1
loop_
 _symmetry_equiv_pos_site_id
 _symmetry_equiv_pos_as_xyz
  1  'x, y, z'
loop_
 _atom_site_type_symbol
 _atom_site_label
 _atom_site_symmetry_multiplicity
 _atom_site_fract_x
 _atom_site_fract_y
 _atom_site_fract_z
 _atom_site_occupancy
  Zr  Zr0  1  0.000801  0.661301  0.030017  1
  Zr  Zr1  1  0.995839  0.330992  0.531484  1
  Zr  Zr2  1  0.661013  0.000451  0.970306  1
  Zr  Zr3  1  0.159188  0.498491  0.782154  1
  Zr  Zr4  1  0.835733  0.497102  0.277622  1
  Zr  Zr5  1  0.499217  0.158403  0.217526  1
  Zr  Zr6  1  0.499733  0.840867  0.719040  1
  Zr  Zr7  1  0.348433  0.004004  0.469502  1
  Ta  Ta8  1  0.354893  0.501779  0.373368  1
  Ta  Ta9  1  0.840715  0.000254  0.370310  1
  Ta  Ta10  1  0.004375  0.153911  0.126158  1
  Ta  Ta11  1  0.994329  0.848267  0.631674  1
  Ta  Ta12  1  0.652290  0.494547  0.876203  1
  Ta  Ta13  1  0.503035  0.348725  0.624295  1
  Ta  Ta14  1  0.495262  0.653234  0.122804  1
  Ta  Ta15  1  0.152079  0.004629  0.873641  1
  Ta  Ta16  1  0.664798  0.671567  0.501777  1
  Ta  Ta17  1  0.830191  0.169451  0.750432  1
  Ta  Ta18  1  0.171170  0.832293  0.248466  1
  Ta  Ta19  1  0.329674  0.330573  0.000317  1
  Si  Si20  1  0.955859  0.298697  0.936691  1
  Si  Si21  1  0.705054  0.043919  0.563096  1
  Si  Si22  1  0.200061  0.456577  0.187141  1
  Si  Si23  1  0.799468  0.543993  0.685317  1
  Si  Si24  1  0.456028  0.201183  0.813895  1
  Si  Si25  1  0.543925  0.797915  0.313847  1
  Si  Si26  1  0.298878  0.956528  0.063295  1
  Si  Si27  1  0.863778  0.791576  0.823755  1
  Si  Si28  1  0.135512  0.207009  0.324703  1
  Si  Si29  1  0.792560  0.864128  0.177032  1
  Si  Si30  1  0.291534  0.636975  0.570964  1
  Si  Si31  1  0.707819  0.365614  0.072229  1
  Si  Si32  1  0.636912  0.293708  0.428234  1
  Si  Si33  1  0.364996  0.708129  0.926947  1
  Si  Si34  1  0.209261  0.135012  0.677168  1
  Pd  Pd35  1  0.045588  0.698195  0.438589  1
