# generated using pymatgen
data_Er7Lu5InCo4Ru
_symmetry_space_group_name_H-M   'P 1'
_cell_length_a   8.15055659
_cell_length_b   8.15055712
_cell_length_c   8.14976508
_cell_angle_alpha   111.29937859
_cell_angle_beta   111.05349274
_cell_angle_gamma   106.11640998
_symmetry_Int_Tables_number   1
_chemical_formula_structural   Er7Lu5InCo4Ru
_chemical_formula_sum   'Er7 Lu5 In1 Co4 Ru1'
_cell_volume   415.68272686
_cell_formula_units_Z   1
loop_
 _symmetry_equiv_pos_site_id
 _symmetry_equiv_pos_as_xyz
  1  'x, y, z'
loop_
 _atom_site_type_symbol
 _atom_site_label
 _atom_site_symmetry_multiplicity
 _atom_site_fract_x
 _atom_site_fract_y
 _atom_site_fract_z
 _atom_site_occupancy
  Er  Er0  1  0.417373  0.222703  0.194322  1
  Er  Er1  1  0.583119  0.777734  0.805973  1
  Er  Er2  1  0.028238  0.222854  0.805973  1
  Er  Er3  1  0.971620  0.776949  0.194322  1
  Er  Er4  1  0.183249  0.280287  0.463537  1
  Er  Er5  1  0.816382  0.719577  0.535959  1
  Er  Er6  1  0.183651  0.719761  0.903413  1
  Lu  Lu7  1  0.816786  0.280014  0.096800  1
  Lu  Lu8  1  0.314447  0.620937  0.306161  1
  Lu  Lu9  1  0.685225  0.378850  0.693927  1
  Lu  Lu10  1  0.315077  0.008703  0.693927  1
  Lu  Lu11  1  0.685225  0.991714  0.306161  1
  In  In12  1  0.500049  0.499970  0.000019  1
  Co  Co13  1  0.374472  0.999962  0.374435  1
  Co  Co14  1  0.625731  0.000168  0.625899  1
  Co  Co15  1  0.112476  0.612362  0.499521  1
  Co  Co16  1  0.887159  0.387046  0.499521  1
  Ru  Ru17  1  0.999719  0.000410  0.000129  1
