# generated using pymatgen
data_Dy4Re4OsRu3
_symmetry_space_group_name_H-M   'P 1'
_cell_length_a   5.35440843
_cell_length_b   5.14368495
_cell_length_c   9.16379000
_cell_angle_alpha   90.00000000
_cell_angle_beta   90.00000000
_cell_angle_gamma   118.65268392
_symmetry_Int_Tables_number   1
_chemical_formula_structural   Dy4Re4OsRu3
_chemical_formula_sum   'Dy4 Re4 Os1 Ru3'
_cell_volume   221.47724599
_cell_formula_units_Z   1
loop_
 _symmetry_equiv_pos_site_id
 _symmetry_equiv_pos_as_xyz
  1  'x, y, z'
loop_
 _atom_site_type_symbol
 _atom_site_label
 _atom_site_symmetry_multiplicity
 _atom_site_fract_x
 _atom_site_fract_y
 _atom_site_fract_z
 _atom_site_occupancy
  Dy  Dy0  1  0.671882  0.336523  0.564743  1
  Dy  Dy1  1  0.327870  0.663366  0.435415  1
  Dy  Dy2  1  0.327870  0.663366  0.064585  1
  Dy  Dy3  1  0.671882  0.336523  0.935257  1
  Re  Re4  1  0.167429  0.336379  0.750000  1
  Re  Re5  1  0.168072  0.830824  0.750000  1
  Re  Re6  1  0.836740  0.664278  0.250000  1
  Re  Re7  1  0.835955  0.172049  0.250000  1
  Os  Os8  1  0.653600  0.826615  0.750000  1
  Ru  Ru9  1  0.994249  0.997408  0.498954  1
  Ru  Ru10  1  0.994249  0.997408  0.001046  1
  Ru  Ru11  1  0.350201  0.175261  0.250000  1
