# generated using pymatgen
data_Lu4TiGa(B2Ir5)2
_symmetry_space_group_name_H-M   'P 1'
_cell_length_a   9.50261500
_cell_length_b   9.50261500
_cell_length_c   3.16950400
_cell_angle_alpha   90.00000000
_cell_angle_beta   90.00000000
_cell_angle_gamma   90.00000000
_symmetry_Int_Tables_number   1
_chemical_formula_structural   Lu4TiGa(B2Ir5)2
_chemical_formula_sum   'Lu4 Ti1 Ga1 B4 Ir10'
_cell_volume   286.20523448
_cell_formula_units_Z   1
loop_
 _symmetry_equiv_pos_site_id
 _symmetry_equiv_pos_as_xyz
  1  'x, y, z'
loop_
 _atom_site_type_symbol
 _atom_site_label
 _atom_site_symmetry_multiplicity
 _atom_site_fract_x
 _atom_site_fract_y
 _atom_site_fract_z
 _atom_site_occupancy
  Lu  Lu0  1  0.675462  0.177366  0.000000  1
  Lu  Lu1  1  0.324538  0.822634  0.000000  1
  Lu  Lu2  1  0.177366  0.324538  0.000000  1
  Lu  Lu3  1  0.822634  0.675462  0.000000  1
  Ti  Ti4  1  0.000000  0.000000  0.000000  1
  Ga  Ga5  1  0.500000  0.500000  0.000000  1
  B  B6  1  0.125011  0.617834  0.000000  1
  B  B7  1  0.874989  0.382166  0.000000  1
  B  B8  1  0.617834  0.874989  0.000000  1
  B  B9  1  0.382166  0.125011  0.000000  1
  Ir  Ir10  1  0.218357  0.069350  0.500000  1
  Ir  Ir11  1  0.781643  0.930650  0.500000  1
  Ir  Ir12  1  0.069350  0.781643  0.500000  1
  Ir  Ir13  1  0.718613  0.430218  0.500000  1
  Ir  Ir14  1  0.930650  0.218357  0.500000  1
  Ir  Ir15  1  0.281387  0.569782  0.500000  1
  Ir  Ir16  1  0.569782  0.718613  0.500000  1
  Ir  Ir17  1  0.430218  0.281387  0.500000  1
  Ir  Ir18  1  0.500000  0.000000  0.500000  1
  Ir  Ir19  1  0.000000  0.500000  0.500000  1
