# generated using pymatgen
data_Tb5Dy3Re2(TcC4)2
_symmetry_space_group_name_H-M   'P 1'
_cell_length_a   5.12999200
_cell_length_b   6.59779432
_cell_length_c   9.90813648
_cell_angle_alpha   90.03576349
_cell_angle_beta   90.00000000
_cell_angle_gamma   90.00000000
_symmetry_Int_Tables_number   1
_chemical_formula_structural   Tb5Dy3Re2(TcC4)2
_chemical_formula_sum   'Tb5 Dy3 Re2 Tc2 C8'
_cell_volume   335.35698485
_cell_formula_units_Z   1
loop_
 _symmetry_equiv_pos_site_id
 _symmetry_equiv_pos_as_xyz
  1  'x, y, z'
loop_
 _atom_site_type_symbol
 _atom_site_label
 _atom_site_symmetry_multiplicity
 _atom_site_fract_x
 _atom_site_fract_y
 _atom_site_fract_z
 _atom_site_occupancy
  Tb  Tb0  1  0.250000  0.180105  0.943076  1
  Tb  Tb1  1  0.750000  0.467768  0.783819  1
  Tb  Tb2  1  0.250000  0.032360  0.284485  1
  Tb  Tb3  1  0.750000  0.968087  0.714871  1
  Tb  Tb4  1  0.250000  0.531809  0.215329  1
  Dy  Dy5  1  0.750000  0.821796  0.056227  1
  Dy  Dy6  1  0.250000  0.678068  0.555932  1
  Dy  Dy7  1  0.750000  0.320983  0.442728  1
  Re  Re8  1  0.750000  0.778903  0.364990  1
  Re  Re9  1  0.250000  0.720992  0.864657  1
  Tc  Tc10  1  0.750000  0.278392  0.135239  1
  Tc  Tc11  1  0.250000  0.221510  0.634631  1
  C  C12  1  0.750000  0.177738  0.953424  1
  C  C13  1  0.250000  0.820912  0.047926  1
  C  C14  1  0.750000  0.677957  0.547982  1
  C  C15  1  0.250000  0.322606  0.452957  1
  C  C16  1  0.750000  0.044516  0.259696  1
  C  C17  1  0.250000  0.455684  0.759017  1
  C  C18  1  0.750000  0.546558  0.241727  1
  C  C19  1  0.250000  0.953257  0.741287  1
