# generated using pymatgen
data_Tm3CO2
_symmetry_space_group_name_H-M   'P 1'
_cell_length_a   3.38520055
_cell_length_b   5.86405595
_cell_length_c   5.86239100
_cell_angle_alpha   47.88517331
_cell_angle_beta   73.06377279
_cell_angle_gamma   73.06981244
_symmetry_Int_Tables_number   1
_chemical_formula_structural   Tm3CO2
_chemical_formula_sum   'Tm3 C1 O2'
_cell_volume   81.82594765
_cell_formula_units_Z   1
loop_
 _symmetry_equiv_pos_site_id
 _symmetry_equiv_pos_as_xyz
  1  'x, y, z'
loop_
 _atom_site_type_symbol
 _atom_site_label
 _atom_site_symmetry_multiplicity
 _atom_site_fract_x
 _atom_site_fract_y
 _atom_site_fract_z
 _atom_site_occupancy
  Tm  Tm0  1  0.036192  0.890538  0.817447  1
  Tm  Tm1  1  0.372821  0.552902  0.479984  1
  Tm  Tm2  1  0.699817  0.228145  0.154949  1
  C  C3  1  0.036321  0.390536  0.317464  1
  O  O4  1  0.702263  0.725183  0.651617  1
  O  O5  1  0.370274  0.055862  0.983310  1
