# generated using pymatgen
data_Tm4TaRe2Os5
_symmetry_space_group_name_H-M   'P 1'
_cell_length_a   5.47335198
_cell_length_b   5.23253155
_cell_length_c   8.95438500
_cell_angle_alpha   90.00000000
_cell_angle_beta   90.00000000
_cell_angle_gamma   120.64191754
_symmetry_Int_Tables_number   1
_chemical_formula_structural   Tm4TaRe2Os5
_chemical_formula_sum   'Tm4 Ta1 Re2 Os5'
_cell_volume   220.64086089
_cell_formula_units_Z   1
loop_
 _symmetry_equiv_pos_site_id
 _symmetry_equiv_pos_as_xyz
  1  'x, y, z'
loop_
 _atom_site_type_symbol
 _atom_site_label
 _atom_site_symmetry_multiplicity
 _atom_site_fract_x
 _atom_site_fract_y
 _atom_site_fract_z
 _atom_site_occupancy
  Tm  Tm0  1  0.671573  0.340726  0.560982  1
  Tm  Tm1  1  0.330061  0.664479  0.433508  1
  Tm  Tm2  1  0.330061  0.664479  0.066492  1
  Tm  Tm3  1  0.671573  0.340726  0.939018  1
  Ta  Ta4  1  0.165683  0.327792  0.750000  1
  Re  Re5  1  0.833813  0.663128  0.250000  1
  Re  Re6  1  0.830148  0.171510  0.250000  1
  Os  Os7  1  0.993471  0.997675  0.497128  1
  Os  Os8  1  0.993471  0.997675  0.002872  1
  Os  Os9  1  0.176281  0.829000  0.750000  1
  Os  Os10  1  0.654013  0.829240  0.750000  1
  Os  Os11  1  0.349852  0.173569  0.250000  1
