# generated using pymatgen
data_YTa3(NbCl6)3
_symmetry_space_group_name_H-M   'P 1'
_cell_length_a   10.16671538
_cell_length_b   10.16682691
_cell_length_c   10.16932004
_cell_angle_alpha   55.98401017
_cell_angle_beta   55.98091273
_cell_angle_gamma   55.97813120
_symmetry_Int_Tables_number   1
_chemical_formula_structural   YTa3(NbCl6)3
_chemical_formula_sum   'Y1 Ta3 Nb3 Cl18'
_cell_volume   674.05409991
_cell_formula_units_Z   1
loop_
 _symmetry_equiv_pos_site_id
 _symmetry_equiv_pos_as_xyz
  1  'x, y, z'
loop_
 _atom_site_type_symbol
 _atom_site_label
 _atom_site_symmetry_multiplicity
 _atom_site_fract_x
 _atom_site_fract_y
 _atom_site_fract_z
 _atom_site_occupancy
  Y  Y0  1  0.999601  0.999915  0.000919  1
  Ta  Ta1  1  0.408691  0.301122  0.648892  1
  Ta  Ta2  1  0.350755  0.591611  0.698600  1
  Ta  Ta3  1  0.699176  0.350863  0.590940  1
  Nb  Nb4  1  0.300256  0.650218  0.407683  1
  Nb  Nb5  1  0.650021  0.408585  0.299539  1
  Nb  Nb6  1  0.591811  0.700147  0.349496  1
  Cl  Cl7  1  0.566677  0.160824  0.444659  1
  Cl  Cl8  1  0.224462  0.371355  0.906733  1
  Cl  Cl9  1  0.908195  0.223058  0.373445  1
  Cl  Cl10  1  0.370371  0.909341  0.223189  1
  Cl  Cl11  1  0.777097  0.629400  0.090792  1
  Cl  Cl12  1  0.092509  0.775565  0.631350  1
  Cl  Cl13  1  0.703660  0.958252  0.160193  1
  Cl  Cl14  1  0.953979  0.161808  0.703029  1
  Cl  Cl15  1  0.163045  0.701512  0.954729  1
  Cl  Cl16  1  0.298023  0.045313  0.838145  1
  Cl  Cl17  1  0.041149  0.839723  0.297158  1
  Cl  Cl18  1  0.840874  0.295982  0.041750  1
  Cl  Cl19  1  0.558004  0.431622  0.837379  1
  Cl  Cl20  1  0.162558  0.439244  0.570381  1
  Cl  Cl21  1  0.441723  0.568496  0.160751  1
  Cl  Cl22  1  0.429869  0.837283  0.560829  1
  Cl  Cl23  1  0.839053  0.555429  0.433574  1
  Cl  Cl24  1  0.628439  0.093332  0.775843  1
