# generated using pymatgen
data_NdHo5Al24Os5Pt3
_symmetry_space_group_name_H-M   'P 1'
_cell_length_a   8.83372847
_cell_length_b   8.84442158
_cell_length_c   9.56237341
_cell_angle_alpha   90.12308535
_cell_angle_beta   89.74359486
_cell_angle_gamma   119.54898397
_symmetry_Int_Tables_number   1
_chemical_formula_structural   NdHo5Al24Os5Pt3
_chemical_formula_sum   'Nd1 Ho5 Al24 Os5 Pt3'
_cell_volume   649.92213698
_cell_formula_units_Z   1
loop_
 _symmetry_equiv_pos_site_id
 _symmetry_equiv_pos_as_xyz
  1  'x, y, z'
loop_
 _atom_site_type_symbol
 _atom_site_label
 _atom_site_symmetry_multiplicity
 _atom_site_fract_x
 _atom_site_fract_y
 _atom_site_fract_z
 _atom_site_occupancy
  Nd  Nd0  1  0.187081  0.378888  0.249919  1
  Ho  Ho1  1  0.812393  0.616177  0.748840  1
  Ho  Ho2  1  0.612230  0.813823  0.252412  1
  Ho  Ho3  1  0.387480  0.186404  0.747711  1
  Ho  Ho4  1  0.195739  0.809293  0.251732  1
  Ho  Ho5  1  0.804679  0.191856  0.748334  1
  Al  Al6  1  0.335699  0.672385  0.027452  1
  Al  Al7  1  0.664987  0.329123  0.969564  1
  Al  Al8  1  0.669150  0.331834  0.528964  1
  Al  Al9  1  0.330735  0.669386  0.473777  1
  Al  Al10  1  0.157795  0.325557  0.576821  1
  Al  Al11  1  0.841973  0.674678  0.425967  1
  Al  Al12  1  0.673605  0.840927  0.575718  1
  Al  Al13  1  0.836980  0.676405  0.077162  1
  Al  Al14  1  0.327212  0.158512  0.426034  1
  Al  Al15  1  0.163302  0.323746  0.920077  1
  Al  Al16  1  0.163487  0.835305  0.576809  1
  Al  Al17  1  0.326317  0.157940  0.074825  1
  Al  Al18  1  0.834507  0.164295  0.425238  1
  Al  Al19  1  0.674859  0.841472  0.923313  1
  Al  Al20  1  0.830084  0.158408  0.076689  1
  Al  Al21  1  0.168296  0.841176  0.921612  1
  Al  Al22  1  0.560615  0.124812  0.250012  1
  Al  Al23  1  0.439733  0.875606  0.750151  1
  Al  Al24  1  0.873068  0.438483  0.253026  1
  Al  Al25  1  0.126041  0.562653  0.747548  1
  Al  Al26  1  0.564350  0.437078  0.249831  1
  Al  Al27  1  0.438338  0.563780  0.750177  1
  Al  Al28  1  0.995419  0.997269  0.250248  1
  Al  Al29  1  0.001520  0.997420  0.749742  1
  Os  Os30  1  0.500342  0.000689  0.999655  1
  Os  Os31  1  0.500137  0.000507  0.500481  1
  Os  Os32  1  0.998912  0.500610  0.501574  1
  Os  Os33  1  0.000023  0.000030  0.999760  1
  Os  Os34  1  0.999894  0.000042  0.500206  1
  Pt  Pt35  1  0.998858  0.501100  0.998653  1
  Pt  Pt36  1  0.502320  0.501225  0.998730  1
  Pt  Pt37  1  0.501839  0.501104  0.501234  1
