# generated using pymatgen
data_EuHo2(AgGe)3
_symmetry_space_group_name_H-M   'P 1'
_cell_length_a   7.25197766
_cell_length_b   7.25197781
_cell_length_c   4.21297700
_cell_angle_alpha   90.00000000
_cell_angle_beta   90.00000000
_cell_angle_gamma   120.39887506
_symmetry_Int_Tables_number   1
_chemical_formula_structural   EuHo2(AgGe)3
_chemical_formula_sum   'Eu1 Ho2 Ag3 Ge3'
_cell_volume   191.10541873
_cell_formula_units_Z   1
loop_
 _symmetry_equiv_pos_site_id
 _symmetry_equiv_pos_as_xyz
  1  'x, y, z'
loop_
 _atom_site_type_symbol
 _atom_site_label
 _atom_site_symmetry_multiplicity
 _atom_site_fract_x
 _atom_site_fract_y
 _atom_site_fract_z
 _atom_site_occupancy
  Eu  Eu0  1  0.416547  0.416547  0.000000  1
  Ho  Ho1  1  0.586488  0.001207  0.000000  1
  Ho  Ho2  1  0.001207  0.586488  0.000000  1
  Ag  Ag3  1  0.250403  0.998139  0.500000  1
  Ag  Ag4  1  0.998139  0.250403  0.500000  1
  Ag  Ag5  1  0.750444  0.750444  0.500000  1
  Ge  Ge6  1  0.330383  0.672385  0.500000  1
  Ge  Ge7  1  0.672385  0.330383  0.500000  1
  Ge  Ge8  1  0.994006  0.994006  0.000000  1
