# generated using pymatgen
data_Eu7TmP6
_symmetry_space_group_name_H-M   'P 1'
_cell_length_a   7.71028793
_cell_length_b   7.71028801
_cell_length_c   7.62636500
_cell_angle_alpha   109.25088291
_cell_angle_beta   109.25088312
_cell_angle_gamma   109.69065262
_symmetry_Int_Tables_number   1
_chemical_formula_structural   Eu7TmP6
_chemical_formula_sum   'Eu7 Tm1 P6'
_cell_volume   349.95375433
_cell_formula_units_Z   1
loop_
 _symmetry_equiv_pos_site_id
 _symmetry_equiv_pos_as_xyz
  1  'x, y, z'
loop_
 _atom_site_type_symbol
 _atom_site_label
 _atom_site_symmetry_multiplicity
 _atom_site_fract_x
 _atom_site_fract_y
 _atom_site_fract_z
 _atom_site_occupancy
  Eu  Eu0  1  0.633669  0.634092  0.632966  1
  Eu  Eu1  1  0.003526  0.370236  0.500843  1
  Eu  Eu2  1  0.366710  0.496474  0.997317  1
  Eu  Eu3  1  0.000423  0.866331  0.499297  1
  Eu  Eu4  1  0.865908  0.499577  0.998874  1
  Eu  Eu5  1  0.500000  0.000000  0.868475  1
  Eu  Eu6  1  0.129764  0.133290  0.130606  1
  Tm  Tm7  1  0.500000  0.000000  0.372954  1
  P  P8  1  0.862570  0.121945  0.736399  1
  P  P9  1  0.378055  0.240625  0.614454  1
  P  P10  1  0.134327  0.756327  0.888213  1
  P  P11  1  0.743673  0.878000  0.131886  1
  P  P12  1  0.259375  0.637430  0.373829  1
  P  P13  1  0.622000  0.365673  0.253886  1
