# generated using pymatgen
data_Tb4Dy8ZnCo4Sn
_symmetry_space_group_name_H-M   'P 1'
_cell_length_a   8.34344751
_cell_length_b   8.34460054
_cell_length_c   8.34344801
_cell_angle_alpha   112.09709921
_cell_angle_beta   109.10558858
_cell_angle_gamma   107.24267313
_symmetry_Int_Tables_number   1
_chemical_formula_structural   Tb4Dy8ZnCo4Sn
_chemical_formula_sum   'Tb4 Dy8 Zn1 Co4 Sn1'
_cell_volume   446.38191830
_cell_formula_units_Z   1
loop_
 _symmetry_equiv_pos_site_id
 _symmetry_equiv_pos_as_xyz
  1  'x, y, z'
loop_
 _atom_site_type_symbol
 _atom_site_label
 _atom_site_symmetry_multiplicity
 _atom_site_fract_x
 _atom_site_fract_y
 _atom_site_fract_z
 _atom_site_occupancy
  Tb  Tb0  1  0.428927  0.228562  0.200439  1
  Tb  Tb1  1  0.571073  0.771438  0.799561  1
  Tb  Tb2  1  0.028122  0.228562  0.799635  1
  Tb  Tb3  1  0.971878  0.771438  0.200365  1
  Dy  Dy4  1  0.180742  0.284077  0.464839  1
  Dy  Dy5  1  0.819258  0.715923  0.535161  1
  Dy  Dy6  1  0.180763  0.715923  0.896665  1
  Dy  Dy7  1  0.819237  0.284077  0.103335  1
  Dy  Dy8  1  0.324219  0.636521  0.312302  1
  Dy  Dy9  1  0.675781  0.363479  0.687698  1
  Dy  Dy10  1  0.324204  0.011791  0.687587  1
  Dy  Dy11  1  0.675796  0.988209  0.312413  1
  Zn  Zn12  1  0.000000  0.000000  0.000000  1
  Co  Co13  1  0.344770  0.000000  0.344770  1
  Co  Co14  1  0.655230  0.000000  0.655230  1
  Co  Co15  1  0.114094  0.614075  0.499980  1
  Co  Co16  1  0.885906  0.385925  0.500020  1
  Sn  Sn17  1  0.500000  0.500000  0.000000  1
