# generated using pymatgen
data_DyHoLu4(Al3Os)8
_symmetry_space_group_name_H-M   'P 1'
_cell_length_a   8.76716115
_cell_length_b   8.76352286
_cell_length_c   9.58289300
_cell_angle_alpha   90.00000000
_cell_angle_beta   90.00000000
_cell_angle_gamma   119.95779226
_symmetry_Int_Tables_number   1
_chemical_formula_structural   DyHoLu4(Al3Os)8
_chemical_formula_sum   'Dy1 Ho1 Lu4 Al24 Os8'
_cell_volume   637.89549951
_cell_formula_units_Z   1
loop_
 _symmetry_equiv_pos_site_id
 _symmetry_equiv_pos_as_xyz
  1  'x, y, z'
loop_
 _atom_site_type_symbol
 _atom_site_label
 _atom_site_symmetry_multiplicity
 _atom_site_fract_x
 _atom_site_fract_y
 _atom_site_fract_z
 _atom_site_occupancy
  Dy  Dy0  1  0.806705  0.193059  0.750000  1
  Ho  Ho1  1  0.805324  0.610865  0.750000  1
  Lu  Lu2  1  0.195335  0.391162  0.250000  1
  Lu  Lu3  1  0.608816  0.804636  0.250000  1
  Lu  Lu4  1  0.391347  0.195669  0.750000  1
  Lu  Lu5  1  0.195379  0.804563  0.250000  1
  Al  Al6  1  0.333239  0.666720  0.021929  1
  Al  Al7  1  0.666372  0.333045  0.979695  1
  Al  Al8  1  0.666372  0.333045  0.520305  1
  Al  Al9  1  0.333239  0.666720  0.478071  1
  Al  Al10  1  0.164082  0.327332  0.576078  1
  Al  Al11  1  0.836529  0.673341  0.422737  1
  Al  Al12  1  0.672460  0.836079  0.576011  1
  Al  Al13  1  0.836529  0.673341  0.077263  1
  Al  Al14  1  0.326582  0.163425  0.423063  1
  Al  Al15  1  0.164082  0.327332  0.923922  1
  Al  Al16  1  0.163686  0.836858  0.576038  1
  Al  Al17  1  0.326582  0.163425  0.076937  1
  Al  Al18  1  0.836468  0.163514  0.422318  1
  Al  Al19  1  0.672460  0.836079  0.923989  1
  Al  Al20  1  0.836468  0.163514  0.077682  1
  Al  Al21  1  0.163686  0.836858  0.923962  1
  Al  Al22  1  0.561161  0.122981  0.250000  1
  Al  Al23  1  0.437462  0.876287  0.750000  1
  Al  Al24  1  0.877015  0.438794  0.250000  1
  Al  Al25  1  0.124404  0.562450  0.750000  1
  Al  Al26  1  0.561277  0.438631  0.250000  1
  Al  Al27  1  0.437806  0.561334  0.750000  1
  Al  Al28  1  0.999806  0.000133  0.250000  1
  Al  Al29  1  0.002236  0.999248  0.750000  1
  Os  Os30  1  0.498964  0.999317  0.000819  1
  Os  Os31  1  0.000715  0.500556  0.001221  1
  Os  Os32  1  0.498964  0.999317  0.499181  1
  Os  Os33  1  0.499204  0.499763  0.000665  1
  Os  Os34  1  0.000715  0.500556  0.498779  1
  Os  Os35  1  0.499204  0.499763  0.499335  1
  Os  Os36  1  0.999664  0.000142  0.000140  1
  Os  Os37  1  0.999664  0.000142  0.499860  1
