# generated using pymatgen
data_Cs6TbTmBr12
_symmetry_space_group_name_H-M   'P 1'
_cell_length_a   10.02187978
_cell_length_b   9.97176983
_cell_length_c   8.29603400
_cell_angle_alpha   90.00000000
_cell_angle_beta   90.00000000
_cell_angle_gamma   89.91420540
_symmetry_Int_Tables_number   1
_chemical_formula_structural   Cs6TbTmBr12
_chemical_formula_sum   'Cs6 Tb1 Tm1 Br12'
_cell_volume   829.07051529
_cell_formula_units_Z   1
loop_
 _symmetry_equiv_pos_site_id
 _symmetry_equiv_pos_as_xyz
  1  'x, y, z'
loop_
 _atom_site_type_symbol
 _atom_site_label
 _atom_site_symmetry_multiplicity
 _atom_site_fract_x
 _atom_site_fract_y
 _atom_site_fract_z
 _atom_site_occupancy
  Cs  Cs0  1  0.000000  0.000000  0.500000  1
  Cs  Cs1  1  0.000000  0.000000  0.000000  1
  Cs  Cs2  1  0.237254  0.581689  0.500000  1
  Cs  Cs3  1  0.762746  0.418311  0.500000  1
  Cs  Cs4  1  0.418247  0.234802  0.000000  1
  Cs  Cs5  1  0.581753  0.765198  0.000000  1
  Tb  Tb6  1  0.000000  0.500000  0.000000  1
  Tm  Tm7  1  0.500000  0.000000  0.500000  1
  Br  Br8  1  0.689646  0.055211  0.737307  1
  Br  Br9  1  0.310354  0.944789  0.737307  1
  Br  Br10  1  0.943704  0.692814  0.241026  1
  Br  Br11  1  0.056296  0.307186  0.241026  1
  Br  Br12  1  0.310354  0.944789  0.262693  1
  Br  Br13  1  0.689646  0.055211  0.262693  1
  Br  Br14  1  0.056296  0.307186  0.758974  1
  Br  Br15  1  0.943704  0.692814  0.758974  1
  Br  Br16  1  0.569699  0.732022  0.500000  1
  Br  Br17  1  0.430301  0.267978  0.500000  1
  Br  Br18  1  0.273077  0.571406  0.000000  1
  Br  Br19  1  0.726923  0.428594  0.000000  1
