# generated using pymatgen
data_TiV4Si6BW5
_symmetry_space_group_name_H-M   'P 1'
_cell_length_a   7.30482100
_cell_length_b   7.31318520
_cell_length_c   4.90350086
_cell_angle_alpha   90.06657441
_cell_angle_beta   89.86669868
_cell_angle_gamma   119.96218699
_symmetry_Int_Tables_number   1
_chemical_formula_structural   TiV4Si6BW5
_chemical_formula_sum   'Ti1 V4 Si6 B1 W5'
_cell_volume   226.94322150
_cell_formula_units_Z   1
loop_
 _symmetry_equiv_pos_site_id
 _symmetry_equiv_pos_as_xyz
  1  'x, y, z'
loop_
 _atom_site_type_symbol
 _atom_site_label
 _atom_site_symmetry_multiplicity
 _atom_site_fract_x
 _atom_site_fract_y
 _atom_site_fract_z
 _atom_site_occupancy
  Ti  Ti0  1  0.245915  0.000000  0.759534  1
  V  V1  1  0.330826  0.666718  0.502391  1
  V  V2  1  0.664109  0.333282  0.502391  1
  V  V3  1  0.666729  0.333265  0.997453  1
  V  V4  1  0.333463  0.666735  0.997453  1
  Si  Si5  1  0.999294  0.402641  0.250676  1
  Si  Si6  1  0.596653  0.597359  0.250676  1
  Si  Si7  1  0.402598  0.000000  0.249724  1
  Si  Si8  1  0.000571  0.597176  0.749469  1
  Si  Si9  1  0.403395  0.402824  0.749469  1
  Si  Si10  1  0.596025  0.000000  0.748680  1
  B  B11  1  0.000872  0.000000  0.498657  1
  W  W12  1  0.000981  0.752295  0.246130  1
  W  W13  1  0.248686  0.247705  0.246130  1
  W  W14  1  0.754221  0.000000  0.242825  1
  W  W15  1  0.001392  0.247123  0.754171  1
  W  W16  1  0.754270  0.752877  0.754171  1
