# generated using pymatgen
data_Tb8Ho2Ir5Pd
_symmetry_space_group_name_H-M   'P 1'
_cell_length_a   10.97863243
_cell_length_b   10.98554400
_cell_length_c   6.36029900
_cell_angle_alpha   90.00000000
_cell_angle_beta   89.97075359
_cell_angle_gamma   90.00000000
_symmetry_Int_Tables_number   1
_chemical_formula_structural   Tb8Ho2Ir5Pd
_chemical_formula_sum   'Tb16 Ho4 Ir10 Pd2'
_cell_volume   767.09170893
_cell_formula_units_Z   2
loop_
 _symmetry_equiv_pos_site_id
 _symmetry_equiv_pos_as_xyz
  1  'x, y, z'
loop_
 _atom_site_type_symbol
 _atom_site_label
 _atom_site_symmetry_multiplicity
 _atom_site_fract_x
 _atom_site_fract_y
 _atom_site_fract_z
 _atom_site_occupancy
  Tb  Tb0  1  0.291094  0.088605  0.376279  1
  Tb  Tb1  1  0.291094  0.911395  0.876279  1
  Tb  Tb2  1  0.704022  0.091585  0.872322  1
  Tb  Tb3  1  0.704022  0.908415  0.372322  1
  Tb  Tb4  1  0.582460  0.789444  0.879289  1
  Tb  Tb5  1  0.582460  0.210556  0.379289  1
  Tb  Tb6  1  0.410188  0.790825  0.378409  1
  Tb  Tb7  1  0.410188  0.209175  0.878409  1
  Tb  Tb8  1  0.210021  0.411284  0.621390  1
  Tb  Tb9  1  0.210021  0.588716  0.121390  1
  Tb  Tb10  1  0.789695  0.416270  0.122229  1
  Tb  Tb11  1  0.789695  0.583730  0.622229  1
  Tb  Tb12  1  0.914046  0.706852  0.128407  1
  Tb  Tb13  1  0.914046  0.293148  0.628407  1
  Tb  Tb14  1  0.093561  0.706124  0.621787  1
  Tb  Tb15  1  0.093561  0.293876  0.121787  1
  Ho  Ho16  1  0.004092  0.999188  0.499982  1
  Ho  Ho17  1  0.004092  0.000812  0.999982  1
  Ho  Ho18  1  0.499943  0.499227  0.000047  1
  Ho  Ho19  1  0.499943  0.500773  0.500047  1
  Ir  Ir20  1  0.151501  0.152719  0.750080  1
  Ir  Ir21  1  0.151501  0.847281  0.250080  1
  Ir  Ir22  1  0.654694  0.346538  0.749139  1
  Ir  Ir23  1  0.654694  0.653462  0.249139  1
  Ir  Ir24  1  0.347662  0.347121  0.250631  1
  Ir  Ir25  1  0.347662  0.652879  0.750631  1
  Ir  Ir26  1  0.501473  0.999801  0.123443  1
  Ir  Ir27  1  0.501473  0.000199  0.623443  1
  Ir  Ir28  1  0.999281  0.500470  0.876824  1
  Ir  Ir29  1  0.999281  0.499530  0.376824  1
  Pd  Pd30  1  0.846267  0.152337  0.249740  1
  Pd  Pd31  1  0.846267  0.847663  0.749740  1
