# generated using pymatgen
data_Tb9ErIn4Hg4Pd3Pt
_symmetry_space_group_name_H-M   'P 1'
_cell_length_a   3.64068900
_cell_length_b   8.08755401
_cell_length_c   18.34021000
_cell_angle_alpha   90.00218201
_cell_angle_beta   90.00000000
_cell_angle_gamma   90.00000000
_symmetry_Int_Tables_number   1
_chemical_formula_structural   Tb9ErIn4Hg4Pd3Pt
_chemical_formula_sum   'Tb9 Er1 In4 Hg4 Pd3 Pt1'
_cell_volume   540.01407464
_cell_formula_units_Z   1
loop_
 _symmetry_equiv_pos_site_id
 _symmetry_equiv_pos_as_xyz
  1  'x, y, z'
loop_
 _atom_site_type_symbol
 _atom_site_label
 _atom_site_symmetry_multiplicity
 _atom_site_fract_x
 _atom_site_fract_y
 _atom_site_fract_z
 _atom_site_occupancy
  Tb  Tb0  1  0.000000  0.500032  0.499595  1
  Tb  Tb1  1  0.000000  0.999496  0.000110  1
  Tb  Tb2  1  0.000000  0.740248  0.284313  1
  Tb  Tb3  1  0.000000  0.256941  0.714819  1
  Tb  Tb4  1  0.000000  0.756669  0.784128  1
  Tb  Tb5  1  0.000000  0.246544  0.216101  1
  Tb  Tb6  1  0.000000  0.609344  0.085005  1
  Tb  Tb7  1  0.000000  0.390700  0.916387  1
  Tb  Tb8  1  0.000000  0.890513  0.582993  1
  Er  Er9  1  0.000000  0.108901  0.415777  1
  In  In10  1  0.500000  0.581402  0.649120  1
  In  In11  1  0.500000  0.416593  0.351884  1
  In  In12  1  0.500000  0.921128  0.150095  1
  In  In13  1  0.500000  0.080717  0.850090  1
  Hg  Hg14  1  0.500000  0.713148  0.932858  1
  Hg  Hg15  1  0.500000  0.285015  0.065809  1
  Hg  Hg16  1  0.500000  0.789975  0.434005  1
  Hg  Hg17  1  0.500000  0.211766  0.565550  1
  Pd  Pd18  1  0.500000  0.469430  0.801743  1
  Pd  Pd19  1  0.500000  0.969700  0.697646  1
  Pd  Pd20  1  0.500000  0.031233  0.303198  1
  Pt  Pt21  1  0.500000  0.530507  0.198777  1
