# generated using pymatgen
data_TbYMo3P7Ir9
_symmetry_space_group_name_H-M   'P 1'
_cell_length_a   4.00369453
_cell_length_b   9.53297534
_cell_length_c   9.53275772
_cell_angle_alpha   119.99961318
_cell_angle_beta   89.99820913
_cell_angle_gamma   90.00231583
_symmetry_Int_Tables_number   1
_chemical_formula_structural   TbYMo3P7Ir9
_chemical_formula_sum   'Tb1 Y1 Mo3 P7 Ir9'
_cell_volume   315.09410944
_cell_formula_units_Z   1
loop_
 _symmetry_equiv_pos_site_id
 _symmetry_equiv_pos_as_xyz
  1  'x, y, z'
loop_
 _atom_site_type_symbol
 _atom_site_label
 _atom_site_symmetry_multiplicity
 _atom_site_fract_x
 _atom_site_fract_y
 _atom_site_fract_z
 _atom_site_occupancy
  Tb  Tb0  1  0.261884  0.666666  0.333324  1
  Y  Y1  1  0.761894  0.333331  0.666668  1
  Mo  Mo2  1  0.761941  0.088788  0.867059  1
  Mo  Mo3  1  0.761956  0.132949  0.221759  1
  Mo  Mo4  1  0.761941  0.778250  0.911199  1
  P  P5  1  0.262057  0.999982  0.999991  1
  P  P6  1  0.761815  0.879398  0.592790  1
  P  P7  1  0.761818  0.407217  0.286598  1
  P  P8  1  0.761804  0.713398  0.120605  1
  P  P9  1  0.261896  0.119513  0.416257  1
  P  P10  1  0.261893  0.583754  0.703278  1
  P  P11  1  0.261895  0.296736  0.880492  1
  Ir  Ir12  1  0.261911  0.890052  0.161868  1
  Ir  Ir13  1  0.261910  0.838133  0.728170  1
  Ir  Ir14  1  0.261918  0.271853  0.109970  1
  Ir  Ir15  1  0.761910  0.612229  0.555364  1
  Ir  Ir16  1  0.761902  0.444604  0.056842  1
  Ir  Ir17  1  0.761913  0.943136  0.387774  1
  Ir  Ir18  1  0.261926  0.368483  0.439539  1
  Ir  Ir19  1  0.261904  0.560471  0.928939  1
  Ir  Ir20  1  0.261912  0.071055  0.631521  1
