# generated using pymatgen
data_Ir3Os2RhO12
_symmetry_space_group_name_H-M   'P 1'
_cell_length_a   4.54871661
_cell_length_b   4.54871661
_cell_length_c   9.55263400
_cell_angle_alpha   90.00000000
_cell_angle_beta   90.00000000
_cell_angle_gamma   90.14435056
_symmetry_Int_Tables_number   1
_chemical_formula_structural   Ir3Os2RhO12
_chemical_formula_sum   'Ir3 Os2 Rh1 O12'
_cell_volume   197.65122998
_cell_formula_units_Z   1
loop_
 _symmetry_equiv_pos_site_id
 _symmetry_equiv_pos_as_xyz
  1  'x, y, z'
loop_
 _atom_site_type_symbol
 _atom_site_label
 _atom_site_symmetry_multiplicity
 _atom_site_fract_x
 _atom_site_fract_y
 _atom_site_fract_z
 _atom_site_occupancy
  Ir  Ir0  1  0.000000  0.000000  0.332783  1
  Ir  Ir1  1  0.000000  0.000000  0.666974  1
  Ir  Ir2  1  0.500000  0.500000  0.833455  1
  Os  Os3  1  0.000000  0.000000  0.000936  1
  Os  Os4  1  0.500000  0.500000  0.499205  1
  Rh  Rh5  1  0.500000  0.500000  0.166980  1
  O  O6  1  0.300788  0.300788  0.998714  1
  O  O7  1  0.699212  0.699212  0.998714  1
  O  O8  1  0.197285  0.802715  0.500018  1
  O  O9  1  0.802715  0.197285  0.500018  1
  O  O10  1  0.308976  0.308976  0.336236  1
  O  O11  1  0.689493  0.689493  0.664649  1
  O  O12  1  0.691024  0.691024  0.336236  1
  O  O13  1  0.189620  0.810380  0.835353  1
  O  O14  1  0.187003  0.812997  0.164864  1
  O  O15  1  0.310507  0.310507  0.664649  1
  O  O16  1  0.812997  0.187003  0.164864  1
  O  O17  1  0.810380  0.189620  0.835353  1
