# generated using pymatgen
data_Ti4AlCo10SiB4
_symmetry_space_group_name_H-M   'P 1'
_cell_length_a   8.38002500
_cell_length_b   8.38002500
_cell_length_c   2.97773500
_cell_angle_alpha   90.00000000
_cell_angle_beta   90.00000000
_cell_angle_gamma   90.00000000
_symmetry_Int_Tables_number   1
_chemical_formula_structural   Ti4AlCo10SiB4
_chemical_formula_sum   'Ti4 Al1 Co10 Si1 B4'
_cell_volume   209.11090141
_cell_formula_units_Z   1
loop_
 _symmetry_equiv_pos_site_id
 _symmetry_equiv_pos_as_xyz
  1  'x, y, z'
loop_
 _atom_site_type_symbol
 _atom_site_label
 _atom_site_symmetry_multiplicity
 _atom_site_fract_x
 _atom_site_fract_y
 _atom_site_fract_z
 _atom_site_occupancy
  Ti  Ti0  1  0.824849  0.324109  0.000000  1
  Ti  Ti1  1  0.324109  0.175151  0.000000  1
  Ti  Ti2  1  0.675891  0.824849  0.000000  1
  Ti  Ti3  1  0.175151  0.675891  0.000000  1
  Al  Al4  1  0.500000  0.500000  0.000000  1
  Co  Co5  1  0.500000  0.000000  0.500000  1
  Co  Co6  1  0.000000  0.500000  0.500000  1
  Co  Co7  1  0.067479  0.214719  0.500000  1
  Co  Co8  1  0.214719  0.932521  0.500000  1
  Co  Co9  1  0.785281  0.067479  0.500000  1
  Co  Co10  1  0.932521  0.785281  0.500000  1
  Co  Co11  1  0.427092  0.720711  0.500000  1
  Co  Co12  1  0.572908  0.279289  0.500000  1
  Co  Co13  1  0.720711  0.572908  0.500000  1
  Co  Co14  1  0.279289  0.427092  0.500000  1
  Si  Si15  1  0.000000  0.000000  0.000000  1
  B  B16  1  0.621520  0.121355  0.000000  1
  B  B17  1  0.121355  0.378480  0.000000  1
  B  B18  1  0.878645  0.621520  0.000000  1
  B  B19  1  0.378480  0.878645  0.000000  1
