# generated using pymatgen
data_Ti12Al8Au4C3N
_symmetry_space_group_name_H-M   'P 1'
_cell_length_a   8.29208253
_cell_length_b   8.29177527
_cell_length_c   8.29198501
_cell_angle_alpha   60.13531498
_cell_angle_beta   60.13638972
_cell_angle_gamma   60.13432587
_symmetry_Int_Tables_number   1
_chemical_formula_structural   Ti12Al8Au4C3N
_chemical_formula_sum   'Ti12 Al8 Au4 C3 N1'
_cell_volume   404.37484902
_cell_formula_units_Z   1
loop_
 _symmetry_equiv_pos_site_id
 _symmetry_equiv_pos_as_xyz
  1  'x, y, z'
loop_
 _atom_site_type_symbol
 _atom_site_label
 _atom_site_symmetry_multiplicity
 _atom_site_fract_x
 _atom_site_fract_y
 _atom_site_fract_z
 _atom_site_occupancy
  Ti  Ti0  1  0.931335  0.931378  0.568195  1
  Ti  Ti1  1  0.681794  0.318629  0.318685  1
  Ti  Ti2  1  0.321523  0.680446  0.680368  1
  Ti  Ti3  1  0.680367  0.680433  0.321494  1
  Ti  Ti4  1  0.680372  0.321520  0.680359  1
  Ti  Ti5  1  0.318690  0.681799  0.318683  1
  Ti  Ti6  1  0.569636  0.928459  0.569631  1
  Ti  Ti7  1  0.568238  0.931330  0.931306  1
  Ti  Ti8  1  0.928469  0.569623  0.569595  1
  Ti  Ti9  1  0.931319  0.568242  0.931336  1
  Ti  Ti10  1  0.318689  0.318606  0.681798  1
  Ti  Ti11  1  0.569564  0.569591  0.928526  1
  Al  Al12  1  0.913493  0.259653  0.913556  1
  Al  Al13  1  0.336492  0.336488  0.990327  1
  Al  Al14  1  0.990309  0.336474  0.336486  1
  Al  Al15  1  0.336765  0.336768  0.336726  1
  Al  Al16  1  0.259690  0.913496  0.913526  1
  Al  Al17  1  0.913247  0.913253  0.913232  1
  Al  Al18  1  0.913506  0.913535  0.259701  1
  Al  Al19  1  0.336472  0.990328  0.336476  1
  Au  Au20  1  0.125003  0.625004  0.125011  1
  Au  Au21  1  0.124979  0.125009  0.624998  1
  Au  Au22  1  0.624993  0.125000  0.124983  1
  Au  Au23  1  0.125020  0.124975  0.125010  1
  C  C24  1  0.625045  0.124954  0.624994  1
  C  C25  1  0.624981  0.624998  0.125000  1
  C  C26  1  0.125004  0.625035  0.624982  1
  N  N27  1  0.625005  0.624973  0.625016  1
