# generated using pymatgen
data_Tb3Dy7(GaSb)4
_symmetry_space_group_name_H-M   'P 1'
_cell_length_a   8.67149316
_cell_length_b   8.66320818
_cell_length_c   7.94723313
_cell_angle_alpha   89.98731881
_cell_angle_beta   89.99431644
_cell_angle_gamma   125.40556750
_symmetry_Int_Tables_number   1
_chemical_formula_structural   Tb3Dy7(GaSb)4
_chemical_formula_sum   'Tb3 Dy7 Ga4 Sb4'
_cell_volume   486.61363194
_cell_formula_units_Z   1
loop_
 _symmetry_equiv_pos_site_id
 _symmetry_equiv_pos_as_xyz
  1  'x, y, z'
loop_
 _atom_site_type_symbol
 _atom_site_label
 _atom_site_symmetry_multiplicity
 _atom_site_fract_x
 _atom_site_fract_y
 _atom_site_fract_z
 _atom_site_occupancy
  Tb  Tb0  1  0.038895  0.300774  0.332257  1
  Tb  Tb1  1  0.961114  0.699274  0.667704  1
  Tb  Tb2  1  0.461116  0.199348  0.832260  1
  Dy  Dy3  1  0.800130  0.538814  0.167513  1
  Dy  Dy4  1  0.538809  0.800316  0.167483  1
  Dy  Dy5  1  0.199925  0.461296  0.832596  1
  Dy  Dy6  1  0.699808  0.961194  0.667495  1
  Dy  Dy7  1  0.300182  0.038793  0.332500  1
  Dy  Dy8  1  0.999809  0.999895  0.000085  1
  Dy  Dy9  1  0.500047  0.500135  0.499866  1
  Ga  Ga10  1  0.375326  0.375355  0.124308  1
  Ga  Ga11  1  0.624754  0.625035  0.875903  1
  Ga  Ga12  1  0.124729  0.124895  0.624278  1
  Ga  Ga13  1  0.875055  0.875056  0.375585  1
  Sb  Sb14  1  0.794991  0.205132  0.999720  1
  Sb  Sb15  1  0.205032  0.794465  0.000746  1
  Sb  Sb16  1  0.704671  0.294508  0.499506  1
  Sb  Sb17  1  0.295606  0.705714  0.500197  1
