# generated using pymatgen
data_LiEu(NiH3)2
_symmetry_space_group_name_H-M   'P 1'
_cell_length_a   4.88021465
_cell_length_b   4.88037015
_cell_length_c   4.88011600
_cell_angle_alpha   119.99721774
_cell_angle_beta   119.99631020
_cell_angle_gamma   90.00465448
_symmetry_Int_Tables_number   1
_chemical_formula_structural   LiEu(NiH3)2
_chemical_formula_sum   'Li1 Eu1 Ni2 H6'
_cell_volume   82.19240274
_cell_formula_units_Z   1
loop_
 _symmetry_equiv_pos_site_id
 _symmetry_equiv_pos_as_xyz
  1  'x, y, z'
loop_
 _atom_site_type_symbol
 _atom_site_label
 _atom_site_symmetry_multiplicity
 _atom_site_fract_x
 _atom_site_fract_y
 _atom_site_fract_z
 _atom_site_occupancy
  Li  Li0  1  0.749997  0.749998  0.000000  1
  Eu  Eu1  1  0.250003  0.250000  0.999999  1
  Ni  Ni2  1  0.500002  0.000000  0.499998  1
  Ni  Ni3  1  0.000000  0.499999  0.500005  1
  H  H4  1  0.249998  0.749997  0.999995  1
  H  H5  1  0.750001  0.749997  0.499999  1
  H  H6  1  0.750000  0.250002  0.499999  1
  H  H7  1  0.249997  0.749997  0.499998  1
  H  H8  1  0.249997  0.250001  0.500000  1
  H  H9  1  0.750001  0.250001  0.000002  1
