# generated using pymatgen
data_Rb8Zn3Ge43
_symmetry_space_group_name_H-M   'P 1'
_cell_length_a   10.84871214
_cell_length_b   10.84871128
_cell_length_c   10.84871100
_cell_angle_alpha   90.00921595
_cell_angle_beta   90.00921595
_cell_angle_gamma   90.00921974
_symmetry_Int_Tables_number   1
_chemical_formula_structural   Rb8Zn3Ge43
_chemical_formula_sum   'Rb8 Zn3 Ge43'
_cell_volume   1276.83406387
_cell_formula_units_Z   1
loop_
 _symmetry_equiv_pos_site_id
 _symmetry_equiv_pos_as_xyz
  1  'x, y, z'
loop_
 _atom_site_type_symbol
 _atom_site_label
 _atom_site_symmetry_multiplicity
 _atom_site_fract_x
 _atom_site_fract_y
 _atom_site_fract_z
 _atom_site_occupancy
  Rb  Rb0  1  0.249495  0.249495  0.249495  1
  Rb  Rb1  1  0.750505  0.750505  0.750505  1
  Rb  Rb2  1  0.500000  0.248572  0.751428  1
  Rb  Rb3  1  0.248572  0.751428  0.500000  1
  Rb  Rb4  1  0.751428  0.500000  0.248572  1
  Rb  Rb5  1  0.000000  0.248528  0.751472  1
  Rb  Rb6  1  0.248528  0.751472  0.000000  1
  Rb  Rb7  1  0.751472  0.000000  0.248528  1
  Zn  Zn8  1  0.750057  0.249943  0.000000  1
  Zn  Zn9  1  0.249943  0.000000  0.750057  1
  Zn  Zn10  1  0.000000  0.750057  0.249943  1
  Ge  Ge11  1  0.556449  0.249589  0.366205  1
  Ge  Ge12  1  0.249589  0.366205  0.556449  1
  Ge  Ge13  1  0.366205  0.556449  0.249589  1
  Ge  Ge14  1  0.937835  0.249864  0.130274  1
  Ge  Ge15  1  0.249864  0.130274  0.937835  1
  Ge  Ge16  1  0.130274  0.937835  0.249864  1
  Ge  Ge17  1  0.249615  0.366479  0.944411  1
  Ge  Ge18  1  0.130675  0.562951  0.249887  1
  Ge  Ge19  1  0.249887  0.130675  0.562951  1
  Ge  Ge20  1  0.366479  0.944411  0.249615  1
  Ge  Ge21  1  0.562951  0.249887  0.130675  1
  Ge  Ge22  1  0.944411  0.249615  0.366479  1
  Ge  Ge23  1  0.633795  0.750411  0.443551  1
  Ge  Ge24  1  0.437049  0.869325  0.750113  1
  Ge  Ge25  1  0.750385  0.055589  0.633521  1
  Ge  Ge26  1  0.869726  0.750136  0.062165  1
  Ge  Ge27  1  0.055589  0.633521  0.750385  1
  Ge  Ge28  1  0.750113  0.437049  0.869325  1
  Ge  Ge29  1  0.062165  0.869726  0.750136  1
  Ge  Ge30  1  0.750136  0.062165  0.869726  1
  Ge  Ge31  1  0.443551  0.633795  0.750411  1
  Ge  Ge32  1  0.750411  0.443551  0.633795  1
  Ge  Ge33  1  0.869325  0.750113  0.437049  1
  Ge  Ge34  1  0.633521  0.750385  0.055589  1
  Ge  Ge35  1  0.434541  0.434541  0.434541  1
  Ge  Ge36  1  0.067129  0.067129  0.067129  1
  Ge  Ge37  1  0.065324  0.434105  0.068019  1
  Ge  Ge38  1  0.433148  0.066301  0.435635  1
  Ge  Ge39  1  0.434105  0.068019  0.065324  1
  Ge  Ge40  1  0.066301  0.435635  0.433148  1
  Ge  Ge41  1  0.068019  0.065324  0.434105  1
  Ge  Ge42  1  0.435635  0.433148  0.066301  1
  Ge  Ge43  1  0.564365  0.933699  0.566852  1
  Ge  Ge44  1  0.931981  0.565895  0.934676  1
  Ge  Ge45  1  0.932871  0.932871  0.932871  1
  Ge  Ge46  1  0.565459  0.565459  0.565459  1
  Ge  Ge47  1  0.933699  0.566852  0.564365  1
  Ge  Ge48  1  0.565895  0.934676  0.931981  1
  Ge  Ge49  1  0.566852  0.564365  0.933699  1
  Ge  Ge50  1  0.934676  0.931981  0.565895  1
  Ge  Ge51  1  0.750087  0.249913  0.500000  1
  Ge  Ge52  1  0.249913  0.500000  0.750087  1
  Ge  Ge53  1  0.500000  0.750087  0.249913  1
