# generated using pymatgen
data_Cs2CaAs2O7
_symmetry_space_group_name_H-M   'P 1'
_cell_length_a   10.73297849
_cell_length_b   6.20361700
_cell_length_c   14.17491500
_cell_angle_alpha   90.00000000
_cell_angle_beta   104.25311191
_cell_angle_gamma   90.00000000
_symmetry_Int_Tables_number   1
_chemical_formula_structural   Cs2CaAs2O7
_chemical_formula_sum   'Cs8 Ca4 As8 O28'
_cell_volume   914.75957565
_cell_formula_units_Z   4
loop_
 _symmetry_equiv_pos_site_id
 _symmetry_equiv_pos_as_xyz
  1  'x, y, z'
loop_
 _atom_site_type_symbol
 _atom_site_label
 _atom_site_symmetry_multiplicity
 _atom_site_fract_x
 _atom_site_fract_y
 _atom_site_fract_z
 _atom_site_occupancy
  Cs  Cs0  1  0.134045  0.240353  0.150219  1
  Cs  Cs1  1  0.636296  0.726138  0.176484  1
  Cs  Cs2  1  0.863703  0.226139  0.323516  1
  Cs  Cs3  1  0.365955  0.740354  0.349782  1
  Cs  Cs4  1  0.634044  0.259646  0.650218  1
  Cs  Cs5  1  0.136296  0.773862  0.676484  1
  Cs  Cs6  1  0.363703  0.273862  0.823516  1
  Cs  Cs7  1  0.865956  0.759646  0.849781  1
  Ca  Ca8  1  0.752233  0.255287  0.015095  1
  Ca  Ca9  1  0.747768  0.755288  0.484905  1
  Ca  Ca10  1  0.252233  0.244712  0.515095  1
  Ca  Ca11  1  0.247768  0.744713  0.984905  1
  As  As12  1  0.450088  0.228850  0.119884  1
  As  As13  1  0.963909  0.744766  0.134520  1
  As  As14  1  0.536091  0.244765  0.365480  1
  As  As15  1  0.049912  0.728851  0.380117  1
  As  As16  1  0.950088  0.271151  0.619884  1
  As  As17  1  0.463910  0.755234  0.634521  1
  As  As18  1  0.036091  0.255234  0.865480  1
  As  As19  1  0.549912  0.771150  0.880116  1
  O  O20  1  0.361508  0.433209  0.056883  1
  O  O21  1  0.079403  0.736773  0.070779  1
  O  O22  1  0.378621  0.982311  0.097874  1
  O  O23  1  0.866874  0.965677  0.111567  1
  O  O24  1  0.609194  0.229196  0.121610  1
  O  O25  1  0.884151  0.506873  0.134657  1
  O  O26  1  0.435968  0.294584  0.242985  1
  O  O27  1  0.064032  0.794585  0.257014  1
  O  O28  1  0.615850  0.006873  0.365343  1
  O  O29  1  0.890805  0.729195  0.378390  1
  O  O30  1  0.633126  0.465677  0.388433  1
  O  O31  1  0.121380  0.482310  0.402125  1
  O  O32  1  0.420598  0.236772  0.429221  1
  O  O33  1  0.138493  0.933209  0.443117  1
  O  O34  1  0.861508  0.066792  0.556883  1
  O  O35  1  0.579402  0.763228  0.570779  1
  O  O36  1  0.878621  0.517689  0.597874  1
  O  O37  1  0.366874  0.534323  0.611566  1
  O  O38  1  0.109195  0.270805  0.621610  1
  O  O39  1  0.384151  0.993127  0.634657  1
  O  O40  1  0.935969  0.205415  0.742986  1
  O  O41  1  0.564032  0.705416  0.757014  1
  O  O42  1  0.115849  0.493128  0.865343  1
  O  O43  1  0.390805  0.770805  0.878391  1
  O  O44  1  0.133127  0.034322  0.888434  1
  O  O45  1  0.621380  0.017689  0.902126  1
  O  O46  1  0.920598  0.263229  0.929221  1
  O  O47  1  0.638493  0.566791  0.943117  1
