# generated using pymatgen
data_ZnCrRhO4
_symmetry_space_group_name_H-M   'P 1'
_cell_length_a   6.04802860
_cell_length_b   6.04798756
_cell_length_c   6.04803080
_cell_angle_alpha   119.33101810
_cell_angle_beta   120.21234733
_cell_angle_gamma   90.39813601
_symmetry_Int_Tables_number   1
_chemical_formula_structural   ZnCrRhO4
_chemical_formula_sum   'Zn2 Cr2 Rh2 O8'
_cell_volume   156.95482679
_cell_formula_units_Z   2
loop_
 _symmetry_equiv_pos_site_id
 _symmetry_equiv_pos_as_xyz
  1  'x, y, z'
loop_
 _atom_site_type_symbol
 _atom_site_label
 _atom_site_symmetry_multiplicity
 _atom_site_fract_x
 _atom_site_fract_y
 _atom_site_fract_z
 _atom_site_occupancy
  Zn  Zn0  1  0.129604  0.879605  0.249998  1
  Zn  Zn1  1  0.870396  0.120395  0.750002  1
  Cr  Cr2  1  0.500000  0.500000  0.000000  1
  Cr  Cr3  1  0.000000  0.500000  0.500000  1
  Rh  Rh4  1  0.500000  0.500000  0.500000  1
  Rh  Rh5  1  0.500000  0.000000  0.000000  1
  O  O6  1  0.744029  0.269839  0.025812  1
  O  O7  1  0.744026  0.718215  0.474189  1
  O  O8  1  0.743994  0.262236  0.481763  1
  O  O9  1  0.280476  0.262237  0.018241  1
  O  O10  1  0.255971  0.730161  0.974188  1
  O  O11  1  0.255974  0.281785  0.525811  1
  O  O12  1  0.256006  0.737764  0.518237  1
  O  O13  1  0.719524  0.737763  0.981759  1
