# generated using pymatgen
data_Eu(SnPd2)2
_symmetry_space_group_name_H-M   'P 1'
_cell_length_a   7.24282283
_cell_length_b   7.24282233
_cell_length_c   7.24282299
_cell_angle_alpha   111.36898050
_cell_angle_beta   111.36897886
_cell_angle_gamma   105.73894531
_symmetry_Int_Tables_number   1
_chemical_formula_structural   Eu(SnPd2)2
_chemical_formula_sum   'Eu2 Sn4 Pd8'
_cell_volume   291.56071604
_cell_formula_units_Z   2
loop_
 _symmetry_equiv_pos_site_id
 _symmetry_equiv_pos_as_xyz
  1  'x, y, z'
loop_
 _atom_site_type_symbol
 _atom_site_label
 _atom_site_symmetry_multiplicity
 _atom_site_fract_x
 _atom_site_fract_y
 _atom_site_fract_z
 _atom_site_occupancy
  Eu  Eu0  1  0.750000  0.750000  0.000000  1
  Eu  Eu1  1  0.250000  0.250000  0.000000  1
  Sn  Sn2  1  0.152807  0.652807  0.805614  1
  Sn  Sn3  1  0.652807  0.847193  0.500000  1
  Sn  Sn4  1  0.847193  0.347193  0.194386  1
  Sn  Sn5  1  0.347193  0.152807  0.500000  1
  Pd  Pd6  1  0.192536  0.692536  0.208119  1
  Pd  Pd7  1  0.307464  0.515582  0.500000  1
  Pd  Pd8  1  0.807464  0.307464  0.791881  1
  Pd  Pd9  1  0.692536  0.484418  0.500000  1
  Pd  Pd10  1  0.484418  0.984418  0.791881  1
  Pd  Pd11  1  0.015582  0.807464  0.500000  1
  Pd  Pd12  1  0.984418  0.192536  0.500000  1
  Pd  Pd13  1  0.515582  0.015582  0.208119  1
