# generated using pymatgen
data_Tb3In3SnPdRh
_symmetry_space_group_name_H-M   'P 1'
_cell_length_a   7.90946300
_cell_length_b   7.90946248
_cell_length_c   3.87086300
_cell_angle_alpha   90.00000000
_cell_angle_beta   90.00000000
_cell_angle_gamma   120.00000635
_symmetry_Int_Tables_number   1
_chemical_formula_structural   Tb3In3SnPdRh
_chemical_formula_sum   'Tb3 In3 Sn1 Pd1 Rh1'
_cell_volume   209.71639021
_cell_formula_units_Z   1
loop_
 _symmetry_equiv_pos_site_id
 _symmetry_equiv_pos_as_xyz
  1  'x, y, z'
loop_
 _atom_site_type_symbol
 _atom_site_label
 _atom_site_symmetry_multiplicity
 _atom_site_fract_x
 _atom_site_fract_y
 _atom_site_fract_z
 _atom_site_occupancy
  Tb  Tb0  1  0.968831  0.578901  0.500000  1
  Tb  Tb1  1  0.421099  0.389930  0.500000  1
  Tb  Tb2  1  0.610070  0.031169  0.500000  1
  In  In3  1  0.748907  0.739048  0.000000  1
  In  In4  1  0.990142  0.251093  0.000000  1
  In  In5  1  0.260952  0.009858  0.000000  1
  Sn  Sn6  1  0.333333  0.666667  0.000000  1
  Pd  Pd7  1  0.000000  0.000000  0.500000  1
  Rh  Rh8  1  0.666667  0.333333  0.000000  1
