# generated using pymatgen
data_CaHf4CN4
_symmetry_space_group_name_H-M   'P 1'
_cell_length_a   13.73470600
_cell_length_b   13.73470700
_cell_length_c   13.73470700
_cell_angle_alpha   13.52090873
_cell_angle_beta   13.52090919
_cell_angle_gamma   13.52090975
_symmetry_Int_Tables_number   1
_chemical_formula_structural   CaHf4CN4
_chemical_formula_sum   'Ca1 Hf4 C1 N4'
_cell_volume   123.22227315
_cell_formula_units_Z   1
loop_
 _symmetry_equiv_pos_site_id
 _symmetry_equiv_pos_as_xyz
  1  'x, y, z'
loop_
 _atom_site_type_symbol
 _atom_site_label
 _atom_site_symmetry_multiplicity
 _atom_site_fract_x
 _atom_site_fract_y
 _atom_site_fract_z
 _atom_site_occupancy
  Ca  Ca0  1  0.000000  0.000000  0.000000  1
  Hf  Hf1  1  0.598203  0.598203  0.598203  1
  Hf  Hf2  1  0.198526  0.198526  0.198526  1
  Hf  Hf3  1  0.801474  0.801474  0.801474  1
  Hf  Hf4  1  0.401797  0.401797  0.401797  1
  C  C5  1  0.500000  0.500000  0.500000  1
  N  N6  1  0.706468  0.706468  0.706468  1
  N  N7  1  0.100659  0.100659  0.100659  1
  N  N8  1  0.293532  0.293532  0.293532  1
  N  N9  1  0.899341  0.899341  0.899341  1
