# generated using pymatgen
data_Y3Er2Bi3
_symmetry_space_group_name_H-M   'P 1'
_cell_length_a   8.25479000
_cell_length_b   9.49627100
_cell_length_c   12.07586200
_cell_angle_alpha   90.00000000
_cell_angle_beta   90.00000000
_cell_angle_gamma   90.00000000
_symmetry_Int_Tables_number   1
_chemical_formula_structural   Y3Er2Bi3
_chemical_formula_sum   'Y12 Er8 Bi12'
_cell_volume   946.62347581
_cell_formula_units_Z   4
loop_
 _symmetry_equiv_pos_site_id
 _symmetry_equiv_pos_as_xyz
  1  'x, y, z'
loop_
 _atom_site_type_symbol
 _atom_site_label
 _atom_site_symmetry_multiplicity
 _atom_site_fract_x
 _atom_site_fract_y
 _atom_site_fract_z
 _atom_site_occupancy
  Y  Y0  1  0.186186  0.749922  0.718930  1
  Y  Y1  1  0.686186  0.750078  0.781070  1
  Y  Y2  1  0.813814  0.249922  0.281070  1
  Y  Y3  1  0.313814  0.250078  0.218930  1
  Y  Y4  1  0.693711  0.562928  0.060093  1
  Y  Y5  1  0.193711  0.937072  0.439907  1
  Y  Y6  1  0.306289  0.062928  0.939907  1
  Y  Y7  1  0.806289  0.437072  0.560093  1
  Y  Y8  1  0.353987  0.750003  0.215124  1
  Y  Y9  1  0.853987  0.749997  0.284876  1
  Y  Y10  1  0.646013  0.250003  0.784876  1
  Y  Y11  1  0.146013  0.249997  0.715124  1
  Er  Er12  1  0.026010  0.750214  0.988915  1
  Er  Er13  1  0.526010  0.749786  0.511085  1
  Er  Er14  1  0.973990  0.250214  0.011085  1
  Er  Er15  1  0.473990  0.249786  0.488915  1
  Er  Er16  1  0.306236  0.435896  0.939997  1
  Er  Er17  1  0.806236  0.064104  0.560003  1
  Er  Er18  1  0.693764  0.935896  0.060003  1
  Er  Er19  1  0.193764  0.564104  0.439997  1
  Bi  Bi20  1  0.434050  0.003684  0.673194  1
  Bi  Bi21  1  0.934050  0.496316  0.826806  1
  Bi  Bi22  1  0.565950  0.503684  0.326806  1
  Bi  Bi23  1  0.065950  0.996316  0.173194  1
  Bi  Bi24  1  0.566338  0.996197  0.326810  1
  Bi  Bi25  1  0.066338  0.503803  0.173190  1
  Bi  Bi26  1  0.433662  0.496197  0.673190  1
  Bi  Bi27  1  0.933662  0.003803  0.826810  1
  Bi  Bi28  1  0.408906  0.749309  0.958153  1
  Bi  Bi29  1  0.908906  0.750691  0.541847  1
  Bi  Bi30  1  0.591094  0.249309  0.041847  1
  Bi  Bi31  1  0.091094  0.250691  0.458153  1
