# generated using pymatgen
data_Tb3TmAu2
_symmetry_space_group_name_H-M   'P 1'
_cell_length_a   4.95287900
_cell_length_b   7.14244626
_cell_length_c   8.97133634
_cell_angle_alpha   90.45897592
_cell_angle_beta   90.00000000
_cell_angle_gamma   90.00000000
_symmetry_Int_Tables_number   1
_chemical_formula_structural   Tb3TmAu2
_chemical_formula_sum   'Tb6 Tm2 Au4'
_cell_volume   317.35687000
_cell_formula_units_Z   2
loop_
 _symmetry_equiv_pos_site_id
 _symmetry_equiv_pos_as_xyz
  1  'x, y, z'
loop_
 _atom_site_type_symbol
 _atom_site_label
 _atom_site_symmetry_multiplicity
 _atom_site_fract_x
 _atom_site_fract_y
 _atom_site_fract_z
 _atom_site_occupancy
  Tb  Tb0  1  0.250000  0.486382  0.176134  1
  Tb  Tb1  1  0.750000  0.513618  0.823866  1
  Tb  Tb2  1  0.250000  0.987569  0.322520  1
  Tb  Tb3  1  0.750000  0.012431  0.677480  1
  Tb  Tb4  1  0.750000  0.648536  0.418135  1
  Tb  Tb5  1  0.250000  0.351464  0.581865  1
  Tm  Tm6  1  0.750000  0.148104  0.079307  1
  Tm  Tm7  1  0.250000  0.851896  0.920693  1
  Au  Au8  1  0.250000  0.253385  0.903311  1
  Au  Au9  1  0.750000  0.746615  0.096689  1
  Au  Au10  1  0.250000  0.758488  0.601866  1
  Au  Au11  1  0.750000  0.241512  0.398134  1
