# generated using pymatgen
data_Dy16Er4Ir7Pt5
_symmetry_space_group_name_H-M   'P 1'
_cell_length_a   11.00489329
_cell_length_b   11.00489277
_cell_length_c   6.32488300
_cell_angle_alpha   90.01203008
_cell_angle_beta   90.01202555
_cell_angle_gamma   89.77468028
_symmetry_Int_Tables_number   1
_chemical_formula_structural   Dy16Er4Ir7Pt5
_chemical_formula_sum   'Dy16 Er4 Ir7 Pt5'
_cell_volume   765.98589038
_cell_formula_units_Z   1
loop_
 _symmetry_equiv_pos_site_id
 _symmetry_equiv_pos_as_xyz
  1  'x, y, z'
loop_
 _atom_site_type_symbol
 _atom_site_label
 _atom_site_symmetry_multiplicity
 _atom_site_fract_x
 _atom_site_fract_y
 _atom_site_fract_z
 _atom_site_occupancy
  Dy  Dy0  1  0.295193  0.090052  0.372946  1
  Dy  Dy1  1  0.295286  0.909834  0.872323  1
  Dy  Dy2  1  0.704830  0.086294  0.872667  1
  Dy  Dy3  1  0.704788  0.909478  0.372534  1
  Dy  Dy4  1  0.585763  0.789833  0.877477  1
  Dy  Dy5  1  0.584008  0.207280  0.373753  1
  Dy  Dy6  1  0.414436  0.790975  0.376941  1
  Dy  Dy7  1  0.411222  0.208033  0.878863  1
  Dy  Dy8  1  0.210167  0.414237  0.622523  1
  Dy  Dy9  1  0.209025  0.585564  0.123059  1
  Dy  Dy10  1  0.792720  0.415992  0.126247  1
  Dy  Dy11  1  0.791967  0.588778  0.621137  1
  Dy  Dy12  1  0.909948  0.704807  0.127054  1
  Dy  Dy13  1  0.913706  0.295170  0.627333  1
  Dy  Dy14  1  0.090166  0.704714  0.627677  1
  Dy  Dy15  1  0.090522  0.295212  0.127466  1
  Er  Er16  1  0.999983  0.999931  0.499643  1
  Er  Er17  1  0.000069  0.000017  0.000357  1
  Er  Er18  1  0.498308  0.501246  0.000553  1
  Er  Er19  1  0.498754  0.501692  0.499447  1
  Ir  Ir20  1  0.653741  0.653137  0.250136  1
  Ir  Ir21  1  0.346863  0.346259  0.249864  1
  Ir  Ir22  1  0.345502  0.654498  0.750000  1
  Ir  Ir23  1  0.500216  0.000217  0.121600  1
  Ir  Ir24  1  0.500156  0.000403  0.622838  1
  Ir  Ir25  1  0.999597  0.499844  0.877162  1
  Ir  Ir26  1  0.999783  0.499784  0.378400  1
  Pt  Pt27  1  0.846311  0.153689  0.250000  1
  Pt  Pt28  1  0.846898  0.847443  0.750333  1
  Pt  Pt29  1  0.152557  0.153102  0.749667  1
  Pt  Pt30  1  0.153172  0.846828  0.250000  1
  Pt  Pt31  1  0.654342  0.345658  0.750000  1
