# generated using pymatgen
data_Nd4B3(Rh5Au)2
_symmetry_space_group_name_H-M   'P 1'
_cell_length_a   4.27566400
_cell_length_b   4.27566400
_cell_length_c   17.00848700
_cell_angle_alpha   90.00000000
_cell_angle_beta   90.00000000
_cell_angle_gamma   90.00000000
_symmetry_Int_Tables_number   1
_chemical_formula_structural   Nd4B3(Rh5Au)2
_chemical_formula_sum   'Nd4 B3 Rh10 Au2'
_cell_volume   310.93729831
_cell_formula_units_Z   1
loop_
 _symmetry_equiv_pos_site_id
 _symmetry_equiv_pos_as_xyz
  1  'x, y, z'
loop_
 _atom_site_type_symbol
 _atom_site_label
 _atom_site_symmetry_multiplicity
 _atom_site_fract_x
 _atom_site_fract_y
 _atom_site_fract_z
 _atom_site_occupancy
  Nd  Nd0  1  0.000000  0.000000  0.867827  1
  Nd  Nd1  1  0.000000  0.000000  0.132173  1
  Nd  Nd2  1  0.000000  0.000000  0.376228  1
  Nd  Nd3  1  0.000000  0.000000  0.623772  1
  B  B4  1  0.500000  0.500000  0.245143  1
  B  B5  1  0.500000  0.500000  0.500000  1
  B  B6  1  0.500000  0.500000  0.754857  1
  Rh  Rh7  1  0.500000  0.500000  0.876683  1
  Rh  Rh8  1  0.500000  0.500000  0.123317  1
  Rh  Rh9  1  0.500000  0.500000  0.374856  1
  Rh  Rh10  1  0.500000  0.500000  0.625144  1
  Rh  Rh11  1  0.500000  0.000000  0.252276  1
  Rh  Rh12  1  0.500000  0.000000  0.500000  1
  Rh  Rh13  1  0.500000  0.000000  0.747724  1
  Rh  Rh14  1  0.000000  0.500000  0.252276  1
  Rh  Rh15  1  0.000000  0.500000  0.500000  1
  Rh  Rh16  1  0.000000  0.500000  0.747724  1
  Au  Au17  1  0.500000  0.000000  0.000000  1
  Au  Au18  1  0.000000  0.500000  0.000000  1
