# generated using pymatgen
data_Ho12Tc2Ni2SnRh
_symmetry_space_group_name_H-M   'P 1'
_cell_length_a   8.33074086
_cell_length_b   8.33074235
_cell_length_c   8.33074224
_cell_angle_alpha   113.61726556
_cell_angle_beta   110.05104393
_cell_angle_gamma   104.86353815
_symmetry_Int_Tables_number   1
_chemical_formula_structural   Ho12Tc2Ni2SnRh
_chemical_formula_sum   'Ho12 Tc2 Ni2 Sn1 Rh1'
_cell_volume   442.46657473
_cell_formula_units_Z   1
loop_
 _symmetry_equiv_pos_site_id
 _symmetry_equiv_pos_as_xyz
  1  'x, y, z'
loop_
 _atom_site_type_symbol
 _atom_site_label
 _atom_site_symmetry_multiplicity
 _atom_site_fract_x
 _atom_site_fract_y
 _atom_site_fract_z
 _atom_site_occupancy
  Ho  Ho0  1  0.421334  0.231751  0.189581  1
  Ho  Ho1  1  0.578666  0.768249  0.810419  1
  Ho  Ho2  1  0.042169  0.231751  0.810419  1
  Ho  Ho3  1  0.957831  0.768249  0.189581  1
  Ho  Ho4  1  0.178166  0.275755  0.453922  1
  Ho  Ho5  1  0.821834  0.724245  0.546078  1
  Ho  Ho6  1  0.178166  0.724245  0.902412  1
  Ho  Ho7  1  0.821834  0.275755  0.097588  1
  Ho  Ho8  1  0.330907  0.645685  0.314778  1
  Ho  Ho9  1  0.669093  0.354315  0.685222  1
  Ho  Ho10  1  0.330907  0.016129  0.685222  1
  Ho  Ho11  1  0.669093  0.983871  0.314778  1
  Tc  Tc12  1  0.329824  0.000000  0.329824  1
  Tc  Tc13  1  0.670176  0.000000  0.670176  1
  Ni  Ni14  1  0.115717  0.615717  0.500000  1
  Ni  Ni15  1  0.884283  0.384283  0.500000  1
  Sn  Sn16  1  0.500000  0.500000  0.000000  1
  Rh  Rh17  1  0.000000  0.000000  0.000000  1
