# generated using pymatgen
data_Yb10CePrRu4
_symmetry_space_group_name_H-M   'P 1'
_cell_length_a   6.30411241
_cell_length_b   7.57543760
_cell_length_c   9.46239600
_cell_angle_alpha   90.00000000
_cell_angle_beta   90.00000000
_cell_angle_gamma   88.22852133
_symmetry_Int_Tables_number   1
_chemical_formula_structural   Yb10CePrRu4
_chemical_formula_sum   'Yb10 Ce1 Pr1 Ru4'
_cell_volume   451.67409387
_cell_formula_units_Z   1
loop_
 _symmetry_equiv_pos_site_id
 _symmetry_equiv_pos_as_xyz
  1  'x, y, z'
loop_
 _atom_site_type_symbol
 _atom_site_label
 _atom_site_symmetry_multiplicity
 _atom_site_fract_x
 _atom_site_fract_y
 _atom_site_fract_z
 _atom_site_occupancy
  Yb  Yb0  1  0.661341  0.167461  0.064105  1
  Yb  Yb1  1  0.367476  0.542463  0.250000  1
  Yb  Yb2  1  0.847584  0.669470  0.062406  1
  Yb  Yb3  1  0.162313  0.332272  0.928218  1
  Yb  Yb4  1  0.338682  0.829856  0.928904  1
  Yb  Yb5  1  0.633294  0.457266  0.750000  1
  Yb  Yb6  1  0.338682  0.829856  0.571096  1
  Yb  Yb7  1  0.162313  0.332272  0.571782  1
  Yb  Yb8  1  0.847584  0.669470  0.437594  1
  Yb  Yb9  1  0.661341  0.167461  0.435895  1
  Ce  Ce10  1  0.157752  0.059702  0.250000  1
  Pr  Pr11  1  0.866788  0.961891  0.750000  1
  Ru  Ru12  1  0.995641  0.337967  0.250000  1
  Ru  Ru13  1  0.454732  0.117390  0.750000  1
  Ru  Ru14  1  0.478212  0.898944  0.250000  1
  Ru  Ru15  1  0.026263  0.626261  0.750000  1
