# generated using pymatgen
data_HoScFe6(P3Rh2)2
_symmetry_space_group_name_H-M   'P 1'
_cell_length_a   3.73875600
_cell_length_b   10.26512000
_cell_length_c   12.14184000
_cell_angle_alpha   90.00000000
_cell_angle_beta   90.00000000
_cell_angle_gamma   90.00000000
_symmetry_Int_Tables_number   1
_chemical_formula_structural   HoScFe6(P3Rh2)2
_chemical_formula_sum   'Ho2 Sc2 Fe12 P12 Rh8'
_cell_volume   465.98899390
_cell_formula_units_Z   2
loop_
 _symmetry_equiv_pos_site_id
 _symmetry_equiv_pos_as_xyz
  1  'x, y, z'
loop_
 _atom_site_type_symbol
 _atom_site_label
 _atom_site_symmetry_multiplicity
 _atom_site_fract_x
 _atom_site_fract_y
 _atom_site_fract_z
 _atom_site_occupancy
  Ho  Ho0  1  0.750000  0.419565  0.287640  1
  Ho  Ho1  1  0.750000  0.080435  0.787640  1
  Sc  Sc2  1  0.250000  0.579742  0.712385  1
  Sc  Sc3  1  0.250000  0.920258  0.212385  1
  Fe  Fe4  1  0.250000  0.223485  0.170634  1
  Fe  Fe5  1  0.250000  0.276515  0.670634  1
  Fe  Fe6  1  0.750000  0.774900  0.829395  1
  Fe  Fe7  1  0.750000  0.725100  0.329395  1
  Fe  Fe8  1  0.250000  0.874648  0.697205  1
  Fe  Fe9  1  0.250000  0.625352  0.197205  1
  Fe  Fe10  1  0.750000  0.120394  0.301698  1
  Fe  Fe11  1  0.750000  0.379606  0.801698  1
  Fe  Fe12  1  0.250000  0.461518  0.933523  1
  Fe  Fe13  1  0.250000  0.038482  0.433523  1
  Fe  Fe14  1  0.750000  0.542747  0.063962  1
  Fe  Fe15  1  0.750000  0.957253  0.563962  1
  P  P16  1  0.250000  0.430632  0.111980  1
  P  P17  1  0.250000  0.069368  0.611980  1
  P  P18  1  0.750000  0.571582  0.884084  1
  P  P19  1  0.750000  0.928418  0.384084  1
  P  P20  1  0.250000  0.273308  0.853086  1
  P  P21  1  0.250000  0.226692  0.353086  1
  P  P22  1  0.750000  0.730616  0.148412  1
  P  P23  1  0.750000  0.769384  0.648412  1
  P  P24  1  0.250000  0.605675  0.377776  1
  P  P25  1  0.250000  0.894325  0.877776  1
  P  P26  1  0.750000  0.396821  0.623149  1
  P  P27  1  0.750000  0.103179  0.123149  1
  Rh  Rh28  1  0.250000  0.708864  0.986118  1
  Rh  Rh29  1  0.250000  0.791136  0.486118  1
  Rh  Rh30  1  0.750000  0.292597  0.014641  1
  Rh  Rh31  1  0.750000  0.207403  0.514641  1
  Rh  Rh32  1  0.250000  0.405524  0.478894  1
  Rh  Rh33  1  0.250000  0.094476  0.978894  1
  Rh  Rh34  1  0.750000  0.594887  0.525420  1
  Rh  Rh35  1  0.750000  0.905113  0.025420  1
