# generated using pymatgen
data_Ho3ZnNiSn3Rh
_symmetry_space_group_name_H-M   'P 1'
_cell_length_a   7.41856300
_cell_length_b   7.41856273
_cell_length_c   3.97029400
_cell_angle_alpha   90.00000000
_cell_angle_beta   90.00000000
_cell_angle_gamma   119.99998900
_symmetry_Int_Tables_number   1
_chemical_formula_structural   Ho3ZnNiSn3Rh
_chemical_formula_sum   'Ho3 Zn1 Ni1 Sn3 Rh1'
_cell_volume   189.23127260
_cell_formula_units_Z   1
loop_
 _symmetry_equiv_pos_site_id
 _symmetry_equiv_pos_as_xyz
  1  'x, y, z'
loop_
 _atom_site_type_symbol
 _atom_site_label
 _atom_site_symmetry_multiplicity
 _atom_site_fract_x
 _atom_site_fract_y
 _atom_site_fract_z
 _atom_site_occupancy
  Ho  Ho0  1  0.408313  0.394146  0.500000  1
  Ho  Ho1  1  0.605854  0.014167  0.500000  1
  Ho  Ho2  1  0.985833  0.591687  0.500000  1
  Zn  Zn3  1  0.333333  0.666667  0.000000  1
  Ni  Ni4  1  0.000000  0.000000  0.500000  1
  Sn  Sn5  1  0.747646  0.749279  0.000000  1
  Sn  Sn6  1  0.250721  0.998367  0.000000  1
  Sn  Sn7  1  0.001633  0.252354  0.000000  1
  Rh  Rh8  1  0.666667  0.333333  0.000000  1
