# generated using pymatgen
data_TbTh3(Ni2Sn)2
_symmetry_space_group_name_H-M   'P 1'
_cell_length_a   7.56207016
_cell_length_b   7.56207016
_cell_length_c   3.72667600
_cell_angle_alpha   90.00000000
_cell_angle_beta   90.00000000
_cell_angle_gamma   90.69018385
_symmetry_Int_Tables_number   1
_chemical_formula_structural   TbTh3(Ni2Sn)2
_chemical_formula_sum   'Tb1 Th3 Ni4 Sn2'
_cell_volume   213.09415201
_cell_formula_units_Z   1
loop_
 _symmetry_equiv_pos_site_id
 _symmetry_equiv_pos_as_xyz
  1  'x, y, z'
loop_
 _atom_site_type_symbol
 _atom_site_label
 _atom_site_symmetry_multiplicity
 _atom_site_fract_x
 _atom_site_fract_y
 _atom_site_fract_z
 _atom_site_occupancy
  Tb  Tb0  1  0.824418  0.675582  0.500000  1
  Th  Th1  1  0.675725  0.175232  0.500000  1
  Th  Th2  1  0.324768  0.824275  0.500000  1
  Th  Th3  1  0.172407  0.327593  0.500000  1
  Ni  Ni4  1  0.879723  0.373088  0.000000  1
  Ni  Ni5  1  0.126912  0.620277  0.000000  1
  Ni  Ni6  1  0.375190  0.124810  0.000000  1
  Ni  Ni7  1  0.617768  0.882232  0.000000  1
  Sn  Sn8  1  0.507890  0.504802  0.000000  1
  Sn  Sn9  1  0.995198  0.992110  0.000000  1
