# generated using pymatgen
data_Pr10Si16Bi
_symmetry_space_group_name_H-M   'P 1'
_cell_length_a   11.57777480
_cell_length_b   11.57866094
_cell_length_c   11.57776400
_cell_angle_alpha   144.88872641
_cell_angle_beta   136.30826809
_cell_angle_gamma   57.23978925
_symmetry_Int_Tables_number   1
_chemical_formula_structural   Pr10Si16Bi
_chemical_formula_sum   'Pr10 Si16 Bi1'
_cell_volume   611.67610380
_cell_formula_units_Z   1
loop_
 _symmetry_equiv_pos_site_id
 _symmetry_equiv_pos_as_xyz
  1  'x, y, z'
loop_
 _atom_site_type_symbol
 _atom_site_label
 _atom_site_symmetry_multiplicity
 _atom_site_fract_x
 _atom_site_fract_y
 _atom_site_fract_z
 _atom_site_occupancy
  Pr  Pr0  1  0.060436  0.541933  0.008493  1
  Pr  Pr1  1  0.351697  0.356594  0.502094  1
  Pr  Pr2  1  0.150984  0.154000  0.498367  1
  Pr  Pr3  1  0.457529  0.951485  0.000683  1
  Pr  Pr4  1  0.655632  0.154001  0.003016  1
  Pr  Pr5  1  0.950802  0.951484  0.493954  1
  Pr  Pr6  1  0.854500  0.356592  0.004895  1
  Pr  Pr7  1  0.533440  0.541935  0.481499  1
  Pr  Pr8  1  0.268126  0.757602  0.007467  1
  Pr  Pr9  1  0.750136  0.757603  0.489476  1
  Si  Si10  1  0.117094  0.052231  0.935140  1
  Si  Si11  1  0.812135  0.242627  0.430493  1
  Si  Si12  1  0.303191  0.886305  0.583113  1
  Si  Si13  1  0.404031  0.483360  0.079329  1
  Si  Si14  1  0.803328  0.894055  0.090726  1
  Si  Si15  1  0.103694  0.697062  0.593368  1
  Si  Si16  1  0.201147  0.604253  0.403106  1
  Si  Si17  1  0.703423  0.279197  0.575773  1
  Si  Si18  1  0.998354  0.429955  0.431603  1
  Si  Si19  1  0.702567  0.619393  0.916827  1
  Si  Si20  1  0.602358  0.690405  0.088046  1
  Si  Si21  1  0.008416  0.096051  0.087635  1
  Si  Si22  1  0.505150  0.394684  0.889535  1
  Si  Si23  1  0.296028  0.218924  0.922896  1
  Si  Si24  1  0.594833  0.029695  0.434864  1
  Si  Si25  1  0.409280  0.836632  0.427352  1
  Bi  Bi26  1  0.901692  0.710859  0.809168  1
