# generated using pymatgen
data_Pr4Dy3Ho(GeO5)4
_symmetry_space_group_name_H-M   'P 1'
_cell_length_a   8.35757448
_cell_length_b   8.35438255
_cell_length_c   10.88506595
_cell_angle_alpha   61.24499431
_cell_angle_beta   61.26332472
_cell_angle_gamma   49.81192860
_symmetry_Int_Tables_number   1
_chemical_formula_structural   Pr4Dy3Ho(GeO5)4
_chemical_formula_sum   'Pr4 Dy3 Ho1 Ge4 O20'
_cell_volume   492.26410037
_cell_formula_units_Z   1
loop_
 _symmetry_equiv_pos_site_id
 _symmetry_equiv_pos_as_xyz
  1  'x, y, z'
loop_
 _atom_site_type_symbol
 _atom_site_label
 _atom_site_symmetry_multiplicity
 _atom_site_fract_x
 _atom_site_fract_y
 _atom_site_fract_z
 _atom_site_occupancy
  Pr  Pr0  1  0.722017  0.207228  0.964042  1
  Pr  Pr1  1  0.792574  0.277978  0.536011  1
  Pr  Pr2  1  0.277914  0.792581  0.035821  1
  Pr  Pr3  1  0.207384  0.721817  0.464297  1
  Dy  Dy4  1  0.264302  0.013495  0.662322  1
  Dy  Dy5  1  0.013776  0.264517  0.162058  1
  Dy  Dy6  1  0.735636  0.986294  0.337769  1
  Ho  Ho7  1  0.985775  0.736360  0.837739  1
  Ge  Ge8  1  0.777930  0.595764  0.691011  1
  Ge  Ge9  1  0.404341  0.222344  0.809083  1
  Ge  Ge10  1  0.222208  0.404327  0.309077  1
  Ge  Ge11  1  0.595845  0.777742  0.190703  1
  O  O12  1  0.785629  0.629823  0.056884  1
  O  O13  1  0.370776  0.214904  0.442476  1
  O  O14  1  0.214405  0.372159  0.941766  1
  O  O15  1  0.629393  0.784936  0.557654  1
  O  O16  1  0.585545  0.587476  0.359763  1
  O  O17  1  0.412581  0.414499  0.140065  1
  O  O18  1  0.414965  0.412235  0.639925  1
  O  O19  1  0.587435  0.585464  0.859948  1
  O  O20  1  0.947983  0.656832  0.683882  1
  O  O21  1  0.343269  0.051897  0.816974  1
  O  O22  1  0.051833  0.343314  0.316941  1
  O  O23  1  0.656517  0.948235  0.183141  1
  O  O24  1  0.886791  0.080541  0.390857  1
  O  O25  1  0.919520  0.113264  0.109032  1
  O  O26  1  0.112881  0.918816  0.609843  1
  O  O27  1  0.080217  0.885847  0.890933  1
  O  O28  1  0.077820  0.674560  0.325246  1
  O  O29  1  0.325555  0.922188  0.174684  1
  O  O30  1  0.922233  0.325545  0.674808  1
  O  O31  1  0.674947  0.077017  0.825241  1
