# generated using pymatgen
data_Dy7LuTi3Si16Mo9
_symmetry_space_group_name_H-M   'P 1'
_cell_length_a   6.91991019
_cell_length_b   6.92019286
_cell_length_c   12.82193307
_cell_angle_alpha   90.04275358
_cell_angle_beta   89.98019959
_cell_angle_gamma   89.81934954
_symmetry_Int_Tables_number   1
_chemical_formula_structural   Dy7LuTi3Si16Mo9
_chemical_formula_sum   'Dy7 Lu1 Ti3 Si16 Mo9'
_cell_volume   614.00209876
_cell_formula_units_Z   1
loop_
 _symmetry_equiv_pos_site_id
 _symmetry_equiv_pos_as_xyz
  1  'x, y, z'
loop_
 _atom_site_type_symbol
 _atom_site_label
 _atom_site_symmetry_multiplicity
 _atom_site_fract_x
 _atom_site_fract_y
 _atom_site_fract_z
 _atom_site_occupancy
  Dy  Dy0  1  0.000790  0.340499  0.531371  1
  Dy  Dy1  1  0.660550  0.997481  0.968480  1
  Dy  Dy2  1  0.160678  0.503653  0.781254  1
  Dy  Dy3  1  0.838647  0.500232  0.282361  1
  Dy  Dy4  1  0.503547  0.160881  0.219005  1
  Dy  Dy5  1  0.500130  0.838496  0.717490  1
  Dy  Dy6  1  0.340514  0.000775  0.468630  1
  Lu  Lu7  1  0.998684  0.659652  0.031482  1
  Ti  Ti8  1  0.829140  0.168984  0.748659  1
  Ti  Ti9  1  0.168838  0.829006  0.251068  1
  Ti  Ti10  1  0.330397  0.330929  0.000069  1
  Si  Si11  1  0.036780  0.712897  0.438406  1
  Si  Si12  1  0.958579  0.290925  0.936531  1
  Si  Si13  1  0.712948  0.036750  0.561607  1
  Si  Si14  1  0.208563  0.460733  0.185666  1
  Si  Si15  1  0.788577  0.542442  0.685094  1
  Si  Si16  1  0.459984  0.209404  0.813725  1
  Si  Si17  1  0.542509  0.788544  0.314879  1
  Si  Si18  1  0.288563  0.957518  0.063798  1
  Si  Si19  1  0.800802  0.869947  0.183182  1
  Si  Si20  1  0.303393  0.625788  0.565385  1
  Si  Si21  1  0.701204  0.372250  0.065890  1
  Si  Si22  1  0.625791  0.303382  0.434585  1
  Si  Si23  1  0.369791  0.700278  0.934449  1
  Si  Si24  1  0.127998  0.202673  0.315341  1
  Si  Si25  1  0.202614  0.128054  0.684674  1
  Si  Si26  1  0.871234  0.799549  0.816556  1
  Mo  Mo27  1  0.333491  0.504520  0.374823  1
  Mo  Mo28  1  0.844182  0.997986  0.372981  1
  Mo  Mo29  1  0.006676  0.159043  0.125373  1
  Mo  Mo30  1  0.998078  0.844147  0.626959  1
  Mo  Mo31  1  0.504543  0.333615  0.624975  1
  Mo  Mo32  1  0.158892  0.006407  0.874937  1
  Mo  Mo33  1  0.668803  0.668746  0.499967  1
  Mo  Mo34  1  0.493986  0.659328  0.124652  1
  Mo  Mo35  1  0.660107  0.494488  0.875694  1
