# generated using pymatgen
data_YbSm2(BPt2)3
_symmetry_space_group_name_H-M   'P 1'
_cell_length_a   5.46142867
_cell_length_b   5.47239690
_cell_length_c   7.80255800
_cell_angle_alpha   90.00000000
_cell_angle_beta   90.00000000
_cell_angle_gamma   120.06645495
_symmetry_Int_Tables_number   1
_chemical_formula_structural   YbSm2(BPt2)3
_chemical_formula_sum   'Yb1 Sm2 B3 Pt6'
_cell_volume   201.81817734
_cell_formula_units_Z   1
loop_
 _symmetry_equiv_pos_site_id
 _symmetry_equiv_pos_as_xyz
  1  'x, y, z'
loop_
 _atom_site_type_symbol
 _atom_site_label
 _atom_site_symmetry_multiplicity
 _atom_site_fract_x
 _atom_site_fract_y
 _atom_site_fract_z
 _atom_site_occupancy
  Yb  Yb0  1  0.000000  0.500000  0.166667  1
  Sm  Sm1  1  0.500000  0.500000  0.838429  1
  Sm  Sm2  1  0.500000  0.000000  0.494904  1
  B  B3  1  0.500000  0.500000  0.329683  1
  B  B4  1  0.500000  0.000000  0.003650  1
  B  B5  1  0.000000  0.500000  0.666667  1
  Pt  Pt6  1  0.151704  0.848002  0.835136  1
  Pt  Pt7  1  0.151704  0.303701  0.498197  1
  Pt  Pt8  1  0.706131  0.853066  0.166667  1
  Pt  Pt9  1  0.848296  0.151998  0.835136  1
  Pt  Pt10  1  0.848296  0.696299  0.498197  1
  Pt  Pt11  1  0.293869  0.146934  0.166667  1
