# generated using pymatgen
data_YbZn3AgRh
_symmetry_space_group_name_H-M   'P 1'
_cell_length_a   5.15264538
_cell_length_b   5.15264576
_cell_length_c   5.15264500
_cell_angle_alpha   60.42477453
_cell_angle_beta   60.42477213
_cell_angle_gamma   60.42477882
_symmetry_Int_Tables_number   1
_chemical_formula_structural   YbZn3AgRh
_chemical_formula_sum   'Yb1 Zn3 Ag1 Rh1'
_cell_volume   97.66232858
_cell_formula_units_Z   1
loop_
 _symmetry_equiv_pos_site_id
 _symmetry_equiv_pos_as_xyz
  1  'x, y, z'
loop_
 _atom_site_type_symbol
 _atom_site_label
 _atom_site_symmetry_multiplicity
 _atom_site_fract_x
 _atom_site_fract_y
 _atom_site_fract_z
 _atom_site_occupancy
  Yb  Yb0  1  0.999634  0.999634  0.999634  1
  Zn  Zn1  1  0.623203  0.623203  0.128093  1
  Zn  Zn2  1  0.623203  0.128093  0.623203  1
  Zn  Zn3  1  0.128093  0.623203  0.623203  1
  Ag  Ag4  1  0.250759  0.250759  0.250759  1
  Rh  Rh5  1  0.625108  0.625108  0.625108  1
