# generated using pymatgen
data_Sr10IrPd3
_symmetry_space_group_name_H-M   'P 1'
_cell_length_a   9.51528511
_cell_length_b   9.53265301
_cell_length_c   8.08365571
_cell_angle_alpha   83.26296656
_cell_angle_beta   83.51797595
_cell_angle_gamma   44.36415928
_symmetry_Int_Tables_number   1
_chemical_formula_structural   Sr10IrPd3
_chemical_formula_sum   'Sr10 Ir1 Pd3'
_cell_volume   508.70504708
_cell_formula_units_Z   1
loop_
 _symmetry_equiv_pos_site_id
 _symmetry_equiv_pos_as_xyz
  1  'x, y, z'
loop_
 _atom_site_type_symbol
 _atom_site_label
 _atom_site_symmetry_multiplicity
 _atom_site_fract_x
 _atom_site_fract_y
 _atom_site_fract_z
 _atom_site_occupancy
  Sr  Sr0  1  0.012551  0.802109  0.910655  1
  Sr  Sr1  1  0.193614  0.985057  0.581407  1
  Sr  Sr2  1  0.987769  0.194598  0.081819  1
  Sr  Sr3  1  0.815178  0.999468  0.419913  1
  Sr  Sr4  1  0.358177  0.215857  0.815744  1
  Sr  Sr5  1  0.801032  0.636855  0.678018  1
  Sr  Sr6  1  0.634848  0.795647  0.178494  1
  Sr  Sr7  1  0.208201  0.365716  0.327575  1
  Sr  Sr8  1  0.561904  0.435460  0.744410  1
  Sr  Sr9  1  0.425976  0.568750  0.259073  1
  Ir  Ir10  1  0.176094  0.600774  0.584370  1
  Pd  Pd11  1  0.401884  0.820285  0.919250  1
  Pd  Pd12  1  0.820749  0.403174  0.417738  1
  Pd  Pd13  1  0.602022  0.176248  0.081533  1
