# generated using pymatgen
data_TbZr3N4
_symmetry_space_group_name_H-M   'P 1'
_cell_length_a   11.00346153
_cell_length_b   11.00346145
_cell_length_c   11.00345989
_cell_angle_alpha   17.31240442
_cell_angle_beta   17.31240385
_cell_angle_gamma   17.31240930
_symmetry_Int_Tables_number   1
_chemical_formula_structural   TbZr3N4
_chemical_formula_sum   'Tb1 Zr3 N4'
_cell_volume   102.94895008
_cell_formula_units_Z   1
loop_
 _symmetry_equiv_pos_site_id
 _symmetry_equiv_pos_as_xyz
  1  'x, y, z'
loop_
 _atom_site_type_symbol
 _atom_site_label
 _atom_site_symmetry_multiplicity
 _atom_site_fract_x
 _atom_site_fract_y
 _atom_site_fract_z
 _atom_site_occupancy
  Tb  Tb0  1  0.000000  0.000000  0.000000  1
  Zr  Zr1  1  0.247408  0.247408  0.247408  1
  Zr  Zr2  1  0.500000  0.500000  0.500000  1
  Zr  Zr3  1  0.752592  0.752592  0.752592  1
  N  N4  1  0.379208  0.379208  0.379208  1
  N  N5  1  0.125827  0.125827  0.125827  1
  N  N6  1  0.620792  0.620792  0.620792  1
  N  N7  1  0.874173  0.874173  0.874173  1
