# generated using pymatgen
data_Ho10IrRu3
_symmetry_space_group_name_H-M   'P 1'
_cell_length_a   6.32826098
_cell_length_b   7.29608001
_cell_length_c   8.44925128
_cell_angle_alpha   96.79179160
_cell_angle_beta   112.03856102
_cell_angle_gamma   90.00188566
_symmetry_Int_Tables_number   1
_chemical_formula_structural   Ho10IrRu3
_chemical_formula_sum   'Ho10 Ir1 Ru3'
_cell_volume   358.65373462
_cell_formula_units_Z   1
loop_
 _symmetry_equiv_pos_site_id
 _symmetry_equiv_pos_as_xyz
  1  'x, y, z'
loop_
 _atom_site_type_symbol
 _atom_site_label
 _atom_site_symmetry_multiplicity
 _atom_site_fract_x
 _atom_site_fract_y
 _atom_site_fract_z
 _atom_site_occupancy
  Ho  Ho0  1  0.978396  0.917185  0.185823  1
  Ho  Ho1  1  0.791458  0.584873  0.812959  1
  Ho  Ho2  1  0.021884  0.084618  0.813785  1
  Ho  Ho3  1  0.209263  0.414674  0.185726  1
  Ho  Ho4  1  0.641064  0.815544  0.435511  1
  Ho  Ho5  1  0.207210  0.685065  0.565797  1
  Ho  Ho6  1  0.358504  0.185282  0.565131  1
  Ho  Ho7  1  0.793576  0.313948  0.435990  1
  Ho  Ho8  1  0.419672  0.750178  0.999935  1
  Ho  Ho9  1  0.579265  0.248857  0.999023  1
  Ir  Ir10  1  0.822506  0.576104  0.220992  1
  Ru  Ru11  1  0.603672  0.923321  0.779686  1
  Ru  Ru12  1  0.176028  0.424498  0.779225  1
  Ru  Ru13  1  0.397503  0.075853  0.220418  1
