# generated using pymatgen
data_ZrNbBRh6
_symmetry_space_group_name_H-M   'P 1'
_cell_length_a   5.68655294
_cell_length_b   5.68655224
_cell_length_c   5.68655200
_cell_angle_alpha   59.99998974
_cell_angle_beta   59.99999383
_cell_angle_gamma   59.99999515
_symmetry_Int_Tables_number   1
_chemical_formula_structural   ZrNbBRh6
_chemical_formula_sum   'Zr1 Nb1 B1 Rh6'
_cell_volume   130.02655814
_cell_formula_units_Z   1
loop_
 _symmetry_equiv_pos_site_id
 _symmetry_equiv_pos_as_xyz
  1  'x, y, z'
loop_
 _atom_site_type_symbol
 _atom_site_label
 _atom_site_symmetry_multiplicity
 _atom_site_fract_x
 _atom_site_fract_y
 _atom_site_fract_z
 _atom_site_occupancy
  Zr  Zr0  1  0.250000  0.250000  0.250000  1
  Nb  Nb1  1  0.750000  0.750000  0.750000  1
  B  B2  1  0.500000  0.500000  0.500000  1
  Rh  Rh3  1  0.756999  0.756999  0.243001  1
  Rh  Rh4  1  0.756999  0.243001  0.243001  1
  Rh  Rh5  1  0.243001  0.756999  0.243001  1
  Rh  Rh6  1  0.243001  0.243001  0.756999  1
  Rh  Rh7  1  0.756999  0.243001  0.756999  1
  Rh  Rh8  1  0.243001  0.756999  0.756999  1
