# generated using pymatgen
data_LiLa4Pr12Mg(CdIr2)2
_symmetry_space_group_name_H-M   'P 1'
_cell_length_a   10.09594008
_cell_length_b   10.09593999
_cell_length_c   10.09244900
_cell_angle_alpha   60.01144752
_cell_angle_beta   60.01144781
_cell_angle_gamma   59.98377405
_symmetry_Int_Tables_number   1
_chemical_formula_structural   LiLa4Pr12Mg(CdIr2)2
_chemical_formula_sum   'Li1 La4 Pr12 Mg1 Cd2 Ir4'
_cell_volume   727.43955392
_cell_formula_units_Z   1
loop_
 _symmetry_equiv_pos_site_id
 _symmetry_equiv_pos_as_xyz
  1  'x, y, z'
loop_
 _atom_site_type_symbol
 _atom_site_label
 _atom_site_symmetry_multiplicity
 _atom_site_fract_x
 _atom_site_fract_y
 _atom_site_fract_z
 _atom_site_occupancy
  Li  Li0  1  0.572054  0.572054  0.577880  1
  La  La1  1  0.346737  0.346737  0.346967  1
  La  La2  1  0.347474  0.347474  0.957954  1
  La  La3  1  0.346421  0.960950  0.346709  1
  La  La4  1  0.960950  0.346421  0.346709  1
  Pr  Pr5  1  0.811741  0.189387  0.188950  1
  Pr  Pr6  1  0.188070  0.811814  0.810590  1
  Pr  Pr7  1  0.189387  0.811741  0.188950  1
  Pr  Pr8  1  0.811814  0.188070  0.810590  1
  Pr  Pr9  1  0.191335  0.191335  0.809573  1
  Pr  Pr10  1  0.813032  0.813032  0.185205  1
  Pr  Pr11  1  0.938665  0.562918  0.561593  1
  Pr  Pr12  1  0.561546  0.938171  0.937241  1
  Pr  Pr13  1  0.562918  0.938665  0.561593  1
  Pr  Pr14  1  0.938171  0.561546  0.937241  1
  Pr  Pr15  1  0.563415  0.563415  0.936872  1
  Pr  Pr16  1  0.938350  0.938350  0.560831  1
  Mg  Mg17  1  0.575531  0.575531  0.270228  1
  Cd  Cd18  1  0.582669  0.256022  0.581402  1
  Cd  Cd19  1  0.256022  0.582669  0.581402  1
  Ir  Ir20  1  0.142747  0.142747  0.142116  1
  Ir  Ir21  1  0.143398  0.143398  0.573997  1
  Ir  Ir22  1  0.142988  0.574556  0.142701  1
  Ir  Ir23  1  0.574556  0.142988  0.142701  1
