# generated using pymatgen
data_Dy2Ho5Tm3In8(PtAu)2
_symmetry_space_group_name_H-M   'P 1'
_cell_length_a   3.63863200
_cell_length_b   8.14843555
_cell_length_c   18.26461306
_cell_angle_alpha   90.07139166
_cell_angle_beta   90.00000000
_cell_angle_gamma   90.00000000
_symmetry_Int_Tables_number   1
_chemical_formula_structural   Dy2Ho5Tm3In8(PtAu)2
_chemical_formula_sum   'Dy2 Ho5 Tm3 In8 Pt2 Au2'
_cell_volume   541.52998403
_cell_formula_units_Z   1
loop_
 _symmetry_equiv_pos_site_id
 _symmetry_equiv_pos_as_xyz
  1  'x, y, z'
loop_
 _atom_site_type_symbol
 _atom_site_label
 _atom_site_symmetry_multiplicity
 _atom_site_fract_x
 _atom_site_fract_y
 _atom_site_fract_z
 _atom_site_occupancy
  Dy  Dy0  1  0.000000  0.000078  0.999959  1
  Dy  Dy1  1  0.000000  0.499989  0.500004  1
  Ho  Ho2  1  0.000000  0.615537  0.083589  1
  Ho  Ho3  1  0.000000  0.252802  0.216775  1
  Ho  Ho4  1  0.000000  0.747221  0.783218  1
  Ho  Ho5  1  0.000000  0.268092  0.721075  1
  Ho  Ho6  1  0.000000  0.731922  0.278999  1
  Tm  Tm7  1  0.000000  0.119486  0.418963  1
  Tm  Tm8  1  0.000000  0.880539  0.580995  1
  Tm  Tm9  1  0.000000  0.384640  0.915940  1
  In  In10  1  0.500000  0.420670  0.352327  1
  In  In11  1  0.500000  0.579333  0.647755  1
  In  In12  1  0.500000  0.079490  0.852280  1
  In  In13  1  0.500000  0.921728  0.148027  1
  In  In14  1  0.500000  0.292401  0.064922  1
  In  In15  1  0.500000  0.706485  0.934335  1
  In  In16  1  0.500000  0.208009  0.566846  1
  In  In17  1  0.500000  0.792042  0.433195  1
  Pt  Pt18  1  0.500000  0.471537  0.804731  1
  Pt  Pt19  1  0.500000  0.527760  0.196045  1
  Au  Au20  1  0.500000  0.029947  0.303109  1
  Au  Au21  1  0.500000  0.970293  0.696909  1
