# generated using pymatgen
data_Pr4Si10Ir5Os
_symmetry_space_group_name_H-M   'P 1'
_cell_length_a   8.27366649
_cell_length_b   8.27366758
_cell_length_c   8.27366713
_cell_angle_alpha   137.79703508
_cell_angle_beta   105.49780023
_cell_angle_gamma   89.54328381
_symmetry_Int_Tables_number   1
_chemical_formula_structural   Pr4Si10Ir5Os
_chemical_formula_sum   'Pr4 Si10 Ir5 Os1'
_cell_volume   350.48404610
_cell_formula_units_Z   1
loop_
 _symmetry_equiv_pos_site_id
 _symmetry_equiv_pos_as_xyz
  1  'x, y, z'
loop_
 _atom_site_type_symbol
 _atom_site_label
 _atom_site_symmetry_multiplicity
 _atom_site_fract_x
 _atom_site_fract_y
 _atom_site_fract_z
 _atom_site_occupancy
  Pr  Pr0  1  0.862856  0.630797  0.233346  1
  Pr  Pr1  1  0.137144  0.370490  0.767941  1
  Pr  Pr2  1  0.397452  0.129510  0.266654  1
  Pr  Pr3  1  0.602548  0.869203  0.732059  1
  Si  Si4  1  0.500000  0.750000  0.250000  1
  Si  Si5  1  0.500000  0.250000  0.750000  1
  Si  Si6  1  0.226082  0.976082  0.750000  1
  Si  Si7  1  0.773918  0.523918  0.750000  1
  Si  Si8  1  0.772744  0.022744  0.250000  1
  Si  Si9  1  0.227256  0.477256  0.250000  1
  Si  Si10  1  0.045315  0.891142  0.148243  1
  Si  Si11  1  0.954685  0.102928  0.845828  1
  Si  Si12  1  0.742899  0.397072  0.351757  1
  Si  Si13  1  0.257101  0.608858  0.654172  1
  Ir  Ir14  1  0.000000  0.250000  0.250000  1
  Ir  Ir15  1  0.248512  0.861616  0.388476  1
  Ir  Ir16  1  0.751488  0.139963  0.613103  1
  Ir  Ir17  1  0.473140  0.360037  0.111524  1
  Ir  Ir18  1  0.526860  0.638384  0.886897  1
  Os  Os19  1  0.000000  0.750000  0.750000  1
