# generated using pymatgen
data_PrErTmGa8Ag3
_symmetry_space_group_name_H-M   'P 1'
_cell_length_a   4.36008345
_cell_length_b   8.39639930
_cell_length_c   8.39639782
_cell_angle_alpha   69.13736807
_cell_angle_beta   74.95128731
_cell_angle_gamma   74.95128786
_symmetry_Int_Tables_number   1
_chemical_formula_structural   PrErTmGa8Ag3
_chemical_formula_sum   'Pr1 Er1 Tm1 Ga8 Ag3'
_cell_volume   272.57880713
_cell_formula_units_Z   1
loop_
 _symmetry_equiv_pos_site_id
 _symmetry_equiv_pos_as_xyz
  1  'x, y, z'
loop_
 _atom_site_type_symbol
 _atom_site_label
 _atom_site_symmetry_multiplicity
 _atom_site_fract_x
 _atom_site_fract_y
 _atom_site_fract_z
 _atom_site_occupancy
  Pr  Pr0  1  0.500054  0.499946  0.499946  1
  Er  Er1  1  0.200010  0.799990  0.799990  1
  Tm  Tm2  1  0.800101  0.199899  0.199899  1
  Ga  Ga3  1  0.355323  0.360691  0.928663  1
  Ga  Ga4  1  0.644616  0.639142  0.071625  1
  Ga  Ga5  1  0.355323  0.928663  0.360691  1
  Ga  Ga6  1  0.644616  0.071625  0.639142  1
  Ga  Ga7  1  0.161277  0.471174  0.206271  1
  Ga  Ga8  1  0.838893  0.528577  0.793639  1
  Ga  Ga9  1  0.161277  0.206271  0.471174  1
  Ga  Ga10  1  0.838893  0.793639  0.528577  1
  Ag  Ag11  1  0.499882  0.000118  0.000118  1
  Ag  Ag12  1  0.999868  0.806996  0.193269  1
  Ag  Ag13  1  0.999868  0.193269  0.806996  1
