# generated using pymatgen
data_NdEr2Ni9
_symmetry_space_group_name_H-M   'P 1'
_cell_length_a   8.58871537
_cell_length_b   8.58871525
_cell_length_c   8.58871441
_cell_angle_alpha   33.79043935
_cell_angle_beta   33.79044058
_cell_angle_gamma   33.79043174
_symmetry_Int_Tables_number   1
_chemical_formula_structural   NdEr2Ni9
_chemical_formula_sum   'Nd1 Er2 Ni9'
_cell_volume   174.61808347
_cell_formula_units_Z   1
loop_
 _symmetry_equiv_pos_site_id
 _symmetry_equiv_pos_as_xyz
  1  'x, y, z'
loop_
 _atom_site_type_symbol
 _atom_site_label
 _atom_site_symmetry_multiplicity
 _atom_site_fract_x
 _atom_site_fract_y
 _atom_site_fract_z
 _atom_site_occupancy
  Nd  Nd0  1  0.000000  0.000000  0.000000  1
  Er  Er1  1  0.859827  0.859827  0.859827  1
  Er  Er2  1  0.140173  0.140173  0.140173  1
  Ni  Ni3  1  0.415654  0.918021  0.415654  1
  Ni  Ni4  1  0.584346  0.584346  0.081979  1
  Ni  Ni5  1  0.666964  0.666964  0.666964  1
  Ni  Ni6  1  0.918021  0.415654  0.415654  1
  Ni  Ni7  1  0.081979  0.584346  0.584346  1
  Ni  Ni8  1  0.333036  0.333036  0.333036  1
  Ni  Ni9  1  0.500000  0.500000  0.500000  1
  Ni  Ni10  1  0.415654  0.415654  0.918021  1
  Ni  Ni11  1  0.584346  0.081979  0.584346  1
