# generated using pymatgen
data_Dy10Er6MgCo3NiAg3
_symmetry_space_group_name_H-M   'P 1'
_cell_length_a   9.43681723
_cell_length_b   9.44651987
_cell_length_c   9.44651900
_cell_angle_alpha   59.99999254
_cell_angle_beta   59.96597514
_cell_angle_gamma   59.96597462
_symmetry_Int_Tables_number   1
_chemical_formula_structural   Dy10Er6MgCo3NiAg3
_chemical_formula_sum   'Dy10 Er6 Mg1 Co3 Ni1 Ag3'
_cell_volume   595.15573317
_cell_formula_units_Z   1
loop_
 _symmetry_equiv_pos_site_id
 _symmetry_equiv_pos_as_xyz
  1  'x, y, z'
loop_
 _atom_site_type_symbol
 _atom_site_label
 _atom_site_symmetry_multiplicity
 _atom_site_fract_x
 _atom_site_fract_y
 _atom_site_fract_z
 _atom_site_occupancy
  Dy  Dy0  1  0.185353  0.813147  0.813147  1
  Dy  Dy1  1  0.811839  0.186449  0.186449  1
  Dy  Dy2  1  0.811839  0.186449  0.815262  1
  Dy  Dy3  1  0.185353  0.813147  0.188356  1
  Dy  Dy4  1  0.811839  0.815262  0.186449  1
  Dy  Dy5  1  0.185353  0.188356  0.813147  1
  Dy  Dy6  1  0.597235  0.598728  0.598728  1
  Dy  Dy7  1  0.597235  0.598728  0.205310  1
  Dy  Dy8  1  0.597235  0.205310  0.598728  1
  Dy  Dy9  1  0.194507  0.601830  0.601830  1
  Er  Er10  1  0.063980  0.437749  0.437749  1
  Er  Er11  1  0.434992  0.065214  0.065214  1
  Er  Er12  1  0.434992  0.065214  0.434580  1
  Er  Er13  1  0.063980  0.437749  0.060523  1
  Er  Er14  1  0.434992  0.434580  0.065214  1
  Er  Er15  1  0.063980  0.060523  0.437749  1
  Mg  Mg16  1  0.537830  0.820723  0.820723  1
  Co  Co17  1  0.388457  0.393279  0.393279  1
  Co  Co18  1  0.388457  0.393279  0.824984  1
  Co  Co19  1  0.388457  0.824984  0.393279  1
  Ni  Ni20  1  0.822754  0.392414  0.392414  1
  Ag  Ag21  1  0.833113  0.833216  0.833216  1
  Ag  Ag22  1  0.833113  0.833216  0.500456  1
  Ag  Ag23  1  0.833113  0.500456  0.833216  1
