# generated using pymatgen
data_Pr5TlBi2Cl
_symmetry_space_group_name_H-M   'P 1'
_cell_length_a   9.71471200
_cell_length_b   9.65485335
_cell_length_c   6.72632700
_cell_angle_alpha   90.00000000
_cell_angle_beta   90.00000000
_cell_angle_gamma   120.20530221
_symmetry_Int_Tables_number   1
_chemical_formula_structural   Pr5TlBi2Cl
_chemical_formula_sum   'Pr10 Tl2 Bi4 Cl2'
_cell_volume   545.23289034
_cell_formula_units_Z   2
loop_
 _symmetry_equiv_pos_site_id
 _symmetry_equiv_pos_as_xyz
  1  'x, y, z'
loop_
 _atom_site_type_symbol
 _atom_site_label
 _atom_site_symmetry_multiplicity
 _atom_site_fract_x
 _atom_site_fract_y
 _atom_site_fract_z
 _atom_site_occupancy
  Pr  Pr0  1  0.266227  0.000000  0.750000  1
  Pr  Pr1  1  0.733773  0.000000  0.250000  1
  Pr  Pr2  1  0.997891  0.260698  0.750000  1
  Pr  Pr3  1  0.002109  0.739302  0.250000  1
  Pr  Pr4  1  0.737194  0.739302  0.750000  1
  Pr  Pr5  1  0.262806  0.260698  0.250000  1
  Pr  Pr6  1  0.334845  0.669691  0.500000  1
  Pr  Pr7  1  0.665155  0.330309  0.500000  1
  Pr  Pr8  1  0.665155  0.330309  0.000000  1
  Pr  Pr9  1  0.334845  0.669691  0.000000  1
  Tl  Tl10  1  0.611600  0.000000  0.750000  1
  Tl  Tl11  1  0.388400  0.000000  0.250000  1
  Bi  Bi12  1  0.999873  0.615546  0.750000  1
  Bi  Bi13  1  0.000127  0.384454  0.250000  1
  Bi  Bi14  1  0.384328  0.384454  0.750000  1
  Bi  Bi15  1  0.615672  0.615546  0.250000  1
  Cl  Cl16  1  0.000000  0.000000  0.500000  1
  Cl  Cl17  1  0.000000  0.000000  0.000000  1
