# generated using pymatgen
data_HgBi3RuRh3O14
_symmetry_space_group_name_H-M   'P 1'
_cell_length_a   7.41039944
_cell_length_b   7.23010708
_cell_length_c   7.42306689
_cell_angle_alpha   59.33922202
_cell_angle_beta   60.05643225
_cell_angle_gamma   59.17162164
_symmetry_Int_Tables_number   1
_chemical_formula_structural   HgBi3RuRh3O14
_chemical_formula_sum   'Hg1 Bi3 Ru1 Rh3 O14'
_cell_volume   278.13328494
_cell_formula_units_Z   1
loop_
 _symmetry_equiv_pos_site_id
 _symmetry_equiv_pos_as_xyz
  1  'x, y, z'
loop_
 _atom_site_type_symbol
 _atom_site_label
 _atom_site_symmetry_multiplicity
 _atom_site_fract_x
 _atom_site_fract_y
 _atom_site_fract_z
 _atom_site_occupancy
  Hg  Hg0  1  0.125000  0.625000  0.125000  1
  Bi  Bi1  1  0.125000  0.125000  0.125000  1
  Bi  Bi2  1  0.625000  0.125000  0.125000  1
  Bi  Bi3  1  0.125000  0.125000  0.625000  1
  Ru  Ru4  1  0.625000  0.625000  0.125000  1
  Rh  Rh5  1  0.625000  0.625000  0.625000  1
  Rh  Rh6  1  0.125000  0.625000  0.625000  1
  Rh  Rh7  1  0.625000  0.125000  0.625000  1
  O  O8  1  0.247543  0.257499  0.247416  1
  O  O9  1  0.305723  0.707925  0.298651  1
  O  O10  1  0.956628  0.961775  0.538283  1
  O  O11  1  0.543315  0.961775  0.538283  1
  O  O12  1  0.687700  0.707925  0.298651  1
  O  O13  1  0.955500  0.542248  0.546752  1
  O  O14  1  0.706685  0.288225  0.711717  1
  O  O15  1  0.293372  0.288225  0.711717  1
  O  O16  1  0.705397  0.293701  0.295503  1
  O  O17  1  0.294500  0.707752  0.703248  1
  O  O18  1  0.944277  0.542075  0.951349  1
  O  O19  1  0.562300  0.542075  0.951349  1
  O  O20  1  0.002457  0.992501  0.002584  1
  O  O21  1  0.544603  0.956299  0.954497  1
