# generated using pymatgen
data_Y7Ho9Cd4OsPt3
_symmetry_space_group_name_H-M   'P 1'
_cell_length_a   9.68628720
_cell_length_b   9.68628785
_cell_length_c   9.69537824
_cell_angle_alpha   59.54117260
_cell_angle_beta   59.54117761
_cell_angle_gamma   59.62948676
_symmetry_Int_Tables_number   1
_chemical_formula_structural   Y7Ho9Cd4OsPt3
_chemical_formula_sum   'Y7 Ho9 Cd4 Os1 Pt3'
_cell_volume   636.94758982
_cell_formula_units_Z   1
loop_
 _symmetry_equiv_pos_site_id
 _symmetry_equiv_pos_as_xyz
  1  'x, y, z'
loop_
 _atom_site_type_symbol
 _atom_site_label
 _atom_site_symmetry_multiplicity
 _atom_site_fract_x
 _atom_site_fract_y
 _atom_site_fract_z
 _atom_site_occupancy
  Y  Y0  1  0.809776  0.809776  0.188629  1
  Y  Y1  1  0.936495  0.564408  0.565165  1
  Y  Y2  1  0.557562  0.938578  0.938194  1
  Y  Y3  1  0.564408  0.936495  0.565165  1
  Y  Y4  1  0.938578  0.557562  0.938194  1
  Y  Y5  1  0.564490  0.564490  0.936707  1
  Y  Y6  1  0.938471  0.938471  0.557800  1
  Ho  Ho7  1  0.351644  0.351644  0.351794  1
  Ho  Ho8  1  0.350061  0.350061  0.947516  1
  Ho  Ho9  1  0.349654  0.948094  0.350070  1
  Ho  Ho10  1  0.948094  0.349654  0.350070  1
  Ho  Ho11  1  0.814646  0.188927  0.188680  1
  Ho  Ho12  1  0.188813  0.810023  0.810076  1
  Ho  Ho13  1  0.188927  0.814646  0.188680  1
  Ho  Ho14  1  0.810023  0.188813  0.810076  1
  Ho  Ho15  1  0.188695  0.188695  0.814855  1
  Cd  Cd16  1  0.580118  0.580118  0.580081  1
  Cd  Cd17  1  0.580812  0.580812  0.254742  1
  Cd  Cd18  1  0.580741  0.254776  0.580806  1
  Cd  Cd19  1  0.254776  0.580741  0.580806  1
  Os  Os20  1  0.143148  0.143148  0.143316  1
  Pt  Pt21  1  0.143424  0.143424  0.572502  1
  Pt  Pt22  1  0.145350  0.571298  0.143039  1
  Pt  Pt23  1  0.571298  0.145350  0.143039  1
