# generated using pymatgen
data_Hf18CuRe7NiMo
_symmetry_space_group_name_H-M   'P 1'
_cell_length_a   8.63941200
_cell_length_b   8.63941264
_cell_length_c   8.48052000
_cell_angle_alpha   90.00000000
_cell_angle_beta   90.00000000
_cell_angle_gamma   119.99999757
_symmetry_Int_Tables_number   1
_chemical_formula_structural   Hf18CuRe7NiMo
_chemical_formula_sum   'Hf18 Cu1 Re7 Ni1 Mo1'
_cell_volume   548.17790613
_cell_formula_units_Z   1
loop_
 _symmetry_equiv_pos_site_id
 _symmetry_equiv_pos_as_xyz
  1  'x, y, z'
loop_
 _atom_site_type_symbol
 _atom_site_label
 _atom_site_symmetry_multiplicity
 _atom_site_fract_x
 _atom_site_fract_y
 _atom_site_fract_z
 _atom_site_occupancy
  Hf  Hf0  1  0.196551  0.803449  0.446868  1
  Hf  Hf1  1  0.196551  0.393101  0.446868  1
  Hf  Hf2  1  0.606899  0.803449  0.446868  1
  Hf  Hf3  1  0.800851  0.199149  0.556022  1
  Hf  Hf4  1  0.800851  0.601701  0.556022  1
  Hf  Hf5  1  0.398299  0.199149  0.556022  1
  Hf  Hf6  1  0.802558  0.197442  0.943912  1
  Hf  Hf7  1  0.802558  0.605117  0.943912  1
  Hf  Hf8  1  0.394883  0.197442  0.943912  1
  Hf  Hf9  1  0.194262  0.805738  0.053054  1
  Hf  Hf10  1  0.194262  0.388523  0.053054  1
  Hf  Hf11  1  0.611477  0.805738  0.053054  1
  Hf  Hf12  1  0.541236  0.458764  0.249523  1
  Hf  Hf13  1  0.541236  0.082472  0.249523  1
  Hf  Hf14  1  0.917528  0.458764  0.249523  1
  Hf  Hf15  1  0.458794  0.541206  0.750538  1
  Hf  Hf16  1  0.458794  0.917589  0.750538  1
  Hf  Hf17  1  0.082411  0.541206  0.750538  1
  Cu  Cu18  1  0.333333  0.666667  0.247183  1
  Re  Re19  1  0.888515  0.111485  0.251146  1
  Re  Re20  1  0.888515  0.777029  0.251146  1
  Re  Re21  1  0.222971  0.111485  0.251146  1
  Re  Re22  1  0.111061  0.888939  0.749111  1
  Re  Re23  1  0.111061  0.222123  0.749111  1
  Re  Re24  1  0.777877  0.888939  0.749111  1
  Re  Re25  1  0.000000  0.000000  0.000517  1
  Ni  Ni26  1  0.666667  0.333333  0.751962  1
  Mo  Mo27  1  0.000000  0.000000  0.499816  1
