# generated using pymatgen
data_Y2Al9AgRh2
_symmetry_space_group_name_H-M   'P 1'
_cell_length_a   7.56780300
_cell_length_b   7.56780230
_cell_length_c   9.40514800
_cell_angle_alpha   90.00000000
_cell_angle_beta   90.00000000
_cell_angle_gamma   119.75392075
_symmetry_Int_Tables_number   1
_chemical_formula_structural   Y2Al9AgRh2
_chemical_formula_sum   'Y4 Al18 Ag2 Rh4'
_cell_volume   467.63545626
_cell_formula_units_Z   2
loop_
 _symmetry_equiv_pos_site_id
 _symmetry_equiv_pos_as_xyz
  1  'x, y, z'
loop_
 _atom_site_type_symbol
 _atom_site_label
 _atom_site_symmetry_multiplicity
 _atom_site_fract_x
 _atom_site_fract_y
 _atom_site_fract_z
 _atom_site_occupancy
  Y  Y0  1  0.995166  0.678012  0.250000  1
  Y  Y1  1  0.004834  0.321988  0.750000  1
  Y  Y2  1  0.678012  0.995166  0.250000  1
  Y  Y3  1  0.321988  0.004834  0.750000  1
  Al  Al4  1  0.141043  0.141043  0.250000  1
  Al  Al5  1  0.858957  0.858957  0.750000  1
  Al  Al6  1  0.000201  0.345396  0.078139  1
  Al  Al7  1  0.999799  0.654604  0.921861  1
  Al  Al8  1  0.999799  0.654604  0.578139  1
  Al  Al9  1  0.345396  0.000201  0.421861  1
  Al  Al10  1  0.000201  0.345396  0.421861  1
  Al  Al11  1  0.654604  0.999799  0.578139  1
  Al  Al12  1  0.654604  0.999799  0.921861  1
  Al  Al13  1  0.345396  0.000201  0.078139  1
  Al  Al14  1  0.341554  0.341554  0.557173  1
  Al  Al15  1  0.658446  0.658446  0.442827  1
  Al  Al16  1  0.658446  0.658446  0.057173  1
  Al  Al17  1  0.341554  0.341554  0.942827  1
  Al  Al18  1  0.338321  0.552918  0.250000  1
  Al  Al19  1  0.661679  0.447082  0.750000  1
  Al  Al20  1  0.552918  0.338321  0.250000  1
  Al  Al21  1  0.447082  0.661679  0.750000  1
  Ag  Ag22  1  0.000000  0.000000  0.000000  1
  Ag  Ag23  1  0.000000  0.000000  0.500000  1
  Rh  Rh24  1  0.671470  0.328530  0.000000  1
  Rh  Rh25  1  0.328530  0.671470  0.000000  1
  Rh  Rh26  1  0.328530  0.671470  0.500000  1
  Rh  Rh27  1  0.671470  0.328530  0.500000  1
