# generated using pymatgen
data_SmDy6ErC10
_symmetry_space_group_name_H-M   'P 1'
_cell_length_a   3.68415300
_cell_length_b   6.60994994
_cell_length_c   11.96628137
_cell_angle_alpha   90.15474717
_cell_angle_beta   90.00000000
_cell_angle_gamma   90.00000000
_symmetry_Int_Tables_number   1
_chemical_formula_structural   SmDy6ErC10
_chemical_formula_sum   'Sm1 Dy6 Er1 C10'
_cell_volume   291.40262178
_cell_formula_units_Z   1
loop_
 _symmetry_equiv_pos_site_id
 _symmetry_equiv_pos_as_xyz
  1  'x, y, z'
loop_
 _atom_site_type_symbol
 _atom_site_label
 _atom_site_symmetry_multiplicity
 _atom_site_fract_x
 _atom_site_fract_y
 _atom_site_fract_z
 _atom_site_occupancy
  Sm  Sm0  1  0.000000  0.743028  0.956022  1
  Dy  Dy1  1  0.500000  0.393268  0.302491  1
  Dy  Dy2  1  0.500000  0.605464  0.695077  1
  Dy  Dy3  1  0.500000  0.108016  0.803848  1
  Dy  Dy4  1  0.500000  0.896459  0.197773  1
  Dy  Dy5  1  0.000000  0.265768  0.541217  1
  Dy  Dy6  1  0.000000  0.753606  0.455002  1
  Er  Er7  1  0.000000  0.233007  0.043274  1
  C  C8  1  0.500000  0.990599  0.002282  1
  C  C9  1  0.500000  0.516310  0.500755  1
  C  C10  1  0.000000  0.136382  0.235858  1
  C  C11  1  0.000000  0.855721  0.757510  1
  C  C12  1  0.000000  0.365566  0.737659  1
  C  C13  1  0.000000  0.645740  0.261097  1
  C  C14  1  0.000000  0.119111  0.347245  1
  C  C15  1  0.000000  0.931301  0.654827  1
  C  C16  1  0.000000  0.374450  0.849161  1
  C  C17  1  0.000000  0.566207  0.158900  1
