# generated using pymatgen
data_LuAg6CO11
_symmetry_space_group_name_H-M   'P 1'
_cell_length_a   7.06848209
_cell_length_b   7.06848205
_cell_length_c   7.06848140
_cell_angle_alpha   60.72473762
_cell_angle_beta   60.72473680
_cell_angle_gamma   60.72473338
_symmetry_Int_Tables_number   1
_chemical_formula_structural   LuAg6CO11
_chemical_formula_sum   'Lu1 Ag6 C1 O11'
_cell_volume   253.81001637
_cell_formula_units_Z   1
loop_
 _symmetry_equiv_pos_site_id
 _symmetry_equiv_pos_as_xyz
  1  'x, y, z'
loop_
 _atom_site_type_symbol
 _atom_site_label
 _atom_site_symmetry_multiplicity
 _atom_site_fract_x
 _atom_site_fract_y
 _atom_site_fract_z
 _atom_site_occupancy
  Lu  Lu0  1  0.999064  0.999064  0.999064  1
  Ag  Ag1  1  0.499152  0.000726  0.000726  1
  Ag  Ag2  1  0.500441  0.500441  0.000849  1
  Ag  Ag3  1  0.500441  0.000849  0.500441  1
  Ag  Ag4  1  0.000726  0.000726  0.499152  1
  Ag  Ag5  1  0.000849  0.500441  0.500441  1
  Ag  Ag6  1  0.000726  0.499152  0.000726  1
  C  C7  1  0.499521  0.499521  0.499521  1
  O  O8  1  0.592465  0.140271  0.140271  1
  O  O9  1  0.140271  0.592465  0.140271  1
  O  O10  1  0.135746  0.135746  0.135746  1
  O  O11  1  0.140271  0.140271  0.592465  1
  O  O12  1  0.603628  0.603628  0.291204  1
  O  O13  1  0.603628  0.291204  0.603628  1
  O  O14  1  0.291204  0.603628  0.603628  1
  O  O15  1  0.861315  0.861315  0.404836  1
  O  O16  1  0.861315  0.404836  0.861315  1
  O  O17  1  0.864398  0.864398  0.864398  1
  O  O18  1  0.404836  0.861315  0.861315  1
