# generated using pymatgen
data_Sc8Re3OsC8
_symmetry_space_group_name_H-M   'P 1'
_cell_length_a   4.78108500
_cell_length_b   6.26690727
_cell_length_c   9.35274521
_cell_angle_alpha   89.80387781
_cell_angle_beta   90.00000000
_cell_angle_gamma   90.00000000
_symmetry_Int_Tables_number   1
_chemical_formula_structural   Sc8Re3OsC8
_chemical_formula_sum   'Sc8 Re3 Os1 C8'
_cell_volume   280.23107500
_cell_formula_units_Z   1
loop_
 _symmetry_equiv_pos_site_id
 _symmetry_equiv_pos_as_xyz
  1  'x, y, z'
loop_
 _atom_site_type_symbol
 _atom_site_label
 _atom_site_symmetry_multiplicity
 _atom_site_fract_x
 _atom_site_fract_y
 _atom_site_fract_z
 _atom_site_occupancy
  Sc  Sc0  1  0.750000  0.542966  0.782292  1
  Sc  Sc1  1  0.250000  0.955473  0.280289  1
  Sc  Sc2  1  0.750000  0.664307  0.437741  1
  Sc  Sc3  1  0.250000  0.836632  0.938161  1
  Sc  Sc4  1  0.750000  0.165275  0.062807  1
  Sc  Sc5  1  0.250000  0.336100  0.561794  1
  Sc  Sc6  1  0.250000  0.456216  0.219487  1
  Sc  Sc7  1  0.750000  0.046555  0.719740  1
  Re  Re8  1  0.250000  0.801425  0.622628  1
  Re  Re9  1  0.750000  0.198492  0.379200  1
  Re  Re10  1  0.750000  0.699752  0.121946  1
  Os  Os11  1  0.250000  0.300268  0.876966  1
  C  C12  1  0.250000  0.663801  0.436037  1
  C  C13  1  0.250000  0.567977  0.756535  1
  C  C14  1  0.750000  0.430836  0.242047  1
  C  C15  1  0.750000  0.835471  0.934766  1
  C  C16  1  0.250000  0.067702  0.742224  1
  C  C17  1  0.250000  0.163837  0.062242  1
  C  C18  1  0.750000  0.335714  0.565294  1
  C  C19  1  0.750000  0.931202  0.257804  1
