# generated using pymatgen
data_Yb7ThAs6
_symmetry_space_group_name_H-M   'P 1'
_cell_length_a   7.70017980
_cell_length_b   7.74707813
_cell_length_c   7.74707773
_cell_angle_alpha   109.59352734
_cell_angle_beta   109.34863843
_cell_angle_gamma   109.34863522
_symmetry_Int_Tables_number   1
_chemical_formula_structural   Yb7ThAs6
_chemical_formula_sum   'Yb7 Th1 As6'
_cell_volume   356.29489781
_cell_formula_units_Z   1
loop_
 _symmetry_equiv_pos_site_id
 _symmetry_equiv_pos_as_xyz
  1  'x, y, z'
loop_
 _atom_site_type_symbol
 _atom_site_label
 _atom_site_symmetry_multiplicity
 _atom_site_fract_x
 _atom_site_fract_y
 _atom_site_fract_z
 _atom_site_occupancy
  Yb  Yb0  1  0.498913  0.999113  0.640962  1
  Yb  Yb1  1  0.367648  0.361171  0.372439  1
  Yb  Yb2  1  0.995210  0.127561  0.488732  1
  Yb  Yb3  1  0.857951  0.859038  0.858152  1
  Yb  Yb4  1  0.999799  0.641848  0.500887  1
  Yb  Yb5  1  0.637690  0.500000  0.000000  1
  Yb  Yb6  1  0.506478  0.011268  0.138829  1
  Th  Th7  1  0.142499  0.500000  0.000000  1
  As  As8  1  0.880852  0.253394  0.124518  1
  As  As9  1  0.127458  0.871124  0.246606  1
  As  As10  1  0.369464  0.623969  0.755254  1
  As  As11  1  0.245495  0.131285  0.876031  1
  As  As12  1  0.756333  0.375482  0.628876  1
  As  As13  1  0.614210  0.744746  0.368715  1
