# generated using pymatgen
data_Cs4HfMgSe5
_symmetry_space_group_name_H-M   'P 1'
_cell_length_a   8.52435222
_cell_length_b   9.60743234
_cell_length_c   11.79162800
_cell_angle_alpha   75.37870875
_cell_angle_beta   86.39974748
_cell_angle_gamma   80.43904613
_symmetry_Int_Tables_number   1
_chemical_formula_structural   Cs4HfMgSe5
_chemical_formula_sum   'Cs8 Hf2 Mg2 Se10'
_cell_volume   921.22671021
_cell_formula_units_Z   2
loop_
 _symmetry_equiv_pos_site_id
 _symmetry_equiv_pos_as_xyz
  1  'x, y, z'
loop_
 _atom_site_type_symbol
 _atom_site_label
 _atom_site_symmetry_multiplicity
 _atom_site_fract_x
 _atom_site_fract_y
 _atom_site_fract_z
 _atom_site_occupancy
  Cs  Cs0  1  0.438534  0.320990  0.099596  1
  Cs  Cs1  1  0.561466  0.679010  0.900404  1
  Cs  Cs2  1  0.190017  0.081471  0.863517  1
  Cs  Cs3  1  0.056418  0.619043  0.742056  1
  Cs  Cs4  1  0.809983  0.918529  0.136483  1
  Cs  Cs5  1  0.943582  0.380957  0.257944  1
  Cs  Cs6  1  0.565836  0.727768  0.499965  1
  Cs  Cs7  1  0.434164  0.272232  0.500035  1
  Hf  Hf8  1  0.281784  0.731098  0.213517  1
  Hf  Hf9  1  0.718216  0.268902  0.786483  1
  Mg  Mg10  1  0.909565  0.081491  0.593557  1
  Mg  Mg11  1  0.090435  0.918509  0.406443  1
  Se  Se12  1  0.871794  0.360793  0.600075  1
  Se  Se13  1  0.204009  0.961459  0.589768  1
  Se  Se14  1  0.434775  0.395188  0.773244  1
  Se  Se15  1  0.162033  0.682267  0.040792  1
  Se  Se16  1  0.837967  0.317733  0.959208  1
  Se  Se17  1  0.565225  0.604812  0.226756  1
  Se  Se18  1  0.128206  0.639207  0.399925  1
  Se  Se19  1  0.252128  0.002059  0.203634  1
  Se  Se20  1  0.747872  0.997941  0.796366  1
  Se  Se21  1  0.795991  0.038541  0.410232  1
