# generated using pymatgen
data_K2BaLaB24
_symmetry_space_group_name_H-M   'P 1'
_cell_length_a   7.31051829
_cell_length_b   7.31051843
_cell_length_c   5.97446600
_cell_angle_alpha   90.00000000
_cell_angle_beta   90.00000000
_cell_angle_gamma   109.53345731
_symmetry_Int_Tables_number   1
_chemical_formula_structural   K2BaLaB24
_chemical_formula_sum   'K2 Ba1 La1 B24'
_cell_volume   300.92072652
_cell_formula_units_Z   1
loop_
 _symmetry_equiv_pos_site_id
 _symmetry_equiv_pos_as_xyz
  1  'x, y, z'
loop_
 _atom_site_type_symbol
 _atom_site_label
 _atom_site_symmetry_multiplicity
 _atom_site_fract_x
 _atom_site_fract_y
 _atom_site_fract_z
 _atom_site_occupancy
  K  K0  1  0.499062  0.500938  0.000000  1
  K  K1  1  0.252500  0.747500  0.500000  1
  Ba  Ba2  1  0.746847  0.253153  0.500000  1
  La  La3  1  0.002214  0.997786  0.000000  1
  B  B4  1  0.174834  0.323579  0.648937  1
  B  B5  1  0.926722  0.575889  0.148521  1
  B  B6  1  0.676421  0.825166  0.648937  1
  B  B7  1  0.424111  0.073278  0.148521  1
  B  B8  1  0.174834  0.323579  0.351063  1
  B  B9  1  0.926722  0.575889  0.851479  1
  B  B10  1  0.676421  0.825166  0.351063  1
  B  B11  1  0.424111  0.073278  0.851479  1
  B  B12  1  0.397686  0.398390  0.500000  1
  B  B13  1  0.150153  0.648700  0.000000  1
  B  B14  1  0.900082  0.899827  0.500000  1
  B  B15  1  0.647992  0.149326  0.000000  1
  B  B16  1  0.321614  0.173138  0.649105  1
  B  B17  1  0.074986  0.425696  0.148461  1
  B  B18  1  0.826862  0.678386  0.649105  1
  B  B19  1  0.574304  0.925014  0.148461  1
  B  B20  1  0.100173  0.099918  0.500000  1
  B  B21  1  0.850674  0.352008  0.000000  1
  B  B22  1  0.601610  0.602314  0.500000  1
  B  B23  1  0.351300  0.849847  0.000000  1
  B  B24  1  0.321614  0.173138  0.350895  1
  B  B25  1  0.074986  0.425696  0.851539  1
  B  B26  1  0.826862  0.678386  0.350895  1
  B  B27  1  0.574304  0.925014  0.851539  1
