# generated using pymatgen
data_Dy20GaRh11
_symmetry_space_group_name_H-M   'P 1'
_cell_length_a   10.99933753
_cell_length_b   10.99933744
_cell_length_c   6.34269900
_cell_angle_alpha   90.03019149
_cell_angle_beta   90.03019149
_cell_angle_gamma   89.51323696
_symmetry_Int_Tables_number   1
_chemical_formula_structural   Dy20GaRh11
_chemical_formula_sum   'Dy20 Ga1 Rh11'
_cell_volume   767.34623075
_cell_formula_units_Z   1
loop_
 _symmetry_equiv_pos_site_id
 _symmetry_equiv_pos_as_xyz
  1  'x, y, z'
loop_
 _atom_site_type_symbol
 _atom_site_label
 _atom_site_symmetry_multiplicity
 _atom_site_fract_x
 _atom_site_fract_y
 _atom_site_fract_z
 _atom_site_occupancy
  Dy  Dy0  1  0.292274  0.092008  0.379788  1
  Dy  Dy1  1  0.290425  0.917833  0.877237  1
  Dy  Dy2  1  0.708682  0.090849  0.881165  1
  Dy  Dy3  1  0.709494  0.910679  0.382147  1
  Dy  Dy4  1  0.593740  0.793192  0.878307  1
  Dy  Dy5  1  0.590133  0.206457  0.378044  1
  Dy  Dy6  1  0.414996  0.794832  0.364658  1
  Dy  Dy7  1  0.410971  0.210261  0.877350  1
  Dy  Dy8  1  0.206808  0.406260  0.621693  1
  Dy  Dy9  1  0.205168  0.585004  0.135342  1
  Dy  Dy10  1  0.793543  0.409867  0.121956  1
  Dy  Dy11  1  0.789739  0.589029  0.622650  1
  Dy  Dy12  1  0.907992  0.707726  0.120212  1
  Dy  Dy13  1  0.909151  0.291318  0.618835  1
  Dy  Dy14  1  0.082167  0.709575  0.622763  1
  Dy  Dy15  1  0.089321  0.290506  0.117853  1
  Dy  Dy16  1  0.001744  0.001229  0.498985  1
  Dy  Dy17  1  0.998771  0.998256  0.001015  1
  Dy  Dy18  1  0.504065  0.496837  0.999248  1
  Dy  Dy19  1  0.503163  0.495935  0.500752  1
  Ga  Ga20  1  0.342764  0.657236  0.750000  1
  Rh  Rh21  1  0.845614  0.154386  0.250000  1
  Rh  Rh22  1  0.846994  0.845462  0.748655  1
  Rh  Rh23  1  0.154538  0.153006  0.751345  1
  Rh  Rh24  1  0.153060  0.846940  0.250000  1
  Rh  Rh25  1  0.655524  0.344476  0.750000  1
  Rh  Rh26  1  0.651539  0.652752  0.250521  1
  Rh  Rh27  1  0.347248  0.348461  0.249479  1
  Rh  Rh28  1  0.500154  0.000166  0.121177  1
  Rh  Rh29  1  0.501001  0.000615  0.625101  1
  Rh  Rh30  1  0.999385  0.498999  0.874899  1
  Rh  Rh31  1  0.999834  0.499846  0.378823  1
