# generated using pymatgen
data_Al2VBr8
_symmetry_space_group_name_H-M   'P 1'
_cell_length_a   10.69031615
_cell_length_b   10.69031586
_cell_length_c   12.46122834
_cell_angle_alpha   56.71183992
_cell_angle_beta   56.71184011
_cell_angle_gamma   48.51007070
_symmetry_Int_Tables_number   1
_chemical_formula_structural   Al2VBr8
_chemical_formula_sum   'Al4 V2 Br16'
_cell_volume   851.80937147
_cell_formula_units_Z   2
loop_
 _symmetry_equiv_pos_site_id
 _symmetry_equiv_pos_as_xyz
  1  'x, y, z'
loop_
 _atom_site_type_symbol
 _atom_site_label
 _atom_site_symmetry_multiplicity
 _atom_site_fract_x
 _atom_site_fract_y
 _atom_site_fract_z
 _atom_site_occupancy
  Al  Al0  1  0.156133  0.683849  0.525838  1
  Al  Al1  1  0.316151  0.843867  0.974162  1
  Al  Al2  1  0.843867  0.316151  0.474162  1
  Al  Al3  1  0.683849  0.156133  0.025838  1
  V  V4  1  0.992516  0.007484  0.750000  1
  V  V5  1  0.007484  0.992516  0.250000  1
  Br  Br6  1  0.300800  0.394962  0.552177  1
  Br  Br7  1  0.605038  0.699200  0.947823  1
  Br  Br8  1  0.699200  0.605038  0.447823  1
  Br  Br9  1  0.394962  0.300800  0.052177  1
  Br  Br10  1  0.876696  0.842711  0.502160  1
  Br  Br11  1  0.157289  0.123304  0.997840  1
  Br  Br12  1  0.123304  0.157289  0.497840  1
  Br  Br13  1  0.842711  0.876696  0.002160  1
  Br  Br14  1  0.140039  0.705980  0.712585  1
  Br  Br15  1  0.294020  0.859961  0.787415  1
  Br  Br16  1  0.859961  0.294020  0.287415  1
  Br  Br17  1  0.705980  0.140039  0.212585  1
  Br  Br18  1  0.282493  0.838079  0.323087  1
  Br  Br19  1  0.161921  0.717507  0.176913  1
  Br  Br20  1  0.717507  0.161921  0.676913  1
  Br  Br21  1  0.838079  0.282493  0.823087  1
