# generated using pymatgen
data_ErSc6Cd(Co3Sn11)2
_symmetry_space_group_name_H-M   'P 1'
_cell_length_a   9.55842500
_cell_length_b   9.55842536
_cell_length_c   9.83603400
_cell_angle_alpha   90.00000000
_cell_angle_beta   90.00000000
_cell_angle_gamma   120.00000221
_symmetry_Int_Tables_number   1
_chemical_formula_structural   ErSc6Cd(Co3Sn11)2
_chemical_formula_sum   'Er1 Sc6 Cd1 Co6 Sn22'
_cell_volume   778.25753369
_cell_formula_units_Z   1
loop_
 _symmetry_equiv_pos_site_id
 _symmetry_equiv_pos_as_xyz
  1  'x, y, z'
loop_
 _atom_site_type_symbol
 _atom_site_label
 _atom_site_symmetry_multiplicity
 _atom_site_fract_x
 _atom_site_fract_y
 _atom_site_fract_z
 _atom_site_occupancy
  Er  Er0  1  0.000000  0.000000  0.000000  1
  Sc  Sc1  1  0.483688  0.516312  0.308154  1
  Sc  Sc2  1  0.516312  0.483688  0.691846  1
  Sc  Sc3  1  0.483688  0.967378  0.308154  1
  Sc  Sc4  1  0.516312  0.032622  0.691846  1
  Sc  Sc5  1  0.032622  0.516312  0.308154  1
  Sc  Sc6  1  0.967378  0.483688  0.691846  1
  Cd  Cd7  1  0.000000  0.000000  0.500000  1
  Co  Co8  1  0.830348  0.169652  0.199161  1
  Co  Co9  1  0.169652  0.830348  0.800839  1
  Co  Co10  1  0.830348  0.660699  0.199161  1
  Co  Co11  1  0.169652  0.339301  0.800839  1
  Co  Co12  1  0.339301  0.169652  0.199161  1
  Co  Co13  1  0.660699  0.830348  0.800839  1
  Sn  Sn14  1  0.120226  0.879774  0.272644  1
  Sn  Sn15  1  0.879774  0.120226  0.727356  1
  Sn  Sn16  1  0.120226  0.240454  0.272644  1
  Sn  Sn17  1  0.879774  0.759546  0.727356  1
  Sn  Sn18  1  0.759546  0.879774  0.272644  1
  Sn  Sn19  1  0.240454  0.120226  0.727356  1
  Sn  Sn20  1  0.780277  0.219723  0.456944  1
  Sn  Sn21  1  0.219723  0.780277  0.543056  1
  Sn  Sn22  1  0.780277  0.560554  0.456944  1
  Sn  Sn23  1  0.219723  0.439446  0.543056  1
  Sn  Sn24  1  0.439446  0.219723  0.456944  1
  Sn  Sn25  1  0.560554  0.780277  0.543056  1
  Sn  Sn26  1  0.347684  0.000000  0.000000  1
  Sn  Sn27  1  0.652316  0.000000  0.000000  1
  Sn  Sn28  1  0.000000  0.347684  0.000000  1
  Sn  Sn29  1  0.000000  0.652316  0.000000  1
  Sn  Sn30  1  0.652316  0.652316  0.000000  1
  Sn  Sn31  1  0.347684  0.347684  0.000000  1
  Sn  Sn32  1  0.333333  0.666667  0.140288  1
  Sn  Sn33  1  0.666667  0.333333  0.859712  1
  Sn  Sn34  1  0.333333  0.666667  0.823099  1
  Sn  Sn35  1  0.666667  0.333333  0.176901  1
