# generated using pymatgen
data_Dy2MnS4
_symmetry_space_group_name_H-M   'P 1'
_cell_length_a   6.40425900
_cell_length_b   7.91678100
_cell_length_c   13.52890500
_cell_angle_alpha   90.00000000
_cell_angle_beta   90.00000000
_cell_angle_gamma   90.00000000
_symmetry_Int_Tables_number   1
_chemical_formula_structural   Dy2MnS4
_chemical_formula_sum   'Dy8 Mn4 S16'
_cell_volume   685.93058136
_cell_formula_units_Z   4
loop_
 _symmetry_equiv_pos_site_id
 _symmetry_equiv_pos_as_xyz
  1  'x, y, z'
loop_
 _atom_site_type_symbol
 _atom_site_label
 _atom_site_symmetry_multiplicity
 _atom_site_fract_x
 _atom_site_fract_y
 _atom_site_fract_z
 _atom_site_occupancy
  Dy  Dy0  1  0.000000  0.500000  0.000000  1
  Dy  Dy1  1  0.500000  0.000000  0.500000  1
  Dy  Dy2  1  0.000000  0.000000  0.000000  1
  Dy  Dy3  1  0.500000  0.500000  0.500000  1
  Dy  Dy4  1  0.994698  0.750000  0.265962  1
  Dy  Dy5  1  0.505302  0.750000  0.765962  1
  Dy  Dy6  1  0.005302  0.250000  0.734038  1
  Dy  Dy7  1  0.494698  0.250000  0.234038  1
  Mn  Mn8  1  0.410796  0.750000  0.092309  1
  Mn  Mn9  1  0.089204  0.750000  0.592309  1
  Mn  Mn10  1  0.589204  0.250000  0.907691  1
  Mn  Mn11  1  0.910796  0.250000  0.407691  1
  S  S12  1  0.779056  0.750000  0.090211  1
  S  S13  1  0.720944  0.750000  0.590211  1
  S  S14  1  0.220944  0.250000  0.909789  1
  S  S15  1  0.279056  0.250000  0.409789  1
  S  S16  1  0.243992  0.750000  0.430230  1
  S  S17  1  0.256008  0.750000  0.930230  1
  S  S18  1  0.756008  0.250000  0.569770  1
  S  S19  1  0.743992  0.250000  0.069770  1
  S  S20  1  0.742594  0.486724  0.331217  1
  S  S21  1  0.757406  0.013276  0.831217  1
  S  S22  1  0.257406  0.986724  0.668783  1
  S  S23  1  0.242594  0.513276  0.168783  1
  S  S24  1  0.257406  0.513276  0.668783  1
  S  S25  1  0.242594  0.986724  0.168783  1
  S  S26  1  0.742594  0.013276  0.331217  1
  S  S27  1  0.757406  0.486724  0.831217  1
