# generated using pymatgen
data_ScTcI18
_symmetry_space_group_name_H-M   'P 1'
_cell_length_a   10.17805867
_cell_length_b   10.17805990
_cell_length_c   10.17805981
_cell_angle_alpha   93.71068825
_cell_angle_beta   93.71068202
_cell_angle_gamma   93.71069261
_symmetry_Int_Tables_number   1
_chemical_formula_structural   ScTcI18
_chemical_formula_sum   'Sc1 Tc1 I18'
_cell_volume   1047.44169606
_cell_formula_units_Z   1
loop_
 _symmetry_equiv_pos_site_id
 _symmetry_equiv_pos_as_xyz
  1  'x, y, z'
loop_
 _atom_site_type_symbol
 _atom_site_label
 _atom_site_symmetry_multiplicity
 _atom_site_fract_x
 _atom_site_fract_y
 _atom_site_fract_z
 _atom_site_occupancy
  Sc  Sc0  1  0.000000  0.000000  0.000000  1
  Tc  Tc1  1  0.500000  0.500000  0.500000  1
  I  I2  1  0.716655  0.974545  0.021327  1
  I  I3  1  0.731562  0.134391  0.606210  1
  I  I4  1  0.021327  0.716655  0.974545  1
  I  I5  1  0.268438  0.865609  0.393790  1
  I  I6  1  0.134391  0.606210  0.731562  1
  I  I7  1  0.025455  0.978673  0.283345  1
  I  I8  1  0.606210  0.731562  0.134391  1
  I  I9  1  0.978673  0.283345  0.025455  1
  I  I10  1  0.865609  0.393790  0.268438  1
  I  I11  1  0.393790  0.268438  0.865609  1
  I  I12  1  0.974545  0.021327  0.716655  1
  I  I13  1  0.283345  0.025455  0.978673  1
  I  I14  1  0.768272  0.531130  0.501191  1
  I  I15  1  0.498809  0.231728  0.468870  1
  I  I16  1  0.468870  0.498809  0.231728  1
  I  I17  1  0.501191  0.768272  0.531130  1
  I  I18  1  0.531130  0.501191  0.768272  1
  I  I19  1  0.231728  0.468870  0.498809  1
