# generated using pymatgen
data_Dy4YP12Ir6Ru13
_symmetry_space_group_name_H-M   'P 1'
_cell_length_a   12.59805500
_cell_length_b   12.56020924
_cell_length_c   3.97775000
_cell_angle_alpha   90.00000000
_cell_angle_beta   90.00000000
_cell_angle_gamma   119.84711014
_symmetry_Int_Tables_number   1
_chemical_formula_structural   Dy4YP12Ir6Ru13
_chemical_formula_sum   'Dy4 Y1 P12 Ir6 Ru13'
_cell_volume   545.92818133
_cell_formula_units_Z   1
loop_
 _symmetry_equiv_pos_site_id
 _symmetry_equiv_pos_as_xyz
  1  'x, y, z'
loop_
 _atom_site_type_symbol
 _atom_site_label
 _atom_site_symmetry_multiplicity
 _atom_site_fract_x
 _atom_site_fract_y
 _atom_site_fract_z
 _atom_site_occupancy
  Dy  Dy0  1  0.666720  0.332948  0.000000  1
  Dy  Dy1  1  0.333025  0.666500  0.000000  1
  Dy  Dy2  1  0.185950  0.186781  0.500000  1
  Dy  Dy3  1  0.000116  0.813221  0.500000  1
  Y  Y4  1  0.813241  0.001490  0.500000  1
  P  P5  1  0.630023  0.003286  0.000000  1
  P  P6  1  0.372048  0.371740  0.000000  1
  P  P7  1  0.999905  0.627923  0.000000  1
  P  P8  1  0.688953  0.517847  0.500000  1
  P  P9  1  0.828399  0.307419  0.500000  1
  P  P10  1  0.311859  0.830131  0.500000  1
  P  P11  1  0.518485  0.688056  0.500000  1
  P  P12  1  0.181918  0.000628  0.000000  1
  P  P13  1  0.817117  0.818036  0.000000  1
  P  P14  1  0.997426  0.183293  0.000000  1
  P  P15  1  0.481558  0.169190  0.500000  1
  P  P16  1  0.170253  0.481872  0.500000  1
  Ir  Ir17  1  0.624339  0.808195  0.000000  1
  Ir  Ir18  1  0.184521  0.375534  0.000000  1
  Ir  Ir19  1  0.375064  0.183050  0.000000  1
  Ir  Ir20  1  0.191248  0.817173  0.000000  1
  Ir  Ir21  1  0.807850  0.624506  0.000000  1
  Ir  Ir22  1  0.999391  0.000331  0.000000  1
  Ru  Ru23  1  0.872471  0.508845  0.500000  1
  Ru  Ru24  1  0.490565  0.361847  0.500000  1
  Ru  Ru25  1  0.635965  0.124531  0.500000  1
  Ru  Ru26  1  0.128311  0.638732  0.500000  1
  Ru  Ru27  1  0.362554  0.489927  0.500000  1
  Ru  Ru28  1  0.509108  0.870671  0.500000  1
  Ru  Ru29  1  0.715964  0.715853  0.500000  1
  Ru  Ru30  1  0.002102  0.285306  0.500000  1
  Ru  Ru31  1  0.445891  0.998057  0.000000  1
  Ru  Ru32  1  0.552757  0.552374  0.000000  1
  Ru  Ru33  1  0.003060  0.448812  0.000000  1
  Ru  Ru34  1  0.817822  0.195725  0.000000  1
  Ru  Ru35  1  0.284024  0.000172  0.500000  1
