# generated using pymatgen
data_Rb4MoWBr12
_symmetry_space_group_name_H-M   'P 1'
_cell_length_a   7.62474500
_cell_length_b   7.62474500
_cell_length_c   10.84224600
_cell_angle_alpha   90.00000000
_cell_angle_beta   90.00000000
_cell_angle_gamma   90.00000000
_symmetry_Int_Tables_number   1
_chemical_formula_structural   Rb4MoWBr12
_chemical_formula_sum   'Rb4 Mo1 W1 Br12'
_cell_volume   630.33279676
_cell_formula_units_Z   1
loop_
 _symmetry_equiv_pos_site_id
 _symmetry_equiv_pos_as_xyz
  1  'x, y, z'
loop_
 _atom_site_type_symbol
 _atom_site_label
 _atom_site_symmetry_multiplicity
 _atom_site_fract_x
 _atom_site_fract_y
 _atom_site_fract_z
 _atom_site_occupancy
  Rb  Rb0  1  0.500000  0.000000  0.733671  1
  Rb  Rb1  1  0.000000  0.500000  0.266329  1
  Rb  Rb2  1  0.500000  0.000000  0.266329  1
  Rb  Rb3  1  0.000000  0.500000  0.733671  1
  Mo  Mo4  1  0.500000  0.500000  0.500000  1
  W  W5  1  0.000000  0.000000  0.000000  1
  Br  Br6  1  0.000000  0.000000  0.764981  1
  Br  Br7  1  0.500000  0.500000  0.261262  1
  Br  Br8  1  0.739781  0.739781  0.500000  1
  Br  Br9  1  0.235384  0.235384  0.000000  1
  Br  Br10  1  0.739781  0.260219  0.500000  1
  Br  Br11  1  0.235384  0.764616  0.000000  1
  Br  Br12  1  0.000000  0.000000  0.235019  1
  Br  Br13  1  0.500000  0.500000  0.738738  1
  Br  Br14  1  0.260219  0.260219  0.500000  1
  Br  Br15  1  0.764616  0.764616  0.000000  1
  Br  Br16  1  0.260219  0.739781  0.500000  1
  Br  Br17  1  0.764616  0.235384  0.000000  1
