# generated using pymatgen
data_Dy15Ho5(Ir2Os)4
_symmetry_space_group_name_H-M   'P 1'
_cell_length_a   10.85880015
_cell_length_b   10.85837915
_cell_length_c   6.41234500
_cell_angle_alpha   90.00210465
_cell_angle_beta   90.00296082
_cell_angle_gamma   89.98135268
_symmetry_Int_Tables_number   1
_chemical_formula_structural   Dy15Ho5(Ir2Os)4
_chemical_formula_sum   'Dy15 Ho5 Ir8 Os4'
_cell_volume   756.07294707
_cell_formula_units_Z   1
loop_
 _symmetry_equiv_pos_site_id
 _symmetry_equiv_pos_as_xyz
  1  'x, y, z'
loop_
 _atom_site_type_symbol
 _atom_site_label
 _atom_site_symmetry_multiplicity
 _atom_site_fract_x
 _atom_site_fract_y
 _atom_site_fract_z
 _atom_site_occupancy
  Dy  Dy0  1  0.293468  0.086321  0.376903  1
  Dy  Dy1  1  0.293541  0.913806  0.876980  1
  Dy  Dy2  1  0.706521  0.086224  0.876960  1
  Dy  Dy3  1  0.706551  0.913791  0.376971  1
  Dy  Dy4  1  0.586246  0.793483  0.876972  1
  Dy  Dy5  1  0.586243  0.206513  0.376970  1
  Dy  Dy6  1  0.413787  0.793507  0.376965  1
  Dy  Dy7  1  0.413713  0.206527  0.876938  1
  Dy  Dy8  1  0.206480  0.413703  0.623040  1
  Dy  Dy9  1  0.206442  0.586137  0.123062  1
  Dy  Dy10  1  0.793603  0.413724  0.123025  1
  Dy  Dy11  1  0.793490  0.586270  0.623066  1
  Dy  Dy12  1  0.913738  0.706480  0.123076  1
  Dy  Dy13  1  0.913827  0.293473  0.623104  1
  Dy  Dy14  1  0.086199  0.706468  0.622993  1
  Ho  Ho15  1  0.086162  0.293614  0.122927  1
  Ho  Ho16  1  0.000020  0.000055  0.499957  1
  Ho  Ho17  1  0.000005  0.000063  0.000024  1
  Ho  Ho18  1  0.499974  0.499948  0.000015  1
  Ho  Ho19  1  0.500011  0.500012  0.499970  1
  Ir  Ir20  1  0.848071  0.152094  0.249959  1
  Ir  Ir21  1  0.847995  0.847985  0.750010  1
  Ir  Ir22  1  0.151974  0.152133  0.750257  1
  Ir  Ir23  1  0.152021  0.847967  0.249997  1
  Ir  Ir24  1  0.652049  0.347967  0.750000  1
  Ir  Ir25  1  0.652002  0.652034  0.250037  1
  Ir  Ir26  1  0.347794  0.347949  0.249891  1
  Ir  Ir27  1  0.347987  0.652006  0.749996  1
  Os  Os28  1  0.499957  0.999936  0.122370  1
  Os  Os29  1  0.500010  0.999980  0.622291  1
  Os  Os30  1  0.000049  0.499878  0.877816  1
  Os  Os31  1  0.000068  0.499952  0.377459  1
