# generated using pymatgen
data_Dy8TmZn4
_symmetry_space_group_name_H-M   'P 1'
_cell_length_a   8.58092481
_cell_length_b   8.58102531
_cell_length_c   8.58085851
_cell_angle_alpha   95.02082129
_cell_angle_beta   95.02034459
_cell_angle_gamma   145.58572014
_symmetry_Int_Tables_number   1
_chemical_formula_structural   Dy8TmZn4
_chemical_formula_sum   'Dy8 Tm1 Zn4'
_cell_volume   341.11306467
_cell_formula_units_Z   1
loop_
 _symmetry_equiv_pos_site_id
 _symmetry_equiv_pos_as_xyz
  1  'x, y, z'
loop_
 _atom_site_type_symbol
 _atom_site_label
 _atom_site_symmetry_multiplicity
 _atom_site_fract_x
 _atom_site_fract_y
 _atom_site_fract_z
 _atom_site_occupancy
  Dy  Dy0  1  0.181624  0.887935  0.069563  1
  Dy  Dy1  1  0.112059  0.181630  0.293698  1
  Dy  Dy2  1  0.881796  0.403008  0.284803  1
  Dy  Dy3  1  0.596996  0.881799  0.478786  1
  Dy  Dy4  1  0.403003  0.118200  0.521213  1
  Dy  Dy5  1  0.118203  0.596991  0.715197  1
  Dy  Dy6  1  0.887940  0.818369  0.706302  1
  Dy  Dy7  1  0.818375  0.112064  0.930437  1
  Tm  Tm8  1  0.499999  0.499999  0.000000  1
  Zn  Zn9  1  0.392002  0.734410  0.126413  1
  Zn  Zn10  1  0.734412  0.607998  0.342409  1
  Zn  Zn11  1  0.265587  0.392001  0.657591  1
  Zn  Zn12  1  0.607997  0.265589  0.873587  1
