# generated using pymatgen
data_Sr2LaSn4Sb
_symmetry_space_group_name_H-M   'P 1'
_cell_length_a   8.96928411
_cell_length_b   8.96928287
_cell_length_c   8.97035954
_cell_angle_alpha   120.27347127
_cell_angle_beta   120.27346385
_cell_angle_gamma   89.51271828
_symmetry_Int_Tables_number   1
_chemical_formula_structural   Sr2LaSn4Sb
_chemical_formula_sum   'Sr4 La2 Sn8 Sb2'
_cell_volume   508.21685315
_cell_formula_units_Z   2
loop_
 _symmetry_equiv_pos_site_id
 _symmetry_equiv_pos_as_xyz
  1  'x, y, z'
loop_
 _atom_site_type_symbol
 _atom_site_label
 _atom_site_symmetry_multiplicity
 _atom_site_fract_x
 _atom_site_fract_y
 _atom_site_fract_z
 _atom_site_occupancy
  Sr  Sr0  1  0.163067  0.663067  0.826160  1
  Sr  Sr1  1  0.836933  0.336933  0.173840  1
  Sr  Sr2  1  0.663006  0.836994  0.500000  1
  Sr  Sr3  1  0.336994  0.163006  0.500000  1
  La  La4  1  0.249949  0.250051  0.000000  1
  La  La5  1  0.750051  0.749949  0.000000  1
  Sn  Sn6  1  0.830335  0.330335  0.786840  1
  Sn  Sn7  1  0.169665  0.669665  0.213160  1
  Sn  Sn8  1  0.543537  0.043537  0.213197  1
  Sn  Sn9  1  0.330487  0.543389  0.499949  1
  Sn  Sn10  1  0.956611  0.169513  0.500051  1
  Sn  Sn11  1  0.456463  0.956463  0.786803  1
  Sn  Sn12  1  0.669513  0.456611  0.500051  1
  Sn  Sn13  1  0.043389  0.830487  0.499949  1
  Sb  Sb14  1  0.000000  0.000000  0.000000  1
  Sb  Sb15  1  0.500000  0.500000  0.000000  1
