# generated using pymatgen
data_Tb2ErZnCd3Au2
_symmetry_space_group_name_H-M   'P 1'
_cell_length_a   7.88614516
_cell_length_b   7.88614457
_cell_length_c   3.79674600
_cell_angle_alpha   90.00000000
_cell_angle_beta   90.00000000
_cell_angle_gamma   119.85678782
_symmetry_Int_Tables_number   1
_chemical_formula_structural   Tb2ErZnCd3Au2
_chemical_formula_sum   'Tb2 Er1 Zn1 Cd3 Au2'
_cell_volume   204.78427282
_cell_formula_units_Z   1
loop_
 _symmetry_equiv_pos_site_id
 _symmetry_equiv_pos_as_xyz
  1  'x, y, z'
loop_
 _atom_site_type_symbol
 _atom_site_label
 _atom_site_symmetry_multiplicity
 _atom_site_fract_x
 _atom_site_fract_y
 _atom_site_fract_z
 _atom_site_occupancy
  Tb  Tb0  1  0.591373  0.999982  0.000000  1
  Tb  Tb1  1  0.999982  0.591373  0.000000  1
  Er  Er2  1  0.408813  0.408813  0.000000  1
  Zn  Zn3  1  0.000295  0.000295  0.000000  1
  Cd  Cd4  1  0.257562  0.000508  0.500000  1
  Cd  Cd5  1  0.000508  0.257562  0.500000  1
  Cd  Cd6  1  0.742089  0.742089  0.500000  1
  Au  Au7  1  0.333654  0.665724  0.500000  1
  Au  Au8  1  0.665724  0.333654  0.500000  1
