# generated using pymatgen
data_Y3Tm(CuPt)2
_symmetry_space_group_name_H-M   'P 1'
_cell_length_a   4.43176300
_cell_length_b   5.51818835
_cell_length_c   7.14463039
_cell_angle_alpha   89.62211523
_cell_angle_beta   90.00000000
_cell_angle_gamma   90.00000000
_symmetry_Int_Tables_number   1
_chemical_formula_structural   Y3Tm(CuPt)2
_chemical_formula_sum   'Y3 Tm1 Cu2 Pt2'
_cell_volume   174.72030047
_cell_formula_units_Z   1
loop_
 _symmetry_equiv_pos_site_id
 _symmetry_equiv_pos_as_xyz
  1  'x, y, z'
loop_
 _atom_site_type_symbol
 _atom_site_label
 _atom_site_symmetry_multiplicity
 _atom_site_fract_x
 _atom_site_fract_y
 _atom_site_fract_z
 _atom_site_occupancy
  Y  Y0  1  0.000000  0.115887  0.683474  1
  Y  Y1  1  0.000000  0.883195  0.182248  1
  Y  Y2  1  0.500000  0.393154  0.316498  1
  Tm  Tm3  1  0.500000  0.606328  0.816811  1
  Cu  Cu4  1  0.500000  0.889962  0.466091  1
  Cu  Cu5  1  0.500000  0.108370  0.962273  1
  Pt  Pt6  1  0.000000  0.616122  0.540696  1
  Pt  Pt7  1  0.000000  0.386981  0.031911  1
