# generated using pymatgen
data_YbDy(In2Rh)2
_symmetry_space_group_name_H-M   'P 1'
_cell_length_a   5.47989075
_cell_length_b   5.47989036
_cell_length_c   8.35050000
_cell_angle_alpha   90.00000000
_cell_angle_beta   90.00000000
_cell_angle_gamma   134.82290579
_symmetry_Int_Tables_number   1
_chemical_formula_structural   YbDy(In2Rh)2
_chemical_formula_sum   'Yb1 Dy1 In4 Rh2'
_cell_volume   177.86048095
_cell_formula_units_Z   1
loop_
 _symmetry_equiv_pos_site_id
 _symmetry_equiv_pos_as_xyz
  1  'x, y, z'
loop_
 _atom_site_type_symbol
 _atom_site_label
 _atom_site_symmetry_multiplicity
 _atom_site_fract_x
 _atom_site_fract_y
 _atom_site_fract_z
 _atom_site_occupancy
  Yb  Yb0  1  0.933567  0.066433  0.750000  1
  Dy  Dy1  1  0.068229  0.931771  0.250000  1
  In  In2  1  0.645406  0.354594  0.551337  1
  In  In3  1  0.355261  0.644739  0.451536  1
  In  In4  1  0.645406  0.354594  0.948663  1
  In  In5  1  0.355261  0.644739  0.048464  1
  Rh  Rh6  1  0.219060  0.780940  0.750000  1
  Rh  Rh7  1  0.777811  0.222189  0.250000  1
