# generated using pymatgen
data_Tm20IrRu3Rh8
_symmetry_space_group_name_H-M   'P 1'
_cell_length_a   10.72645971
_cell_length_b   10.72784852
_cell_length_c   6.32341015
_cell_angle_alpha   90.00802155
_cell_angle_beta   90.02347835
_cell_angle_gamma   89.96534554
_symmetry_Int_Tables_number   1
_chemical_formula_structural   Tm20IrRu3Rh8
_chemical_formula_sum   'Tm20 Ir1 Ru3 Rh8'
_cell_volume   727.64620760
_cell_formula_units_Z   1
loop_
 _symmetry_equiv_pos_site_id
 _symmetry_equiv_pos_as_xyz
  1  'x, y, z'
loop_
 _atom_site_type_symbol
 _atom_site_label
 _atom_site_symmetry_multiplicity
 _atom_site_fract_x
 _atom_site_fract_y
 _atom_site_fract_z
 _atom_site_occupancy
  Tm  Tm0  1  0.294478  0.086045  0.376270  1
  Tm  Tm1  1  0.294447  0.912574  0.875874  1
  Tm  Tm2  1  0.705605  0.085892  0.876384  1
  Tm  Tm3  1  0.705460  0.913944  0.376156  1
  Tm  Tm4  1  0.584404  0.793834  0.876139  1
  Tm  Tm5  1  0.586275  0.205635  0.376353  1
  Tm  Tm6  1  0.413319  0.793738  0.377227  1
  Tm  Tm7  1  0.414223  0.205510  0.876459  1
  Tm  Tm8  1  0.208359  0.414399  0.626407  1
  Tm  Tm9  1  0.207972  0.587759  0.119926  1
  Tm  Tm10  1  0.792555  0.412635  0.120559  1
  Tm  Tm11  1  0.792249  0.587070  0.626172  1
  Tm  Tm12  1  0.912880  0.707400  0.120450  1
  Tm  Tm13  1  0.912748  0.292121  0.626229  1
  Tm  Tm14  1  0.088728  0.707736  0.626633  1
  Tm  Tm15  1  0.087179  0.292639  0.120714  1
  Tm  Tm16  1  0.000042  0.999921  0.499120  1
  Tm  Tm17  1  0.000056  0.999929  0.999433  1
  Tm  Tm18  1  0.499870  0.500367  0.999060  1
  Tm  Tm19  1  0.499641  0.500099  0.499287  1
  Ir  Ir20  1  0.346785  0.652654  0.749811  1
  Ru  Ru21  1  0.500243  0.000566  0.123938  1
  Ru  Ru22  1  0.500240  0.000577  0.623616  1
  Ru  Ru23  1  0.999357  0.499618  0.877074  1
  Rh  Rh24  1  0.848088  0.153425  0.250704  1
  Rh  Rh25  1  0.847599  0.846875  0.749639  1
  Rh  Rh26  1  0.152347  0.153168  0.750323  1
  Rh  Rh27  1  0.151543  0.847090  0.250793  1
  Rh  Rh28  1  0.653165  0.347577  0.749903  1
  Rh  Rh29  1  0.653881  0.651828  0.250862  1
  Rh  Rh30  1  0.346650  0.347505  0.250470  1
  Rh  Rh31  1  0.999614  0.499867  0.378012  1
