# generated using pymatgen
data_CsTe2F9
_symmetry_space_group_name_H-M   'P 1'
_cell_length_a   5.22958245
_cell_length_b   9.76875628
_cell_length_c   10.03568555
_cell_angle_alpha   108.77035744
_cell_angle_beta   96.75088924
_cell_angle_gamma   94.58271297
_symmetry_Int_Tables_number   1
_chemical_formula_structural   CsTe2F9
_chemical_formula_sum   'Cs2 Te4 F18'
_cell_volume   478.26240117
_cell_formula_units_Z   2
loop_
 _symmetry_equiv_pos_site_id
 _symmetry_equiv_pos_as_xyz
  1  'x, y, z'
loop_
 _atom_site_type_symbol
 _atom_site_label
 _atom_site_symmetry_multiplicity
 _atom_site_fract_x
 _atom_site_fract_y
 _atom_site_fract_z
 _atom_site_occupancy
  Cs  Cs0  1  0.628941  0.761747  0.542415  1
  Cs  Cs1  1  0.371059  0.238253  0.457585  1
  Te  Te2  1  0.623586  0.892131  0.160495  1
  Te  Te3  1  0.376414  0.107869  0.839505  1
  Te  Te4  1  0.880914  0.459992  0.180067  1
  Te  Te5  1  0.119086  0.540008  0.819933  1
  F  F6  1  0.322502  0.747501  0.022741  1
  F  F7  1  0.677498  0.252499  0.977259  1
  F  F8  1  0.571588  0.947374  0.856800  1
  F  F9  1  0.428412  0.052626  0.143200  1
  F  F10  1  0.806099  0.548361  0.916452  1
  F  F11  1  0.193901  0.451639  0.083548  1
  F  F12  1  0.111749  0.587858  0.343770  1
  F  F13  1  0.888251  0.412142  0.656230  1
  F  F14  1  0.003813  0.297177  0.220991  1
  F  F15  1  0.996187  0.702823  0.779009  1
  F  F16  1  0.614432  0.112298  0.709682  1
  F  F17  1  0.385568  0.887702  0.290318  1
  F  F18  1  0.346500  0.549622  0.674658  1
  F  F19  1  0.653500  0.450378  0.325342  1
  F  F20  1  0.169140  0.964829  0.665004  1
  F  F21  1  0.830860  0.035171  0.334996  1
  F  F22  1  0.256606  0.271020  0.771375  1
  F  F23  1  0.743394  0.728980  0.228625  1
