# generated using pymatgen
data_Er2FeB6
_symmetry_space_group_name_H-M   'P 1'
_cell_length_a   3.52892100
_cell_length_b   9.04430100
_cell_length_c   11.40074300
_cell_angle_alpha   90.00000000
_cell_angle_beta   90.00000000
_cell_angle_gamma   90.00000000
_symmetry_Int_Tables_number   1
_chemical_formula_structural   Er2FeB6
_chemical_formula_sum   'Er8 Fe4 B24'
_cell_volume   363.87322456
_cell_formula_units_Z   4
loop_
 _symmetry_equiv_pos_site_id
 _symmetry_equiv_pos_as_xyz
  1  'x, y, z'
loop_
 _atom_site_type_symbol
 _atom_site_label
 _atom_site_symmetry_multiplicity
 _atom_site_fract_x
 _atom_site_fract_y
 _atom_site_fract_z
 _atom_site_occupancy
  Er  Er0  1  0.000000  0.823676  0.085420  1
  Er  Er1  1  0.000000  0.176324  0.914580  1
  Er  Er2  1  0.000000  0.323676  0.414580  1
  Er  Er3  1  0.000000  0.676324  0.585420  1
  Er  Er4  1  0.000000  0.443219  0.129438  1
  Er  Er5  1  0.000000  0.556781  0.870562  1
  Er  Er6  1  0.000000  0.943219  0.370562  1
  Er  Er7  1  0.000000  0.056781  0.629438  1
  Fe  Fe8  1  0.000000  0.138615  0.179420  1
  Fe  Fe9  1  0.000000  0.861385  0.820580  1
  Fe  Fe10  1  0.000000  0.638615  0.320580  1
  Fe  Fe11  1  0.000000  0.361385  0.679420  1
  B  B12  1  0.500000  0.054248  0.067793  1
  B  B13  1  0.500000  0.945752  0.932207  1
  B  B14  1  0.500000  0.554248  0.432207  1
  B  B15  1  0.500000  0.445752  0.567793  1
  B  B16  1  0.500000  0.246728  0.081441  1
  B  B17  1  0.500000  0.753272  0.918559  1
  B  B18  1  0.500000  0.746728  0.418559  1
  B  B19  1  0.500000  0.253272  0.581441  1
  B  B20  1  0.500000  0.289653  0.233889  1
  B  B21  1  0.500000  0.710347  0.766111  1
  B  B22  1  0.500000  0.789653  0.266111  1
  B  B23  1  0.500000  0.210347  0.733889  1
  B  B24  1  0.500000  0.132091  0.314312  1
  B  B25  1  0.500000  0.867909  0.685688  1
  B  B26  1  0.500000  0.632091  0.185688  1
  B  B27  1  0.500000  0.367909  0.814312  1
  B  B28  1  0.500000  0.485728  0.288446  1
  B  B29  1  0.500000  0.514272  0.711554  1
  B  B30  1  0.500000  0.985728  0.211554  1
  B  B31  1  0.500000  0.014272  0.788446  1
  B  B32  1  0.500000  0.108821  0.470184  1
  B  B33  1  0.500000  0.891179  0.529816  1
  B  B34  1  0.500000  0.608821  0.029816  1
  B  B35  1  0.500000  0.391179  0.970184  1
