# generated using pymatgen
data_P8Ir3Rh
_symmetry_space_group_name_H-M   'P 1'
_cell_length_a   5.84051211
_cell_length_b   5.79248241
_cell_length_c   5.89592623
_cell_angle_alpha   68.43198900
_cell_angle_beta   90.00233090
_cell_angle_gamma   89.98786574
_symmetry_Int_Tables_number   1
_chemical_formula_structural   P8Ir3Rh
_chemical_formula_sum   'P8 Ir3 Rh1'
_cell_volume   185.49925161
_cell_formula_units_Z   1
loop_
 _symmetry_equiv_pos_site_id
 _symmetry_equiv_pos_as_xyz
  1  'x, y, z'
loop_
 _atom_site_type_symbol
 _atom_site_label
 _atom_site_symmetry_multiplicity
 _atom_site_fract_x
 _atom_site_fract_y
 _atom_site_fract_z
 _atom_site_occupancy
  P  P0  1  0.876835  0.662763  0.689712  1
  P  P1  1  0.376155  0.333796  0.810748  1
  P  P2  1  0.122974  0.333685  0.312275  1
  P  P3  1  0.623803  0.669355  0.187433  1
  P  P4  1  0.119425  0.838817  0.870511  1
  P  P5  1  0.619049  0.157924  0.629629  1
  P  P6  1  0.879939  0.158381  0.130912  1
  P  P7  1  0.381325  0.844810  0.368716  1
  Ir  Ir8  1  0.501472  0.728053  0.790653  1
  Ir  Ir9  1  0.000503  0.269602  0.709540  1
  Ir  Ir10  1  0.499250  0.274193  0.207947  1
  Rh  Rh11  1  0.999268  0.728619  0.291923  1
