# generated using pymatgen
data_U2Ti3Co16Si7Ru
_symmetry_space_group_name_H-M   'P 1'
_cell_length_a   7.92453518
_cell_length_b   7.92037309
_cell_length_c   7.94455451
_cell_angle_alpha   59.93366195
_cell_angle_beta   60.23085234
_cell_angle_gamma   60.18464388
_symmetry_Int_Tables_number   1
_chemical_formula_structural   U2Ti3Co16Si7Ru
_chemical_formula_sum   'U2 Ti3 Co16 Si7 Ru1'
_cell_volume   353.51749134
_cell_formula_units_Z   1
loop_
 _symmetry_equiv_pos_site_id
 _symmetry_equiv_pos_as_xyz
  1  'x, y, z'
loop_
 _atom_site_type_symbol
 _atom_site_label
 _atom_site_symmetry_multiplicity
 _atom_site_fract_x
 _atom_site_fract_y
 _atom_site_fract_z
 _atom_site_occupancy
  U  U0  1  0.806319  0.792198  0.193681  1
  U  U1  1  0.793429  0.213296  0.206571  1
  Ti  Ti2  1  0.211175  0.192366  0.788825  1
  Ti  Ti3  1  0.799603  0.212275  0.772095  1
  Ti  Ti4  1  0.227905  0.783973  0.200397  1
  Co  Co5  1  0.617606  0.618388  0.143255  1
  Co  Co6  1  0.155466  0.497823  0.179635  1
  Co  Co7  1  0.856745  0.379249  0.382394  1
  Co  Co8  1  0.509888  0.831054  0.838132  1
  Co  Co9  1  0.513683  0.162310  0.166477  1
  Co  Co10  1  0.833523  0.842470  0.486317  1
  Co  Co11  1  0.161868  0.179071  0.490112  1
  Co  Co12  1  0.147321  0.618566  0.615373  1
  Co  Co13  1  0.150914  0.166395  0.171865  1
  Co  Co14  1  0.384627  0.381260  0.852679  1
  Co  Co15  1  0.618647  0.617715  0.620312  1
  Co  Co16  1  0.379688  0.856674  0.381353  1
  Co  Co17  1  0.379587  0.379318  0.382066  1
  Co  Co18  1  0.820365  0.832926  0.844534  1
  Co  Co19  1  0.617934  0.140971  0.620413  1
  Co  Co20  1  0.828135  0.489177  0.849086  1
  Si  Si21  1  0.478957  0.989446  0.521043  1
  Si  Si22  1  0.480434  0.512830  0.986407  1
  Si  Si23  1  0.501306  0.498346  0.498694  1
  Si  Si24  1  0.013593  0.979672  0.519566  1
  Si  Si25  1  0.030268  0.504331  0.969732  1
  Si  Si26  1  0.003718  0.497984  0.515325  1
  Si  Si27  1  0.484675  0.017027  0.996282  1
  Ru  Ru28  1  0.192622  0.812889  0.807378  1
