# generated using pymatgen
data_Dy3Er3Al18(Si3Ru4)2
_symmetry_space_group_name_H-M   'P 1'
_cell_length_a   8.68102500
_cell_length_b   8.64751460
_cell_length_c   9.52879100
_cell_angle_alpha   90.00000000
_cell_angle_beta   90.00000000
_cell_angle_gamma   120.12801688
_symmetry_Int_Tables_number   1
_chemical_formula_structural   Dy3Er3Al18(Si3Ru4)2
_chemical_formula_sum   'Dy3 Er3 Al18 Si6 Ru8'
_cell_volume   618.68425681
_cell_formula_units_Z   1
loop_
 _symmetry_equiv_pos_site_id
 _symmetry_equiv_pos_as_xyz
  1  'x, y, z'
loop_
 _atom_site_type_symbol
 _atom_site_label
 _atom_site_symmetry_multiplicity
 _atom_site_fract_x
 _atom_site_fract_y
 _atom_site_fract_z
 _atom_site_occupancy
  Dy  Dy0  1  0.192168  0.384406  0.250000  1
  Dy  Dy1  1  0.807598  0.615387  0.750000  1
  Dy  Dy2  1  0.611565  0.808612  0.250000  1
  Er  Er3  1  0.390671  0.192612  0.750000  1
  Er  Er4  1  0.198534  0.807395  0.250000  1
  Er  Er5  1  0.801464  0.192599  0.750000  1
  Al  Al6  1  0.165037  0.330016  0.579836  1
  Al  Al7  1  0.835224  0.670150  0.419983  1
  Al  Al8  1  0.669891  0.835068  0.577703  1
  Al  Al9  1  0.835224  0.670150  0.080017  1
  Al  Al10  1  0.329516  0.164659  0.422332  1
  Al  Al11  1  0.165037  0.330016  0.920164  1
  Al  Al12  1  0.165045  0.835124  0.577334  1
  Al  Al13  1  0.329516  0.164659  0.077668  1
  Al  Al14  1  0.835082  0.164971  0.422532  1
  Al  Al15  1  0.669891  0.835068  0.922297  1
  Al  Al16  1  0.835082  0.164971  0.077468  1
  Al  Al17  1  0.165045  0.835124  0.922666  1
  Al  Al18  1  0.873602  0.433461  0.250000  1
  Al  Al19  1  0.126537  0.566560  0.750000  1
  Al  Al20  1  0.559860  0.433002  0.250000  1
  Al  Al21  1  0.439793  0.566460  0.750000  1
  Al  Al22  1  0.999776  0.996448  0.250000  1
  Al  Al23  1  0.001899  0.004234  0.750000  1
  Si  Si24  1  0.331570  0.663484  0.039648  1
  Si  Si25  1  0.667845  0.336146  0.959941  1
  Si  Si26  1  0.667845  0.336146  0.540059  1
  Si  Si27  1  0.331570  0.663484  0.460352  1
  Si  Si28  1  0.562405  0.125463  0.250000  1
  Si  Si29  1  0.437210  0.874811  0.750000  1
  Ru  Ru30  1  0.499719  0.000269  0.999411  1
  Ru  Ru31  1  0.999720  0.499812  0.999652  1
  Ru  Ru32  1  0.499719  0.000269  0.500589  1
  Ru  Ru33  1  0.499989  0.499555  0.999596  1
  Ru  Ru34  1  0.999720  0.499812  0.500348  1
  Ru  Ru35  1  0.499989  0.499555  0.500404  1
  Ru  Ru36  1  0.999821  0.000022  0.999665  1
  Ru  Ru37  1  0.999821  0.000022  0.500335  1
