# generated using pymatgen
data_YbEu(Si7Ir3)2
_symmetry_space_group_name_H-M   'P 1'
_cell_length_a   8.06422389
_cell_length_b   8.06422484
_cell_length_c   8.06422460
_cell_angle_alpha   56.84435143
_cell_angle_beta   56.84435668
_cell_angle_gamma   56.84435047
_symmetry_Int_Tables_number   1
_chemical_formula_structural   YbEu(Si7Ir3)2
_chemical_formula_sum   'Yb1 Eu1 Si14 Ir6'
_cell_volume   343.82541413
_cell_formula_units_Z   1
loop_
 _symmetry_equiv_pos_site_id
 _symmetry_equiv_pos_as_xyz
  1  'x, y, z'
loop_
 _atom_site_type_symbol
 _atom_site_label
 _atom_site_symmetry_multiplicity
 _atom_site_fract_x
 _atom_site_fract_y
 _atom_site_fract_z
 _atom_site_occupancy
  Yb  Yb0  1  0.500000  0.500000  0.500000  1
  Eu  Eu1  1  0.000000  0.000000  0.000000  1
  Si  Si2  1  0.848527  0.066506  0.672258  1
  Si  Si3  1  0.672258  0.848527  0.066506  1
  Si  Si4  1  0.066506  0.672258  0.848527  1
  Si  Si5  1  0.648308  0.825814  0.436215  1
  Si  Si6  1  0.249313  0.249313  0.249313  1
  Si  Si7  1  0.750687  0.750687  0.750687  1
  Si  Si8  1  0.174186  0.563785  0.351692  1
  Si  Si9  1  0.563785  0.351692  0.174186  1
  Si  Si10  1  0.351692  0.174186  0.563785  1
  Si  Si11  1  0.933494  0.327742  0.151473  1
  Si  Si12  1  0.327742  0.151473  0.933494  1
  Si  Si13  1  0.151473  0.933494  0.327742  1
  Si  Si14  1  0.825814  0.436215  0.648308  1
  Si  Si15  1  0.436215  0.648308  0.825814  1
  Ir  Ir16  1  0.749231  0.070516  0.430437  1
  Ir  Ir17  1  0.430437  0.749231  0.070516  1
  Ir  Ir18  1  0.070516  0.430437  0.749231  1
  Ir  Ir19  1  0.250769  0.929484  0.569563  1
  Ir  Ir20  1  0.569563  0.250769  0.929484  1
  Ir  Ir21  1  0.929484  0.569563  0.250769  1
