# generated using pymatgen
data_NaTb2Ga8Ag3
_symmetry_space_group_name_H-M   'P 1'
_cell_length_a   4.34840397
_cell_length_b   8.42820811
_cell_length_c   8.42820756
_cell_angle_alpha   70.56958659
_cell_angle_beta   75.05050958
_cell_angle_gamma   75.05050353
_symmetry_Int_Tables_number   1
_chemical_formula_structural   NaTb2Ga8Ag3
_chemical_formula_sum   'Na1 Tb2 Ga8 Ag3'
_cell_volume   276.36667600
_cell_formula_units_Z   1
loop_
 _symmetry_equiv_pos_site_id
 _symmetry_equiv_pos_as_xyz
  1  'x, y, z'
loop_
 _atom_site_type_symbol
 _atom_site_label
 _atom_site_symmetry_multiplicity
 _atom_site_fract_x
 _atom_site_fract_y
 _atom_site_fract_z
 _atom_site_occupancy
  Na  Na0  1  0.500000  0.500000  0.500000  1
  Tb  Tb1  1  0.204732  0.795268  0.795268  1
  Tb  Tb2  1  0.795268  0.204732  0.204732  1
  Ga  Ga3  1  0.357665  0.361509  0.923160  1
  Ga  Ga4  1  0.642335  0.638491  0.076840  1
  Ga  Ga5  1  0.357665  0.923160  0.361509  1
  Ga  Ga6  1  0.642335  0.076840  0.638491  1
  Ga  Ga7  1  0.160655  0.473582  0.205107  1
  Ga  Ga8  1  0.839345  0.526418  0.794893  1
  Ga  Ga9  1  0.160655  0.205107  0.473582  1
  Ga  Ga10  1  0.839345  0.794893  0.526418  1
  Ag  Ag11  1  0.500000  0.000000  0.000000  1
  Ag  Ag12  1  0.000000  0.810271  0.189729  1
  Ag  Ag13  1  0.000000  0.189729  0.810271  1
