# generated using pymatgen
data_Er2Lu(Ga2Ni3)3
_symmetry_space_group_name_H-M   'P 1'
_cell_length_a   8.68900400
_cell_length_b   8.68900469
_cell_length_c   4.06729500
_cell_angle_alpha   90.00000000
_cell_angle_beta   90.00000000
_cell_angle_gamma   119.99999735
_symmetry_Int_Tables_number   1
_chemical_formula_structural   Er2Lu(Ga2Ni3)3
_chemical_formula_sum   'Er2 Lu1 Ga6 Ni9'
_cell_volume   265.93551808
_cell_formula_units_Z   1
loop_
 _symmetry_equiv_pos_site_id
 _symmetry_equiv_pos_as_xyz
  1  'x, y, z'
loop_
 _atom_site_type_symbol
 _atom_site_label
 _atom_site_symmetry_multiplicity
 _atom_site_fract_x
 _atom_site_fract_y
 _atom_site_fract_z
 _atom_site_occupancy
  Er  Er0  1  0.666667  0.333333  0.500000  1
  Er  Er1  1  0.333333  0.666667  0.500000  1
  Lu  Lu2  1  0.000000  0.000000  0.000000  1
  Ga  Ga3  1  0.483998  0.483998  0.000000  1
  Ga  Ga4  1  0.516002  0.000000  0.000000  1
  Ga  Ga5  1  0.000000  0.516002  0.000000  1
  Ga  Ga6  1  0.729357  0.729357  0.500000  1
  Ga  Ga7  1  0.270643  0.000000  0.500000  1
  Ga  Ga8  1  0.000000  0.270643  0.500000  1
  Ni  Ni9  1  0.824584  0.195972  0.000000  1
  Ni  Ni10  1  0.804028  0.628611  0.000000  1
  Ni  Ni11  1  0.371389  0.175416  0.000000  1
  Ni  Ni12  1  0.195972  0.824584  0.000000  1
  Ni  Ni13  1  0.628611  0.804028  0.000000  1
  Ni  Ni14  1  0.175416  0.371389  0.000000  1
  Ni  Ni15  1  0.295102  0.295102  0.500000  1
  Ni  Ni16  1  0.704898  0.000000  0.500000  1
  Ni  Ni17  1  0.000000  0.704898  0.500000  1
