# generated using pymatgen
data_Bi3Rh4AuO14
_symmetry_space_group_name_H-M   'P 1'
_cell_length_a   7.40478892
_cell_length_b   7.19752468
_cell_length_c   7.40479000
_cell_angle_alpha   59.04274999
_cell_angle_beta   59.99999517
_cell_angle_gamma   59.04274630
_symmetry_Int_Tables_number   1
_chemical_formula_structural   Bi3Rh4AuO14
_chemical_formula_sum   'Bi3 Rh4 Au1 O14'
_cell_volume   274.95138097
_cell_formula_units_Z   1
loop_
 _symmetry_equiv_pos_site_id
 _symmetry_equiv_pos_as_xyz
  1  'x, y, z'
loop_
 _atom_site_type_symbol
 _atom_site_label
 _atom_site_symmetry_multiplicity
 _atom_site_fract_x
 _atom_site_fract_y
 _atom_site_fract_z
 _atom_site_occupancy
  Bi  Bi0  1  0.125000  0.125000  0.625000  1
  Bi  Bi1  1  0.625000  0.125000  0.125000  1
  Bi  Bi2  1  0.125000  0.125000  0.125000  1
  Rh  Rh3  1  0.625000  0.625000  0.125000  1
  Rh  Rh4  1  0.625000  0.125000  0.625000  1
  Rh  Rh5  1  0.125000  0.625000  0.625000  1
  Rh  Rh6  1  0.625000  0.625000  0.625000  1
  Au  Au7  1  0.125000  0.625000  0.125000  1
  O  O8  1  0.241397  0.275808  0.241397  1
  O  O9  1  0.008603  0.974192  0.008603  1
  O  O10  1  0.539817  0.962660  0.539817  1
  O  O11  1  0.298357  0.705917  0.298357  1
  O  O12  1  0.552631  0.544083  0.951643  1
  O  O13  1  0.951643  0.544083  0.552631  1
  O  O14  1  0.539817  0.962660  0.957706  1
  O  O15  1  0.957706  0.962660  0.539817  1
  O  O16  1  0.951643  0.544083  0.951643  1
  O  O17  1  0.710183  0.287340  0.292294  1
  O  O18  1  0.298357  0.705917  0.697369  1
  O  O19  1  0.710183  0.287340  0.710183  1
  O  O20  1  0.292294  0.287340  0.710183  1
  O  O21  1  0.697369  0.705917  0.298357  1
