# generated using pymatgen
data_TbZr7(Ta3Ge4)4
_symmetry_space_group_name_H-M   'P 1'
_cell_length_a   6.88150453
_cell_length_b   6.99311768
_cell_length_c   13.36702728
_cell_angle_alpha   90.08966404
_cell_angle_beta   89.93137023
_cell_angle_gamma   90.01840408
_symmetry_Int_Tables_number   1
_chemical_formula_structural   TbZr7(Ta3Ge4)4
_chemical_formula_sum   'Tb1 Zr7 Ta12 Ge16'
_cell_volume   643.26245765
_cell_formula_units_Z   1
loop_
 _symmetry_equiv_pos_site_id
 _symmetry_equiv_pos_as_xyz
  1  'x, y, z'
loop_
 _atom_site_type_symbol
 _atom_site_label
 _atom_site_symmetry_multiplicity
 _atom_site_fract_x
 _atom_site_fract_y
 _atom_site_fract_z
 _atom_site_occupancy
  Tb  Tb0  1  0.993619  0.173009  0.091456  1
  Zr  Zr1  1  0.491062  0.326961  0.090920  1
  Zr  Zr2  1  0.988091  0.174958  0.407967  1
  Zr  Zr3  1  0.510443  0.674657  0.590945  1
  Zr  Zr4  1  0.010737  0.823108  0.906030  1
  Zr  Zr5  1  0.510855  0.675500  0.907115  1
  Zr  Zr6  1  0.011244  0.826518  0.591007  1
  Zr  Zr7  1  0.489555  0.325097  0.410156  1
  Ta  Ta8  1  0.662834  0.011019  0.749102  1
  Ta  Ta9  1  0.162738  0.490956  0.749732  1
  Ta  Ta10  1  0.337536  0.988499  0.251899  1
  Ta  Ta11  1  0.836680  0.510708  0.252513  1
  Ta  Ta12  1  0.840147  0.334536  0.624548  1
  Ta  Ta13  1  0.340360  0.165193  0.875005  1
  Ta  Ta14  1  0.159866  0.664950  0.125967  1
  Ta  Ta15  1  0.657675  0.832249  0.376118  1
  Ta  Ta16  1  0.159819  0.666214  0.376810  1
  Ta  Ta17  1  0.656436  0.831515  0.125838  1
  Ta  Ta18  1  0.837569  0.337467  0.873817  1
  Ta  Ta19  1  0.340774  0.165754  0.624882  1
  Ge  Ge20  1  0.805697  0.650720  0.748608  1
  Ge  Ge21  1  0.306423  0.850456  0.749418  1
  Ge  Ge22  1  0.196664  0.351406  0.252047  1
  Ge  Ge23  1  0.691232  0.150286  0.250804  1
  Ge  Ge24  1  0.536739  0.387817  0.749551  1
  Ge  Ge25  1  0.037300  0.113814  0.750333  1
  Ge  Ge26  1  0.461978  0.611650  0.250852  1
  Ge  Ge27  1  0.961066  0.884692  0.251431  1
  Ge  Ge28  1  0.682624  0.039429  0.539630  1
  Ge  Ge29  1  0.183873  0.463401  0.958484  1
  Ge  Ge30  1  0.323959  0.955468  0.038494  1
  Ge  Ge31  1  0.818331  0.539361  0.460734  1
  Ge  Ge32  1  0.316675  0.961920  0.460485  1
  Ge  Ge33  1  0.817163  0.542879  0.038723  1
  Ge  Ge34  1  0.680576  0.038427  0.958472  1
  Ge  Ge35  1  0.181665  0.459405  0.540103  1
