# generated using pymatgen
data_Er12In2Fe2Os
_symmetry_space_group_name_H-M   'P 1'
_cell_length_a   8.30829120
_cell_length_b   8.30829073
_cell_length_c   8.30829018
_cell_angle_alpha   108.68135985
_cell_angle_beta   108.68136484
_cell_angle_gamma   111.06275850
_symmetry_Int_Tables_number   1
_chemical_formula_structural   Er12In2Fe2Os
_chemical_formula_sum   'Er12 In2 Fe2 Os1'
_cell_volume   441.22586500
_cell_formula_units_Z   1
loop_
 _symmetry_equiv_pos_site_id
 _symmetry_equiv_pos_as_xyz
  1  'x, y, z'
loop_
 _atom_site_type_symbol
 _atom_site_label
 _atom_site_symmetry_multiplicity
 _atom_site_fract_x
 _atom_site_fract_y
 _atom_site_fract_z
 _atom_site_occupancy
  Er  Er0  1  0.307550  0.307550  0.615099  1
  Er  Er1  1  0.692450  0.692450  0.384901  1
  Er  Er2  1  0.307550  0.692450  0.000000  1
  Er  Er3  1  0.692450  0.307550  0.000000  1
  Er  Er4  1  0.430488  0.192252  0.238236  1
  Er  Er5  1  0.569512  0.807748  0.761764  1
  Er  Er6  1  0.954015  0.192252  0.761764  1
  Er  Er7  1  0.192252  0.954015  0.761764  1
  Er  Er8  1  0.045985  0.807748  0.238236  1
  Er  Er9  1  0.807748  0.045985  0.238236  1
  Er  Er10  1  0.192252  0.430488  0.238236  1
  Er  Er11  1  0.807748  0.569512  0.761764  1
  In  In12  1  0.500000  0.000000  0.500000  1
  In  In13  1  0.000000  0.500000  0.500000  1
  Fe  Fe14  1  0.386099  0.386099  0.000000  1
  Fe  Fe15  1  0.613901  0.613901  0.000000  1
  Os  Os16  1  0.000000  0.000000  0.000000  1
