# generated using pymatgen
data_TbDyFe4(PRh)6
_symmetry_space_group_name_H-M   'P 1'
_cell_length_a   3.81800100
_cell_length_b   10.59146200
_cell_length_c   12.30762000
_cell_angle_alpha   90.00000000
_cell_angle_beta   90.00000000
_cell_angle_gamma   90.00000000
_symmetry_Int_Tables_number   1
_chemical_formula_structural   TbDyFe4(PRh)6
_chemical_formula_sum   'Tb2 Dy2 Fe8 P12 Rh12'
_cell_volume   497.69815302
_cell_formula_units_Z   2
loop_
 _symmetry_equiv_pos_site_id
 _symmetry_equiv_pos_as_xyz
  1  'x, y, z'
loop_
 _atom_site_type_symbol
 _atom_site_label
 _atom_site_symmetry_multiplicity
 _atom_site_fract_x
 _atom_site_fract_y
 _atom_site_fract_z
 _atom_site_occupancy
  Tb  Tb0  1  0.750000  0.421344  0.289781  1
  Tb  Tb1  1  0.750000  0.078656  0.789781  1
  Dy  Dy2  1  0.250000  0.578575  0.710259  1
  Dy  Dy3  1  0.250000  0.921425  0.210259  1
  Fe  Fe4  1  0.250000  0.875622  0.698079  1
  Fe  Fe5  1  0.250000  0.624378  0.198079  1
  Fe  Fe6  1  0.750000  0.123950  0.301772  1
  Fe  Fe7  1  0.750000  0.376050  0.801772  1
  Fe  Fe8  1  0.250000  0.459173  0.934425  1
  Fe  Fe9  1  0.250000  0.040827  0.434425  1
  Fe  Fe10  1  0.750000  0.541178  0.065239  1
  Fe  Fe11  1  0.750000  0.958822  0.565239  1
  P  P12  1  0.250000  0.441250  0.111184  1
  P  P13  1  0.250000  0.058750  0.611184  1
  P  P14  1  0.750000  0.558911  0.888388  1
  P  P15  1  0.750000  0.941089  0.388388  1
  P  P16  1  0.250000  0.272989  0.864111  1
  P  P17  1  0.250000  0.227011  0.364111  1
  P  P18  1  0.750000  0.727225  0.135999  1
  P  P19  1  0.750000  0.772775  0.635999  1
  P  P20  1  0.250000  0.602487  0.381206  1
  P  P21  1  0.250000  0.897513  0.881206  1
  P  P22  1  0.750000  0.397835  0.618999  1
  P  P23  1  0.750000  0.102165  0.118999  1
  Rh  Rh24  1  0.250000  0.713722  0.990968  1
  Rh  Rh25  1  0.250000  0.786278  0.490968  1
  Rh  Rh26  1  0.750000  0.286308  0.009088  1
  Rh  Rh27  1  0.750000  0.213692  0.509088  1
  Rh  Rh28  1  0.250000  0.408059  0.479518  1
  Rh  Rh29  1  0.250000  0.091941  0.979518  1
  Rh  Rh30  1  0.750000  0.592052  0.521056  1
  Rh  Rh31  1  0.750000  0.907948  0.021056  1
  Rh  Rh32  1  0.250000  0.231987  0.173766  1
  Rh  Rh33  1  0.250000  0.268013  0.673766  1
  Rh  Rh34  1  0.750000  0.767737  0.826162  1
  Rh  Rh35  1  0.750000  0.732263  0.326162  1
