# generated using pymatgen
data_Yb2Hf5Sc(Si4Ru3)4
_symmetry_space_group_name_H-M   'P 1'
_cell_length_a   9.96829194
_cell_length_b   9.96594155
_cell_length_c   13.44613403
_cell_angle_alpha   53.59220514
_cell_angle_beta   53.49808268
_cell_angle_gamma   31.16366139
_symmetry_Int_Tables_number   1
_chemical_formula_structural   Yb2Hf5Sc(Si4Ru3)4
_chemical_formula_sum   'Yb2 Hf5 Sc1 Si16 Ru12'
_cell_volume   544.05978531
_cell_formula_units_Z   1
loop_
 _symmetry_equiv_pos_site_id
 _symmetry_equiv_pos_as_xyz
  1  'x, y, z'
loop_
 _atom_site_type_symbol
 _atom_site_label
 _atom_site_symmetry_multiplicity
 _atom_site_fract_x
 _atom_site_fract_y
 _atom_site_fract_z
 _atom_site_occupancy
  Yb  Yb0  1  0.304673  0.560813  0.637375  1
  Yb  Yb1  1  0.437639  0.700251  0.860242  1
  Hf  Hf2  1  0.560493  0.289235  0.148961  1
  Hf  Hf3  1  0.039527  0.293887  0.635109  1
  Hf  Hf4  1  0.707258  0.959969  0.864524  1
  Hf  Hf5  1  0.961156  0.703222  0.364773  1
  Hf  Hf6  1  0.295459  0.039147  0.135398  1
  Sc  Sc7  1  0.709483  0.438831  0.351606  1
  Si  Si8  1  0.871690  0.128059  0.249916  1
  Si  Si9  1  0.119838  0.880387  0.750459  1
  Si  Si10  1  0.385091  0.615117  0.250451  1
  Si  Si11  1  0.624350  0.375555  0.750295  1
  Si  Si12  1  0.974988  0.254792  0.893263  1
  Si  Si13  1  0.749334  0.021403  0.607803  1
  Si  Si14  1  0.023100  0.748756  0.110105  1
  Si  Si15  1  0.248666  0.979400  0.388531  1
  Si  Si16  1  0.572165  0.084498  0.065542  1
  Si  Si17  1  0.912778  0.427706  0.434354  1
  Si  Si18  1  0.426269  0.920233  0.932477  1
  Si  Si19  1  0.081091  0.573661  0.566716  1
  Si  Si20  1  0.384959  0.143544  0.397242  1
  Si  Si21  1  0.856486  0.612614  0.104122  1
  Si  Si22  1  0.612404  0.855623  0.603735  1
  Si  Si23  1  0.145406  0.388850  0.895092  1
  Ru  Ru24  1  0.646822  0.831454  0.282074  1
  Ru  Ru25  1  0.170285  0.353612  0.217582  1
  Ru  Ru26  1  0.758028  0.484934  0.069389  1
  Ru  Ru27  1  0.833805  0.650022  0.782295  1
  Ru  Ru28  1  0.902296  0.140130  0.584293  1
  Ru  Ru29  1  0.853332  0.103481  0.918888  1
  Ru  Ru30  1  0.097493  0.862314  0.409578  1
  Ru  Ru31  1  0.142285  0.896334  0.089997  1
  Ru  Ru32  1  0.240279  0.514691  0.931699  1
  Ru  Ru33  1  0.487732  0.758099  0.569208  1
  Ru  Ru34  1  0.512556  0.242558  0.429672  1
  Ru  Ru35  1  0.350788  0.166820  0.717233  1
