# generated using pymatgen
data_Li8Y8Sn7Sb
_symmetry_space_group_name_H-M   'P 1'
_cell_length_a   9.37208674
_cell_length_b   9.37208676
_cell_length_c   7.30627468
_cell_angle_alpha   90.06706213
_cell_angle_beta   89.93293901
_cell_angle_gamma   119.97993119
_symmetry_Int_Tables_number   1
_chemical_formula_structural   Li8Y8Sn7Sb
_chemical_formula_sum   'Li8 Y8 Sn7 Sb1'
_cell_volume   555.88713147
_cell_formula_units_Z   1
loop_
 _symmetry_equiv_pos_site_id
 _symmetry_equiv_pos_as_xyz
  1  'x, y, z'
loop_
 _atom_site_type_symbol
 _atom_site_label
 _atom_site_symmetry_multiplicity
 _atom_site_fract_x
 _atom_site_fract_y
 _atom_site_fract_z
 _atom_site_occupancy
  Li  Li0  1  0.166941  0.833059  0.190850  1
  Li  Li1  1  0.334308  0.167728  0.690036  1
  Li  Li2  1  0.832272  0.665692  0.690036  1
  Li  Li3  1  0.166724  0.333912  0.190416  1
  Li  Li4  1  0.666088  0.833276  0.190416  1
  Li  Li5  1  0.833094  0.166906  0.690617  1
  Li  Li6  1  0.333791  0.666209  0.815913  1
  Li  Li7  1  0.666743  0.333257  0.315426  1
  Y  Y8  1  0.513361  0.486639  0.991885  1
  Y  Y9  1  0.025273  0.511572  0.490483  1
  Y  Y10  1  0.488428  0.974727  0.490483  1
  Y  Y11  1  0.515875  0.027488  0.993674  1
  Y  Y12  1  0.972512  0.484125  0.993674  1
  Y  Y13  1  0.486692  0.513308  0.491342  1
  Y  Y14  1  0.998987  0.001013  0.987676  1
  Y  Y15  1  0.999138  0.000862  0.484866  1
  Sn  Sn16  1  0.333076  0.165973  0.258078  1
  Sn  Sn17  1  0.834027  0.666924  0.258078  1
  Sn  Sn18  1  0.166112  0.333241  0.758183  1
  Sn  Sn19  1  0.666759  0.833888  0.758183  1
  Sn  Sn20  1  0.833452  0.166548  0.257454  1
  Sn  Sn21  1  0.332923  0.667077  0.222985  1
  Sn  Sn22  1  0.666872  0.333128  0.722876  1
  Sb  Sb23  1  0.166552  0.833448  0.756378  1
