# generated using pymatgen
data_Tm11Th5(MgOs)4
_symmetry_space_group_name_H-M   'P 1'
_cell_length_a   9.66835787
_cell_length_b   9.70192554
_cell_length_c   9.70192600
_cell_angle_alpha   59.74203934
_cell_angle_beta   60.11438780
_cell_angle_gamma   60.11438905
_symmetry_Int_Tables_number   1
_chemical_formula_structural   Tm11Th5(MgOs)4
_chemical_formula_sum   'Tm11 Th5 Mg4 Os4'
_cell_volume   643.34748879
_cell_formula_units_Z   1
loop_
 _symmetry_equiv_pos_site_id
 _symmetry_equiv_pos_as_xyz
  1  'x, y, z'
loop_
 _atom_site_type_symbol
 _atom_site_label
 _atom_site_symmetry_multiplicity
 _atom_site_fract_x
 _atom_site_fract_y
 _atom_site_fract_z
 _atom_site_occupancy
  Tm  Tm0  1  0.186775  0.813225  0.813225  1
  Tm  Tm1  1  0.192049  0.809953  0.184490  1
  Tm  Tm2  1  0.813506  0.184491  0.809953  1
  Tm  Tm3  1  0.192050  0.184490  0.809954  1
  Tm  Tm4  1  0.813507  0.809953  0.184490  1
  Tm  Tm5  1  0.932651  0.567349  0.567350  1
  Tm  Tm6  1  0.565274  0.934726  0.934726  1
  Tm  Tm7  1  0.561916  0.936107  0.564721  1
  Tm  Tm8  1  0.937255  0.564721  0.936108  1
  Tm  Tm9  1  0.561916  0.564721  0.936108  1
  Tm  Tm10  1  0.937255  0.936107  0.564722  1
  Th  Th11  1  0.341542  0.350377  0.350378  1
  Th  Th12  1  0.347744  0.348094  0.956418  1
  Th  Th13  1  0.347744  0.956419  0.348090  1
  Th  Th14  1  0.957705  0.350377  0.350376  1
  Th  Th15  1  0.815978  0.184021  0.184022  1
  Mg  Mg16  1  0.581820  0.579825  0.579826  1
  Mg  Mg17  1  0.580113  0.582241  0.257534  1
  Mg  Mg18  1  0.580113  0.257534  0.582242  1
  Mg  Mg19  1  0.258531  0.579825  0.579826  1
  Os  Os20  1  0.132425  0.145097  0.145097  1
  Os  Os21  1  0.142375  0.141148  0.574102  1
  Os  Os22  1  0.142375  0.574102  0.141148  1
  Os  Os23  1  0.577381  0.145098  0.145097  1
