# generated using pymatgen
data_Lu4Sc4B24IrRu3
_symmetry_space_group_name_H-M   'P 1'
_cell_length_a   3.52807700
_cell_length_b   8.93031048
_cell_length_c   11.27957016
_cell_angle_alpha   90.00910049
_cell_angle_beta   90.00000000
_cell_angle_gamma   90.00000000
_symmetry_Int_Tables_number   1
_chemical_formula_structural   Lu4Sc4B24IrRu3
_chemical_formula_sum   'Lu4 Sc4 B24 Ir1 Ru3'
_cell_volume   355.38341591
_cell_formula_units_Z   1
loop_
 _symmetry_equiv_pos_site_id
 _symmetry_equiv_pos_as_xyz
  1  'x, y, z'
loop_
 _atom_site_type_symbol
 _atom_site_label
 _atom_site_symmetry_multiplicity
 _atom_site_fract_x
 _atom_site_fract_y
 _atom_site_fract_z
 _atom_site_occupancy
  Lu  Lu0  1  0.500000  0.316496  0.414420  1
  Lu  Lu1  1  0.500000  0.681356  0.589175  1
  Lu  Lu2  1  0.500000  0.180818  0.913124  1
  Lu  Lu3  1  0.500000  0.821249  0.084074  1
  Sc  Sc4  1  0.500000  0.442418  0.124333  1
  Sc  Sc5  1  0.500000  0.555475  0.874204  1
  Sc  Sc6  1  0.500000  0.055643  0.625928  1
  Sc  Sc7  1  0.500000  0.946612  0.374524  1
  B  B8  1  0.000000  0.101040  0.472314  1
  B  B9  1  0.000000  0.898466  0.527706  1
  B  B10  1  0.000000  0.398457  0.972168  1
  B  B11  1  0.000000  0.601560  0.027862  1
  B  B12  1  0.000000  0.129404  0.317367  1
  B  B13  1  0.000000  0.870533  0.683112  1
  B  B14  1  0.000000  0.370558  0.816995  1
  B  B15  1  0.000000  0.629702  0.181379  1
  B  B16  1  0.000000  0.054370  0.065770  1
  B  B17  1  0.000000  0.945996  0.933867  1
  B  B18  1  0.000000  0.445495  0.565972  1
  B  B19  1  0.000000  0.554013  0.434828  1
  B  B20  1  0.000000  0.480318  0.286113  1
  B  B21  1  0.000000  0.518980  0.713782  1
  B  B22  1  0.000000  0.019088  0.786389  1
  B  B23  1  0.000000  0.981132  0.213587  1
  B  B24  1  0.000000  0.252506  0.079729  1
  B  B25  1  0.000000  0.747517  0.920012  1
  B  B26  1  0.000000  0.246945  0.580105  1
  B  B27  1  0.000000  0.753680  0.421213  1
  B  B28  1  0.000000  0.293713  0.235029  1
  B  B29  1  0.000000  0.706112  0.765360  1
  B  B30  1  0.000000  0.206187  0.734697  1
  B  B31  1  0.000000  0.794303  0.264558  1
  Ir  Ir32  1  0.500000  0.639199  0.320129  1
  Ru  Ru33  1  0.500000  0.139591  0.180520  1
  Ru  Ru34  1  0.500000  0.860342  0.819650  1
  Ru  Ru35  1  0.500000  0.360727  0.680005  1
