# generated using pymatgen
data_ErTm5CrB14W
_symmetry_space_group_name_H-M   'P 1'
_cell_length_a   8.02366723
_cell_length_b   8.02366702
_cell_length_c   9.33973500
_cell_angle_alpha   90.00000000
_cell_angle_beta   90.00000000
_cell_angle_gamma   155.45691850
_symmetry_Int_Tables_number   1
_chemical_formula_structural   ErTm5CrB14W
_chemical_formula_sum   'Er1 Tm5 Cr1 B14 W1'
_cell_volume   249.76015714
_cell_formula_units_Z   1
loop_
 _symmetry_equiv_pos_site_id
 _symmetry_equiv_pos_as_xyz
  1  'x, y, z'
loop_
 _atom_site_type_symbol
 _atom_site_label
 _atom_site_symmetry_multiplicity
 _atom_site_fract_x
 _atom_site_fract_y
 _atom_site_fract_z
 _atom_site_occupancy
  Er  Er0  1  0.753826  0.246174  0.750000  1
  Tm  Tm1  1  0.894192  0.105808  0.436080  1
  Tm  Tm2  1  0.106879  0.893121  0.555533  1
  Tm  Tm3  1  0.894192  0.105808  0.063920  1
  Tm  Tm4  1  0.106879  0.893121  0.944467  1
  Tm  Tm5  1  0.241464  0.758536  0.250000  1
  Cr  Cr6  1  0.052743  0.947257  0.250000  1
  B  B7  1  0.727298  0.272702  0.465347  1
  B  B8  1  0.271995  0.728005  0.530921  1
  B  B9  1  0.727298  0.272702  0.034653  1
  B  B10  1  0.271995  0.728005  0.969079  1
  B  B11  1  0.631308  0.368692  0.151696  1
  B  B12  1  0.364866  0.635134  0.854648  1
  B  B13  1  0.631308  0.368692  0.348304  1
  B  B14  1  0.364866  0.635134  0.645352  1
  B  B15  1  0.521213  0.478787  0.096852  1
  B  B16  1  0.481447  0.518553  0.910488  1
  B  B17  1  0.521213  0.478787  0.403148  1
  B  B18  1  0.481447  0.518553  0.589512  1
  B  B19  1  0.458112  0.541888  0.250000  1
  B  B20  1  0.547947  0.452053  0.750000  1
  W  W21  1  0.947511  0.052489  0.750000  1
