# generated using pymatgen
data_NdY2Sc7(Si5Ir2)4
_symmetry_space_group_name_H-M   'P 1'
_cell_length_a   12.48326010
_cell_length_b   12.48190428
_cell_length_c   4.15863600
_cell_angle_alpha   90.00000000
_cell_angle_beta   90.00000000
_cell_angle_gamma   90.20439178
_symmetry_Int_Tables_number   1
_chemical_formula_structural   NdY2Sc7(Si5Ir2)4
_chemical_formula_sum   'Nd1 Y2 Sc7 Si20 Ir8'
_cell_volume   647.97315344
_cell_formula_units_Z   1
loop_
 _symmetry_equiv_pos_site_id
 _symmetry_equiv_pos_as_xyz
  1  'x, y, z'
loop_
 _atom_site_type_symbol
 _atom_site_label
 _atom_site_symmetry_multiplicity
 _atom_site_fract_x
 _atom_site_fract_y
 _atom_site_fract_z
 _atom_site_occupancy
  Nd  Nd0  1  0.115820  0.615716  0.500000  1
  Y  Y1  1  0.883935  0.383873  0.500000  1
  Y  Y2  1  0.615393  0.884668  0.500000  1
  Sc  Sc3  1  0.384307  0.115713  0.500000  1
  Sc  Sc4  1  0.672991  0.174061  0.500000  1
  Sc  Sc5  1  0.326473  0.827573  0.500000  1
  Sc  Sc6  1  0.174998  0.324448  0.500000  1
  Sc  Sc7  1  0.825352  0.674075  0.500000  1
  Sc  Sc8  1  0.000454  0.000515  0.000000  1
  Sc  Sc9  1  0.500429  0.499435  0.000000  1
  Si  Si10  1  0.566322  0.067749  0.000000  1
  Si  Si11  1  0.432381  0.933839  0.000000  1
  Si  Si12  1  0.068122  0.430820  0.000000  1
  Si  Si13  1  0.931094  0.567795  0.000000  1
  Si  Si14  1  0.200865  0.165047  0.000000  1
  Si  Si15  1  0.799642  0.834942  0.000000  1
  Si  Si16  1  0.166159  0.802559  0.000000  1
  Si  Si17  1  0.698462  0.333762  0.000000  1
  Si  Si18  1  0.833983  0.199541  0.000000  1
  Si  Si19  1  0.301536  0.665889  0.000000  1
  Si  Si20  1  0.665229  0.699445  0.000000  1
  Si  Si21  1  0.335102  0.298092  0.000000  1
  Si  Si22  1  0.007804  0.150458  0.500000  1
  Si  Si23  1  0.992022  0.850760  0.500000  1
  Si  Si24  1  0.152828  0.994130  0.500000  1
  Si  Si25  1  0.506466  0.347173  0.500000  1
  Si  Si26  1  0.848951  0.008948  0.500000  1
  Si  Si27  1  0.491527  0.651023  0.500000  1
  Si  Si28  1  0.650306  0.507067  0.500000  1
  Si  Si29  1  0.350582  0.491399  0.500000  1
  Ir  Ir30  1  0.020824  0.242827  0.000000  1
  Ir  Ir31  1  0.978119  0.758367  0.000000  1
  Ir  Ir32  1  0.246532  0.981467  0.000000  1
  Ir  Ir33  1  0.519003  0.253504  0.000000  1
  Ir  Ir34  1  0.754821  0.020626  0.000000  1
  Ir  Ir35  1  0.479882  0.745201  0.000000  1
  Ir  Ir36  1  0.742867  0.520145  0.000000  1
  Ir  Ir37  1  0.258414  0.477351  0.000000  1
