# generated using pymatgen
data_Th2TcMoN6
_symmetry_space_group_name_H-M   'P 1'
_cell_length_a   5.58018119
_cell_length_b   5.67449300
_cell_length_c   7.92330472
_cell_angle_alpha   90.00000000
_cell_angle_beta   90.07519263
_cell_angle_gamma   90.00000000
_symmetry_Int_Tables_number   1
_chemical_formula_structural   Th2TcMoN6
_chemical_formula_sum   'Th4 Tc2 Mo2 N12'
_cell_volume   250.88884386
_cell_formula_units_Z   2
loop_
 _symmetry_equiv_pos_site_id
 _symmetry_equiv_pos_as_xyz
  1  'x, y, z'
loop_
 _atom_site_type_symbol
 _atom_site_label
 _atom_site_symmetry_multiplicity
 _atom_site_fract_x
 _atom_site_fract_y
 _atom_site_fract_z
 _atom_site_occupancy
  Th  Th0  1  0.504222  0.547148  0.249903  1
  Th  Th1  1  0.995778  0.047148  0.250097  1
  Th  Th2  1  0.495778  0.452852  0.750097  1
  Th  Th3  1  0.004222  0.952852  0.749903  1
  Tc  Tc4  1  0.000000  0.500000  0.000000  1
  Tc  Tc5  1  0.500000  0.000000  0.500000  1
  Mo  Mo6  1  0.000000  0.500000  0.500000  1
  Mo  Mo7  1  0.500000  0.000000  0.000000  1
  N  N8  1  0.425631  0.982649  0.249698  1
  N  N9  1  0.074369  0.482649  0.250302  1
  N  N10  1  0.574369  0.017351  0.750302  1
  N  N11  1  0.925631  0.517351  0.749698  1
  N  N12  1  0.800630  0.798428  0.038897  1
  N  N13  1  0.699370  0.298428  0.461103  1
  N  N14  1  0.199258  0.201618  0.539044  1
  N  N15  1  0.300742  0.701618  0.960956  1
  N  N16  1  0.199370  0.201572  0.961103  1
  N  N17  1  0.300630  0.701572  0.538897  1
  N  N18  1  0.800742  0.798382  0.460956  1
  N  N19  1  0.699258  0.298382  0.039044  1
