# generated using pymatgen
data_DyHo2Zn3Ge2Pt
_symmetry_space_group_name_H-M   'P 1'
_cell_length_a   6.92809502
_cell_length_b   6.92709144
_cell_length_c   4.26649300
_cell_angle_alpha   90.00000000
_cell_angle_beta   90.00000000
_cell_angle_gamma   119.99521431
_symmetry_Int_Tables_number   1
_chemical_formula_structural   DyHo2Zn3Ge2Pt
_chemical_formula_sum   'Dy1 Ho2 Zn3 Ge2 Pt1'
_cell_volume   177.33210392
_cell_formula_units_Z   1
loop_
 _symmetry_equiv_pos_site_id
 _symmetry_equiv_pos_as_xyz
  1  'x, y, z'
loop_
 _atom_site_type_symbol
 _atom_site_label
 _atom_site_symmetry_multiplicity
 _atom_site_fract_x
 _atom_site_fract_y
 _atom_site_fract_z
 _atom_site_occupancy
  Dy  Dy0  1  0.000000  0.587188  0.500000  1
  Ho  Ho1  1  0.412718  0.412698  0.500000  1
  Ho  Ho2  1  0.587282  0.999980  0.500000  1
  Zn  Zn3  1  0.762535  0.762622  0.000000  1
  Zn  Zn4  1  0.237465  0.000087  0.000000  1
  Zn  Zn5  1  0.000000  0.237350  0.000000  1
  Ge  Ge6  1  0.666525  0.333229  0.000000  1
  Ge  Ge7  1  0.333475  0.666704  0.000000  1
  Pt  Pt8  1  0.000000  0.000143  0.500000  1
