# generated using pymatgen
data_TbTm(HfPt)2
_symmetry_space_group_name_H-M   'P 1'
_cell_length_a   4.65583600
_cell_length_b   7.06240045
_cell_length_c   8.19935237
_cell_angle_alpha   89.81557788
_cell_angle_beta   90.00000000
_cell_angle_gamma   90.00000000
_symmetry_Int_Tables_number   1
_chemical_formula_structural   TbTm(HfPt)2
_chemical_formula_sum   'Tb2 Tm2 Hf4 Pt4'
_cell_volume   269.60461026
_cell_formula_units_Z   2
loop_
 _symmetry_equiv_pos_site_id
 _symmetry_equiv_pos_as_xyz
  1  'x, y, z'
loop_
 _atom_site_type_symbol
 _atom_site_label
 _atom_site_symmetry_multiplicity
 _atom_site_fract_x
 _atom_site_fract_y
 _atom_site_fract_z
 _atom_site_occupancy
  Tb  Tb0  1  0.750000  0.015295  0.679319  1
  Tb  Tb1  1  0.250000  0.984705  0.320681  1
  Tm  Tm2  1  0.750000  0.516554  0.822537  1
  Tm  Tm3  1  0.250000  0.483446  0.177463  1
  Hf  Hf4  1  0.750000  0.645534  0.421599  1
  Hf  Hf5  1  0.250000  0.354466  0.578401  1
  Hf  Hf6  1  0.750000  0.147666  0.077147  1
  Hf  Hf7  1  0.250000  0.852334  0.922853  1
  Pt  Pt8  1  0.750000  0.272688  0.404124  1
  Pt  Pt9  1  0.250000  0.727312  0.595876  1
  Pt  Pt10  1  0.750000  0.769195  0.093321  1
  Pt  Pt11  1  0.250000  0.230805  0.906679  1
