# generated using pymatgen
data_Hf6Cu16Si7H3
_symmetry_space_group_name_H-M   'P 1'
_cell_length_a   8.30674007
_cell_length_b   8.30697143
_cell_length_c   8.30949557
_cell_angle_alpha   120.42843585
_cell_angle_beta   120.21963516
_cell_angle_gamma   89.41971677
_symmetry_Int_Tables_number   1
_chemical_formula_structural   Hf6Cu16Si7H3
_chemical_formula_sum   'Hf6 Cu16 Si7 H3'
_cell_volume   403.50741444
_cell_formula_units_Z   1
loop_
 _symmetry_equiv_pos_site_id
 _symmetry_equiv_pos_as_xyz
  1  'x, y, z'
loop_
 _atom_site_type_symbol
 _atom_site_label
 _atom_site_symmetry_multiplicity
 _atom_site_fract_x
 _atom_site_fract_y
 _atom_site_fract_z
 _atom_site_occupancy
  Hf  Hf0  1  0.802516  0.197342  0.999435  1
  Hf  Hf1  1  0.802648  0.803139  0.605352  1
  Hf  Hf2  1  0.785236  0.785290  0.000000  1
  Hf  Hf3  1  0.197908  0.803209  0.000582  1
  Hf  Hf4  1  0.197851  0.197331  0.394737  1
  Hf  Hf5  1  0.205819  0.205761  0.999993  1
  Cu  Cu6  1  0.476657  0.823210  0.653692  1
  Cu  Cu7  1  0.169485  0.822972  0.346343  1
  Cu  Cu8  1  0.166164  0.829934  0.663653  1
  Cu  Cu9  1  0.166262  0.502539  0.336420  1
  Cu  Cu10  1  0.509903  0.169196  0.340442  1
  Cu  Cu11  1  0.828837  0.169464  0.659671  1
  Cu  Cu12  1  0.830283  0.165767  0.335286  1
  Cu  Cu13  1  0.830496  0.494886  0.664557  1
  Cu  Cu14  1  0.854900  0.615726  0.239351  1
  Cu  Cu15  1  0.376326  0.615500  0.760651  1
  Cu  Cu16  1  0.382731  0.621082  0.238668  1
  Cu  Cu17  1  0.382231  0.144093  0.761374  1
  Cu  Cu18  1  0.143939  0.381955  0.761632  1
  Cu  Cu19  1  0.620275  0.382300  0.238406  1
  Cu  Cu20  1  0.614542  0.375225  0.760281  1
  Cu  Cu21  1  0.614820  0.854290  0.239612  1
  Si  Si22  1  0.497237  0.496181  0.497062  1
  Si  Si23  1  0.497235  0.000131  0.001076  1
  Si  Si24  1  0.498702  0.998678  0.499956  1
  Si  Si25  1  0.999092  0.000155  0.502936  1
  Si  Si26  1  0.999069  0.496141  0.998927  1
  Si  Si27  1  0.998115  0.498133  0.500039  1
  Si  Si28  1  0.499538  0.499526  0.999990  1
  H  H29  1  0.040891  0.040569  0.999801  1
  H  H30  1  0.764841  0.915041  0.849815  1
  H  H31  1  0.065248  0.915034  0.150263  1
