# generated using pymatgen
data_LiCeSmZn3Ru
_symmetry_space_group_name_H-M   'P 1'
_cell_length_a   7.17832000
_cell_length_b   7.22937571
_cell_length_c   5.13711469
_cell_angle_alpha   90.25418687
_cell_angle_beta   90.00000000
_cell_angle_gamma   90.00000000
_symmetry_Int_Tables_number   1
_chemical_formula_structural   LiCeSmZn3Ru
_chemical_formula_sum   'Li2 Ce2 Sm2 Zn6 Ru2'
_cell_volume   266.58677351
_cell_formula_units_Z   2
loop_
 _symmetry_equiv_pos_site_id
 _symmetry_equiv_pos_as_xyz
  1  'x, y, z'
loop_
 _atom_site_type_symbol
 _atom_site_label
 _atom_site_symmetry_multiplicity
 _atom_site_fract_x
 _atom_site_fract_y
 _atom_site_fract_z
 _atom_site_occupancy
  Li  Li0  1  0.190360  0.686961  0.294915  1
  Li  Li1  1  0.809640  0.686961  0.294915  1
  Ce  Ce2  1  0.000000  0.996105  0.011847  1
  Ce  Ce3  1  0.500000  0.504420  0.007549  1
  Sm  Sm4  1  0.000000  0.495876  0.755217  1
  Sm  Sm5  1  0.500000  0.005371  0.234951  1
  Zn  Zn6  1  0.815206  0.317847  0.285616  1
  Zn  Zn7  1  0.313042  0.185354  0.712685  1
  Zn  Zn8  1  0.184794  0.317847  0.285616  1
  Zn  Zn9  1  0.686958  0.185354  0.712685  1
  Zn  Zn10  1  0.691364  0.808549  0.709964  1
  Zn  Zn11  1  0.308636  0.808549  0.709964  1
  Ru  Ru12  1  0.500000  0.493246  0.492375  1
  Ru  Ru13  1  0.000000  0.007561  0.491700  1
