# generated using pymatgen
data_ZrPaZnNi2
_symmetry_space_group_name_H-M   'P 1'
_cell_length_a   7.22538900
_cell_length_b   7.01617400
_cell_length_c   3.44595500
_cell_angle_alpha   90.00000000
_cell_angle_beta   90.00000000
_cell_angle_gamma   90.00000000
_symmetry_Int_Tables_number   1
_chemical_formula_structural   ZrPaZnNi2
_chemical_formula_sum   'Zr2 Pa2 Zn2 Ni4'
_cell_volume   174.69126362
_cell_formula_units_Z   2
loop_
 _symmetry_equiv_pos_site_id
 _symmetry_equiv_pos_as_xyz
  1  'x, y, z'
loop_
 _atom_site_type_symbol
 _atom_site_label
 _atom_site_symmetry_multiplicity
 _atom_site_fract_x
 _atom_site_fract_y
 _atom_site_fract_z
 _atom_site_occupancy
  Zr  Zr0  1  0.320372  0.177809  0.500000  1
  Zr  Zr1  1  0.820372  0.322191  0.500000  1
  Pa  Pa2  1  0.176737  0.669112  0.500000  1
  Pa  Pa3  1  0.676737  0.830888  0.500000  1
  Zn  Zn4  1  0.003549  0.017407  0.000000  1
  Zn  Zn5  1  0.503549  0.482593  0.000000  1
  Ni  Ni6  1  0.124647  0.381847  0.000000  1
  Ni  Ni7  1  0.374696  0.861696  0.000000  1
  Ni  Ni8  1  0.624647  0.118153  0.000000  1
  Ni  Ni9  1  0.874696  0.638304  0.000000  1
