# generated using pymatgen
data_Tb11TmIn20
_symmetry_space_group_name_H-M   'P 1'
_cell_length_a   6.53068501
_cell_length_b   10.45306000
_cell_length_c   12.32378100
_cell_angle_alpha   90.00000000
_cell_angle_beta   89.99675387
_cell_angle_gamma   90.00000000
_symmetry_Int_Tables_number   1
_chemical_formula_structural   Tb11TmIn20
_chemical_formula_sum   'Tb11 Tm1 In20'
_cell_volume   841.29082363
_cell_formula_units_Z   1
loop_
 _symmetry_equiv_pos_site_id
 _symmetry_equiv_pos_as_xyz
  1  'x, y, z'
loop_
 _atom_site_type_symbol
 _atom_site_label
 _atom_site_symmetry_multiplicity
 _atom_site_fract_x
 _atom_site_fract_y
 _atom_site_fract_z
 _atom_site_occupancy
  Tb  Tb0  1  0.350239  0.750000  0.056438  1
  Tb  Tb1  1  0.149971  0.750000  0.556515  1
  Tb  Tb2  1  0.649895  0.250000  0.943167  1
  Tb  Tb3  1  0.890121  0.493229  0.142254  1
  Tb  Tb4  1  0.610232  0.007476  0.641809  1
  Tb  Tb5  1  0.109472  0.993595  0.857671  1
  Tb  Tb6  1  0.390518  0.506779  0.357748  1
  Tb  Tb7  1  0.109472  0.506405  0.857671  1
  Tb  Tb8  1  0.390518  0.993221  0.357748  1
  Tb  Tb9  1  0.890121  0.006771  0.142254  1
  Tb  Tb10  1  0.610232  0.492524  0.641809  1
  Tm  Tm11  1  0.849411  0.250000  0.443686  1
  In  In12  1  0.617828  0.750000  0.505455  1
  In  In13  1  0.881967  0.750000  0.005290  1
  In  In14  1  0.384687  0.250000  0.494577  1
  In  In15  1  0.117855  0.250000  0.995077  1
  In  In16  1  0.652110  0.750000  0.246008  1
  In  In17  1  0.847894  0.750000  0.745770  1
  In  In18  1  0.347980  0.250000  0.753750  1
  In  In19  1  0.150501  0.250000  0.254888  1
  In  In20  1  0.124101  0.750000  0.284703  1
  In  In21  1  0.375474  0.750000  0.784816  1
  In  In22  1  0.875651  0.250000  0.714672  1
  In  In23  1  0.624338  0.250000  0.216202  1
  In  In24  1  0.875291  0.543263  0.401350  1
  In  In25  1  0.624705  0.955702  0.901238  1
  In  In26  1  0.124748  0.044586  0.598522  1
  In  In27  1  0.374964  0.455725  0.098904  1
  In  In28  1  0.124748  0.455414  0.598522  1
  In  In29  1  0.374964  0.044275  0.098904  1
  In  In30  1  0.875291  0.956737  0.401350  1
  In  In31  1  0.624705  0.544298  0.901238  1
