# generated using pymatgen
data_Gd4CSe3
_symmetry_space_group_name_H-M   'P 1'
_cell_length_a   7.11585608
_cell_length_b   7.11585784
_cell_length_c   7.15115400
_cell_angle_alpha   79.30914670
_cell_angle_beta   79.30914401
_cell_angle_gamma   32.47835484
_symmetry_Int_Tables_number   1
_chemical_formula_structural   Gd4CSe3
_chemical_formula_sum   'Gd4 C1 Se3'
_cell_volume   190.77759567
_cell_formula_units_Z   1
loop_
 _symmetry_equiv_pos_site_id
 _symmetry_equiv_pos_as_xyz
  1  'x, y, z'
loop_
 _atom_site_type_symbol
 _atom_site_label
 _atom_site_symmetry_multiplicity
 _atom_site_fract_x
 _atom_site_fract_y
 _atom_site_fract_z
 _atom_site_occupancy
  Gd  Gd0  1  0.230554  0.230554  0.225604  1
  Gd  Gd1  1  0.511762  0.511762  0.455894  1
  Gd  Gd2  1  0.738177  0.738177  0.794253  1
  Gd  Gd3  1  0.019512  0.019512  0.024403  1
  C  C4  1  0.625035  0.625035  0.124873  1
  Se  Se5  1  0.866496  0.866496  0.378444  1
  Se  Se6  1  0.125012  0.125012  0.624953  1
  Se  Se7  1  0.383452  0.383452  0.871578  1
