# generated using pymatgen
data_Tm5Ni18Ir
_symmetry_space_group_name_H-M   'P 1'
_cell_length_a   4.87693301
_cell_length_b   4.87693256
_cell_length_c   16.49952661
_cell_angle_alpha   81.50111247
_cell_angle_beta   81.50111421
_cell_angle_gamma   60.00000035
_symmetry_Int_Tables_number   1
_chemical_formula_structural   Tm5Ni18Ir
_chemical_formula_sum   'Tm5 Ni18 Ir1'
_cell_volume   334.87124408
_cell_formula_units_Z   1
loop_
 _symmetry_equiv_pos_site_id
 _symmetry_equiv_pos_as_xyz
  1  'x, y, z'
loop_
 _atom_site_type_symbol
 _atom_site_label
 _atom_site_symmetry_multiplicity
 _atom_site_fract_x
 _atom_site_fract_y
 _atom_site_fract_z
 _atom_site_occupancy
  Tm  Tm0  1  0.000000  0.000000  0.000000  1
  Tm  Tm1  1  0.922209  0.922209  0.233373  1
  Tm  Tm2  1  0.077791  0.077791  0.766627  1
  Tm  Tm3  1  0.848892  0.848892  0.453325  1
  Tm  Tm4  1  0.151108  0.151108  0.546675  1
  Ni  Ni5  1  0.748255  0.748256  0.755235  1
  Ni  Ni6  1  0.251744  0.251744  0.244766  1
  Ni  Ni7  1  0.666725  0.666725  0.999827  1
  Ni  Ni8  1  0.333275  0.333275  0.000173  1
  Ni  Ni9  1  0.585204  0.585204  0.244388  1
  Ni  Ni10  1  0.414796  0.414796  0.755612  1
  Ni  Ni11  1  0.376800  0.376800  0.366638  1
  Ni  Ni12  1  0.879762  0.376800  0.366638  1
  Ni  Ni13  1  0.376800  0.879762  0.366638  1
  Ni  Ni14  1  0.623200  0.623200  0.633362  1
  Ni  Ni15  1  0.120238  0.623200  0.633362  1
  Ni  Ni16  1  0.623200  0.120238  0.633362  1
  Ni  Ni17  1  0.459427  0.459427  0.121395  1
  Ni  Ni18  1  0.959751  0.459427  0.121395  1
  Ni  Ni19  1  0.459427  0.959751  0.121395  1
  Ni  Ni20  1  0.540573  0.540573  0.878605  1
  Ni  Ni21  1  0.040249  0.540573  0.878605  1
  Ni  Ni22  1  0.540573  0.040249  0.878605  1
  Ir  Ir23  1  0.500000  0.500000  0.500000  1
