# generated using pymatgen
data_Yb4Ta(MoO4)3
_symmetry_space_group_name_H-M   'P 1'
_cell_length_a   5.45188552
_cell_length_b   5.72071407
_cell_length_c   7.86808311
_cell_angle_alpha   89.93312610
_cell_angle_beta   89.48277365
_cell_angle_gamma   90.23352592
_symmetry_Int_Tables_number   1
_chemical_formula_structural   Yb4Ta(MoO4)3
_chemical_formula_sum   'Yb4 Ta1 Mo3 O12'
_cell_volume   245.38289728
_cell_formula_units_Z   1
loop_
 _symmetry_equiv_pos_site_id
 _symmetry_equiv_pos_as_xyz
  1  'x, y, z'
loop_
 _atom_site_type_symbol
 _atom_site_label
 _atom_site_symmetry_multiplicity
 _atom_site_fract_x
 _atom_site_fract_y
 _atom_site_fract_z
 _atom_site_occupancy
  Yb  Yb0  1  0.019219  0.057373  0.751815  1
  Yb  Yb1  1  0.516560  0.438381  0.253202  1
  Yb  Yb2  1  0.483440  0.561619  0.746798  1
  Yb  Yb3  1  0.980781  0.942627  0.248185  1
  Ta  Ta4  1  0.000000  0.500000  0.500000  1
  Mo  Mo5  1  0.500000  0.000000  0.000000  1
  Mo  Mo6  1  0.000000  0.500000  0.000000  1
  Mo  Mo7  1  0.500000  0.000000  0.500000  1
  O  O8  1  0.297195  0.312666  0.550993  1
  O  O9  1  0.815805  0.209647  0.441030  1
  O  O10  1  0.196645  0.796278  0.943101  1
  O  O11  1  0.702299  0.697174  0.062006  1
  O  O12  1  0.702805  0.687334  0.449007  1
  O  O13  1  0.184195  0.790353  0.558970  1
  O  O14  1  0.803355  0.203722  0.056899  1
  O  O15  1  0.297701  0.302826  0.937994  1
  O  O16  1  0.891003  0.456776  0.742863  1
  O  O17  1  0.386956  0.044237  0.242889  1
  O  O18  1  0.613044  0.955763  0.757111  1
  O  O19  1  0.108997  0.543224  0.257137  1
