# generated using pymatgen
data_TbLu9CoBi5
_symmetry_space_group_name_H-M   'P 1'
_cell_length_a   7.91572600
_cell_length_b   9.28893100
_cell_length_c   11.91180200
_cell_angle_alpha   90.00000000
_cell_angle_beta   90.00000000
_cell_angle_gamma   90.00000000
_symmetry_Int_Tables_number   1
_chemical_formula_structural   TbLu9CoBi5
_chemical_formula_sum   'Tb2 Lu18 Co2 Bi10'
_cell_volume   875.85851321
_cell_formula_units_Z   2
loop_
 _symmetry_equiv_pos_site_id
 _symmetry_equiv_pos_as_xyz
  1  'x, y, z'
loop_
 _atom_site_type_symbol
 _atom_site_label
 _atom_site_symmetry_multiplicity
 _atom_site_fract_x
 _atom_site_fract_y
 _atom_site_fract_z
 _atom_site_occupancy
  Tb  Tb0  1  0.090165  0.500000  0.718482  1
  Tb  Tb1  1  0.909835  0.500000  0.218482  1
  Lu  Lu2  1  0.427770  0.174144  0.563086  1
  Lu  Lu3  1  0.572230  0.825856  0.063086  1
  Lu  Lu4  1  0.071166  0.731200  0.436920  1
  Lu  Lu5  1  0.928834  0.268800  0.936920  1
  Lu  Lu6  1  0.071166  0.268800  0.436920  1
  Lu  Lu7  1  0.928834  0.731200  0.936920  1
  Lu  Lu8  1  0.427770  0.825856  0.563086  1
  Lu  Lu9  1  0.572230  0.174144  0.063086  1
  Lu  Lu10  1  0.571825  0.500000  0.771544  1
  Lu  Lu11  1  0.428175  0.500000  0.271544  1
  Lu  Lu12  1  0.907649  0.000000  0.200245  1
  Lu  Lu13  1  0.092351  0.000000  0.700245  1
  Lu  Lu14  1  0.258617  0.500000  0.993504  1
  Lu  Lu15  1  0.741383  0.500000  0.493504  1
  Lu  Lu16  1  0.195890  0.000000  0.996887  1
  Lu  Lu17  1  0.804110  0.000000  0.496887  1
  Lu  Lu18  1  0.369819  0.000000  0.310290  1
  Lu  Lu19  1  0.630181  0.000000  0.810290  1
  Co  Co20  1  0.171599  0.000000  0.488300  1
  Co  Co21  1  0.828401  0.000000  0.988300  1
  Bi  Bi22  1  0.811507  0.741605  0.671785  1
  Bi  Bi23  1  0.188493  0.258395  0.171785  1
  Bi  Bi24  1  0.678728  0.240873  0.325787  1
  Bi  Bi25  1  0.321272  0.759127  0.825787  1
  Bi  Bi26  1  0.678728  0.759127  0.325787  1
  Bi  Bi27  1  0.321272  0.240873  0.825787  1
  Bi  Bi28  1  0.811507  0.258395  0.671785  1
  Bi  Bi29  1  0.188493  0.741605  0.171785  1
  Bi  Bi30  1  0.348604  0.500000  0.525592  1
  Bi  Bi31  1  0.651396  0.500000  0.025592  1
