# generated using pymatgen
data_Er2Ni6P7Ru6
_symmetry_space_group_name_H-M   'P 1'
_cell_length_a   9.28320400
_cell_length_b   9.28320494
_cell_length_c   3.71958500
_cell_angle_alpha   90.00000000
_cell_angle_beta   90.00000000
_cell_angle_gamma   120.00000995
_symmetry_Int_Tables_number   1
_chemical_formula_structural   Er2Ni6P7Ru6
_chemical_formula_sum   'Er2 Ni6 P7 Ru6'
_cell_volume   277.60092459
_cell_formula_units_Z   1
loop_
 _symmetry_equiv_pos_site_id
 _symmetry_equiv_pos_as_xyz
  1  'x, y, z'
loop_
 _atom_site_type_symbol
 _atom_site_label
 _atom_site_symmetry_multiplicity
 _atom_site_fract_x
 _atom_site_fract_y
 _atom_site_fract_z
 _atom_site_occupancy
  Er  Er0  1  0.666667  0.333333  0.500000  1
  Er  Er1  1  0.333333  0.666667  0.000000  1
  Ni  Ni2  1  0.719568  0.882071  0.000000  1
  Ni  Ni3  1  0.934464  0.364949  0.000000  1
  Ni  Ni4  1  0.162503  0.280432  0.000000  1
  Ni  Ni5  1  0.117929  0.837497  0.000000  1
  Ni  Ni6  1  0.430485  0.065536  0.000000  1
  Ni  Ni7  1  0.635051  0.569515  0.000000  1
  P  P8  1  0.414775  0.296112  0.000000  1
  P  P9  1  0.286741  0.883756  0.500000  1
  P  P10  1  0.703888  0.118663  0.000000  1
  P  P11  1  0.597016  0.713259  0.500000  1
  P  P12  1  0.881337  0.585225  0.000000  1
  P  P13  1  0.116244  0.402984  0.500000  1
  P  P14  1  0.000000  0.000000  0.000000  1
  Ru  Ru15  1  0.209848  0.087287  0.500000  1
  Ru  Ru16  1  0.912713  0.122561  0.500000  1
  Ru  Ru17  1  0.389681  0.436609  0.500000  1
  Ru  Ru18  1  0.046928  0.610319  0.500000  1
  Ru  Ru19  1  0.563391  0.953072  0.500000  1
  Ru  Ru20  1  0.877439  0.790152  0.500000  1
