# generated using pymatgen
data_Tb4Al6IrRu
_symmetry_space_group_name_H-M   'P 1'
_cell_length_a   5.54297500
_cell_length_b   5.54297424
_cell_length_c   8.73599200
_cell_angle_alpha   90.00000000
_cell_angle_beta   90.00000000
_cell_angle_gamma   120.00001048
_symmetry_Int_Tables_number   1
_chemical_formula_structural   Tb4Al6IrRu
_chemical_formula_sum   'Tb4 Al6 Ir1 Ru1'
_cell_volume   232.44948795
_cell_formula_units_Z   1
loop_
 _symmetry_equiv_pos_site_id
 _symmetry_equiv_pos_as_xyz
  1  'x, y, z'
loop_
 _atom_site_type_symbol
 _atom_site_label
 _atom_site_symmetry_multiplicity
 _atom_site_fract_x
 _atom_site_fract_y
 _atom_site_fract_z
 _atom_site_occupancy
  Tb  Tb0  1  0.333333  0.666667  0.448808  1
  Tb  Tb1  1  0.666667  0.333333  0.946515  1
  Tb  Tb2  1  0.333333  0.666667  0.053485  1
  Tb  Tb3  1  0.666667  0.333333  0.551192  1
  Al  Al4  1  0.838054  0.676107  0.250012  1
  Al  Al5  1  0.838054  0.161946  0.250012  1
  Al  Al6  1  0.161946  0.838054  0.749988  1
  Al  Al7  1  0.323893  0.161946  0.250012  1
  Al  Al8  1  0.676107  0.838054  0.749988  1
  Al  Al9  1  0.161946  0.323893  0.749988  1
  Ir  Ir10  1  0.000000  0.000000  0.500000  1
  Ru  Ru11  1  0.000000  0.000000  0.000000  1
