# generated using pymatgen
data_Nd8AlCo2Si12Rh
_symmetry_space_group_name_H-M   'P 1'
_cell_length_a   8.16680800
_cell_length_b   8.16680783
_cell_length_c   8.47651000
_cell_angle_alpha   90.00000000
_cell_angle_beta   90.00000000
_cell_angle_gamma   120.00000069
_symmetry_Int_Tables_number   1
_chemical_formula_structural   Nd8AlCo2Si12Rh
_chemical_formula_sum   'Nd8 Al1 Co2 Si12 Rh1'
_cell_volume   489.61237876
_cell_formula_units_Z   1
loop_
 _symmetry_equiv_pos_site_id
 _symmetry_equiv_pos_as_xyz
  1  'x, y, z'
loop_
 _atom_site_type_symbol
 _atom_site_label
 _atom_site_symmetry_multiplicity
 _atom_site_fract_x
 _atom_site_fract_y
 _atom_site_fract_z
 _atom_site_occupancy
  Nd  Nd0  1  0.000000  0.000000  0.746051  1
  Nd  Nd1  1  0.000000  0.000000  0.253956  1
  Nd  Nd2  1  0.497494  0.502506  0.743757  1
  Nd  Nd3  1  0.497494  0.994989  0.743757  1
  Nd  Nd4  1  0.005011  0.502506  0.743757  1
  Nd  Nd5  1  0.498847  0.501153  0.256144  1
  Nd  Nd6  1  0.002307  0.501153  0.256144  1
  Nd  Nd7  1  0.498847  0.997693  0.256144  1
  Al  Al8  1  0.666667  0.333333  0.996416  1
  Co  Co9  1  0.666667  0.333333  0.502668  1
  Co  Co10  1  0.333333  0.666667  0.497449  1
  Si  Si11  1  0.839119  0.160881  0.999990  1
  Si  Si12  1  0.839119  0.678238  0.999990  1
  Si  Si13  1  0.321762  0.160881  0.999990  1
  Si  Si14  1  0.828075  0.171925  0.500752  1
  Si  Si15  1  0.828075  0.656150  0.500752  1
  Si  Si16  1  0.343850  0.171925  0.500752  1
  Si  Si17  1  0.171896  0.828104  0.499342  1
  Si  Si18  1  0.656208  0.828104  0.499342  1
  Si  Si19  1  0.171896  0.343792  0.499342  1
  Si  Si20  1  0.169584  0.830416  0.000314  1
  Si  Si21  1  0.660832  0.830416  0.000314  1
  Si  Si22  1  0.169584  0.339168  0.000314  1
  Rh  Rh23  1  0.333333  0.666667  0.002565  1
