# generated using pymatgen
data_Ac3Mg2(AgSn2)2
_symmetry_space_group_name_H-M   'P 1'
_cell_length_a   9.16601720
_cell_length_b   9.40124108
_cell_length_c   9.40124223
_cell_angle_alpha   148.92903086
_cell_angle_beta   131.56264158
_cell_angle_gamma   58.91659404
_symmetry_Int_Tables_number   1
_chemical_formula_structural   Ac3Mg2(AgSn2)2
_chemical_formula_sum   'Ac3 Mg2 Ag2 Sn4'
_cell_volume   309.99251730
_cell_formula_units_Z   1
loop_
 _symmetry_equiv_pos_site_id
 _symmetry_equiv_pos_as_xyz
  1  'x, y, z'
loop_
 _atom_site_type_symbol
 _atom_site_label
 _atom_site_symmetry_multiplicity
 _atom_site_fract_x
 _atom_site_fract_y
 _atom_site_fract_z
 _atom_site_occupancy
  Ac  Ac0  1  0.349977  0.872850  0.477128  1
  Ac  Ac1  1  0.650023  0.127150  0.522872  1
  Ac  Ac2  1  0.000000  0.000000  0.000000  1
  Mg  Mg3  1  0.643591  0.329486  0.314107  1
  Mg  Mg4  1  0.356409  0.670514  0.685893  1
  Ag  Ag5  1  0.014711  0.333201  0.681512  1
  Ag  Ag6  1  0.985289  0.666799  0.318488  1
  Sn  Sn7  1  0.210245  0.218201  0.992044  1
  Sn  Sn8  1  0.789755  0.781799  0.007956  1
  Sn  Sn9  1  0.692411  0.498401  0.194010  1
  Sn  Sn10  1  0.307589  0.501599  0.805990  1
