# generated using pymatgen
data_Tm4VTcOs6
_symmetry_space_group_name_H-M   'P 1'
_cell_length_a   5.43387105
_cell_length_b   5.20439399
_cell_length_c   8.85378200
_cell_angle_alpha   90.00000000
_cell_angle_beta   90.00000000
_cell_angle_gamma   121.45163166
_symmetry_Int_Tables_number   1
_chemical_formula_structural   Tm4VTcOs6
_chemical_formula_sum   'Tm4 V1 Tc1 Os6'
_cell_volume   213.59867853
_cell_formula_units_Z   1
loop_
 _symmetry_equiv_pos_site_id
 _symmetry_equiv_pos_as_xyz
  1  'x, y, z'
loop_
 _atom_site_type_symbol
 _atom_site_label
 _atom_site_symmetry_multiplicity
 _atom_site_fract_x
 _atom_site_fract_y
 _atom_site_fract_z
 _atom_site_occupancy
  Tm  Tm0  1  0.668347  0.337257  0.564097  1
  Tm  Tm1  1  0.330584  0.660843  0.434557  1
  Tm  Tm2  1  0.330584  0.660843  0.065443  1
  Tm  Tm3  1  0.668347  0.337257  0.935903  1
  V  V4  1  0.169511  0.338745  0.750000  1
  Tc  Tc5  1  0.833334  0.666311  0.250000  1
  Os  Os6  1  0.000640  0.001970  0.503071  1
  Os  Os7  1  0.000640  0.001970  0.996929  1
  Os  Os8  1  0.173387  0.824493  0.750000  1
  Os  Os9  1  0.650878  0.824346  0.750000  1
  Os  Os10  1  0.826230  0.173240  0.250000  1
  Os  Os11  1  0.347516  0.172727  0.250000  1
