# generated using pymatgen
data_Pr8ErLuIn6
_symmetry_space_group_name_H-M   'P 1'
_cell_length_a   6.29050261
_cell_length_b   9.42438274
_cell_length_c   9.42438300
_cell_angle_alpha   83.76493534
_cell_angle_beta   70.81534894
_cell_angle_gamma   70.81534576
_symmetry_Int_Tables_number   1
_chemical_formula_structural   Pr8ErLuIn6
_chemical_formula_sum   'Pr8 Er1 Lu1 In6'
_cell_volume   498.38193730
_cell_formula_units_Z   1
loop_
 _symmetry_equiv_pos_site_id
 _symmetry_equiv_pos_as_xyz
  1  'x, y, z'
loop_
 _atom_site_type_symbol
 _atom_site_label
 _atom_site_symmetry_multiplicity
 _atom_site_fract_x
 _atom_site_fract_y
 _atom_site_fract_z
 _atom_site_occupancy
  Pr  Pr0  1  0.720593  0.864335  0.691479  1
  Pr  Pr1  1  0.279216  0.135634  0.308637  1
  Pr  Pr2  1  0.779407  0.308521  0.135665  1
  Pr  Pr3  1  0.220784  0.691363  0.864366  1
  Pr  Pr4  1  0.585020  0.691784  0.135522  1
  Pr  Pr5  1  0.415121  0.308267  0.864571  1
  Pr  Pr6  1  0.084879  0.135429  0.691733  1
  Pr  Pr7  1  0.914980  0.864478  0.308216  1
  Er  Er8  1  0.750000  0.501134  0.498866  1
  Lu  Lu9  1  0.250000  0.498934  0.501066  1
  In  In10  1  0.156046  0.500503  0.188115  1
  In  In11  1  0.843682  0.499618  0.811900  1
  In  In12  1  0.343954  0.811885  0.499497  1
  In  In13  1  0.656318  0.188100  0.500382  1
  In  In14  1  0.250000  0.000080  0.999920  1
  In  In15  1  0.750000  0.999939  0.000061  1
