# generated using pymatgen
data_Zr2TiGa3
_symmetry_space_group_name_H-M   'P 1'
_cell_length_a   5.58362200
_cell_length_b   8.55520600
_cell_length_c   9.13625100
_cell_angle_alpha   90.00000000
_cell_angle_beta   90.00000000
_cell_angle_gamma   90.00000000
_symmetry_Int_Tables_number   1
_chemical_formula_structural   Zr2TiGa3
_chemical_formula_sum   'Zr8 Ti4 Ga12'
_cell_volume   436.42990691
_cell_formula_units_Z   4
loop_
 _symmetry_equiv_pos_site_id
 _symmetry_equiv_pos_as_xyz
  1  'x, y, z'
loop_
 _atom_site_type_symbol
 _atom_site_label
 _atom_site_symmetry_multiplicity
 _atom_site_fract_x
 _atom_site_fract_y
 _atom_site_fract_z
 _atom_site_occupancy
  Zr  Zr0  1  0.750000  0.472563  0.616937  1
  Zr  Zr1  1  0.250000  0.527437  0.383063  1
  Zr  Zr2  1  0.750000  0.972563  0.383063  1
  Zr  Zr3  1  0.250000  0.027437  0.616937  1
  Zr  Zr4  1  0.750000  0.362192  0.188291  1
  Zr  Zr5  1  0.250000  0.637808  0.811709  1
  Zr  Zr6  1  0.750000  0.862192  0.811709  1
  Zr  Zr7  1  0.250000  0.137808  0.188291  1
  Ti  Ti8  1  0.000000  0.750000  0.109526  1
  Ti  Ti9  1  0.500000  0.250000  0.890474  1
  Ti  Ti10  1  0.000000  0.250000  0.890474  1
  Ti  Ti11  1  0.500000  0.750000  0.109526  1
  Ga  Ga12  1  0.000000  0.750000  0.565867  1
  Ga  Ga13  1  0.500000  0.250000  0.434133  1
  Ga  Ga14  1  0.000000  0.250000  0.434133  1
  Ga  Ga15  1  0.500000  0.750000  0.565867  1
  Ga  Ga16  1  0.750000  0.045119  0.080569  1
  Ga  Ga17  1  0.250000  0.954881  0.919431  1
  Ga  Ga18  1  0.750000  0.545119  0.919431  1
  Ga  Ga19  1  0.250000  0.454881  0.080569  1
  Ga  Ga20  1  0.750000  0.135824  0.661072  1
  Ga  Ga21  1  0.250000  0.864176  0.338928  1
  Ga  Ga22  1  0.750000  0.635824  0.338928  1
  Ga  Ga23  1  0.250000  0.364176  0.661072  1
