# generated using pymatgen
data_Dy5Si9P3Ru5Rh14
_symmetry_space_group_name_H-M   'P 1'
_cell_length_a   12.77042897
_cell_length_b   12.76514097
_cell_length_c   3.95486600
_cell_angle_alpha   90.00000000
_cell_angle_beta   90.00000000
_cell_angle_gamma   120.05177191
_symmetry_Int_Tables_number   1
_chemical_formula_structural   Dy5Si9P3Ru5Rh14
_chemical_formula_sum   'Dy5 Si9 P3 Ru5 Rh14'
_cell_volume   558.04176478
_cell_formula_units_Z   1
loop_
 _symmetry_equiv_pos_site_id
 _symmetry_equiv_pos_as_xyz
  1  'x, y, z'
loop_
 _atom_site_type_symbol
 _atom_site_label
 _atom_site_symmetry_multiplicity
 _atom_site_fract_x
 _atom_site_fract_y
 _atom_site_fract_z
 _atom_site_occupancy
  Dy  Dy0  1  0.666718  0.331806  0.000000  1
  Dy  Dy1  1  0.335196  0.670110  0.000000  1
  Dy  Dy2  1  0.812818  0.001588  0.500000  1
  Dy  Dy3  1  0.183525  0.186016  0.500000  1
  Dy  Dy4  1  0.999513  0.813945  0.500000  1
  Si  Si5  1  0.624987  0.997207  0.000000  1
  Si  Si6  1  0.373315  0.373369  0.000000  1
  Si  Si7  1  0.000157  0.626135  0.000000  1
  Si  Si8  1  0.686832  0.523500  0.500000  1
  Si  Si9  1  0.836442  0.309650  0.500000  1
  Si  Si10  1  0.314498  0.839485  0.500000  1
  Si  Si11  1  0.525752  0.689387  0.500000  1
  Si  Si12  1  0.474055  0.161983  0.500000  1
  Si  Si13  1  0.164287  0.477234  0.500000  1
  P  P14  1  0.179693  0.000000  0.000000  1
  P  P15  1  0.819766  0.818227  0.000000  1
  P  P16  1  0.997502  0.181208  0.000000  1
  Ru  Ru17  1  0.514019  0.874385  0.500000  1
  Ru  Ru18  1  0.727443  0.725345  0.500000  1
  Ru  Ru19  1  0.002583  0.275884  0.500000  1
  Ru  Ru20  1  0.817459  0.190148  0.000000  1
  Ru  Ru21  1  0.271846  0.000149  0.500000  1
  Rh  Rh22  1  0.627993  0.807669  0.000000  1
  Rh  Rh23  1  0.184162  0.374685  0.000000  1
  Rh  Rh24  1  0.372115  0.182295  0.000000  1
  Rh  Rh25  1  0.190097  0.817785  0.000000  1
  Rh  Rh26  1  0.809824  0.625637  0.000000  1
  Rh  Rh27  1  0.872684  0.510560  0.500000  1
  Rh  Rh28  1  0.487051  0.359973  0.500000  1
  Rh  Rh29  1  0.637070  0.126288  0.500000  1
  Rh  Rh30  1  0.126984  0.640307  0.500000  1
  Rh  Rh31  1  0.362069  0.488725  0.500000  1
  Rh  Rh32  1  0.999494  0.000291  0.000000  1
  Rh  Rh33  1  0.441081  0.000463  0.000000  1
  Rh  Rh34  1  0.558861  0.555509  0.000000  1
  Rh  Rh35  1  0.002112  0.443048  0.000000  1
