# generated using pymatgen
data_Pr2EuDy3(Co3P2)6
_symmetry_space_group_name_H-M   'P 1'
_cell_length_a   3.74574400
_cell_length_b   10.62549324
_cell_length_c   12.29406261
_cell_angle_alpha   90.07454384
_cell_angle_beta   90.00000000
_cell_angle_gamma   90.00000000
_symmetry_Int_Tables_number   1
_chemical_formula_structural   Pr2EuDy3(Co3P2)6
_chemical_formula_sum   'Pr2 Eu1 Dy3 Co18 P12'
_cell_volume   489.30791942
_cell_formula_units_Z   1
loop_
 _symmetry_equiv_pos_site_id
 _symmetry_equiv_pos_as_xyz
  1  'x, y, z'
loop_
 _atom_site_type_symbol
 _atom_site_label
 _atom_site_symmetry_multiplicity
 _atom_site_fract_x
 _atom_site_fract_y
 _atom_site_fract_z
 _atom_site_occupancy
  Pr  Pr0  1  0.000000  0.499397  0.522506  1
  Pr  Pr1  1  0.500000  0.000331  0.478075  1
  Eu  Eu2  1  0.500000  0.819040  0.205011  1
  Dy  Dy3  1  0.500000  0.182767  0.204464  1
  Dy  Dy4  1  0.000000  0.682355  0.795457  1
  Dy  Dy5  1  0.000000  0.317440  0.795170  1
  Co  Co6  1  0.500000  0.499312  0.155405  1
  Co  Co7  1  0.000000  0.001059  0.843757  1
  Co  Co8  1  0.500000  0.499833  0.706854  1
  Co  Co9  1  0.000000  0.002980  0.293744  1
  Co  Co10  1  0.000000  0.499469  0.986584  1
  Co  Co11  1  0.500000  0.001331  0.011319  1
  Co  Co12  1  0.500000  0.333289  0.994578  1
  Co  Co13  1  0.500000  0.665820  0.993893  1
  Co  Co14  1  0.000000  0.167589  0.004480  1
  Co  Co15  1  0.000000  0.833222  0.002835  1
  Co  Co16  1  0.500000  0.296466  0.428958  1
  Co  Co17  1  0.500000  0.702846  0.431058  1
  Co  Co18  1  0.000000  0.203563  0.571472  1
  Co  Co19  1  0.000000  0.796453  0.572388  1
  Co  Co20  1  0.500000  0.879967  0.713653  1
  Co  Co21  1  0.500000  0.120242  0.712993  1
  Co  Co22  1  0.000000  0.617434  0.288832  1
  Co  Co23  1  0.000000  0.378881  0.286484  1
  P  P24  1  0.500000  0.499642  0.884201  1
  P  P25  1  0.000000  0.001245  0.113923  1
  P  P26  1  0.500000  0.499752  0.337817  1
  P  P27  1  0.000000  0.999903  0.662000  1
  P  P28  1  0.500000  0.306109  0.617693  1
  P  P29  1  0.500000  0.693582  0.618553  1
  P  P30  1  0.000000  0.194380  0.382311  1
  P  P31  1  0.000000  0.804708  0.384547  1
  P  P32  1  0.500000  0.846103  0.894923  1
  P  P33  1  0.500000  0.154047  0.894047  1
  P  P34  1  0.000000  0.652645  0.104868  1
  P  P35  1  0.000000  0.346798  0.105148  1
