# generated using pymatgen
data_NpNiAs2Pd
_symmetry_space_group_name_H-M   'P 1'
_cell_length_a   4.26823300
_cell_length_b   4.26823300
_cell_length_c   9.59591400
_cell_angle_alpha   90.00000000
_cell_angle_beta   90.00000000
_cell_angle_gamma   90.00000000
_symmetry_Int_Tables_number   1
_chemical_formula_structural   NpNiAs2Pd
_chemical_formula_sum   'Np2 Ni2 As4 Pd2'
_cell_volume   174.81656626
_cell_formula_units_Z   2
loop_
 _symmetry_equiv_pos_site_id
 _symmetry_equiv_pos_as_xyz
  1  'x, y, z'
loop_
 _atom_site_type_symbol
 _atom_site_label
 _atom_site_symmetry_multiplicity
 _atom_site_fract_x
 _atom_site_fract_y
 _atom_site_fract_z
 _atom_site_occupancy
  Np  Np0  1  0.000000  0.500000  0.761325  1
  Np  Np1  1  0.500000  0.000000  0.238675  1
  Ni  Ni2  1  0.000000  0.500000  0.109115  1
  Ni  Ni3  1  0.500000  0.000000  0.890885  1
  As  As4  1  0.000000  0.500000  0.348174  1
  As  As5  1  0.000000  0.000000  0.000000  1
  As  As6  1  0.500000  0.000000  0.651826  1
  As  As7  1  0.500000  0.500000  0.000000  1
  Pd  Pd8  1  0.000000  0.000000  0.500000  1
  Pd  Pd9  1  0.500000  0.500000  0.500000  1
