# generated using pymatgen
data_Sc8Tl3Co
_symmetry_space_group_name_H-M   'P 1'
_cell_length_a   9.75075100
_cell_length_b   9.74576129
_cell_length_c   6.51273200
_cell_angle_alpha   90.00000000
_cell_angle_beta   90.00000000
_cell_angle_gamma   119.98612083
_symmetry_Int_Tables_number   1
_chemical_formula_structural   Sc8Tl3Co
_chemical_formula_sum   'Sc16 Tl6 Co2'
_cell_volume   536.05382140
_cell_formula_units_Z   2
loop_
 _symmetry_equiv_pos_site_id
 _symmetry_equiv_pos_as_xyz
  1  'x, y, z'
loop_
 _atom_site_type_symbol
 _atom_site_label
 _atom_site_symmetry_multiplicity
 _atom_site_fract_x
 _atom_site_fract_y
 _atom_site_fract_z
 _atom_site_occupancy
  Sc  Sc0  1  0.532099  0.064186  0.519921  1
  Sc  Sc1  1  0.935844  0.467917  0.519920  1
  Sc  Sc2  1  0.532105  0.467929  0.519903  1
  Sc  Sc3  1  0.467901  0.935814  0.019921  1
  Sc  Sc4  1  0.064156  0.532083  0.019920  1
  Sc  Sc5  1  0.467895  0.532071  0.019903  1
  Sc  Sc6  1  0.180364  0.360784  0.733103  1
  Sc  Sc7  1  0.639200  0.819608  0.733098  1
  Sc  Sc8  1  0.180360  0.819596  0.733127  1
  Sc  Sc9  1  0.819636  0.639216  0.233103  1
  Sc  Sc10  1  0.360800  0.180392  0.233098  1
  Sc  Sc11  1  0.819640  0.180404  0.233127  1
  Sc  Sc12  1  0.666623  0.333301  0.910318  1
  Sc  Sc13  1  0.333377  0.666699  0.410318  1
  Sc  Sc14  1  0.999986  0.999985  0.510520  1
  Sc  Sc15  1  0.000014  0.000015  0.010520  1
  Tl  Tl16  1  0.837081  0.674148  0.766742  1
  Tl  Tl17  1  0.325849  0.162932  0.766728  1
  Tl  Tl18  1  0.837096  0.162937  0.766736  1
  Tl  Tl19  1  0.162919  0.325852  0.266742  1
  Tl  Tl20  1  0.674151  0.837068  0.266728  1
  Tl  Tl21  1  0.162904  0.837063  0.266736  1
  Co  Co22  1  0.666664  0.333312  0.297724  1
  Co  Co23  1  0.333336  0.666688  0.797724  1
