# generated using pymatgen
data_Be4Rh2W6C
_symmetry_space_group_name_H-M   'P 1'
_cell_length_a   7.70030684
_cell_length_b   7.70030693
_cell_length_c   7.70030600
_cell_angle_alpha   59.99999540
_cell_angle_beta   59.99999500
_cell_angle_gamma   59.99999706
_symmetry_Int_Tables_number   1
_chemical_formula_structural   Be4Rh2W6C
_chemical_formula_sum   'Be8 Rh4 W12 C2'
_cell_volume   322.85611156
_cell_formula_units_Z   2
loop_
 _symmetry_equiv_pos_site_id
 _symmetry_equiv_pos_as_xyz
  1  'x, y, z'
loop_
 _atom_site_type_symbol
 _atom_site_label
 _atom_site_symmetry_multiplicity
 _atom_site_fract_x
 _atom_site_fract_y
 _atom_site_fract_z
 _atom_site_occupancy
  Be  Be0  1  0.917882  0.246355  0.917882  1
  Be  Be1  1  0.332118  0.003645  0.332118  1
  Be  Be2  1  0.332118  0.332118  0.332118  1
  Be  Be3  1  0.003645  0.332118  0.332118  1
  Be  Be4  1  0.917882  0.917882  0.246355  1
  Be  Be5  1  0.246355  0.917882  0.917882  1
  Be  Be6  1  0.332118  0.332118  0.003645  1
  Be  Be7  1  0.917882  0.917882  0.917882  1
  Rh  Rh8  1  0.125000  0.125000  0.625000  1
  Rh  Rh9  1  0.125000  0.625000  0.125000  1
  Rh  Rh10  1  0.125000  0.125000  0.125000  1
  Rh  Rh11  1  0.625000  0.125000  0.125000  1
  W  W12  1  0.303651  0.696349  0.696349  1
  W  W13  1  0.303651  0.303651  0.696349  1
  W  W14  1  0.553651  0.946349  0.553651  1
  W  W15  1  0.946349  0.553651  0.553651  1
  W  W16  1  0.553651  0.946349  0.946349  1
  W  W17  1  0.696349  0.303651  0.303651  1
  W  W18  1  0.946349  0.553651  0.946349  1
  W  W19  1  0.303651  0.696349  0.303651  1
  W  W20  1  0.553651  0.553651  0.946349  1
  W  W21  1  0.696349  0.303651  0.696349  1
  W  W22  1  0.696349  0.696349  0.303651  1
  W  W23  1  0.946349  0.946349  0.553651  1
  C  C24  1  0.750000  0.750000  0.750000  1
  C  C25  1  0.500000  0.500000  0.500000  1
