# generated using pymatgen
data_Er2Cd4CuNi13B4
_symmetry_space_group_name_H-M   'P 1'
_cell_length_a   4.98739419
_cell_length_b   4.98857573
_cell_length_c   14.01006636
_cell_angle_alpha   90.00051399
_cell_angle_beta   89.74968982
_cell_angle_gamma   120.08103228
_symmetry_Int_Tables_number   1
_chemical_formula_structural   Er2Cd4CuNi13B4
_chemical_formula_sum   'Er2 Cd4 Cu1 Ni13 B4'
_cell_volume   301.62016241
_cell_formula_units_Z   1
loop_
 _symmetry_equiv_pos_site_id
 _symmetry_equiv_pos_as_xyz
  1  'x, y, z'
loop_
 _atom_site_type_symbol
 _atom_site_label
 _atom_site_symmetry_multiplicity
 _atom_site_fract_x
 _atom_site_fract_y
 _atom_site_fract_z
 _atom_site_occupancy
  Er  Er0  1  0.667477  0.333876  0.749923  1
  Er  Er1  1  0.332523  0.666124  0.250077  1
  Cd  Cd2  1  0.333343  0.666679  0.471404  1
  Cd  Cd3  1  0.666681  0.333487  0.970012  1
  Cd  Cd4  1  0.666657  0.333321  0.528596  1
  Cd  Cd5  1  0.333319  0.666513  0.029988  1
  Cu  Cu6  1  0.000000  0.000000  0.000000  1
  Ni  Ni7  1  0.833056  0.166113  0.352900  1
  Ni  Ni8  1  0.832234  0.666927  0.352880  1
  Ni  Ni9  1  0.000000  0.000000  0.500000  1
  Ni  Ni10  1  0.832866  0.665553  0.147809  1
  Ni  Ni11  1  0.166944  0.833887  0.647100  1
  Ni  Ni12  1  0.669262  0.835119  0.647177  1
  Ni  Ni13  1  0.334051  0.166796  0.147746  1
  Ni  Ni14  1  0.832836  0.166592  0.147716  1
  Ni  Ni15  1  0.167134  0.334447  0.852191  1
  Ni  Ni16  1  0.167164  0.833408  0.852284  1
  Ni  Ni17  1  0.167766  0.333073  0.647120  1
  Ni  Ni18  1  0.665949  0.833204  0.852254  1
  Ni  Ni19  1  0.330738  0.164881  0.352823  1
  B  B20  1  0.665924  0.332858  0.250187  1
  B  B21  1  0.334076  0.667142  0.749813  1
  B  B22  1  0.000709  0.000485  0.750270  1
  B  B23  1  0.999291  0.999515  0.249730  1
