# generated using pymatgen
data_Mn4VSi2Os
_symmetry_space_group_name_H-M   'P 1'
_cell_length_a   7.01411164
_cell_length_b   7.01411238
_cell_length_c   7.01411204
_cell_angle_alpha   33.59479171
_cell_angle_beta   33.59478269
_cell_angle_gamma   33.59479893
_symmetry_Int_Tables_number   1
_chemical_formula_structural   Mn4VSi2Os
_chemical_formula_sum   'Mn4 V1 Si2 Os1'
_cell_volume   94.10961324
_cell_formula_units_Z   1
loop_
 _symmetry_equiv_pos_site_id
 _symmetry_equiv_pos_as_xyz
  1  'x, y, z'
loop_
 _atom_site_type_symbol
 _atom_site_label
 _atom_site_symmetry_multiplicity
 _atom_site_fract_x
 _atom_site_fract_y
 _atom_site_fract_z
 _atom_site_occupancy
  Mn  Mn0  1  0.003917  0.003917  0.003917  1
  Mn  Mn1  1  0.124147  0.124147  0.124147  1
  Mn  Mn2  1  0.875141  0.875141  0.875141  1
  Mn  Mn3  1  0.375088  0.375088  0.375088  1
  V  V4  1  0.496252  0.496252  0.496252  1
  Si  Si5  1  0.246731  0.246731  0.246731  1
  Si  Si6  1  0.752876  0.752876  0.752876  1
  Os  Os7  1  0.625848  0.625848  0.625848  1
