# generated using pymatgen
data_NaY(Al3Pd)3
_symmetry_space_group_name_H-M   'P 1'
_cell_length_a   7.63784400
_cell_length_b   7.63642115
_cell_length_c   9.47622400
_cell_angle_alpha   90.00000000
_cell_angle_beta   90.00000000
_cell_angle_gamma   119.65334097
_symmetry_Int_Tables_number   1
_chemical_formula_structural   NaY(Al3Pd)3
_chemical_formula_sum   'Na2 Y2 Al18 Pd6'
_cell_volume   480.32268029
_cell_formula_units_Z   2
loop_
 _symmetry_equiv_pos_site_id
 _symmetry_equiv_pos_as_xyz
  1  'x, y, z'
loop_
 _atom_site_type_symbol
 _atom_site_label
 _atom_site_symmetry_multiplicity
 _atom_site_fract_x
 _atom_site_fract_y
 _atom_site_fract_z
 _atom_site_occupancy
  Na  Na0  1  0.992225  0.668659  0.250000  1
  Na  Na1  1  0.007775  0.331341  0.750000  1
  Y  Y2  1  0.673296  0.999262  0.250000  1
  Y  Y3  1  0.326704  0.000738  0.750000  1
  Al  Al4  1  0.126103  0.133368  0.250000  1
  Al  Al5  1  0.873897  0.866632  0.750000  1
  Al  Al6  1  0.001353  0.338978  0.074374  1
  Al  Al7  1  0.998647  0.661022  0.925626  1
  Al  Al8  1  0.998647  0.661022  0.574374  1
  Al  Al9  1  0.330071  0.996114  0.419026  1
  Al  Al10  1  0.001353  0.338978  0.425626  1
  Al  Al11  1  0.669929  0.003886  0.580974  1
  Al  Al12  1  0.669929  0.003886  0.919026  1
  Al  Al13  1  0.330071  0.996114  0.080974  1
  Al  Al14  1  0.330846  0.332699  0.555383  1
  Al  Al15  1  0.669154  0.667301  0.444617  1
  Al  Al16  1  0.669154  0.667301  0.055383  1
  Al  Al17  1  0.330846  0.332699  0.944617  1
  Al  Al18  1  0.343483  0.550473  0.250000  1
  Al  Al19  1  0.656517  0.449527  0.750000  1
  Al  Al20  1  0.542784  0.336722  0.250000  1
  Al  Al21  1  0.457216  0.663278  0.750000  1
  Pd  Pd22  1  0.667385  0.324820  0.000830  1
  Pd  Pd23  1  0.332615  0.675180  0.999170  1
  Pd  Pd24  1  0.332615  0.675180  0.500830  1
  Pd  Pd25  1  0.667385  0.324820  0.499170  1
  Pd  Pd26  1  0.000000  0.000000  0.000000  1
  Pd  Pd27  1  0.000000  0.000000  0.500000  1
