# generated using pymatgen
data_HoTmFe6(P3Ir2)2
_symmetry_space_group_name_H-M   'P 1'
_cell_length_a   3.78837700
_cell_length_b   10.23285300
_cell_length_c   12.17940700
_cell_angle_alpha   90.00000000
_cell_angle_beta   90.00000000
_cell_angle_gamma   90.00000000
_symmetry_Int_Tables_number   1
_chemical_formula_structural   HoTmFe6(P3Ir2)2
_chemical_formula_sum   'Ho2 Tm2 Fe12 P12 Ir8'
_cell_volume   472.14573410
_cell_formula_units_Z   2
loop_
 _symmetry_equiv_pos_site_id
 _symmetry_equiv_pos_as_xyz
  1  'x, y, z'
loop_
 _atom_site_type_symbol
 _atom_site_label
 _atom_site_symmetry_multiplicity
 _atom_site_fract_x
 _atom_site_fract_y
 _atom_site_fract_z
 _atom_site_occupancy
  Ho  Ho0  1  0.250000  0.580911  0.713188  1
  Ho  Ho1  1  0.250000  0.919089  0.213188  1
  Tm  Tm2  1  0.750000  0.419127  0.286886  1
  Tm  Tm3  1  0.750000  0.080873  0.786886  1
  Fe  Fe4  1  0.250000  0.223308  0.170528  1
  Fe  Fe5  1  0.250000  0.276692  0.670528  1
  Fe  Fe6  1  0.750000  0.777123  0.829584  1
  Fe  Fe7  1  0.750000  0.722877  0.329584  1
  Fe  Fe8  1  0.250000  0.877562  0.695733  1
  Fe  Fe9  1  0.250000  0.622438  0.195733  1
  Fe  Fe10  1  0.750000  0.122962  0.304418  1
  Fe  Fe11  1  0.750000  0.377038  0.804418  1
  Fe  Fe12  1  0.250000  0.457794  0.937276  1
  Fe  Fe13  1  0.250000  0.042206  0.437276  1
  Fe  Fe14  1  0.750000  0.542063  0.062947  1
  Fe  Fe15  1  0.750000  0.957937  0.562947  1
  P  P16  1  0.250000  0.428473  0.113979  1
  P  P17  1  0.250000  0.071527  0.613979  1
  P  P18  1  0.750000  0.571456  0.886367  1
  P  P19  1  0.750000  0.928544  0.386367  1
  P  P20  1  0.250000  0.272358  0.851745  1
  P  P21  1  0.250000  0.227642  0.351745  1
  P  P22  1  0.750000  0.727289  0.148129  1
  P  P23  1  0.750000  0.772711  0.648129  1
  P  P24  1  0.250000  0.603570  0.374788  1
  P  P25  1  0.250000  0.896430  0.874788  1
  P  P26  1  0.750000  0.396132  0.625087  1
  P  P27  1  0.750000  0.103868  0.125087  1
  Ir  Ir28  1  0.250000  0.709437  0.983889  1
  Ir  Ir29  1  0.250000  0.790563  0.483889  1
  Ir  Ir30  1  0.750000  0.290587  0.016065  1
  Ir  Ir31  1  0.750000  0.209413  0.516065  1
  Ir  Ir32  1  0.250000  0.405575  0.475055  1
  Ir  Ir33  1  0.250000  0.094425  0.975055  1
  Ir  Ir34  1  0.750000  0.594460  0.524337  1
  Ir  Ir35  1  0.750000  0.905540  0.024337  1
