# generated using pymatgen
data_Cs6DyErCl12
_symmetry_space_group_name_H-M   'P 1'
_cell_length_a   9.45782000
_cell_length_b   9.45204117
_cell_length_c   7.85009600
_cell_angle_alpha   90.00000000
_cell_angle_beta   90.00000000
_cell_angle_gamma   90.07979066
_symmetry_Int_Tables_number   1
_chemical_formula_structural   Cs6DyErCl12
_chemical_formula_sum   'Cs6 Dy1 Er1 Cl12'
_cell_volume   701.76417771
_cell_formula_units_Z   1
loop_
 _symmetry_equiv_pos_site_id
 _symmetry_equiv_pos_as_xyz
  1  'x, y, z'
loop_
 _atom_site_type_symbol
 _atom_site_label
 _atom_site_symmetry_multiplicity
 _atom_site_fract_x
 _atom_site_fract_y
 _atom_site_fract_z
 _atom_site_occupancy
  Cs  Cs0  1  0.000000  0.000000  0.500000  1
  Cs  Cs1  1  0.000000  0.000000  0.000000  1
  Cs  Cs2  1  0.236225  0.583802  0.500000  1
  Cs  Cs3  1  0.763775  0.416198  0.500000  1
  Cs  Cs4  1  0.416434  0.235169  0.000000  1
  Cs  Cs5  1  0.583566  0.764831  0.000000  1
  Dy  Dy6  1  0.000000  0.500000  0.000000  1
  Er  Er7  1  0.500000  0.000000  0.500000  1
  Cl  Cl8  1  0.689655  0.057371  0.737537  1
  Cl  Cl9  1  0.310345  0.942629  0.737537  1
  Cl  Cl10  1  0.942170  0.691404  0.239570  1
  Cl  Cl11  1  0.057830  0.308596  0.239570  1
  Cl  Cl12  1  0.310345  0.942629  0.262463  1
  Cl  Cl13  1  0.689655  0.057371  0.262463  1
  Cl  Cl14  1  0.057830  0.308596  0.760430  1
  Cl  Cl15  1  0.942170  0.691404  0.760430  1
  Cl  Cl16  1  0.570798  0.732139  0.500000  1
  Cl  Cl17  1  0.429202  0.267861  0.500000  1
  Cl  Cl18  1  0.270286  0.571456  0.000000  1
  Cl  Cl19  1  0.729714  0.428544  0.000000  1
