# generated using pymatgen
data_NiSb12OsRh2
_symmetry_space_group_name_H-M   'P 1'
_cell_length_a   8.08468630
_cell_length_b   8.07882454
_cell_length_c   9.34082544
_cell_angle_alpha   54.59644783
_cell_angle_beta   55.03182208
_cell_angle_gamma   70.59521869
_symmetry_Int_Tables_number   1
_chemical_formula_structural   NiSb12OsRh2
_chemical_formula_sum   'Ni1 Sb12 Os1 Rh2'
_cell_volume   407.50830608
_cell_formula_units_Z   1
loop_
 _symmetry_equiv_pos_site_id
 _symmetry_equiv_pos_as_xyz
  1  'x, y, z'
loop_
 _atom_site_type_symbol
 _atom_site_label
 _atom_site_symmetry_multiplicity
 _atom_site_fract_x
 _atom_site_fract_y
 _atom_site_fract_z
 _atom_site_occupancy
  Ni  Ni0  1  0.500000  0.000000  0.500000  1
  Sb  Sb1  1  0.155620  0.154096  0.184757  1
  Sb  Sb2  1  0.844380  0.845904  0.815243  1
  Sb  Sb3  1  0.841687  0.845682  0.494548  1
  Sb  Sb4  1  0.158313  0.154318  0.505452  1
  Sb  Sb5  1  0.816852  0.507370  0.337890  1
  Sb  Sb6  1  0.183148  0.492630  0.662110  1
  Sb  Sb7  1  0.503892  0.816635  0.343113  1
  Sb  Sb8  1  0.496108  0.183365  0.656887  1
  Sb  Sb9  1  0.663367  0.339044  0.843759  1
  Sb  Sb10  1  0.336633  0.660956  0.156241  1
  Sb  Sb11  1  0.657326  0.336845  0.159320  1
  Sb  Sb12  1  0.342674  0.663155  0.840680  1
  Os  Os13  1  0.000000  0.500000  0.500000  1
  Rh  Rh14  1  0.000000  0.500000  0.000000  1
  Rh  Rh15  1  0.500000  0.000000  0.000000  1
