# generated using pymatgen
data_Tb2Er10TcOs3
_symmetry_space_group_name_H-M   'P 1'
_cell_length_a   6.26607530
_cell_length_b   7.37826179
_cell_length_c   8.97907300
_cell_angle_alpha   90.00000000
_cell_angle_beta   90.00000000
_cell_angle_gamma   90.04040084
_symmetry_Int_Tables_number   1
_chemical_formula_structural   Tb2Er10TcOs3
_chemical_formula_sum   'Tb2 Er10 Tc1 Os3'
_cell_volume   415.12707934
_cell_formula_units_Z   1
loop_
 _symmetry_equiv_pos_site_id
 _symmetry_equiv_pos_as_xyz
  1  'x, y, z'
loop_
 _atom_site_type_symbol
 _atom_site_label
 _atom_site_symmetry_multiplicity
 _atom_site_fract_x
 _atom_site_fract_y
 _atom_site_fract_z
 _atom_site_occupancy
  Tb  Tb0  1  0.873210  0.539847  0.250000  1
  Tb  Tb1  1  0.625511  0.039583  0.250000  1
  Er  Er2  1  0.336027  0.674601  0.061931  1
  Er  Er3  1  0.165198  0.175221  0.437769  1
  Er  Er4  1  0.666586  0.324524  0.563316  1
  Er  Er5  1  0.834879  0.825143  0.936068  1
  Er  Er6  1  0.666586  0.324524  0.936684  1
  Er  Er7  1  0.834879  0.825143  0.563932  1
  Er  Er8  1  0.336027  0.674601  0.438069  1
  Er  Er9  1  0.165198  0.175221  0.062231  1
  Er  Er10  1  0.130210  0.459443  0.750000  1
  Er  Er11  1  0.369293  0.960370  0.750000  1
  Tc  Tc12  1  0.038981  0.882836  0.250000  1
  Os  Os13  1  0.458330  0.382821  0.250000  1
  Os  Os14  1  0.960697  0.118620  0.750000  1
  Os  Os15  1  0.538388  0.617505  0.750000  1
