# generated using pymatgen
data_Dy3Cd5Pd
_symmetry_space_group_name_H-M   'P 1'
_cell_length_a   8.12950000
_cell_length_b   8.12949955
_cell_length_c   3.74122700
_cell_angle_alpha   90.00000000
_cell_angle_beta   90.00000000
_cell_angle_gamma   120.00000183
_symmetry_Int_Tables_number   1
_chemical_formula_structural   Dy3Cd5Pd
_chemical_formula_sum   'Dy3 Cd5 Pd1'
_cell_volume   214.12744272
_cell_formula_units_Z   1
loop_
 _symmetry_equiv_pos_site_id
 _symmetry_equiv_pos_as_xyz
  1  'x, y, z'
loop_
 _atom_site_type_symbol
 _atom_site_label
 _atom_site_symmetry_multiplicity
 _atom_site_fract_x
 _atom_site_fract_y
 _atom_site_fract_z
 _atom_site_occupancy
  Dy  Dy0  1  0.611248  0.031640  0.000000  1
  Dy  Dy1  1  0.968360  0.579608  0.000000  1
  Dy  Dy2  1  0.420392  0.388752  0.000000  1
  Cd  Cd3  1  0.273710  0.994475  0.500000  1
  Cd  Cd4  1  0.005525  0.279235  0.500000  1
  Cd  Cd5  1  0.720765  0.726290  0.500000  1
  Cd  Cd6  1  0.333333  0.666667  0.500000  1
  Cd  Cd7  1  0.000000  0.000000  0.000000  1
  Pd  Pd8  1  0.666667  0.333333  0.500000  1
