# generated using pymatgen
data_Nd5In4AgIr
_symmetry_space_group_name_H-M   'P 1'
_cell_length_a   3.77209800
_cell_length_b   8.43314675
_cell_length_c   18.89675465
_cell_angle_alpha   90.25576930
_cell_angle_beta   90.00000000
_cell_angle_gamma   90.00000000
_symmetry_Int_Tables_number   1
_chemical_formula_structural   Nd5In4AgIr
_chemical_formula_sum   'Nd10 In8 Ag2 Ir2'
_cell_volume   601.11217207
_cell_formula_units_Z   2
loop_
 _symmetry_equiv_pos_site_id
 _symmetry_equiv_pos_as_xyz
  1  'x, y, z'
loop_
 _atom_site_type_symbol
 _atom_site_label
 _atom_site_symmetry_multiplicity
 _atom_site_fract_x
 _atom_site_fract_y
 _atom_site_fract_z
 _atom_site_occupancy
  Nd  Nd0  1  0.000000  0.124694  0.422141  1
  Nd  Nd1  1  0.000000  0.875306  0.577859  1
  Nd  Nd2  1  0.000000  0.384737  0.914353  1
  Nd  Nd3  1  0.000000  0.615263  0.085647  1
  Nd  Nd4  1  0.000000  0.260832  0.217018  1
  Nd  Nd5  1  0.000000  0.739168  0.782982  1
  Nd  Nd6  1  0.000000  0.284606  0.722823  1
  Nd  Nd7  1  0.000000  0.715394  0.277177  1
  Nd  Nd8  1  0.000000  0.000000  0.000000  1
  Nd  Nd9  1  0.000000  0.500000  0.500000  1
  In  In10  1  0.500000  0.424929  0.351162  1
  In  In11  1  0.500000  0.575071  0.648838  1
  In  In12  1  0.500000  0.074675  0.851536  1
  In  In13  1  0.500000  0.925325  0.148464  1
  In  In14  1  0.500000  0.292787  0.068584  1
  In  In15  1  0.500000  0.707213  0.931416  1
  In  In16  1  0.500000  0.208174  0.570666  1
  In  In17  1  0.500000  0.791826  0.429334  1
  Ag  Ag18  1  0.500000  0.016192  0.301041  1
  Ag  Ag19  1  0.500000  0.983808  0.698959  1
  Ir  Ir20  1  0.500000  0.484714  0.804481  1
  Ir  Ir21  1  0.500000  0.515286  0.195519  1
