# generated using pymatgen
data_Ho10In7Ni4Hg
_symmetry_space_group_name_H-M   'P 1'
_cell_length_a   3.58285400
_cell_length_b   7.98101283
_cell_length_c   17.86695768
_cell_angle_alpha   90.13182160
_cell_angle_beta   90.00000000
_cell_angle_gamma   90.00000000
_symmetry_Int_Tables_number   1
_chemical_formula_structural   Ho10In7Ni4Hg
_chemical_formula_sum   'Ho10 In7 Ni4 Hg1'
_cell_volume   510.90079572
_cell_formula_units_Z   1
loop_
 _symmetry_equiv_pos_site_id
 _symmetry_equiv_pos_as_xyz
  1  'x, y, z'
loop_
 _atom_site_type_symbol
 _atom_site_label
 _atom_site_symmetry_multiplicity
 _atom_site_fract_x
 _atom_site_fract_y
 _atom_site_fract_z
 _atom_site_occupancy
  Ho  Ho0  1  0.500000  0.383805  0.588601  1
  Ho  Ho1  1  0.500000  0.884499  0.912042  1
  Ho  Ho2  1  0.500000  0.109408  0.088195  1
  Ho  Ho3  1  0.500000  0.754408  0.722418  1
  Ho  Ho4  1  0.500000  0.253659  0.777764  1
  Ho  Ho5  1  0.500000  0.504107  0.002277  1
  Ho  Ho6  1  0.500000  0.747342  0.218471  1
  Ho  Ho7  1  0.500000  0.245014  0.278694  1
  Ho  Ho8  1  0.500000  0.999585  0.499614  1
  Ho  Ho9  1  0.500000  0.617321  0.410419  1
  In  In10  1  0.000000  0.926296  0.347624  1
  In  In11  1  0.000000  0.071138  0.651298  1
  In  In12  1  0.000000  0.571108  0.849422  1
  In  In13  1  0.000000  0.706166  0.568887  1
  In  In14  1  0.000000  0.207908  0.931085  1
  In  In15  1  0.000000  0.295165  0.431602  1
  In  In16  1  0.000000  0.424115  0.151713  1
  Ni  Ni17  1  0.000000  0.976947  0.803884  1
  Ni  Ni18  1  0.000000  0.523685  0.303473  1
  Ni  Ni19  1  0.000000  0.477899  0.696145  1
  Ni  Ni20  1  0.000000  0.027806  0.197680  1
  Hg  Hg21  1  0.000000  0.792617  0.068692  1
