# generated using pymatgen
data_Dy8Sc2(IrRh)3
_symmetry_space_group_name_H-M   'P 1'
_cell_length_a   10.76374501
_cell_length_b   10.76531000
_cell_length_c   6.29467801
_cell_angle_alpha   90.00000000
_cell_angle_beta   90.00457357
_cell_angle_gamma   90.00000000
_symmetry_Int_Tables_number   1
_chemical_formula_structural   Dy8Sc2(IrRh)3
_chemical_formula_sum   'Dy16 Sc4 Ir6 Rh6'
_cell_volume   729.39613743
_cell_formula_units_Z   2
loop_
 _symmetry_equiv_pos_site_id
 _symmetry_equiv_pos_as_xyz
  1  'x, y, z'
loop_
 _atom_site_type_symbol
 _atom_site_label
 _atom_site_symmetry_multiplicity
 _atom_site_fract_x
 _atom_site_fract_y
 _atom_site_fract_z
 _atom_site_occupancy
  Dy  Dy0  1  0.286446  0.086709  0.379291  1
  Dy  Dy1  1  0.286446  0.913291  0.879291  1
  Dy  Dy2  1  0.712028  0.087905  0.879194  1
  Dy  Dy3  1  0.712028  0.912095  0.379194  1
  Dy  Dy4  1  0.585102  0.786217  0.879843  1
  Dy  Dy5  1  0.585102  0.213783  0.379843  1
  Dy  Dy6  1  0.413083  0.786457  0.379575  1
  Dy  Dy7  1  0.413083  0.213543  0.879575  1
  Dy  Dy8  1  0.213477  0.413159  0.620326  1
  Dy  Dy9  1  0.213477  0.586841  0.120326  1
  Dy  Dy10  1  0.786150  0.414887  0.120257  1
  Dy  Dy11  1  0.786150  0.585113  0.620257  1
  Dy  Dy12  1  0.913666  0.712898  0.120961  1
  Dy  Dy13  1  0.913666  0.287102  0.620961  1
  Dy  Dy14  1  0.088301  0.712680  0.620585  1
  Dy  Dy15  1  0.088301  0.287320  0.120585  1
  Sc  Sc16  1  0.001209  0.999916  0.500072  1
  Sc  Sc17  1  0.001209  0.000084  0.000072  1
  Sc  Sc18  1  0.499985  0.499891  0.999960  1
  Sc  Sc19  1  0.499985  0.500109  0.499960  1
  Ir  Ir20  1  0.146802  0.147728  0.750011  1
  Ir  Ir21  1  0.146802  0.852272  0.250011  1
  Ir  Ir22  1  0.648628  0.351497  0.749933  1
  Ir  Ir23  1  0.648628  0.648503  0.249933  1
  Ir  Ir24  1  0.352142  0.352006  0.250082  1
  Ir  Ir25  1  0.352142  0.647994  0.750082  1
  Rh  Rh26  1  0.852257  0.146852  0.249945  1
  Rh  Rh27  1  0.852257  0.853148  0.749945  1
  Rh  Rh28  1  0.501098  0.000078  0.123764  1
  Rh  Rh29  1  0.501098  0.999922  0.623764  1
  Rh  Rh30  1  0.999625  0.500152  0.876200  1
  Rh  Rh31  1  0.999625  0.499848  0.376200  1
