# generated using pymatgen
data_Pu2UO6
_symmetry_space_group_name_H-M   'P 1'
_cell_length_a   6.60997272
_cell_length_b   6.60997283
_cell_length_c   6.60997229
_cell_angle_alpha   146.19672669
_cell_angle_beta   131.61784073
_cell_angle_gamma   60.32288624
_symmetry_Int_Tables_number   1
_chemical_formula_structural   Pu2UO6
_chemical_formula_sum   'Pu2 U1 O6'
_cell_volume   118.99309694
_cell_formula_units_Z   1
loop_
 _symmetry_equiv_pos_site_id
 _symmetry_equiv_pos_as_xyz
  1  'x, y, z'
loop_
 _atom_site_type_symbol
 _atom_site_label
 _atom_site_symmetry_multiplicity
 _atom_site_fract_x
 _atom_site_fract_y
 _atom_site_fract_z
 _atom_site_occupancy
  Pu  Pu0  1  0.166679  0.666679  0.500000  1
  Pu  Pu1  1  0.833321  0.333321  0.500000  1
  U  U2  1  0.500000  0.000000  0.500000  1
  O  O3  1  0.416766  0.161509  0.255257  1
  O  O4  1  0.259872  0.500000  0.759872  1
  O  O5  1  0.906251  0.161509  0.744743  1
  O  O6  1  0.093749  0.838491  0.255257  1
  O  O7  1  0.740128  0.500000  0.240128  1
  O  O8  1  0.583234  0.838491  0.744743  1
