# generated using pymatgen
data_Ba2TbBrO3
_symmetry_space_group_name_H-M   'P 1'
_cell_length_a   4.46745200
_cell_length_b   4.46745200
_cell_length_c   15.58976000
_cell_angle_alpha   90.00000000
_cell_angle_beta   90.00000000
_cell_angle_gamma   90.00000000
_symmetry_Int_Tables_number   1
_chemical_formula_structural   Ba2TbBrO3
_chemical_formula_sum   'Ba4 Tb2 Br2 O6'
_cell_volume   311.14241578
_cell_formula_units_Z   2
loop_
 _symmetry_equiv_pos_site_id
 _symmetry_equiv_pos_as_xyz
  1  'x, y, z'
loop_
 _atom_site_type_symbol
 _atom_site_label
 _atom_site_symmetry_multiplicity
 _atom_site_fract_x
 _atom_site_fract_y
 _atom_site_fract_z
 _atom_site_occupancy
  Ba  Ba0  1  0.000000  0.500000  0.660603  1
  Ba  Ba1  1  0.500000  0.000000  0.339397  1
  Ba  Ba2  1  0.500000  0.000000  0.091343  1
  Ba  Ba3  1  0.000000  0.500000  0.908657  1
  Tb  Tb4  1  0.000000  0.500000  0.208872  1
  Tb  Tb5  1  0.500000  0.000000  0.791128  1
  Br  Br6  1  0.500000  0.000000  0.577452  1
  Br  Br7  1  0.000000  0.500000  0.422548  1
  O  O8  1  0.000000  0.000000  0.768775  1
  O  O9  1  0.500000  0.500000  0.768775  1
  O  O10  1  0.000000  0.000000  0.231225  1
  O  O11  1  0.500000  0.000000  0.929783  1
  O  O12  1  0.500000  0.500000  0.231225  1
  O  O13  1  0.000000  0.500000  0.070217  1
