# generated using pymatgen
data_Mg2Zr5V(Co4P3)4
_symmetry_space_group_name_H-M   'P 1'
_cell_length_a   11.92250079
_cell_length_b   11.92250075
_cell_length_c   3.63443500
_cell_angle_alpha   90.00000000
_cell_angle_beta   90.00000000
_cell_angle_gamma   119.90860301
_symmetry_Int_Tables_number   1
_chemical_formula_structural   Mg2Zr5V(Co4P3)4
_chemical_formula_sum   'Mg2 Zr5 V1 Co16 P12'
_cell_volume   447.81794747
_cell_formula_units_Z   1
loop_
 _symmetry_equiv_pos_site_id
 _symmetry_equiv_pos_as_xyz
  1  'x, y, z'
loop_
 _atom_site_type_symbol
 _atom_site_label
 _atom_site_symmetry_multiplicity
 _atom_site_fract_x
 _atom_site_fract_y
 _atom_site_fract_z
 _atom_site_occupancy
  Mg  Mg0  1  0.557258  0.000392  0.000000  1
  Mg  Mg1  1  0.000392  0.557258  0.000000  1
  Zr  Zr2  1  0.665725  0.335534  0.000000  1
  Zr  Zr3  1  0.335534  0.665725  0.000000  1
  Zr  Zr4  1  0.815704  0.815704  0.500000  1
  Zr  Zr5  1  0.183797  0.000302  0.500000  1
  Zr  Zr6  1  0.000302  0.183797  0.500000  1
  V  V7  1  0.445266  0.445266  0.000000  1
  Co  Co8  1  0.199109  0.373388  0.000000  1
  Co  Co9  1  0.178315  0.804046  0.000000  1
  Co  Co10  1  0.818864  0.623173  0.000000  1
  Co  Co11  1  0.804046  0.178315  0.000000  1
  Co  Co12  1  0.373388  0.199109  0.000000  1
  Co  Co13  1  0.131774  0.483053  0.500000  1
  Co  Co14  1  0.354691  0.874814  0.500000  1
  Co  Co15  1  0.518108  0.642504  0.500000  1
  Co  Co16  1  0.642504  0.518108  0.500000  1
  Co  Co17  1  0.874814  0.354691  0.500000  1
  Co  Co18  1  0.483053  0.131774  0.500000  1
  Co  Co19  1  0.999834  0.999834  0.000000  1
  Co  Co20  1  0.717099  0.998148  0.500000  1
  Co  Co21  1  0.998148  0.717099  0.500000  1
  Co  Co22  1  0.623173  0.818864  0.000000  1
  Co  Co23  1  0.281602  0.281602  0.500000  1
  P  P24  1  0.640965  0.640965  0.000000  1
  P  P25  1  0.355101  0.001485  0.000000  1
  P  P26  1  0.001485  0.355101  0.000000  1
  P  P27  1  0.481283  0.316403  0.500000  1
  P  P28  1  0.688816  0.172474  0.500000  1
  P  P29  1  0.827539  0.515262  0.500000  1
  P  P30  1  0.515262  0.827539  0.500000  1
  P  P31  1  0.172474  0.688816  0.500000  1
  P  P32  1  0.823233  0.999438  0.000000  1
  P  P33  1  0.999438  0.823233  0.000000  1
  P  P34  1  0.316403  0.481283  0.500000  1
  P  P35  1  0.175502  0.175502  0.000000  1
