# generated using pymatgen
data_Pr5Y(CI5)2
_symmetry_space_group_name_H-M   'P 1'
_cell_length_a   7.93818123
_cell_length_b   9.75767374
_cell_length_c   9.84253906
_cell_angle_alpha   107.09024971
_cell_angle_beta   96.44910384
_cell_angle_gamma   104.39076231
_symmetry_Int_Tables_number   1
_chemical_formula_structural   Pr5Y(CI5)2
_chemical_formula_sum   'Pr5 Y1 C2 I10'
_cell_volume   691.56512064
_cell_formula_units_Z   1
loop_
 _symmetry_equiv_pos_site_id
 _symmetry_equiv_pos_as_xyz
  1  'x, y, z'
loop_
 _atom_site_type_symbol
 _atom_site_label
 _atom_site_symmetry_multiplicity
 _atom_site_fract_x
 _atom_site_fract_y
 _atom_site_fract_z
 _atom_site_occupancy
  Pr  Pr0  1  0.106299  0.039435  0.774693  1
  Pr  Pr1  1  0.373443  0.133215  0.179339  1
  Pr  Pr2  1  0.890631  0.959220  0.224294  1
  Pr  Pr3  1  0.030493  0.733639  0.922402  1
  Pr  Pr4  1  0.967437  0.266219  0.076740  1
  Y  Y5  1  0.632915  0.869475  0.824452  1
  C  C6  1  0.909454  0.969748  0.958605  1
  C  C7  1  0.083691  0.028605  0.039278  1
  I  I8  1  0.207744  0.737446  0.648755  1
  I  I9  1  0.088500  0.370533  0.818519  1
  I  I10  1  0.459193  0.807276  0.084707  1
  I  I11  1  0.252877  0.083779  0.461569  1
  I  I12  1  0.544745  0.182837  0.902351  1
  I  I13  1  0.807575  0.266833  0.357939  1
  I  I14  1  0.344624  0.457513  0.272857  1
  I  I15  1  0.911573  0.629507  0.181117  1
  I  I16  1  0.650400  0.551671  0.727217  1
  I  I17  1  0.738409  0.913051  0.545167  1
