# generated using pymatgen
data_Sm8Nb11Si16W
_symmetry_space_group_name_H-M   'P 1'
_cell_length_a   6.92617388
_cell_length_b   7.14502711
_cell_length_c   13.51297300
_cell_angle_alpha   90.00000000
_cell_angle_beta   90.00000000
_cell_angle_gamma   89.98106701
_symmetry_Int_Tables_number   1
_chemical_formula_structural   Sm8Nb11Si16W
_chemical_formula_sum   'Sm8 Nb11 Si16 W1'
_cell_volume   668.72591850
_cell_formula_units_Z   1
loop_
 _symmetry_equiv_pos_site_id
 _symmetry_equiv_pos_as_xyz
  1  'x, y, z'
loop_
 _atom_site_type_symbol
 _atom_site_label
 _atom_site_symmetry_multiplicity
 _atom_site_fract_x
 _atom_site_fract_y
 _atom_site_fract_z
 _atom_site_occupancy
  Sm  Sm0  1  0.504483  0.670557  0.595837  1
  Sm  Sm1  1  0.004146  0.829920  0.904231  1
  Sm  Sm2  1  0.496635  0.329556  0.096293  1
  Sm  Sm3  1  0.996051  0.169947  0.403531  1
  Sm  Sm4  1  0.496635  0.329556  0.403707  1
  Sm  Sm5  1  0.996051  0.169947  0.096469  1
  Sm  Sm6  1  0.504483  0.670557  0.904163  1
  Sm  Sm7  1  0.004146  0.829920  0.595769  1
  Nb  Nb8  1  0.662750  0.174715  0.625895  1
  Nb  Nb9  1  0.163003  0.325285  0.873788  1
  Nb  Nb10  1  0.336508  0.826664  0.127128  1
  Nb  Nb11  1  0.836182  0.674497  0.372930  1
  Nb  Nb12  1  0.336508  0.826664  0.372872  1
  Nb  Nb13  1  0.836182  0.674497  0.127070  1
  Nb  Nb14  1  0.662750  0.174715  0.874105  1
  Nb  Nb15  1  0.163003  0.325285  0.626212  1
  Nb  Nb16  1  0.838085  0.490792  0.750000  1
  Nb  Nb17  1  0.338381  0.009748  0.750000  1
  Nb  Nb18  1  0.161867  0.509924  0.250000  1
  Si  Si19  1  0.659720  0.959955  0.456028  1
  Si  Si20  1  0.159543  0.539508  0.042122  1
  Si  Si21  1  0.339812  0.039939  0.958482  1
  Si  Si22  1  0.840421  0.460284  0.541834  1
  Si  Si23  1  0.339812  0.039939  0.541518  1
  Si  Si24  1  0.840421  0.460284  0.958166  1
  Si  Si25  1  0.659720  0.959955  0.043972  1
  Si  Si26  1  0.159543  0.539508  0.457878  1
  Si  Si27  1  0.459626  0.373916  0.750000  1
  Si  Si28  1  0.958838  0.127084  0.750000  1
  Si  Si29  1  0.541190  0.627948  0.250000  1
  Si  Si30  1  0.037420  0.874494  0.250000  1
  Si  Si31  1  0.703820  0.878842  0.750000  1
  Si  Si32  1  0.203723  0.621568  0.750000  1
  Si  Si33  1  0.301363  0.121080  0.250000  1
  Si  Si34  1  0.796907  0.375284  0.250000  1
  W  W35  1  0.660270  0.987660  0.250000  1
