# generated using pymatgen
data_Dy3Tm13(In3Rh)2
_symmetry_space_group_name_H-M   'P 1'
_cell_length_a   10.31470500
_cell_length_b   10.31470426
_cell_length_c   6.96474100
_cell_angle_alpha   90.00000000
_cell_angle_beta   90.00000000
_cell_angle_gamma   119.99999916
_symmetry_Int_Tables_number   1
_chemical_formula_structural   Dy3Tm13(In3Rh)2
_chemical_formula_sum   'Dy3 Tm13 In6 Rh2'
_cell_volume   641.72535447
_cell_formula_units_Z   1
loop_
 _symmetry_equiv_pos_site_id
 _symmetry_equiv_pos_as_xyz
  1  'x, y, z'
loop_
 _atom_site_type_symbol
 _atom_site_label
 _atom_site_symmetry_multiplicity
 _atom_site_fract_x
 _atom_site_fract_y
 _atom_site_fract_z
 _atom_site_occupancy
  Dy  Dy0  1  0.531744  0.063489  0.515718  1
  Dy  Dy1  1  0.936511  0.468256  0.515718  1
  Dy  Dy2  1  0.531744  0.468256  0.515718  1
  Tm  Tm3  1  0.466996  0.933991  0.016251  1
  Tm  Tm4  1  0.066009  0.533004  0.016251  1
  Tm  Tm5  1  0.466996  0.533004  0.016251  1
  Tm  Tm6  1  0.176398  0.352795  0.721669  1
  Tm  Tm7  1  0.647205  0.823602  0.721669  1
  Tm  Tm8  1  0.176398  0.823602  0.721669  1
  Tm  Tm9  1  0.823525  0.647050  0.218986  1
  Tm  Tm10  1  0.352950  0.176475  0.218986  1
  Tm  Tm11  1  0.823525  0.176475  0.218986  1
  Tm  Tm12  1  0.666667  0.333333  0.896398  1
  Tm  Tm13  1  0.333333  0.666667  0.395499  1
  Tm  Tm14  1  0.000000  0.000000  0.499758  1
  Tm  Tm15  1  0.000000  0.000000  0.000514  1
  In  In16  1  0.837484  0.674969  0.762403  1
  In  In17  1  0.325031  0.162516  0.762403  1
  In  In18  1  0.837484  0.162516  0.762403  1
  In  In19  1  0.162758  0.325515  0.262381  1
  In  In20  1  0.674485  0.837242  0.262381  1
  In  In21  1  0.162758  0.837242  0.262381  1
  Rh  Rh22  1  0.666667  0.333333  0.285857  1
  Rh  Rh23  1  0.333333  0.666667  0.787756  1
