# generated using pymatgen
data_Dy9Er11Co3Bi8Pt
_symmetry_space_group_name_H-M   'P 1'
_cell_length_a   8.00122800
_cell_length_b   8.93242700
_cell_length_c   12.43113999
_cell_angle_alpha   90.00000000
_cell_angle_beta   90.16025111
_cell_angle_gamma   90.00000000
_symmetry_Int_Tables_number   1
_chemical_formula_structural   Dy9Er11Co3Bi8Pt
_chemical_formula_sum   'Dy9 Er11 Co3 Bi8 Pt1'
_cell_volume   888.45488589
_cell_formula_units_Z   1
loop_
 _symmetry_equiv_pos_site_id
 _symmetry_equiv_pos_as_xyz
  1  'x, y, z'
loop_
 _atom_site_type_symbol
 _atom_site_label
 _atom_site_symmetry_multiplicity
 _atom_site_fract_x
 _atom_site_fract_y
 _atom_site_fract_z
 _atom_site_occupancy
  Dy  Dy0  1  0.653185  0.750000  0.698022  1
  Dy  Dy1  1  0.346277  0.250000  0.301626  1
  Dy  Dy2  1  0.155790  0.250000  0.798955  1
  Dy  Dy3  1  0.838160  0.750000  0.210820  1
  Dy  Dy4  1  0.127174  0.750000  0.804088  1
  Dy  Dy5  1  0.881050  0.250000  0.187692  1
  Dy  Dy6  1  0.617253  0.250000  0.688355  1
  Dy  Dy7  1  0.380501  0.750000  0.311584  1
  Dy  Dy8  1  0.551420  0.750000  0.998469  1
  Er  Er9  1  0.448006  0.250000  0.001498  1
  Er  Er10  1  0.055322  0.250000  0.503289  1
  Er  Er11  1  0.948056  0.750000  0.499044  1
  Er  Er12  1  0.824809  0.451390  0.933571  1
  Er  Er13  1  0.174244  0.531371  0.065595  1
  Er  Er14  1  0.327270  0.538453  0.562263  1
  Er  Er15  1  0.174244  0.968629  0.065595  1
  Er  Er16  1  0.674207  0.463174  0.437171  1
  Er  Er17  1  0.824809  0.048610  0.933571  1
  Er  Er18  1  0.674207  0.036826  0.437171  1
  Er  Er19  1  0.327270  0.961547  0.562263  1
  Co  Co20  1  0.065874  0.250000  0.007339  1
  Co  Co21  1  0.435672  0.250000  0.508109  1
  Co  Co22  1  0.566649  0.750000  0.490437  1
  Bi  Bi23  1  0.931471  0.008862  0.672281  1
  Bi  Bi24  1  0.067674  0.992377  0.328317  1
  Bi  Bi25  1  0.432086  0.991588  0.827011  1
  Bi  Bi26  1  0.067674  0.507623  0.328317  1
  Bi  Bi27  1  0.567285  0.009962  0.173268  1
  Bi  Bi28  1  0.931471  0.491138  0.672281  1
  Bi  Bi29  1  0.567285  0.490038  0.173268  1
  Bi  Bi30  1  0.432086  0.508412  0.827011  1
  Pt  Pt31  1  0.931516  0.750000  0.991722  1
