# generated using pymatgen
data_PrGd7(BeSi3)4
_symmetry_space_group_name_H-M   'P 1'
_cell_length_a   7.89510900
_cell_length_b   7.89510792
_cell_length_c   8.32107800
_cell_angle_alpha   90.00000000
_cell_angle_beta   90.00000000
_cell_angle_gamma   120.00000034
_symmetry_Int_Tables_number   1
_chemical_formula_structural   PrGd7(BeSi3)4
_chemical_formula_sum   'Pr1 Gd7 Be4 Si12'
_cell_volume   449.18621963
_cell_formula_units_Z   1
loop_
 _symmetry_equiv_pos_site_id
 _symmetry_equiv_pos_as_xyz
  1  'x, y, z'
loop_
 _atom_site_type_symbol
 _atom_site_label
 _atom_site_symmetry_multiplicity
 _atom_site_fract_x
 _atom_site_fract_y
 _atom_site_fract_z
 _atom_site_occupancy
  Pr  Pr0  1  0.000000  0.000000  0.250000  1
  Gd  Gd1  1  0.499671  0.500329  0.750000  1
  Gd  Gd2  1  0.499636  0.500364  0.250000  1
  Gd  Gd3  1  0.000658  0.500329  0.750000  1
  Gd  Gd4  1  0.000728  0.500364  0.250000  1
  Gd  Gd5  1  0.499671  0.999342  0.750000  1
  Gd  Gd6  1  0.499636  0.999272  0.250000  1
  Gd  Gd7  1  0.000000  0.000000  0.750000  1
  Be  Be8  1  0.666667  0.333333  0.996776  1
  Be  Be9  1  0.333333  0.666667  0.001002  1
  Be  Be10  1  0.333333  0.666667  0.498998  1
  Be  Be11  1  0.666667  0.333333  0.503224  1
  Si  Si12  1  0.826981  0.173019  0.997852  1
  Si  Si13  1  0.172945  0.827055  0.997633  1
  Si  Si14  1  0.346037  0.173019  0.997852  1
  Si  Si15  1  0.172945  0.827055  0.502367  1
  Si  Si16  1  0.654111  0.827055  0.997633  1
  Si  Si17  1  0.826981  0.173019  0.502148  1
  Si  Si18  1  0.826981  0.653963  0.997852  1
  Si  Si19  1  0.654111  0.827055  0.502367  1
  Si  Si20  1  0.172945  0.345889  0.997633  1
  Si  Si21  1  0.346037  0.173019  0.502148  1
  Si  Si22  1  0.172945  0.345889  0.502367  1
  Si  Si23  1  0.826981  0.653963  0.502148  1
