# generated using pymatgen
data_Er3In3CuHgPt
_symmetry_space_group_name_H-M   'P 1'
_cell_length_a   7.76623500
_cell_length_b   7.76623492
_cell_length_c   3.83890400
_cell_angle_alpha   90.00000000
_cell_angle_beta   90.00000000
_cell_angle_gamma   119.99999607
_symmetry_Int_Tables_number   1
_chemical_formula_structural   Er3In3CuHgPt
_chemical_formula_sum   'Er3 In3 Cu1 Hg1 Pt1'
_cell_volume   200.52057990
_cell_formula_units_Z   1
loop_
 _symmetry_equiv_pos_site_id
 _symmetry_equiv_pos_as_xyz
  1  'x, y, z'
loop_
 _atom_site_type_symbol
 _atom_site_label
 _atom_site_symmetry_multiplicity
 _atom_site_fract_x
 _atom_site_fract_y
 _atom_site_fract_z
 _atom_site_occupancy
  Er  Er0  1  0.023163  0.605856  0.500000  1
  Er  Er1  1  0.394144  0.417307  0.500000  1
  Er  Er2  1  0.582693  0.976837  0.500000  1
  In  In3  1  0.752272  0.752256  0.000000  1
  In  In4  1  0.999983  0.247728  0.000000  1
  In  In5  1  0.247744  0.000017  0.000000  1
  Cu  Cu6  1  0.000000  0.000000  0.500000  1
  Hg  Hg7  1  0.666667  0.333333  0.000000  1
  Pt  Pt8  1  0.333333  0.666667  0.000000  1
