# generated using pymatgen
data_HoTh(TaS2)8
_symmetry_space_group_name_H-M   'P 1'
_cell_length_a   6.67776400
_cell_length_b   6.67776564
_cell_length_c   14.03299800
_cell_angle_alpha   90.00000000
_cell_angle_beta   90.00000000
_cell_angle_gamma   120.00001171
_symmetry_Int_Tables_number   1
_chemical_formula_structural   HoTh(TaS2)8
_chemical_formula_sum   'Ho1 Th1 Ta8 S16'
_cell_volume   541.93011237
_cell_formula_units_Z   1
loop_
 _symmetry_equiv_pos_site_id
 _symmetry_equiv_pos_as_xyz
  1  'x, y, z'
loop_
 _atom_site_type_symbol
 _atom_site_label
 _atom_site_symmetry_multiplicity
 _atom_site_fract_x
 _atom_site_fract_y
 _atom_site_fract_z
 _atom_site_occupancy
  Ho  Ho0  1  0.000000  0.000000  0.500000  1
  Th  Th1  1  0.000000  0.000000  0.000000  1
  Ta  Ta2  1  0.504976  0.495024  0.746802  1
  Ta  Ta3  1  0.009950  0.504976  0.253198  1
  Ta  Ta4  1  0.495024  0.990050  0.253198  1
  Ta  Ta5  1  0.504976  0.009950  0.746802  1
  Ta  Ta6  1  0.990050  0.495024  0.746802  1
  Ta  Ta7  1  0.495024  0.504976  0.253198  1
  Ta  Ta8  1  0.000000  0.000000  0.747316  1
  Ta  Ta9  1  0.000000  0.000000  0.252684  1
  S  S10  1  0.831444  0.168556  0.365045  1
  S  S11  1  0.831444  0.662890  0.365045  1
  S  S12  1  0.337110  0.168556  0.365045  1
  S  S13  1  0.661574  0.830787  0.858839  1
  S  S14  1  0.168556  0.337110  0.634955  1
  S  S15  1  0.169213  0.830787  0.858839  1
  S  S16  1  0.169213  0.338426  0.858839  1
  S  S17  1  0.830787  0.169213  0.141161  1
  S  S18  1  0.338426  0.169213  0.141161  1
  S  S19  1  0.662890  0.831444  0.634955  1
  S  S20  1  0.333333  0.666667  0.137733  1
  S  S21  1  0.666667  0.333333  0.632287  1
  S  S22  1  0.666667  0.333333  0.862267  1
  S  S23  1  0.333333  0.666667  0.367713  1
  S  S24  1  0.830787  0.661574  0.141161  1
  S  S25  1  0.168556  0.831444  0.634955  1
