# generated using pymatgen
data_Ho10In8IrPdRh2
_symmetry_space_group_name_H-M   'P 1'
_cell_length_a   3.61107800
_cell_length_b   8.07324818
_cell_length_c   18.26254322
_cell_angle_alpha   90.05526626
_cell_angle_beta   90.00000000
_cell_angle_gamma   90.00000000
_symmetry_Int_Tables_number   1
_chemical_formula_structural   Ho10In8IrPdRh2
_chemical_formula_sum   'Ho10 In8 Ir1 Pd1 Rh2'
_cell_volume   532.41002833
_cell_formula_units_Z   1
loop_
 _symmetry_equiv_pos_site_id
 _symmetry_equiv_pos_as_xyz
  1  'x, y, z'
loop_
 _atom_site_type_symbol
 _atom_site_label
 _atom_site_symmetry_multiplicity
 _atom_site_fract_x
 _atom_site_fract_y
 _atom_site_fract_z
 _atom_site_occupancy
  Ho  Ho0  1  0.000000  0.500286  0.500543  1
  Ho  Ho1  1  0.000000  0.000899  0.999991  1
  Ho  Ho2  1  0.000000  0.732987  0.277549  1
  Ho  Ho3  1  0.000000  0.254505  0.721973  1
  Ho  Ho4  1  0.000000  0.754425  0.777984  1
  Ho  Ho5  1  0.000000  0.255629  0.219485  1
  Ho  Ho6  1  0.000000  0.616916  0.086782  1
  Ho  Ho7  1  0.000000  0.384218  0.910724  1
  Ho  Ho8  1  0.000000  0.883327  0.589476  1
  Ho  Ho9  1  0.000000  0.117662  0.415222  1
  In  In10  1  0.500000  0.707852  0.931304  1
  In  In11  1  0.500000  0.293694  0.067467  1
  In  In12  1  0.500000  0.791922  0.432700  1
  In  In13  1  0.500000  0.206620  0.568734  1
  In  In14  1  0.500000  0.570975  0.649997  1
  In  In15  1  0.500000  0.425016  0.350605  1
  In  In16  1  0.500000  0.925321  0.149875  1
  In  In17  1  0.500000  0.071114  0.850265  1
  Ir  Ir18  1  0.500000  0.523166  0.195058  1
  Pd  Pd19  1  0.500000  0.023363  0.304101  1
  Rh  Rh20  1  0.500000  0.480217  0.804934  1
  Rh  Rh21  1  0.500000  0.979885  0.695232  1
