# generated using pymatgen
data_HoErCo12GeP6
_symmetry_space_group_name_H-M   'P 1'
_cell_length_a   9.07306100
_cell_length_b   9.07306134
_cell_length_c   3.57441100
_cell_angle_alpha   90.00000000
_cell_angle_beta   90.00000000
_cell_angle_gamma   119.99999511
_symmetry_Int_Tables_number   1
_chemical_formula_structural   HoErCo12GeP6
_chemical_formula_sum   'Ho1 Er1 Co12 Ge1 P6'
_cell_volume   254.82546121
_cell_formula_units_Z   1
loop_
 _symmetry_equiv_pos_site_id
 _symmetry_equiv_pos_as_xyz
  1  'x, y, z'
loop_
 _atom_site_type_symbol
 _atom_site_label
 _atom_site_symmetry_multiplicity
 _atom_site_fract_x
 _atom_site_fract_y
 _atom_site_fract_z
 _atom_site_occupancy
  Ho  Ho0  1  0.333333  0.666667  0.000000  1
  Er  Er1  1  0.666667  0.333333  0.500000  1
  Co  Co2  1  0.125766  0.838335  0.000000  1
  Co  Co3  1  0.386696  0.438392  0.500000  1
  Co  Co4  1  0.712569  0.874234  0.000000  1
  Co  Co5  1  0.561608  0.948304  0.500000  1
  Co  Co6  1  0.247849  0.109682  0.500000  1
  Co  Co7  1  0.861833  0.752151  0.500000  1
  Co  Co8  1  0.890318  0.138167  0.500000  1
  Co  Co9  1  0.938678  0.375444  0.000000  1
  Co  Co10  1  0.624556  0.563233  0.000000  1
  Co  Co11  1  0.436767  0.061322  0.000000  1
  Co  Co12  1  0.051696  0.613304  0.500000  1
  Co  Co13  1  0.161665  0.287431  0.000000  1
  Ge  Ge14  1  0.000000  0.000000  0.000000  1
  P  P15  1  0.597010  0.708820  0.500000  1
  P  P16  1  0.706783  0.113141  0.000000  1
  P  P17  1  0.886859  0.593642  0.000000  1
  P  P18  1  0.406358  0.293217  0.000000  1
  P  P19  1  0.291180  0.888189  0.500000  1
  P  P20  1  0.111811  0.402990  0.500000  1
