# generated using pymatgen
data_Nd5Sb3C
_symmetry_space_group_name_H-M   'P 1'
_cell_length_a   9.26976000
_cell_length_b   9.26976081
_cell_length_c   6.68577100
_cell_angle_alpha   90.00000000
_cell_angle_beta   90.00000000
_cell_angle_gamma   120.00000426
_symmetry_Int_Tables_number   1
_chemical_formula_structural   Nd5Sb3C
_chemical_formula_sum   'Nd10 Sb6 C2'
_cell_volume   497.52983420
_cell_formula_units_Z   2
loop_
 _symmetry_equiv_pos_site_id
 _symmetry_equiv_pos_as_xyz
  1  'x, y, z'
loop_
 _atom_site_type_symbol
 _atom_site_label
 _atom_site_symmetry_multiplicity
 _atom_site_fract_x
 _atom_site_fract_y
 _atom_site_fract_z
 _atom_site_occupancy
  Nd  Nd0  1  0.666667  0.333333  0.500000  1
  Nd  Nd1  1  0.333333  0.666667  0.500000  1
  Nd  Nd2  1  0.333333  0.666667  0.000000  1
  Nd  Nd3  1  0.666667  0.333333  0.000000  1
  Nd  Nd4  1  0.784063  0.784063  0.250000  1
  Nd  Nd5  1  0.215937  0.000000  0.250000  1
  Nd  Nd6  1  0.000000  0.215937  0.250000  1
  Nd  Nd7  1  0.215937  0.215937  0.750000  1
  Nd  Nd8  1  0.784063  0.000000  0.750000  1
  Nd  Nd9  1  0.000000  0.784063  0.750000  1
  Sb  Sb10  1  0.403083  0.403083  0.250000  1
  Sb  Sb11  1  0.596917  0.000000  0.250000  1
  Sb  Sb12  1  0.000000  0.596917  0.250000  1
  Sb  Sb13  1  0.596917  0.596917  0.750000  1
  Sb  Sb14  1  0.403083  0.000000  0.750000  1
  Sb  Sb15  1  0.000000  0.403083  0.750000  1
  C  C16  1  0.000000  0.000000  0.500000  1
  C  C17  1  0.000000  0.000000  0.000000  1
