# generated using pymatgen
data_Zr2ScNi12
_symmetry_space_group_name_H-M   'P 1'
_cell_length_a   4.71957996
_cell_length_b   4.73244940
_cell_length_c   10.09656111
_cell_angle_alpha   85.26638408
_cell_angle_beta   80.47393323
_cell_angle_gamma   60.08992222
_symmetry_Int_Tables_number   1
_chemical_formula_structural   Zr2ScNi12
_chemical_formula_sum   'Zr2 Sc1 Ni12'
_cell_volume   192.77727123
_cell_formula_units_Z   1
loop_
 _symmetry_equiv_pos_site_id
 _symmetry_equiv_pos_as_xyz
  1  'x, y, z'
loop_
 _atom_site_type_symbol
 _atom_site_label
 _atom_site_symmetry_multiplicity
 _atom_site_fract_x
 _atom_site_fract_y
 _atom_site_fract_z
 _atom_site_occupancy
  Zr  Zr0  1  0.128818  0.000000  0.645873  1
  Zr  Zr1  1  0.871182  0.000000  0.354127  1
  Sc  Sc2  1  0.000000  0.000000  0.000000  1
  Ni  Ni3  1  0.568665  0.499930  0.800039  1
  Ni  Ni4  1  0.068595  0.500070  0.800039  1
  Ni  Ni5  1  0.431335  0.500070  0.199961  1
  Ni  Ni6  1  0.430505  0.000000  0.200530  1
  Ni  Ni7  1  0.931405  0.499930  0.199961  1
  Ni  Ni8  1  0.665485  0.669029  0.000000  1
  Ni  Ni9  1  0.569495  0.000000  0.799470  1
  Ni  Ni10  1  0.191072  0.331970  0.407003  1
  Ni  Ni11  1  0.808928  0.668030  0.592997  1
  Ni  Ni12  1  0.476959  0.331970  0.592997  1
  Ni  Ni13  1  0.523041  0.668030  0.407003  1
  Ni  Ni14  1  0.334515  0.330971  0.000000  1
