# generated using pymatgen
data_YbDy4(PtPb2)2
_symmetry_space_group_name_H-M   'P 1'
_cell_length_a   3.76397600
_cell_length_b   8.25945300
_cell_length_c   18.36515500
_cell_angle_alpha   90.00000000
_cell_angle_beta   90.00000000
_cell_angle_gamma   90.00000000
_symmetry_Int_Tables_number   1
_chemical_formula_structural   YbDy4(PtPb2)2
_chemical_formula_sum   'Yb2 Dy8 Pt4 Pb8'
_cell_volume   570.94297002
_cell_formula_units_Z   2
loop_
 _symmetry_equiv_pos_site_id
 _symmetry_equiv_pos_as_xyz
  1  'x, y, z'
loop_
 _atom_site_type_symbol
 _atom_site_label
 _atom_site_symmetry_multiplicity
 _atom_site_fract_x
 _atom_site_fract_y
 _atom_site_fract_z
 _atom_site_occupancy
  Yb  Yb0  1  0.000000  0.000000  0.000000  1
  Yb  Yb1  1  0.000000  0.500000  0.500000  1
  Dy  Dy2  1  0.000000  0.116563  0.412600  1
  Dy  Dy3  1  0.000000  0.883437  0.587400  1
  Dy  Dy4  1  0.000000  0.383437  0.912600  1
  Dy  Dy5  1  0.000000  0.616563  0.087400  1
  Dy  Dy6  1  0.000000  0.242954  0.219737  1
  Dy  Dy7  1  0.000000  0.757046  0.780263  1
  Dy  Dy8  1  0.000000  0.257046  0.719737  1
  Dy  Dy9  1  0.000000  0.742954  0.280263  1
  Pt  Pt10  1  0.500000  0.030216  0.303010  1
  Pt  Pt11  1  0.500000  0.969784  0.696990  1
  Pt  Pt12  1  0.500000  0.469784  0.803010  1
  Pt  Pt13  1  0.500000  0.530216  0.196990  1
  Pb  Pb14  1  0.500000  0.422021  0.351463  1
  Pb  Pb15  1  0.500000  0.577979  0.648537  1
  Pb  Pb16  1  0.500000  0.077979  0.851463  1
  Pb  Pb17  1  0.500000  0.922021  0.148537  1
  Pb  Pb18  1  0.500000  0.292875  0.064725  1
  Pb  Pb19  1  0.500000  0.707125  0.935275  1
  Pb  Pb20  1  0.500000  0.207125  0.564725  1
  Pb  Pb21  1  0.500000  0.792875  0.435275  1
