# generated using pymatgen
data_RbBaAsSe3
_symmetry_space_group_name_H-M   'P 1'
_cell_length_a   9.34767700
_cell_length_b   9.92416277
_cell_length_c   9.50584917
_cell_angle_alpha   72.36677703
_cell_angle_beta   90.00000000
_cell_angle_gamma   90.00000000
_symmetry_Int_Tables_number   1
_chemical_formula_structural   RbBaAsSe3
_chemical_formula_sum   'Rb4 Ba4 As4 Se12'
_cell_volume   840.40439105
_cell_formula_units_Z   4
loop_
 _symmetry_equiv_pos_site_id
 _symmetry_equiv_pos_as_xyz
  1  'x, y, z'
loop_
 _atom_site_type_symbol
 _atom_site_label
 _atom_site_symmetry_multiplicity
 _atom_site_fract_x
 _atom_site_fract_y
 _atom_site_fract_z
 _atom_site_occupancy
  Rb  Rb0  1  0.092305  0.587316  0.281690  1
  Rb  Rb1  1  0.592305  0.412684  0.218310  1
  Rb  Rb2  1  0.907695  0.412684  0.718310  1
  Rb  Rb3  1  0.407695  0.587316  0.781690  1
  Ba  Ba4  1  0.716389  0.922910  0.031625  1
  Ba  Ba5  1  0.216389  0.077090  0.468375  1
  Ba  Ba6  1  0.283611  0.077090  0.968375  1
  Ba  Ba7  1  0.783611  0.922910  0.531625  1
  As  As8  1  0.464215  0.759486  0.350570  1
  As  As9  1  0.964215  0.240514  0.149430  1
  As  As10  1  0.535785  0.240514  0.649430  1
  As  As11  1  0.035785  0.759486  0.850570  1
  Se  Se12  1  0.203345  0.336027  0.108647  1
  Se  Se13  1  0.703345  0.663973  0.391353  1
  Se  Se14  1  0.796655  0.663973  0.891353  1
  Se  Se15  1  0.296655  0.336027  0.608647  1
  Se  Se16  1  0.007969  0.983805  0.220971  1
  Se  Se17  1  0.507969  0.016195  0.279029  1
  Se  Se18  1  0.992031  0.016195  0.779029  1
  Se  Se19  1  0.492031  0.983805  0.720971  1
  Se  Se20  1  0.403626  0.738714  0.110556  1
  Se  Se21  1  0.903626  0.261286  0.389444  1
  Se  Se22  1  0.596374  0.261286  0.889444  1
  Se  Se23  1  0.096374  0.738714  0.610556  1
