# generated using pymatgen
data_Yb12Sc3AlGa4(SiO4)12
_symmetry_space_group_name_H-M   'P 1'
_cell_length_a   10.39757185
_cell_length_b   10.39757225
_cell_length_c   10.39757200
_cell_angle_alpha   109.39412654
_cell_angle_beta   109.39411564
_cell_angle_gamma   109.39410825
_symmetry_Int_Tables_number   1
_chemical_formula_structural   Yb12Sc3AlGa4(SiO4)12
_chemical_formula_sum   'Yb12 Sc3 Al1 Ga4 Si12 O48'
_cell_volume   867.77580110
_cell_formula_units_Z   1
loop_
 _symmetry_equiv_pos_site_id
 _symmetry_equiv_pos_as_xyz
  1  'x, y, z'
loop_
 _atom_site_type_symbol
 _atom_site_label
 _atom_site_symmetry_multiplicity
 _atom_site_fract_x
 _atom_site_fract_y
 _atom_site_fract_z
 _atom_site_occupancy
  Yb  Yb0  1  0.375046  0.750709  0.125074  1
  Yb  Yb1  1  0.253511  0.376796  0.129199  1
  Yb  Yb2  1  0.376796  0.129198  0.253511  1
  Yb  Yb3  1  0.874927  0.624955  0.249290  1
  Yb  Yb4  1  0.750709  0.125075  0.375046  1
  Yb  Yb5  1  0.129198  0.253511  0.376796  1
  Yb  Yb6  1  0.870802  0.746490  0.623203  1
  Yb  Yb7  1  0.249291  0.874925  0.624955  1
  Yb  Yb8  1  0.125074  0.375046  0.750710  1
  Yb  Yb9  1  0.623205  0.870802  0.746489  1
  Yb  Yb10  1  0.746489  0.623205  0.870802  1
  Yb  Yb11  1  0.624953  0.249290  0.874926  1
  Sc  Sc12  1  0.500000  0.000000  0.000000  1
  Sc  Sc13  1  0.000000  0.499999  0.000000  1
  Sc  Sc14  1  0.000000  0.000000  0.500000  1
  Al  Al15  1  0.499999  0.500000  0.500000  1
  Ga  Ga16  1  0.000000  0.000000  0.000000  1
  Ga  Ga17  1  0.499999  0.500000  0.000000  1
  Ga  Ga18  1  0.000000  0.500000  0.500000  1
  Ga  Ga19  1  0.499999  0.000000  0.500000  1
  Si  Si20  1  0.877425  0.250058  0.128134  1
  Si  Si21  1  0.749944  0.871866  0.122574  1
  Si  Si22  1  0.626818  0.381519  0.256087  1
  Si  Si23  1  0.128134  0.877426  0.250057  1
  Si  Si24  1  0.256087  0.626817  0.381520  1
  Si  Si25  1  0.618480  0.743913  0.373182  1
  Si  Si26  1  0.743914  0.373182  0.618479  1
  Si  Si27  1  0.381519  0.256086  0.626817  1
  Si  Si28  1  0.871867  0.122575  0.749943  1
  Si  Si29  1  0.373182  0.618480  0.743913  1
  Si  Si30  1  0.250057  0.128133  0.877426  1
  Si  Si31  1  0.122575  0.749943  0.871866  1
  O  O32  1  0.207027  0.120324  0.015828  1
  O  O33  1  0.300083  0.895486  0.012471  1
  O  O34  1  0.706134  0.690545  0.086806  1
  O  O35  1  0.880432  0.395341  0.094495  1
  O  O36  1  0.616387  0.414840  0.108389  1
  O  O37  1  0.987530  0.699917  0.104514  1
  O  O38  1  0.015828  0.207027  0.120324  1
  O  O39  1  0.604659  0.905505  0.119568  1
  O  O40  1  0.212626  0.592133  0.201265  1
  O  O41  1  0.483365  0.602914  0.189900  1
  O  O42  1  0.120324  0.015828  0.207028  1
  O  O43  1  0.592134  0.201265  0.212625  1
  O  O44  1  0.309455  0.913193  0.293867  1
  O  O45  1  0.490722  0.389726  0.303364  1
  O  O46  1  0.913194  0.293867  0.309455  1
  O  O47  1  0.895486  0.012470  0.300083  1
  O  O48  1  0.585159  0.891610  0.383612  1
  O  O49  1  0.303365  0.490722  0.389726  1
  O  O50  1  0.810100  0.516635  0.397085  1
  O  O51  1  0.094495  0.880432  0.395342  1
  O  O52  1  0.798735  0.787375  0.407865  1
  O  O53  1  0.108389  0.616386  0.414840  1
  O  O54  1  0.389726  0.303364  0.490722  1
  O  O55  1  0.602914  0.189900  0.483365  1
  O  O56  1  0.397086  0.810101  0.516635  1
  O  O57  1  0.610275  0.696637  0.509280  1
  O  O58  1  0.891610  0.383613  0.585160  1
  O  O59  1  0.201265  0.212625  0.592135  1
  O  O60  1  0.905505  0.119568  0.604659  1
  O  O61  1  0.189900  0.483365  0.602914  1
  O  O62  1  0.414839  0.108389  0.616386  1
  O  O63  1  0.696637  0.509279  0.610276  1
  O  O64  1  0.104514  0.987529  0.699917  1
  O  O65  1  0.086805  0.706133  0.690545  1
  O  O66  1  0.690544  0.086806  0.706133  1
  O  O67  1  0.509279  0.610275  0.696637  1
  O  O68  1  0.407865  0.798734  0.787374  1
  O  O69  1  0.879676  0.984172  0.792973  1
  O  O70  1  0.516635  0.397087  0.810100  1
  O  O71  1  0.787374  0.407866  0.798734  1
  O  O72  1  0.395341  0.094494  0.880432  1
  O  O73  1  0.984172  0.792973  0.879677  1
  O  O74  1  0.383613  0.585159  0.891610  1
  O  O75  1  0.012470  0.300084  0.895486  1
  O  O76  1  0.293867  0.309455  0.913194  1
  O  O77  1  0.119568  0.604659  0.905505  1
  O  O78  1  0.699917  0.104513  0.987528  1
  O  O79  1  0.792973  0.879676  0.984173  1
