# generated using pymatgen
data_Pr2Nd8IrRu3
_symmetry_space_group_name_H-M   'P 1'
_cell_length_a   8.92556755
_cell_length_b   8.94777712
_cell_length_c   7.39276284
_cell_angle_alpha   83.55777986
_cell_angle_beta   83.60939225
_cell_angle_gamma   43.41372910
_symmetry_Int_Tables_number   1
_chemical_formula_structural   Pr2Nd8IrRu3
_chemical_formula_sum   'Pr2 Nd8 Ir1 Ru3'
_cell_volume   402.82357940
_cell_formula_units_Z   1
loop_
 _symmetry_equiv_pos_site_id
 _symmetry_equiv_pos_as_xyz
  1  'x, y, z'
loop_
 _atom_site_type_symbol
 _atom_site_label
 _atom_site_symmetry_multiplicity
 _atom_site_fract_x
 _atom_site_fract_y
 _atom_site_fract_z
 _atom_site_occupancy
  Pr  Pr0  1  0.015726  0.799761  0.916970  1
  Pr  Pr1  1  0.202206  0.983793  0.585769  1
  Nd  Nd2  1  0.984479  0.200863  0.086560  1
  Nd  Nd3  1  0.795924  0.019839  0.413265  1
  Nd  Nd4  1  0.359072  0.207303  0.815560  1
  Nd  Nd5  1  0.789968  0.641967  0.685086  1
  Nd  Nd6  1  0.642575  0.790570  0.186031  1
  Nd  Nd7  1  0.209000  0.355516  0.314137  1
  Nd  Nd8  1  0.572917  0.426930  0.749449  1
  Nd  Nd9  1  0.427909  0.573762  0.248243  1
  Ir  Ir10  1  0.178826  0.596150  0.574238  1
  Ru  Ru11  1  0.399140  0.824615  0.924773  1
  Ru  Ru12  1  0.824058  0.400082  0.425577  1
  Ru  Ru13  1  0.598202  0.178847  0.074343  1
