# generated using pymatgen
data_Hf6FeHgBr14
_symmetry_space_group_name_H-M   'P 1'
_cell_length_a   9.56664528
_cell_length_b   9.56664506
_cell_length_c   9.56664462
_cell_angle_alpha   112.25788347
_cell_angle_beta   112.25788204
_cell_angle_gamma   104.03107780
_symmetry_Int_Tables_number   1
_chemical_formula_structural   Hf6FeHgBr14
_chemical_formula_sum   'Hf6 Fe1 Hg1 Br14'
_cell_volume   669.49665543
_cell_formula_units_Z   1
loop_
 _symmetry_equiv_pos_site_id
 _symmetry_equiv_pos_as_xyz
  1  'x, y, z'
loop_
 _atom_site_type_symbol
 _atom_site_label
 _atom_site_symmetry_multiplicity
 _atom_site_fract_x
 _atom_site_fract_y
 _atom_site_fract_z
 _atom_site_occupancy
  Hf  Hf0  1  0.229377  0.000000  0.229377  1
  Hf  Hf1  1  0.201711  0.201711  0.000000  1
  Hf  Hf2  1  0.770623  0.000000  0.770623  1
  Hf  Hf3  1  0.000000  0.229377  0.229377  1
  Hf  Hf4  1  0.000000  0.770623  0.770623  1
  Hf  Hf5  1  0.798289  0.798289  0.000000  1
  Fe  Fe6  1  0.000000  0.000000  0.000000  1
  Hg  Hg7  1  0.500000  0.500000  0.000000  1
  Br  Br8  1  0.017807  0.769494  0.248313  1
  Br  Br9  1  0.252048  0.747952  0.000000  1
  Br  Br10  1  0.521181  0.769494  0.751687  1
  Br  Br11  1  0.982193  0.230506  0.751687  1
  Br  Br12  1  0.769494  0.017807  0.248313  1
  Br  Br13  1  0.230506  0.478819  0.248313  1
  Br  Br14  1  0.747952  0.252048  0.000000  1
  Br  Br15  1  0.252048  0.252048  0.504097  1
  Br  Br16  1  0.769494  0.521181  0.751687  1
  Br  Br17  1  0.747952  0.747952  0.495903  1
  Br  Br18  1  0.478819  0.230506  0.248313  1
  Br  Br19  1  0.230506  0.982193  0.751687  1
  Br  Br20  1  0.000000  0.500000  0.500000  1
  Br  Br21  1  0.500000  0.000000  0.500000  1
