# generated using pymatgen
data_DyHo9(SiHg)4
_symmetry_space_group_name_H-M   'P 1'
_cell_length_a   8.74188214
_cell_length_b   8.74042334
_cell_length_c   7.53526508
_cell_angle_alpha   89.98516294
_cell_angle_beta   90.00426931
_cell_angle_gamma   129.12247854
_symmetry_Int_Tables_number   1
_chemical_formula_structural   DyHo9(SiHg)4
_chemical_formula_sum   'Dy1 Ho9 Si4 Hg4'
_cell_volume   446.66826883
_cell_formula_units_Z   1
loop_
 _symmetry_equiv_pos_site_id
 _symmetry_equiv_pos_as_xyz
  1  'x, y, z'
loop_
 _atom_site_type_symbol
 _atom_site_label
 _atom_site_symmetry_multiplicity
 _atom_site_fract_x
 _atom_site_fract_y
 _atom_site_fract_z
 _atom_site_occupancy
  Dy  Dy0  1  0.053824  0.308754  0.324222  1
  Ho  Ho1  1  0.946226  0.691462  0.675646  1
  Ho  Ho2  1  0.446217  0.191514  0.824368  1
  Ho  Ho3  1  0.808503  0.553810  0.175601  1
  Ho  Ho4  1  0.553756  0.808437  0.175575  1
  Ho  Ho5  1  0.191590  0.446284  0.824400  1
  Ho  Ho6  1  0.691463  0.946125  0.675704  1
  Ho  Ho7  1  0.308477  0.053770  0.324348  1
  Ho  Ho8  1  0.000030  0.999923  0.999932  1
  Ho  Ho9  1  0.500049  0.500014  0.500019  1
  Si  Si10  1  0.380399  0.380192  0.122136  1
  Si  Si11  1  0.619850  0.619822  0.877709  1
  Si  Si12  1  0.119874  0.119772  0.622482  1
  Si  Si13  1  0.880048  0.879937  0.377720  1
  Hg  Hg14  1  0.782496  0.217258  0.999786  1
  Hg  Hg15  1  0.217307  0.782651  0.000017  1
  Hg  Hg16  1  0.717037  0.282632  0.500166  1
  Hg  Hg17  1  0.282853  0.717643  0.500170  1
