# generated using pymatgen
data_Y20Cd5HgRuRh
_symmetry_space_group_name_H-M   'P 1'
_cell_length_a   9.65598172
_cell_length_b   9.65598094
_cell_length_c   9.82045100
_cell_angle_alpha   90.00000000
_cell_angle_beta   90.00000000
_cell_angle_gamma   119.79992171
_symmetry_Int_Tables_number   1
_chemical_formula_structural   Y20Cd5HgRuRh
_chemical_formula_sum   'Y20 Cd5 Hg1 Ru1 Rh1'
_cell_volume   794.56048678
_cell_formula_units_Z   1
loop_
 _symmetry_equiv_pos_site_id
 _symmetry_equiv_pos_as_xyz
  1  'x, y, z'
loop_
 _atom_site_type_symbol
 _atom_site_label
 _atom_site_symmetry_multiplicity
 _atom_site_fract_x
 _atom_site_fract_y
 _atom_site_fract_z
 _atom_site_occupancy
  Y  Y0  1  0.001181  0.998819  0.501443  1
  Y  Y1  1  0.001181  0.998819  0.998557  1
  Y  Y2  1  0.208996  0.791004  0.440325  1
  Y  Y3  1  0.209122  0.418254  0.440537  1
  Y  Y4  1  0.581746  0.790878  0.440537  1
  Y  Y5  1  0.790427  0.209573  0.560361  1
  Y  Y6  1  0.790516  0.581178  0.560376  1
  Y  Y7  1  0.418822  0.209484  0.560376  1
  Y  Y8  1  0.790427  0.209573  0.939639  1
  Y  Y9  1  0.790516  0.581178  0.939624  1
  Y  Y10  1  0.418822  0.209484  0.939624  1
  Y  Y11  1  0.208996  0.791004  0.059675  1
  Y  Y12  1  0.209122  0.418254  0.059463  1
  Y  Y13  1  0.581746  0.790878  0.059463  1
  Y  Y14  1  0.542292  0.457708  0.250000  1
  Y  Y15  1  0.542091  0.084456  0.250000  1
  Y  Y16  1  0.915544  0.457909  0.250000  1
  Y  Y17  1  0.458753  0.541247  0.750000  1
  Y  Y18  1  0.455958  0.917212  0.750000  1
  Y  Y19  1  0.082788  0.544042  0.750000  1
  Cd  Cd20  1  0.885179  0.114821  0.250000  1
  Cd  Cd21  1  0.885308  0.770159  0.250000  1
  Cd  Cd22  1  0.229841  0.114692  0.250000  1
  Cd  Cd23  1  0.115143  0.231263  0.750000  1
  Cd  Cd24  1  0.768737  0.884857  0.750000  1
  Hg  Hg25  1  0.117052  0.882948  0.750000  1
  Ru  Ru26  1  0.666551  0.333449  0.750000  1
  Rh  Rh27  1  0.333145  0.666855  0.250000  1
