# generated using pymatgen
data_Nd5CoPtO12
_symmetry_space_group_name_H-M   'P 1'
_cell_length_a   7.02054190
_cell_length_b   7.02054178
_cell_length_c   7.55596500
_cell_angle_alpha   74.48357916
_cell_angle_beta   74.48357943
_cell_angle_gamma   50.94117726
_symmetry_Int_Tables_number   1
_chemical_formula_structural   Nd5CoPtO12
_chemical_formula_sum   'Nd5 Co1 Pt1 O12'
_cell_volume   276.19566159
_cell_formula_units_Z   1
loop_
 _symmetry_equiv_pos_site_id
 _symmetry_equiv_pos_as_xyz
  1  'x, y, z'
loop_
 _atom_site_type_symbol
 _atom_site_label
 _atom_site_symmetry_multiplicity
 _atom_site_fract_x
 _atom_site_fract_y
 _atom_site_fract_z
 _atom_site_occupancy
  Nd  Nd0  1  0.314112  0.296638  0.356861  1
  Nd  Nd1  1  0.703362  0.685888  0.643139  1
  Nd  Nd2  1  0.696104  0.692134  0.164035  1
  Nd  Nd3  1  0.307866  0.303896  0.835965  1
  Nd  Nd4  1  0.999790  0.000210  0.500000  1
  Co  Co5  1  0.747556  0.252444  0.000000  1
  Pt  Pt6  1  0.238295  0.761705  0.000000  1
  O  O7  1  0.103210  0.593442  0.576072  1
  O  O8  1  0.980441  0.018351  0.168028  1
  O  O9  1  0.406558  0.896790  0.423928  1
  O  O10  1  0.505038  0.495621  0.169061  1
  O  O11  1  0.097672  0.575553  0.080573  1
  O  O12  1  0.909627  0.398042  0.423051  1
  O  O13  1  0.981649  0.019559  0.831972  1
  O  O14  1  0.601958  0.090372  0.576949  1
  O  O15  1  0.504379  0.494962  0.830939  1
  O  O16  1  0.582862  0.104929  0.077432  1
  O  O17  1  0.424447  0.902328  0.919427  1
  O  O18  1  0.895071  0.417138  0.922568  1
