# generated using pymatgen
data_Dy8Lu2OsRh3
_symmetry_space_group_name_H-M   'P 1'
_cell_length_a   6.32145030
_cell_length_b   7.26347044
_cell_length_c   8.44547900
_cell_angle_alpha   96.80196439
_cell_angle_beta   112.13258925
_cell_angle_gamma   89.87857313
_symmetry_Int_Tables_number   1
_chemical_formula_structural   Dy8Lu2OsRh3
_chemical_formula_sum   'Dy8 Lu2 Os1 Rh3'
_cell_volume   356.29676281
_cell_formula_units_Z   1
loop_
 _symmetry_equiv_pos_site_id
 _symmetry_equiv_pos_as_xyz
  1  'x, y, z'
loop_
 _atom_site_type_symbol
 _atom_site_label
 _atom_site_symmetry_multiplicity
 _atom_site_fract_x
 _atom_site_fract_y
 _atom_site_fract_z
 _atom_site_occupancy
  Dy  Dy0  1  0.522745  0.081759  0.813932  1
  Dy  Dy1  1  0.474286  0.918863  0.187490  1
  Dy  Dy2  1  0.711564  0.419601  0.187671  1
  Dy  Dy3  1  0.291286  0.580560  0.821826  1
  Dy  Dy4  1  0.292481  0.316049  0.435664  1
  Dy  Dy5  1  0.704419  0.687238  0.559329  1
  Dy  Dy6  1  0.857422  0.186758  0.564166  1
  Dy  Dy7  1  0.147859  0.809896  0.434784  1
  Lu  Lu8  1  0.076759  0.250994  0.001202  1
  Lu  Lu9  1  0.922840  0.748747  0.000382  1
  Os  Os10  1  0.315816  0.574357  0.212064  1
  Rh  Rh11  1  0.684116  0.425063  0.782437  1
  Rh  Rh12  1  0.098003  0.926520  0.782963  1
  Rh  Rh13  1  0.900403  0.073594  0.216089  1
