# generated using pymatgen
data_Tb3Dy9Os3Rh
_symmetry_space_group_name_H-M   'P 1'
_cell_length_a   6.39462013
_cell_length_b   7.37159725
_cell_length_c   9.11323600
_cell_angle_alpha   90.00000000
_cell_angle_beta   90.00000000
_cell_angle_gamma   90.19998518
_symmetry_Int_Tables_number   1
_chemical_formula_structural   Tb3Dy9Os3Rh
_chemical_formula_sum   'Tb3 Dy9 Os3 Rh1'
_cell_volume   429.58224308
_cell_formula_units_Z   1
loop_
 _symmetry_equiv_pos_site_id
 _symmetry_equiv_pos_as_xyz
  1  'x, y, z'
loop_
 _atom_site_type_symbol
 _atom_site_label
 _atom_site_symmetry_multiplicity
 _atom_site_fract_x
 _atom_site_fract_y
 _atom_site_fract_z
 _atom_site_occupancy
  Tb  Tb0  1  0.868640  0.538109  0.250000  1
  Tb  Tb1  1  0.630998  0.039984  0.250000  1
  Tb  Tb2  1  0.130260  0.461840  0.750000  1
  Dy  Dy3  1  0.333318  0.672884  0.061789  1
  Dy  Dy4  1  0.170120  0.177321  0.437927  1
  Dy  Dy5  1  0.670110  0.324624  0.563866  1
  Dy  Dy6  1  0.826580  0.824443  0.933077  1
  Dy  Dy7  1  0.670110  0.324624  0.936134  1
  Dy  Dy8  1  0.826580  0.824443  0.566923  1
  Dy  Dy9  1  0.333318  0.672884  0.438211  1
  Dy  Dy10  1  0.170120  0.177321  0.062073  1
  Dy  Dy11  1  0.368195  0.961780  0.750000  1
  Os  Os12  1  0.459293  0.383318  0.250000  1
  Os  Os13  1  0.961233  0.115421  0.750000  1
  Os  Os14  1  0.539272  0.617068  0.750000  1
  Rh  Rh15  1  0.041854  0.883934  0.250000  1
