# generated using pymatgen
data_Ce8Nb11Si16Tc
_symmetry_space_group_name_H-M   'P 1'
_cell_length_a   7.08513763
_cell_length_b   7.08513763
_cell_length_c   13.18694087
_cell_angle_alpha   89.97075157
_cell_angle_beta   90.02924843
_cell_angle_gamma   89.82350210
_symmetry_Int_Tables_number   1
_chemical_formula_structural   Ce8Nb11Si16Tc
_chemical_formula_sum   'Ce8 Nb11 Si16 Tc1'
_cell_volume   661.97024227
_cell_formula_units_Z   1
loop_
 _symmetry_equiv_pos_site_id
 _symmetry_equiv_pos_as_xyz
  1  'x, y, z'
loop_
 _atom_site_type_symbol
 _atom_site_label
 _atom_site_symmetry_multiplicity
 _atom_site_fract_x
 _atom_site_fract_y
 _atom_site_fract_z
 _atom_site_occupancy
  Ce  Ce0  1  0.995579  0.333510  0.216535  1
  Ce  Ce1  1  0.006064  0.665806  0.718393  1
  Ce  Ce2  1  0.165524  0.494829  0.467559  1
  Ce  Ce3  1  0.504876  0.835118  0.032595  1
  Ce  Ce4  1  0.835118  0.504876  0.967405  1
  Ce  Ce5  1  0.494829  0.165524  0.532441  1
  Ce  Ce6  1  0.333510  0.995579  0.783465  1
  Ce  Ce7  1  0.665806  0.006064  0.281607  1
  Nb  Nb8  1  0.830983  0.830983  0.500000  1
  Nb  Nb9  1  0.329646  0.669261  0.248154  1
  Nb  Nb10  1  0.669261  0.329646  0.751846  1
  Nb  Nb11  1  0.156971  0.996205  0.372441  1
  Nb  Nb12  1  0.837825  0.003916  0.873003  1
  Nb  Nb13  1  0.504424  0.656538  0.624186  1
  Nb  Nb14  1  0.344318  0.498165  0.876175  1
  Nb  Nb15  1  0.498165  0.344318  0.123825  1
  Nb  Nb16  1  0.656538  0.504424  0.375814  1
  Nb  Nb17  1  0.996205  0.156971  0.627559  1
  Nb  Nb18  1  0.003916  0.837825  0.126997  1
  Si  Si19  1  0.291302  0.045101  0.181551  1
  Si  Si20  1  0.706208  0.958202  0.684893  1
  Si  Si21  1  0.458119  0.793269  0.435133  1
  Si  Si22  1  0.209108  0.537257  0.062378  1
  Si  Si23  1  0.537257  0.209108  0.937622  1
  Si  Si24  1  0.793269  0.458119  0.564867  1
  Si  Si25  1  0.045101  0.291302  0.818449  1
  Si  Si26  1  0.958202  0.706208  0.315107  1
  Si  Si27  1  0.370604  0.296607  0.312918  1
  Si  Si28  1  0.628330  0.704162  0.813302  1
  Si  Si29  1  0.203269  0.871755  0.563524  1
  Si  Si30  1  0.126316  0.803368  0.938524  1
  Si  Si31  1  0.803368  0.126316  0.061476  1
  Si  Si32  1  0.871755  0.203269  0.436476  1
  Si  Si33  1  0.296607  0.370604  0.687082  1
  Si  Si34  1  0.704162  0.628330  0.186698  1
  Tc  Tc35  1  0.167468  0.167468  0.000000  1
