# generated using pymatgen
data_Nb4FeReB4
_symmetry_space_group_name_H-M   'P 1'
_cell_length_a   6.00213400
_cell_length_b   6.00213400
_cell_length_c   3.29858400
_cell_angle_alpha   90.00000000
_cell_angle_beta   90.00000000
_cell_angle_gamma   90.00000000
_symmetry_Int_Tables_number   1
_chemical_formula_structural   Nb4FeReB4
_chemical_formula_sum   'Nb4 Fe1 Re1 B4'
_cell_volume   118.83350916
_cell_formula_units_Z   1
loop_
 _symmetry_equiv_pos_site_id
 _symmetry_equiv_pos_as_xyz
  1  'x, y, z'
loop_
 _atom_site_type_symbol
 _atom_site_label
 _atom_site_symmetry_multiplicity
 _atom_site_fract_x
 _atom_site_fract_y
 _atom_site_fract_z
 _atom_site_occupancy
  Nb  Nb0  1  0.684178  0.174529  0.500000  1
  Nb  Nb1  1  0.315822  0.825471  0.500000  1
  Nb  Nb2  1  0.174529  0.315822  0.500000  1
  Nb  Nb3  1  0.825471  0.684178  0.500000  1
  Fe  Fe4  1  0.000000  0.000000  0.000000  1
  Re  Re5  1  0.500000  0.500000  0.000000  1
  B  B6  1  0.111247  0.606773  0.000000  1
  B  B7  1  0.888753  0.393227  0.000000  1
  B  B8  1  0.606773  0.888753  0.000000  1
  B  B9  1  0.393227  0.111247  0.000000  1
