# generated using pymatgen
data_Zr12Ti4CoIr7N4
_symmetry_space_group_name_H-M   'P 1'
_cell_length_a   8.63499128
_cell_length_b   8.63499265
_cell_length_c   8.63499269
_cell_angle_alpha   59.92821399
_cell_angle_beta   59.92821125
_cell_angle_gamma   59.92821202
_symmetry_Int_Tables_number   1
_chemical_formula_structural   Zr12Ti4CoIr7N4
_chemical_formula_sum   'Zr12 Ti4 Co1 Ir7 N4'
_cell_volume   454.53057024
_cell_formula_units_Z   1
loop_
 _symmetry_equiv_pos_site_id
 _symmetry_equiv_pos_as_xyz
  1  'x, y, z'
loop_
 _atom_site_type_symbol
 _atom_site_label
 _atom_site_symmetry_multiplicity
 _atom_site_fract_x
 _atom_site_fract_y
 _atom_site_fract_z
 _atom_site_occupancy
  Zr  Zr0  1  0.811276  0.811276  0.186993  1
  Zr  Zr1  1  0.189796  0.189796  0.810728  1
  Zr  Zr2  1  0.811276  0.186993  0.811276  1
  Zr  Zr3  1  0.189796  0.810728  0.189796  1
  Zr  Zr4  1  0.186993  0.811276  0.811276  1
  Zr  Zr5  1  0.810728  0.189796  0.189796  1
  Zr  Zr6  1  0.439395  0.439395  0.061758  1
  Zr  Zr7  1  0.062376  0.062376  0.437889  1
  Zr  Zr8  1  0.439395  0.061758  0.439395  1
  Zr  Zr9  1  0.062376  0.437889  0.062376  1
  Zr  Zr10  1  0.061758  0.439395  0.439395  1
  Zr  Zr11  1  0.437889  0.062376  0.062376  1
  Ti  Ti12  1  0.116978  0.629824  0.629824  1
  Ti  Ti13  1  0.629824  0.116978  0.629824  1
  Ti  Ti14  1  0.629824  0.629824  0.116978  1
  Ti  Ti15  1  0.624032  0.624032  0.624032  1
  Co  Co16  1  0.832370  0.832370  0.832370  1
  Ir  Ir17  1  0.748804  0.415957  0.415957  1
  Ir  Ir18  1  0.415957  0.748804  0.415957  1
  Ir  Ir19  1  0.415957  0.415957  0.748804  1
  Ir  Ir20  1  0.417821  0.417821  0.417821  1
  Ir  Ir21  1  0.500768  0.832327  0.832327  1
  Ir  Ir22  1  0.832327  0.500768  0.832327  1
  Ir  Ir23  1  0.832327  0.832327  0.500768  1
  N  N24  1  0.625179  0.124992  0.124992  1
  N  N25  1  0.124992  0.625179  0.124992  1
  N  N26  1  0.124992  0.124992  0.625179  1
  N  N27  1  0.124795  0.124795  0.124795  1
