# generated using pymatgen
data_TmPa3(Pd3Rh)3
_symmetry_space_group_name_H-M   'P 1'
_cell_length_a   5.78807800
_cell_length_b   5.78807699
_cell_length_c   9.54692900
_cell_angle_alpha   90.00000000
_cell_angle_beta   90.00000000
_cell_angle_gamma   119.99999433
_symmetry_Int_Tables_number   1
_chemical_formula_structural   TmPa3(Pd3Rh)3
_chemical_formula_sum   'Tm1 Pa3 Pd9 Rh3'
_cell_volume   276.98931970
_cell_formula_units_Z   1
loop_
 _symmetry_equiv_pos_site_id
 _symmetry_equiv_pos_as_xyz
  1  'x, y, z'
loop_
 _atom_site_type_symbol
 _atom_site_label
 _atom_site_symmetry_multiplicity
 _atom_site_fract_x
 _atom_site_fract_y
 _atom_site_fract_z
 _atom_site_occupancy
  Tm  Tm0  1  0.333333  0.666667  0.000000  1
  Pa  Pa1  1  0.666667  0.333333  0.500000  1
  Pa  Pa2  1  0.000000  0.000000  0.740085  1
  Pa  Pa3  1  0.000000  0.000000  0.259915  1
  Pd  Pd4  1  0.830769  0.169231  0.000000  1
  Pd  Pd5  1  0.830769  0.661537  0.000000  1
  Pd  Pd6  1  0.338463  0.169231  0.000000  1
  Pd  Pd7  1  0.999022  0.499512  0.750966  1
  Pd  Pd8  1  0.500488  0.499512  0.750966  1
  Pd  Pd9  1  0.500488  0.000978  0.750966  1
  Pd  Pd10  1  0.999022  0.499512  0.249034  1
  Pd  Pd11  1  0.500488  0.499512  0.249034  1
  Pd  Pd12  1  0.500488  0.000978  0.249034  1
  Rh  Rh13  1  0.168330  0.831670  0.500000  1
  Rh  Rh14  1  0.168330  0.336659  0.500000  1
  Rh  Rh15  1  0.663341  0.831670  0.500000  1
