# generated using pymatgen
data_Dy11YOs3Rh
_symmetry_space_group_name_H-M   'P 1'
_cell_length_a   6.38102574
_cell_length_b   7.36836701
_cell_length_c   9.10882800
_cell_angle_alpha   90.00000000
_cell_angle_beta   90.00000000
_cell_angle_gamma   90.04426696
_symmetry_Int_Tables_number   1
_chemical_formula_structural   Dy11YOs3Rh
_chemical_formula_sum   'Dy11 Y1 Os3 Rh1'
_cell_volume   428.27637493
_cell_formula_units_Z   1
loop_
 _symmetry_equiv_pos_site_id
 _symmetry_equiv_pos_as_xyz
  1  'x, y, z'
loop_
 _atom_site_type_symbol
 _atom_site_label
 _atom_site_symmetry_multiplicity
 _atom_site_fract_x
 _atom_site_fract_y
 _atom_site_fract_z
 _atom_site_occupancy
  Dy  Dy0  1  0.333374  0.673038  0.061601  1
  Dy  Dy1  1  0.170409  0.177160  0.438408  1
  Dy  Dy2  1  0.670402  0.324272  0.563985  1
  Dy  Dy3  1  0.826178  0.824518  0.933273  1
  Dy  Dy4  1  0.670402  0.324272  0.936015  1
  Dy  Dy5  1  0.826178  0.824518  0.566727  1
  Dy  Dy6  1  0.333374  0.673038  0.438399  1
  Dy  Dy7  1  0.170409  0.177160  0.061592  1
  Dy  Dy8  1  0.630989  0.040134  0.250000  1
  Dy  Dy9  1  0.129800  0.462034  0.750000  1
  Dy  Dy10  1  0.368527  0.961817  0.750000  1
  Y  Y11  1  0.869589  0.537145  0.250000  1
  Os  Os12  1  0.458279  0.382917  0.250000  1
  Os  Os13  1  0.961712  0.115691  0.750000  1
  Os  Os14  1  0.538239  0.616722  0.750000  1
  Rh  Rh15  1  0.042142  0.885565  0.250000  1
