# generated using pymatgen
data_ErTm2Sc2Sn3
_symmetry_space_group_name_H-M   'P 1'
_cell_length_a   6.22755003
_cell_length_b   8.71141081
_cell_length_c   8.71641404
_cell_angle_alpha   120.01505244
_cell_angle_beta   90.01035956
_cell_angle_gamma   89.99091230
_symmetry_Int_Tables_number   1
_chemical_formula_structural   ErTm2Sc2Sn3
_chemical_formula_sum   'Er2 Tm4 Sc4 Sn6'
_cell_volume   409.45700132
_cell_formula_units_Z   2
loop_
 _symmetry_equiv_pos_site_id
 _symmetry_equiv_pos_as_xyz
  1  'x, y, z'
loop_
 _atom_site_type_symbol
 _atom_site_label
 _atom_site_symmetry_multiplicity
 _atom_site_fract_x
 _atom_site_fract_y
 _atom_site_fract_z
 _atom_site_occupancy
  Er  Er0  1  0.750071  0.237881  0.999974  1
  Er  Er1  1  0.750060  0.762086  0.762050  1
  Tm  Tm2  1  0.750010  0.999974  0.238130  1
  Tm  Tm3  1  0.250006  0.762426  0.000307  1
  Tm  Tm4  1  0.249994  0.237660  0.237936  1
  Tm  Tm5  1  0.249967  0.000026  0.761874  1
  Sc  Sc6  1  0.499910  0.333436  0.666721  1
  Sc  Sc7  1  0.499931  0.666578  0.333242  1
  Sc  Sc8  1  0.000037  0.666620  0.333284  1
  Sc  Sc9  1  0.000062  0.333355  0.666668  1
  Sn  Sn10  1  0.749979  0.600864  0.000333  1
  Sn  Sn11  1  0.749990  0.399112  0.399393  1
  Sn  Sn12  1  0.749990  0.999963  0.600285  1
  Sn  Sn13  1  0.250002  0.399182  0.999972  1
  Sn  Sn14  1  0.249985  0.600825  0.600774  1
  Sn  Sn15  1  0.250000  0.000012  0.399056  1
