# generated using pymatgen
data_KRb3(HgSe2)2
_symmetry_space_group_name_H-M   'P 1'
_cell_length_a   7.84326000
_cell_length_b   8.59522300
_cell_length_c   11.73283500
_cell_angle_alpha   90.00000000
_cell_angle_beta   90.00000000
_cell_angle_gamma   90.00000000
_symmetry_Int_Tables_number   1
_chemical_formula_structural   KRb3(HgSe2)2
_chemical_formula_sum   'K2 Rb6 Hg4 Se8'
_cell_volume   790.96401170
_cell_formula_units_Z   2
loop_
 _symmetry_equiv_pos_site_id
 _symmetry_equiv_pos_as_xyz
  1  'x, y, z'
loop_
 _atom_site_type_symbol
 _atom_site_label
 _atom_site_symmetry_multiplicity
 _atom_site_fract_x
 _atom_site_fract_y
 _atom_site_fract_z
 _atom_site_occupancy
  K  K0  1  0.500000  0.250000  0.399316  1
  K  K1  1  0.000000  0.250000  0.399316  1
  Rb  Rb2  1  0.750000  0.959511  0.885993  1
  Rb  Rb3  1  0.250000  0.540489  0.885993  1
  Rb  Rb4  1  0.500000  0.750000  0.600726  1
  Rb  Rb5  1  0.000000  0.750000  0.600726  1
  Rb  Rb6  1  0.250000  0.045738  0.115930  1
  Rb  Rb7  1  0.750000  0.454262  0.115930  1
  Hg  Hg8  1  0.750000  0.832920  0.286603  1
  Hg  Hg9  1  0.750000  0.337546  0.711997  1
  Hg  Hg10  1  0.250000  0.667080  0.286603  1
  Hg  Hg11  1  0.250000  0.162454  0.711997  1
  Se  Se12  1  0.750000  0.074904  0.171781  1
  Se  Se13  1  0.250000  0.406272  0.600380  1
  Se  Se14  1  0.750000  0.582231  0.392034  1
  Se  Se15  1  0.250000  0.425096  0.171781  1
  Se  Se16  1  0.250000  0.917769  0.392034  1
  Se  Se17  1  0.750000  0.571173  0.835241  1
  Se  Se18  1  0.250000  0.928827  0.835241  1
  Se  Se19  1  0.750000  0.093728  0.600380  1
