# generated using pymatgen
data_RbP4IO12
_symmetry_space_group_name_H-M   'P 1'
_cell_length_a   10.51296958
_cell_length_b   10.51296988
_cell_length_c   5.61807200
_cell_angle_alpha   79.44523531
_cell_angle_beta   79.44523501
_cell_angle_gamma   74.59606579
_symmetry_Int_Tables_number   1
_chemical_formula_structural   RbP4IO12
_chemical_formula_sum   'Rb2 P8 I2 O24'
_cell_volume   582.53198419
_cell_formula_units_Z   2
loop_
 _symmetry_equiv_pos_site_id
 _symmetry_equiv_pos_as_xyz
  1  'x, y, z'
loop_
 _atom_site_type_symbol
 _atom_site_label
 _atom_site_symmetry_multiplicity
 _atom_site_fract_x
 _atom_site_fract_y
 _atom_site_fract_z
 _atom_site_occupancy
  Rb  Rb0  1  0.391301  0.391301  0.703797  1
  Rb  Rb1  1  0.608699  0.608699  0.296203  1
  P  P2  1  0.792979  0.352076  0.813551  1
  P  P3  1  0.066072  0.289210  0.480144  1
  P  P4  1  0.289210  0.066072  0.480144  1
  P  P5  1  0.647924  0.207021  0.186449  1
  P  P6  1  0.352076  0.792979  0.813551  1
  P  P7  1  0.710790  0.933928  0.519856  1
  P  P8  1  0.933928  0.710790  0.519856  1
  P  P9  1  0.207021  0.647924  0.186449  1
  I  I10  1  0.500000  0.000000  0.000000  1
  I  I11  1  0.000000  0.500000  0.000000  1
  O  O12  1  0.447202  0.824948  0.963231  1
  O  O13  1  0.378735  0.137046  0.544586  1
  O  O14  1  0.408645  0.672271  0.696112  1
  O  O15  1  0.175052  0.552798  0.036769  1
  O  O16  1  0.552798  0.175052  0.036769  1
  O  O17  1  0.949646  0.696402  0.793374  1
  O  O18  1  0.216022  0.783978  0.000000  1
  O  O19  1  0.591355  0.327729  0.303888  1
  O  O20  1  0.621265  0.862954  0.455414  1
  O  O21  1  0.709353  0.078333  0.366755  1
  O  O22  1  0.327729  0.591355  0.303888  1
  O  O23  1  0.862954  0.621265  0.455414  1
  O  O24  1  0.824948  0.447202  0.963231  1
  O  O25  1  0.078333  0.709353  0.366755  1
  O  O26  1  0.132546  0.132546  0.550530  1
  O  O27  1  0.137046  0.378735  0.544586  1
  O  O28  1  0.672271  0.408645  0.696112  1
  O  O29  1  0.290647  0.921667  0.633245  1
  O  O30  1  0.783978  0.216022  0.000000  1
  O  O31  1  0.303598  0.050354  0.206626  1
  O  O32  1  0.696402  0.949646  0.793374  1
  O  O33  1  0.867454  0.867454  0.449470  1
  O  O34  1  0.921667  0.290647  0.633245  1
  O  O35  1  0.050354  0.303598  0.206626  1
