# generated using pymatgen
data_Rb2Nd4(VH9)3
_symmetry_space_group_name_H-M   'P 1'
_cell_length_a   8.72057000
_cell_length_b   8.79580268
_cell_length_c   5.11565800
_cell_angle_alpha   90.00000000
_cell_angle_beta   90.00000000
_cell_angle_gamma   120.28580639
_symmetry_Int_Tables_number   1
_chemical_formula_structural   Rb2Nd4(VH9)3
_chemical_formula_sum   'Rb2 Nd4 V3 H27'
_cell_volume   338.83987242
_cell_formula_units_Z   1
loop_
 _symmetry_equiv_pos_site_id
 _symmetry_equiv_pos_as_xyz
  1  'x, y, z'
loop_
 _atom_site_type_symbol
 _atom_site_label
 _atom_site_symmetry_multiplicity
 _atom_site_fract_x
 _atom_site_fract_y
 _atom_site_fract_z
 _atom_site_occupancy
  Rb  Rb0  1  0.395748  0.403710  0.000000  1
  Rb  Rb1  1  0.604252  0.007961  0.000000  1
  Nd  Nd2  1  0.000000  0.250530  0.500000  1
  Nd  Nd3  1  0.722927  0.723338  0.500000  1
  Nd  Nd4  1  0.277073  0.000412  0.500000  1
  Nd  Nd5  1  0.000000  0.599424  0.000000  1
  V  V6  1  0.692151  0.357392  0.500000  1
  V  V7  1  0.307849  0.665242  0.500000  1
  V  V8  1  0.000000  0.972839  0.000000  1
  H  H9  1  0.838513  0.351235  0.736155  1
  H  H10  1  0.706286  0.482682  0.768888  1
  H  H11  1  0.529124  0.218300  0.715856  1
  H  H12  1  0.161487  0.512722  0.263845  1
  H  H13  1  0.529124  0.218300  0.284144  1
  H  H14  1  0.838513  0.351235  0.263845  1
  H  H15  1  0.706286  0.482682  0.231112  1
  H  H16  1  0.293714  0.776397  0.768888  1
  H  H17  1  0.470876  0.689176  0.715856  1
  H  H18  1  0.205450  0.978268  0.000000  1
  H  H19  1  0.794550  0.772818  0.000000  1
  H  H20  1  0.000000  0.177214  0.000000  1
  H  H21  1  0.860808  0.980754  0.254952  1
  H  H22  1  0.139192  0.119945  0.745048  1
  H  H23  1  0.000000  0.834993  0.747518  1
  H  H24  1  0.000000  0.834993  0.252482  1
  H  H25  1  0.139192  0.119945  0.254952  1
  H  H26  1  0.860808  0.980754  0.745048  1
  H  H27  1  0.123046  0.685817  0.500000  1
  H  H28  1  0.474941  0.876182  0.500000  1
  H  H29  1  0.312311  0.472369  0.500000  1
  H  H30  1  0.525059  0.401241  0.500000  1
  H  H31  1  0.876954  0.562772  0.500000  1
  H  H32  1  0.687689  0.160058  0.500000  1
  H  H33  1  0.161487  0.512722  0.736155  1
  H  H34  1  0.293714  0.776397  0.231112  1
  H  H35  1  0.470876  0.689176  0.284144  1
