# generated using pymatgen
data_B4Ir3Pd4Rh
_symmetry_space_group_name_H-M   'P 1'
_cell_length_a   6.73751692
_cell_length_b   6.13062851
_cell_length_c   5.54073308
_cell_angle_alpha   70.58828361
_cell_angle_beta   58.58015634
_cell_angle_gamma   50.67233331
_symmetry_Int_Tables_number   1
_chemical_formula_structural   B4Ir3Pd4Rh
_chemical_formula_sum   'B4 Ir3 Pd4 Rh1'
_cell_volume   151.07313506
_cell_formula_units_Z   1
loop_
 _symmetry_equiv_pos_site_id
 _symmetry_equiv_pos_as_xyz
  1  'x, y, z'
loop_
 _atom_site_type_symbol
 _atom_site_label
 _atom_site_symmetry_multiplicity
 _atom_site_fract_x
 _atom_site_fract_y
 _atom_site_fract_z
 _atom_site_occupancy
  B  B0  1  0.051298  0.982953  0.564117  1
  B  B1  1  0.681966  0.850282  0.198928  1
  B  B2  1  0.410079  0.561750  0.977115  1
  B  B3  1  0.274937  0.191942  0.845981  1
  Ir  Ir4  1  0.381102  0.853750  0.149713  1
  Ir  Ir5  1  0.615432  0.149494  0.854903  1
  Ir  Ir6  1  0.395058  0.865956  0.636565  1
  Pd  Pd7  1  0.940614  0.791257  0.385470  1
  Pd  Pd8  1  0.458012  0.307279  0.370444  1
  Pd  Pd9  1  0.860966  0.371131  0.307055  1
  Pd  Pd10  1  0.885458  0.385371  0.786300  1
  Rh  Rh11  1  0.100278  0.633634  0.868204  1
