# generated using pymatgen
data_Nd11In9Co4
_symmetry_space_group_name_H-M   'P 1'
_cell_length_a   13.31960770
_cell_length_b   13.31960774
_cell_length_c   3.78925400
_cell_angle_alpha   90.00000000
_cell_angle_beta   90.00000000
_cell_angle_gamma   111.84872929
_symmetry_Int_Tables_number   1
_chemical_formula_structural   Nd11In9Co4
_chemical_formula_sum   'Nd11 In9 Co4'
_cell_volume   623.97034375
_cell_formula_units_Z   1
loop_
 _symmetry_equiv_pos_site_id
 _symmetry_equiv_pos_as_xyz
  1  'x, y, z'
loop_
 _atom_site_type_symbol
 _atom_site_label
 _atom_site_symmetry_multiplicity
 _atom_site_fract_x
 _atom_site_fract_y
 _atom_site_fract_z
 _atom_site_occupancy
  Nd  Nd0  1  0.313828  0.313828  0.000000  1
  Nd  Nd1  1  0.686172  0.686172  0.000000  1
  Nd  Nd2  1  0.000000  0.000000  0.000000  1
  Nd  Nd3  1  0.081975  0.420549  0.000000  1
  Nd  Nd4  1  0.918025  0.579451  0.000000  1
  Nd  Nd5  1  0.420549  0.081975  0.000000  1
  Nd  Nd6  1  0.579451  0.918025  0.000000  1
  Nd  Nd7  1  0.839070  0.160930  0.000000  1
  Nd  Nd8  1  0.160930  0.839070  0.000000  1
  Nd  Nd9  1  0.625260  0.374740  0.000000  1
  Nd  Nd10  1  0.374740  0.625260  0.000000  1
  In  In11  1  0.835250  0.367668  0.500000  1
  In  In12  1  0.164750  0.632332  0.500000  1
  In  In13  1  0.367668  0.835250  0.500000  1
  In  In14  1  0.632332  0.164750  0.500000  1
  In  In15  1  0.080969  0.221670  0.500000  1
  In  In16  1  0.919031  0.778330  0.500000  1
  In  In17  1  0.221670  0.080969  0.500000  1
  In  In18  1  0.778330  0.919031  0.500000  1
  In  In19  1  0.500000  0.500000  0.500000  1
  Co  Co20  1  0.244159  0.450209  0.500000  1
  Co  Co21  1  0.755841  0.549791  0.500000  1
  Co  Co22  1  0.450209  0.244159  0.500000  1
  Co  Co23  1  0.549791  0.755841  0.500000  1
