# generated using pymatgen
data_NdSi2IrRu
_symmetry_space_group_name_H-M   'P 1'
_cell_length_a   5.79356707
_cell_length_b   5.79356647
_cell_length_c   5.79356613
_cell_angle_alpha   137.73693878
_cell_angle_beta   137.73693635
_cell_angle_gamma   61.30613587
_symmetry_Int_Tables_number   1
_chemical_formula_structural   NdSi2IrRu
_chemical_formula_sum   'Nd1 Si2 Ir1 Ru1'
_cell_volume   86.96969080
_cell_formula_units_Z   1
loop_
 _symmetry_equiv_pos_site_id
 _symmetry_equiv_pos_as_xyz
  1  'x, y, z'
loop_
 _atom_site_type_symbol
 _atom_site_label
 _atom_site_symmetry_multiplicity
 _atom_site_fract_x
 _atom_site_fract_y
 _atom_site_fract_z
 _atom_site_occupancy
  Nd  Nd0  1  0.000000  0.000000  0.000000  1
  Si  Si1  1  0.370037  0.370037  0.000000  1
  Si  Si2  1  0.629963  0.629963  0.000000  1
  Ir  Ir3  1  0.250000  0.750000  0.500000  1
  Ru  Ru4  1  0.750000  0.250000  0.500000  1
