# generated using pymatgen
data_Er4Co17GeP11Ru3
_symmetry_space_group_name_H-M   'P 1'
_cell_length_a   3.68421300
_cell_length_b   10.38459230
_cell_length_c   11.76748878
_cell_angle_alpha   90.14484647
_cell_angle_beta   90.00000000
_cell_angle_gamma   90.00000000
_symmetry_Int_Tables_number   1
_chemical_formula_structural   Er4Co17GeP11Ru3
_chemical_formula_sum   'Er4 Co17 Ge1 P11 Ru3'
_cell_volume   450.21150253
_cell_formula_units_Z   1
loop_
 _symmetry_equiv_pos_site_id
 _symmetry_equiv_pos_as_xyz
  1  'x, y, z'
loop_
 _atom_site_type_symbol
 _atom_site_label
 _atom_site_symmetry_multiplicity
 _atom_site_fract_x
 _atom_site_fract_y
 _atom_site_fract_z
 _atom_site_occupancy
  Er  Er0  1  0.250000  0.581640  0.696187  1
  Er  Er1  1  0.250000  0.914190  0.204271  1
  Er  Er2  1  0.750000  0.412546  0.297418  1
  Er  Er3  1  0.750000  0.085853  0.795576  1
  Co  Co4  1  0.750000  0.217310  0.506428  1
  Co  Co5  1  0.250000  0.405689  0.486805  1
  Co  Co6  1  0.250000  0.091288  0.988788  1
  Co  Co7  1  0.750000  0.590566  0.509450  1
  Co  Co8  1  0.750000  0.911577  0.012391  1
  Co  Co9  1  0.250000  0.219191  0.177374  1
  Co  Co10  1  0.250000  0.277419  0.674624  1
  Co  Co11  1  0.750000  0.793797  0.820455  1
  Co  Co12  1  0.750000  0.722080  0.323269  1
  Co  Co13  1  0.250000  0.890743  0.699807  1
  Co  Co14  1  0.250000  0.613272  0.204756  1
  Co  Co15  1  0.750000  0.115285  0.300793  1
  Co  Co16  1  0.750000  0.379934  0.795910  1
  Co  Co17  1  0.250000  0.458316  0.935463  1
  Co  Co18  1  0.250000  0.035066  0.431021  1
  Co  Co19  1  0.750000  0.530229  0.077180  1
  Co  Co20  1  0.750000  0.968035  0.567799  1
  Ge  Ge21  1  0.750000  0.585589  0.885898  1
  P  P22  1  0.250000  0.418431  0.115399  1
  P  P23  1  0.250000  0.082345  0.611101  1
  P  P24  1  0.750000  0.920652  0.386871  1
  P  P25  1  0.250000  0.269743  0.864894  1
  P  P26  1  0.250000  0.229229  0.369867  1
  P  P27  1  0.750000  0.728193  0.133221  1
  P  P28  1  0.750000  0.772526  0.632154  1
  P  P29  1  0.250000  0.593977  0.390787  1
  P  P30  1  0.250000  0.906322  0.888872  1
  P  P31  1  0.750000  0.397020  0.606843  1
  P  P32  1  0.750000  0.095435  0.112557  1
  Ru  Ru33  1  0.250000  0.721780  0.996125  1
  Ru  Ru34  1  0.250000  0.783946  0.491543  1
  Ru  Ru35  1  0.750000  0.280789  0.008100  1
