# generated using pymatgen
data_Ho3Tm2AlSb2
_symmetry_space_group_name_H-M   'P 1'
_cell_length_a   8.82731065
_cell_length_b   8.83712086
_cell_length_c   6.34620800
_cell_angle_alpha   90.00000000
_cell_angle_beta   90.00000000
_cell_angle_gamma   120.03676546
_symmetry_Int_Tables_number   1
_chemical_formula_structural   Ho3Tm2AlSb2
_chemical_formula_sum   'Ho6 Tm4 Al2 Sb4'
_cell_volume   428.57134046
_cell_formula_units_Z   2
loop_
 _symmetry_equiv_pos_site_id
 _symmetry_equiv_pos_as_xyz
  1  'x, y, z'
loop_
 _atom_site_type_symbol
 _atom_site_label
 _atom_site_symmetry_multiplicity
 _atom_site_fract_x
 _atom_site_fract_y
 _atom_site_fract_z
 _atom_site_occupancy
  Ho  Ho0  1  0.755690  0.998883  0.750000  1
  Ho  Ho1  1  0.755690  0.756807  0.250000  1
  Ho  Ho2  1  0.008704  0.242994  0.250000  1
  Ho  Ho3  1  0.008704  0.765711  0.750000  1
  Ho  Ho4  1  0.241649  0.232235  0.750000  1
  Ho  Ho5  1  0.241649  0.009412  0.250000  1
  Tm  Tm6  1  0.335852  0.667926  0.000000  1
  Tm  Tm7  1  0.655672  0.327835  0.500000  1
  Tm  Tm8  1  0.655672  0.327835  0.000000  1
  Tm  Tm9  1  0.335852  0.667926  0.500000  1
  Al  Al10  1  0.398436  0.997024  0.750000  1
  Al  Al11  1  0.398436  0.401412  0.250000  1
  Sb  Sb12  1  0.998558  0.605999  0.250000  1
  Sb  Sb13  1  0.998558  0.392559  0.750000  1
  Sb  Sb14  1  0.605440  0.604502  0.750000  1
  Sb  Sb15  1  0.605440  0.000937  0.250000  1
