# generated using pymatgen
data_Er9Th(Cd2Pd)4
_symmetry_space_group_name_H-M   'P 1'
_cell_length_a   3.63588300
_cell_length_b   7.96756356
_cell_length_c   18.35829250
_cell_angle_alpha   90.15805882
_cell_angle_beta   90.00000000
_cell_angle_gamma   90.00000000
_symmetry_Int_Tables_number   1
_chemical_formula_structural   Er9Th(Cd2Pd)4
_chemical_formula_sum   'Er9 Th1 Cd8 Pd4'
_cell_volume   531.82171841
_cell_formula_units_Z   1
loop_
 _symmetry_equiv_pos_site_id
 _symmetry_equiv_pos_as_xyz
  1  'x, y, z'
loop_
 _atom_site_type_symbol
 _atom_site_label
 _atom_site_symmetry_multiplicity
 _atom_site_fract_x
 _atom_site_fract_y
 _atom_site_fract_z
 _atom_site_occupancy
  Er  Er0  1  0.000000  0.501472  0.499924  1
  Er  Er1  1  0.000000  0.000873  0.999542  1
  Er  Er2  1  0.000000  0.260019  0.719290  1
  Er  Er3  1  0.000000  0.758967  0.780744  1
  Er  Er4  1  0.000000  0.238276  0.217893  1
  Er  Er5  1  0.000000  0.613202  0.081162  1
  Er  Er6  1  0.000000  0.386884  0.915250  1
  Er  Er7  1  0.000000  0.887151  0.585418  1
  Er  Er8  1  0.000000  0.114489  0.418125  1
  Th  Th9  1  0.000000  0.739822  0.281194  1
  Cd  Cd10  1  0.500000  0.714241  0.932356  1
  Cd  Cd11  1  0.500000  0.285744  0.066998  1
  Cd  Cd12  1  0.500000  0.787534  0.435992  1
  Cd  Cd13  1  0.500000  0.215062  0.567206  1
  Cd  Cd14  1  0.500000  0.574644  0.647916  1
  Cd  Cd15  1  0.500000  0.416553  0.353124  1
  Cd  Cd16  1  0.500000  0.928348  0.145553  1
  Cd  Cd17  1  0.500000  0.075350  0.852037  1
  Pd  Pd18  1  0.500000  0.525378  0.195459  1
  Pd  Pd19  1  0.500000  0.474648  0.804034  1
  Pd  Pd20  1  0.500000  0.974598  0.695899  1
  Pd  Pd21  1  0.500000  0.026747  0.304884  1
