# generated using pymatgen
data_TiRe5Sb14
_symmetry_space_group_name_H-M   'P 1'
_cell_length_a   8.30286116
_cell_length_b   8.30286124
_cell_length_c   8.30286119
_cell_angle_alpha   109.13694586
_cell_angle_beta   109.13694660
_cell_angle_gamma   110.14186489
_symmetry_Int_Tables_number   1
_chemical_formula_structural   TiRe5Sb14
_chemical_formula_sum   'Ti1 Re5 Sb14'
_cell_volume   440.57182246
_cell_formula_units_Z   1
loop_
 _symmetry_equiv_pos_site_id
 _symmetry_equiv_pos_as_xyz
  1  'x, y, z'
loop_
 _atom_site_type_symbol
 _atom_site_label
 _atom_site_symmetry_multiplicity
 _atom_site_fract_x
 _atom_site_fract_y
 _atom_site_fract_z
 _atom_site_occupancy
  Ti  Ti0  1  0.349410  0.349410  0.000000  1
  Re  Re1  1  0.000538  0.342032  0.341493  1
  Re  Re2  1  0.000538  0.659045  0.658507  1
  Re  Re3  1  0.659045  0.000538  0.658507  1
  Re  Re4  1  0.342032  0.000538  0.341493  1
  Re  Re5  1  0.661651  0.661651  0.000000  1
  Sb  Sb6  1  0.751265  0.251265  0.500000  1
  Sb  Sb7  1  0.496992  0.243395  0.746403  1
  Sb  Sb8  1  0.496992  0.750589  0.253597  1
  Sb  Sb9  1  0.243395  0.496992  0.746403  1
  Sb  Sb10  1  0.750589  0.496992  0.253597  1
  Sb  Sb11  1  0.251265  0.751265  0.500000  1
  Sb  Sb12  1  0.326730  0.326730  0.326193  1
  Sb  Sb13  1  0.998297  0.998297  0.325718  1
  Sb  Sb14  1  0.326730  0.000537  0.000000  1
  Sb  Sb15  1  0.000537  0.326730  0.000000  1
  Sb  Sb16  1  0.672579  0.998297  0.000000  1
  Sb  Sb17  1  0.998297  0.672579  0.000000  1
  Sb  Sb18  1  0.000537  0.000537  0.673807  1
  Sb  Sb19  1  0.672579  0.672579  0.674282  1
