# generated using pymatgen
data_Dy4P7Ir7Rh
_symmetry_space_group_name_H-M   'P 1'
_cell_length_a   3.95179700
_cell_length_b   12.69072496
_cell_length_c   13.07967252
_cell_angle_alpha   80.76987218
_cell_angle_beta   90.00000000
_cell_angle_gamma   90.00000000
_symmetry_Int_Tables_number   1
_chemical_formula_structural   Dy4P7Ir7Rh
_chemical_formula_sum   'Dy8 P14 Ir14 Rh2'
_cell_volume   647.46752175
_cell_formula_units_Z   2
loop_
 _symmetry_equiv_pos_site_id
 _symmetry_equiv_pos_as_xyz
  1  'x, y, z'
loop_
 _atom_site_type_symbol
 _atom_site_label
 _atom_site_symmetry_multiplicity
 _atom_site_fract_x
 _atom_site_fract_y
 _atom_site_fract_z
 _atom_site_occupancy
  Dy  Dy0  1  0.250000  0.102785  0.789447  1
  Dy  Dy1  1  0.750000  0.897215  0.210553  1
  Dy  Dy2  1  0.250000  0.278810  0.102359  1
  Dy  Dy3  1  0.750000  0.721190  0.897641  1
  Dy  Dy4  1  0.250000  0.520645  0.293816  1
  Dy  Dy5  1  0.750000  0.479355  0.706184  1
  Dy  Dy6  1  0.250000  0.208994  0.437803  1
  Dy  Dy7  1  0.750000  0.791006  0.562197  1
  P  P8  1  0.250000  0.051877  0.100822  1
  P  P9  1  0.750000  0.948123  0.899178  1
  P  P10  1  0.250000  0.311966  0.689145  1
  P  P11  1  0.750000  0.688034  0.310855  1
  P  P12  1  0.250000  0.608009  0.567066  1
  P  P13  1  0.750000  0.391991  0.432934  1
  P  P14  1  0.250000  0.844046  0.717488  1
  P  P15  1  0.750000  0.155954  0.282512  1
  P  P16  1  0.750000  0.257756  0.919999  1
  P  P17  1  0.250000  0.742244  0.080001  1
  P  P18  1  0.750000  0.092848  0.588159  1
  P  P19  1  0.250000  0.907152  0.411841  1
  P  P20  1  0.750000  0.472533  0.129383  1
  P  P21  1  0.250000  0.527467  0.870617  1
  Ir  Ir22  1  0.250000  0.663004  0.731238  1
  Ir  Ir23  1  0.750000  0.336996  0.268762  1
  Ir  Ir24  1  0.250000  0.555160  0.044699  1
  Ir  Ir25  1  0.750000  0.444840  0.955301  1
  Ir  Ir26  1  0.250000  0.058509  0.274332  1
  Ir  Ir27  1  0.750000  0.941491  0.725668  1
  Ir  Ir28  1  0.250000  0.421759  0.523411  1
  Ir  Ir29  1  0.750000  0.578241  0.476589  1
  Ir  Ir30  1  0.250000  0.915284  0.997447  1
  Ir  Ir31  1  0.750000  0.084716  0.002553  1
  Ir  Ir32  1  0.250000  0.729324  0.395213  1
  Ir  Ir33  1  0.750000  0.270676  0.604787  1
  Ir  Ir34  1  0.250000  0.341846  0.858125  1
  Ir  Ir35  1  0.750000  0.658154  0.141875  1
  Rh  Rh36  1  0.250000  0.988704  0.574363  1
  Rh  Rh37  1  0.750000  0.011296  0.425637  1
