# generated using pymatgen
data_CsLaSnS4
_symmetry_space_group_name_H-M   'P 1'
_cell_length_a   7.08958200
_cell_length_b   18.40389900
_cell_length_c   6.96731800
_cell_angle_alpha   90.00000000
_cell_angle_beta   90.00000000
_cell_angle_gamma   90.00000000
_symmetry_Int_Tables_number   1
_chemical_formula_structural   CsLaSnS4
_chemical_formula_sum   'Cs4 La4 Sn4 S16'
_cell_volume   909.06744253
_cell_formula_units_Z   4
loop_
 _symmetry_equiv_pos_site_id
 _symmetry_equiv_pos_as_xyz
  1  'x, y, z'
loop_
 _atom_site_type_symbol
 _atom_site_label
 _atom_site_symmetry_multiplicity
 _atom_site_fract_x
 _atom_site_fract_y
 _atom_site_fract_z
 _atom_site_occupancy
  Cs  Cs0  1  0.005100  0.031944  0.011069  1
  Cs  Cs1  1  0.994900  0.531944  0.488930  1
  Cs  Cs2  1  0.494900  0.968056  0.511069  1
  Cs  Cs3  1  0.505100  0.468056  0.988931  1
  La  La4  1  0.022600  0.773727  0.205230  1
  La  La5  1  0.977400  0.273727  0.294770  1
  La  La6  1  0.477400  0.226273  0.705229  1
  La  La7  1  0.522600  0.726273  0.794771  1
  Sn  Sn8  1  0.510082  0.165910  0.202439  1
  Sn  Sn9  1  0.489918  0.665910  0.297562  1
  Sn  Sn10  1  0.989918  0.834090  0.702438  1
  Sn  Sn11  1  0.010082  0.334091  0.797562  1
  S  S12  1  0.011396  0.411433  0.072052  1
  S  S13  1  0.247583  0.647790  0.056403  1
  S  S14  1  0.763270  0.654443  0.092283  1
  S  S15  1  0.592381  0.285108  0.083436  1
  S  S16  1  0.407619  0.785108  0.416565  1
  S  S17  1  0.236730  0.154443  0.407717  1
  S  S18  1  0.752417  0.147789  0.443598  1
  S  S19  1  0.988604  0.911433  0.427948  1
  S  S20  1  0.488604  0.588567  0.572053  1
  S  S21  1  0.252417  0.352211  0.556402  1
  S  S22  1  0.736730  0.345557  0.592283  1
  S  S23  1  0.907619  0.714893  0.583435  1
  S  S24  1  0.092381  0.214892  0.916564  1
  S  S25  1  0.263270  0.845557  0.907717  1
  S  S26  1  0.747583  0.852211  0.943597  1
  S  S27  1  0.511396  0.088567  0.927947  1
