# generated using pymatgen
data_Tb2Er5Th(CdIr)2
_symmetry_space_group_name_H-M   'P 1'
_cell_length_a   9.64222585
_cell_length_b   9.64122801
_cell_length_c   9.63124590
_cell_angle_alpha   60.03863978
_cell_angle_beta   59.99269622
_cell_angle_gamma   60.21220669
_symmetry_Int_Tables_number   1
_chemical_formula_structural   Tb2Er5Th(CdIr)2
_chemical_formula_sum   'Tb4 Er10 Th2 Cd4 Ir4'
_cell_volume   634.26652715
_cell_formula_units_Z   2
loop_
 _symmetry_equiv_pos_site_id
 _symmetry_equiv_pos_as_xyz
  1  'x, y, z'
loop_
 _atom_site_type_symbol
 _atom_site_label
 _atom_site_symmetry_multiplicity
 _atom_site_fract_x
 _atom_site_fract_y
 _atom_site_fract_z
 _atom_site_occupancy
  Tb  Tb0  1  0.815718  0.187481  0.814007  1
  Tb  Tb1  1  0.187542  0.813883  0.185408  1
  Tb  Tb2  1  0.815580  0.815485  0.185449  1
  Tb  Tb3  1  0.192003  0.191583  0.808515  1
  Er  Er4  1  0.602828  0.197204  0.600517  1
  Er  Er5  1  0.196762  0.602926  0.600723  1
  Er  Er6  1  0.061909  0.439078  0.438340  1
  Er  Er7  1  0.438063  0.062910  0.061102  1
  Er  Er8  1  0.439141  0.061936  0.438741  1
  Er  Er9  1  0.062932  0.437235  0.060996  1
  Er  Er10  1  0.435572  0.435473  0.064293  1
  Er  Er11  1  0.061426  0.061458  0.436515  1
  Er  Er12  1  0.188803  0.813720  0.812403  1
  Er  Er13  1  0.812493  0.188709  0.187221  1
  Th  Th14  1  0.596247  0.595760  0.600579  1
  Th  Th15  1  0.597230  0.597893  0.203863  1
  Cd  Cd16  1  0.831903  0.831308  0.828391  1
  Cd  Cd17  1  0.831382  0.832459  0.506290  1
  Cd  Cd18  1  0.832528  0.503655  0.831700  1
  Cd  Cd19  1  0.503483  0.832506  0.830727  1
  Ir  Ir20  1  0.391314  0.390434  0.396253  1
  Ir  Ir21  1  0.389866  0.391173  0.823034  1
  Ir  Ir22  1  0.391709  0.823685  0.393195  1
  Ir  Ir23  1  0.823567  0.392049  0.391741  1
