# generated using pymatgen
data_CeEr9(SiB4)4
_symmetry_space_group_name_H-M   'P 1'
_cell_length_a   7.19368802
_cell_length_b   7.19368801
_cell_length_c   8.03703602
_cell_angle_alpha   89.99897406
_cell_angle_beta   89.99897601
_cell_angle_gamma   90.04364648
_symmetry_Int_Tables_number   1
_chemical_formula_structural   CeEr9(SiB4)4
_chemical_formula_sum   'Ce1 Er9 Si4 B16'
_cell_volume   415.90963926
_cell_formula_units_Z   1
loop_
 _symmetry_equiv_pos_site_id
 _symmetry_equiv_pos_as_xyz
  1  'x, y, z'
loop_
 _atom_site_type_symbol
 _atom_site_label
 _atom_site_symmetry_multiplicity
 _atom_site_fract_x
 _atom_site_fract_y
 _atom_site_fract_z
 _atom_site_occupancy
  Ce  Ce0  1  0.681937  0.181937  0.233171  1
  Er  Er1  1  0.318609  0.818609  0.776978  1
  Er  Er2  1  0.319480  0.819480  0.222345  1
  Er  Er3  1  0.819628  0.680490  0.222258  1
  Er  Er4  1  0.819479  0.680945  0.777579  1
  Er  Er5  1  0.680795  0.180795  0.776624  1
  Er  Er6  1  0.180945  0.319479  0.777579  1
  Er  Er7  1  0.180490  0.319628  0.222258  1
  Er  Er8  1  0.000547  0.999027  0.500523  1
  Er  Er9  1  0.499027  0.500547  0.500523  1
  Si  Si10  1  0.117301  0.617301  0.502412  1
  Si  Si11  1  0.886560  0.386560  0.502554  1
  Si  Si12  1  0.383029  0.114353  0.501187  1
  Si  Si13  1  0.614353  0.883029  0.501187  1
  B  B14  1  0.172967  0.038739  0.998289  1
  B  B15  1  0.827678  0.960644  0.999335  1
  B  B16  1  0.961008  0.171835  0.999317  1
  B  B17  1  0.326939  0.539819  0.998574  1
  B  B18  1  0.039819  0.826939  0.998574  1
  B  B19  1  0.671835  0.461008  0.999317  1
  B  B20  1  0.538739  0.672967  0.998289  1
  B  B21  1  0.460644  0.327678  0.999335  1
  B  B22  1  0.089736  0.589736  0.998816  1
  B  B23  1  0.909956  0.409956  0.001021  1
  B  B24  1  0.409927  0.089533  0.998364  1
  B  B25  1  0.589533  0.909927  0.998364  1
  B  B26  1  0.000325  0.998871  0.163002  1
  B  B27  1  0.000093  0.999751  0.834610  1
  B  B28  1  0.499751  0.500093  0.834610  1
  B  B29  1  0.498871  0.500325  0.163002  1
