# generated using pymatgen
data_Tb6YFeO12
_symmetry_space_group_name_H-M   'P 1'
_cell_length_a   6.67419952
_cell_length_b   6.67420138
_cell_length_c   6.67420049
_cell_angle_alpha   93.51212023
_cell_angle_beta   93.51211413
_cell_angle_gamma   93.51211425
_symmetry_Int_Tables_number   1
_chemical_formula_structural   Tb6YFeO12
_chemical_formula_sum   'Tb6 Y1 Fe1 O12'
_cell_volume   295.55491286
_cell_formula_units_Z   1
loop_
 _symmetry_equiv_pos_site_id
 _symmetry_equiv_pos_as_xyz
  1  'x, y, z'
loop_
 _atom_site_type_symbol
 _atom_site_label
 _atom_site_symmetry_multiplicity
 _atom_site_fract_x
 _atom_site_fract_y
 _atom_site_fract_z
 _atom_site_occupancy
  Tb  Tb0  1  0.738430  0.923525  0.435708  1
  Tb  Tb1  1  0.435708  0.738430  0.923525  1
  Tb  Tb2  1  0.076475  0.564292  0.261570  1
  Tb  Tb3  1  0.923525  0.435708  0.738430  1
  Tb  Tb4  1  0.564292  0.261570  0.076475  1
  Tb  Tb5  1  0.261570  0.076475  0.564292  1
  Y  Y6  1  0.000000  0.000000  0.000000  1
  Fe  Fe7  1  0.500000  0.500000  0.500000  1
  O  O8  1  0.066977  0.906302  0.318667  1
  O  O9  1  0.681333  0.933023  0.093698  1
  O  O10  1  0.462017  0.798795  0.587892  1
  O  O11  1  0.093698  0.681333  0.933023  1
  O  O12  1  0.798795  0.587892  0.462017  1
  O  O13  1  0.412108  0.537983  0.201205  1
  O  O14  1  0.587892  0.462017  0.798795  1
  O  O15  1  0.201205  0.412108  0.537983  1
  O  O16  1  0.906302  0.318667  0.066977  1
  O  O17  1  0.537983  0.201205  0.412108  1
  O  O18  1  0.318667  0.066977  0.906302  1
  O  O19  1  0.933023  0.093698  0.681333  1
