# generated using pymatgen
data_Cs2BeCrSe4
_symmetry_space_group_name_H-M   'P 1'
_cell_length_a   14.79409516
_cell_length_b   13.21563444
_cell_length_c   7.79457981
_cell_angle_alpha   85.39425353
_cell_angle_beta   62.92608992
_cell_angle_gamma   31.67965594
_symmetry_Int_Tables_number   1
_chemical_formula_structural   Cs2BeCrSe4
_chemical_formula_sum   'Cs4 Be2 Cr2 Se8'
_cell_volume   537.51468873
_cell_formula_units_Z   2
loop_
 _symmetry_equiv_pos_site_id
 _symmetry_equiv_pos_as_xyz
  1  'x, y, z'
loop_
 _atom_site_type_symbol
 _atom_site_label
 _atom_site_symmetry_multiplicity
 _atom_site_fract_x
 _atom_site_fract_y
 _atom_site_fract_z
 _atom_site_occupancy
  Cs  Cs0  1  0.677806  0.677806  0.322194  1
  Cs  Cs1  1  0.322194  0.322194  0.677806  1
  Cs  Cs2  1  0.572194  0.572194  0.927806  1
  Cs  Cs3  1  0.927806  0.927806  0.572194  1
  Be  Be4  1  0.500000  0.500000  0.500000  1
  Be  Be5  1  0.750000  0.750000  0.750000  1
  Cr  Cr6  1  0.000000  0.000000  0.000000  1
  Cr  Cr7  1  0.250000  0.250000  0.250000  1
  Se  Se8  1  0.370932  0.031311  0.953905  1
  Se  Se9  1  0.643853  0.953905  0.031311  1
  Se  Se10  1  0.953905  0.643853  0.370932  1
  Se  Se11  1  0.031311  0.370932  0.643853  1
  Se  Se12  1  0.879068  0.218689  0.296095  1
  Se  Se13  1  0.606147  0.296095  0.218689  1
  Se  Se14  1  0.296095  0.606147  0.879068  1
  Se  Se15  1  0.218689  0.879068  0.606147  1
