# generated using pymatgen
data_Al2HgPd7
_symmetry_space_group_name_H-M   'P 1'
_cell_length_a   7.46392717
_cell_length_b   7.46392787
_cell_length_c   5.59438246
_cell_angle_alpha   71.65181871
_cell_angle_beta   71.65182587
_cell_angle_gamma   31.98489171
_symmetry_Int_Tables_number   1
_chemical_formula_structural   Al2HgPd7
_chemical_formula_sum   'Al2 Hg1 Pd7'
_cell_volume   155.98487185
_cell_formula_units_Z   1
loop_
 _symmetry_equiv_pos_site_id
 _symmetry_equiv_pos_as_xyz
  1  'x, y, z'
loop_
 _atom_site_type_symbol
 _atom_site_label
 _atom_site_symmetry_multiplicity
 _atom_site_fract_x
 _atom_site_fract_y
 _atom_site_fract_z
 _atom_site_occupancy
  Al  Al0  1  0.189942  0.189942  0.346611  1
  Al  Al1  1  0.810058  0.810058  0.653389  1
  Hg  Hg2  1  0.000000  0.000000  0.000000  1
  Pd  Pd3  1  0.000000  0.000000  0.500000  1
  Pd  Pd4  1  0.210573  0.210573  0.855442  1
  Pd  Pd5  1  0.789427  0.789427  0.144558  1
  Pd  Pd6  1  0.376430  0.376430  0.361819  1
  Pd  Pd7  1  0.623570  0.623570  0.638181  1
  Pd  Pd8  1  0.404010  0.404010  0.829202  1
  Pd  Pd9  1  0.595990  0.595990  0.170798  1
