# generated using pymatgen
data_NdPt4Pb
_symmetry_space_group_name_H-M   'P 1'
_cell_length_a   5.50420581
_cell_length_b   5.50420557
_cell_length_c   5.50420600
_cell_angle_alpha   59.99999743
_cell_angle_beta   59.99999884
_cell_angle_gamma   60.00000129
_symmetry_Int_Tables_number   1
_chemical_formula_structural   NdPt4Pb
_chemical_formula_sum   'Nd1 Pt4 Pb1'
_cell_volume   117.91498045
_cell_formula_units_Z   1
loop_
 _symmetry_equiv_pos_site_id
 _symmetry_equiv_pos_as_xyz
  1  'x, y, z'
loop_
 _atom_site_type_symbol
 _atom_site_label
 _atom_site_symmetry_multiplicity
 _atom_site_fract_x
 _atom_site_fract_y
 _atom_site_fract_z
 _atom_site_occupancy
  Nd  Nd0  1  0.000000  0.000000  0.000000  1
  Pt  Pt1  1  0.624958  0.624958  0.125126  1
  Pt  Pt2  1  0.624958  0.125126  0.624958  1
  Pt  Pt3  1  0.125126  0.624958  0.624958  1
  Pt  Pt4  1  0.624958  0.624958  0.624958  1
  Pb  Pb5  1  0.250000  0.250000  0.250000  1
