# generated using pymatgen
data_Zr4Be4Si2Ir3Rh7
_symmetry_space_group_name_H-M   'P 1'
_cell_length_a   9.31467403
_cell_length_b   9.32611495
_cell_length_c   3.23525300
_cell_angle_alpha   90.00000000
_cell_angle_beta   90.00000000
_cell_angle_gamma   89.96730299
_symmetry_Int_Tables_number   1
_chemical_formula_structural   Zr4Be4Si2Ir3Rh7
_chemical_formula_sum   'Zr4 Be4 Si2 Ir3 Rh7'
_cell_volume   281.04547860
_cell_formula_units_Z   1
loop_
 _symmetry_equiv_pos_site_id
 _symmetry_equiv_pos_as_xyz
  1  'x, y, z'
loop_
 _atom_site_type_symbol
 _atom_site_label
 _atom_site_symmetry_multiplicity
 _atom_site_fract_x
 _atom_site_fract_y
 _atom_site_fract_z
 _atom_site_occupancy
  Zr  Zr0  1  0.174584  0.674820  0.000000  1
  Zr  Zr1  1  0.674863  0.824862  0.000000  1
  Zr  Zr2  1  0.324516  0.174348  0.000000  1
  Zr  Zr3  1  0.825768  0.324791  0.000000  1
  Be  Be4  1  0.376395  0.876338  0.000000  1
  Be  Be5  1  0.876417  0.623404  0.000000  1
  Be  Be6  1  0.124105  0.376998  0.000000  1
  Be  Be7  1  0.623669  0.123841  0.000000  1
  Si  Si8  1  0.999894  0.999997  0.000000  1
  Si  Si9  1  0.500182  0.499932  0.000000  1
  Ir  Ir10  1  0.000377  0.500268  0.500000  1
  Ir  Ir11  1  0.500004  0.999968  0.500000  1
  Ir  Ir12  1  0.067807  0.206993  0.500000  1
  Rh  Rh13  1  0.294376  0.432287  0.500000  1
  Rh  Rh14  1  0.705751  0.568225  0.500000  1
  Rh  Rh15  1  0.568043  0.293849  0.500000  1
  Rh  Rh16  1  0.431682  0.706067  0.500000  1
  Rh  Rh17  1  0.931538  0.793840  0.500000  1
  Rh  Rh18  1  0.794063  0.067493  0.500000  1
  Rh  Rh19  1  0.205966  0.931678  0.500000  1
