# generated using pymatgen
data_Y8ZnCo2Si12Pt
_symmetry_space_group_name_H-M   'P 1'
_cell_length_a   8.05348700
_cell_length_b   8.05348733
_cell_length_c   8.11938200
_cell_angle_alpha   90.00000000
_cell_angle_beta   90.00000000
_cell_angle_gamma   119.99999454
_symmetry_Int_Tables_number   1
_chemical_formula_structural   Y8ZnCo2Si12Pt
_chemical_formula_sum   'Y8 Zn1 Co2 Si12 Pt1'
_cell_volume   456.05956833
_cell_formula_units_Z   1
loop_
 _symmetry_equiv_pos_site_id
 _symmetry_equiv_pos_as_xyz
  1  'x, y, z'
loop_
 _atom_site_type_symbol
 _atom_site_label
 _atom_site_symmetry_multiplicity
 _atom_site_fract_x
 _atom_site_fract_y
 _atom_site_fract_z
 _atom_site_occupancy
  Y  Y0  1  0.499512  0.999025  0.241444  1
  Y  Y1  1  0.499594  0.999186  0.758521  1
  Y  Y2  1  0.000975  0.500488  0.241444  1
  Y  Y3  1  0.000814  0.500406  0.758521  1
  Y  Y4  1  0.499512  0.500488  0.241444  1
  Y  Y5  1  0.499594  0.500406  0.758521  1
  Y  Y6  1  0.000000  0.000000  0.246620  1
  Y  Y7  1  0.000000  0.000000  0.753601  1
  Zn  Zn8  1  0.666667  0.333333  0.499574  1
  Co  Co9  1  0.333333  0.666667  0.001116  1
  Co  Co10  1  0.666667  0.333333  0.998958  1
  Si  Si11  1  0.171911  0.343824  0.999788  1
  Si  Si12  1  0.828186  0.656374  0.000217  1
  Si  Si13  1  0.656176  0.828089  0.999788  1
  Si  Si14  1  0.835496  0.670990  0.500774  1
  Si  Si15  1  0.343626  0.171814  0.000217  1
  Si  Si16  1  0.166041  0.332083  0.499268  1
  Si  Si17  1  0.171911  0.828089  0.999788  1
  Si  Si18  1  0.329010  0.164504  0.500774  1
  Si  Si19  1  0.828186  0.171814  0.000217  1
  Si  Si20  1  0.667917  0.833959  0.499268  1
  Si  Si21  1  0.835496  0.164504  0.500774  1
  Si  Si22  1  0.166041  0.833959  0.499268  1
  Pt  Pt23  1  0.333333  0.666667  0.500101  1
