# generated using pymatgen
data_SrTbBi2(Pt2O7)2
_symmetry_space_group_name_H-M   'P 1'
_cell_length_a   7.43428955
_cell_length_b   7.43429146
_cell_length_c   7.36064645
_cell_angle_alpha   59.69492844
_cell_angle_beta   59.69492233
_cell_angle_gamma   60.24208629
_symmetry_Int_Tables_number   1
_chemical_formula_structural   SrTbBi2(Pt2O7)2
_chemical_formula_sum   'Sr1 Tb1 Bi2 Pt4 O14'
_cell_volume   286.84200533
_cell_formula_units_Z   1
loop_
 _symmetry_equiv_pos_site_id
 _symmetry_equiv_pos_as_xyz
  1  'x, y, z'
loop_
 _atom_site_type_symbol
 _atom_site_label
 _atom_site_symmetry_multiplicity
 _atom_site_fract_x
 _atom_site_fract_y
 _atom_site_fract_z
 _atom_site_occupancy
  Sr  Sr0  1  0.125000  0.125000  0.625000  1
  Tb  Tb1  1  0.125000  0.125000  0.125000  1
  Bi  Bi2  1  0.125000  0.625000  0.125000  1
  Bi  Bi3  1  0.625000  0.125000  0.125000  1
  Pt  Pt4  1  0.625000  0.625000  0.125000  1
  Pt  Pt5  1  0.625000  0.125000  0.625000  1
  Pt  Pt6  1  0.125000  0.625000  0.625000  1
  Pt  Pt7  1  0.625000  0.625000  0.625000  1
  O  O8  1  0.254489  0.254489  0.228465  1
  O  O9  1  0.995511  0.995511  0.021535  1
  O  O10  1  0.547871  0.956730  0.539176  1
  O  O11  1  0.292306  0.714739  0.288610  1
  O  O12  1  0.543156  0.543156  0.958742  1
  O  O13  1  0.956730  0.547871  0.539176  1
  O  O14  1  0.535261  0.957694  0.961390  1
  O  O15  1  0.959541  0.959541  0.529006  1
  O  O16  1  0.957694  0.535261  0.961390  1
  O  O17  1  0.714739  0.292306  0.288610  1
  O  O18  1  0.293270  0.702129  0.710824  1
  O  O19  1  0.702129  0.293270  0.710824  1
  O  O20  1  0.290459  0.290459  0.720994  1
  O  O21  1  0.706844  0.706844  0.291258  1
