# generated using pymatgen
data_Rb13ZrTa(In3As5)2
_symmetry_space_group_name_H-M   'P 1'
_cell_length_a   9.73021129
_cell_length_b   9.74491058
_cell_length_c   13.79971160
_cell_angle_alpha   81.21562420
_cell_angle_beta   78.11391810
_cell_angle_gamma   62.95465105
_symmetry_Int_Tables_number   1
_chemical_formula_structural   Rb13ZrTa(In3As5)2
_chemical_formula_sum   'Rb13 Zr1 Ta1 In6 As10'
_cell_volume   1137.79275210
_cell_formula_units_Z   1
loop_
 _symmetry_equiv_pos_site_id
 _symmetry_equiv_pos_as_xyz
  1  'x, y, z'
loop_
 _atom_site_type_symbol
 _atom_site_label
 _atom_site_symmetry_multiplicity
 _atom_site_fract_x
 _atom_site_fract_y
 _atom_site_fract_z
 _atom_site_occupancy
  Rb  Rb0  1  0.494547  0.868589  0.353499  1
  Rb  Rb1  1  0.502364  0.132998  0.644365  1
  Rb  Rb2  1  0.853952  0.584885  0.886565  1
  Rb  Rb3  1  0.144503  0.413134  0.116475  1
  Rb  Rb4  1  0.090507  0.784014  0.428169  1
  Rb  Rb5  1  0.910062  0.216690  0.568144  1
  Rb  Rb6  1  0.749687  0.681407  0.590954  1
  Rb  Rb7  1  0.249922  0.320033  0.403456  1
  Rb  Rb8  1  0.497378  0.499778  0.001836  1
  Rb  Rb9  1  0.316780  0.929320  0.089295  1
  Rb  Rb10  1  0.678498  0.069140  0.914566  1
  Rb  Rb11  1  0.888697  0.855296  0.165901  1
  Rb  Rb12  1  0.108003  0.144450  0.838778  1
  Zr  Zr13  1  0.620944  0.260358  0.223992  1
  Ta  Ta14  1  0.380135  0.737989  0.774624  1
  In  In15  1  0.023798  0.812664  0.707335  1
  In  In16  1  0.979858  0.182851  0.292321  1
  In  In17  1  0.604204  0.446329  0.407688  1
  In  In18  1  0.396527  0.553000  0.590667  1
  In  In19  1  0.726541  0.566544  0.165221  1
  In  In20  1  0.275958  0.434443  0.832742  1
  As  As21  1  0.430922  0.561462  0.253363  1
  As  As22  1  0.565304  0.452957  0.749166  1
  As  As23  1  0.141009  0.747368  0.893921  1
  As  As24  1  0.873734  0.251234  0.100723  1
  As  As25  1  0.712895  0.127044  0.398254  1
  As  As26  1  0.290957  0.871469  0.610867  1
  As  As27  1  0.857344  0.509862  0.353669  1
  As  As28  1  0.140107  0.491137  0.648560  1
  As  As29  1  0.502616  0.863487  0.839741  1
  As  As30  1  0.492249  0.130067  0.155142  1
