# generated using pymatgen
data_Sm2Sc3(InSb)2
_symmetry_space_group_name_H-M   'P 1'
_cell_length_a   7.91759700
_cell_length_b   7.90190300
_cell_length_c   14.83519600
_cell_angle_alpha   90.00000000
_cell_angle_beta   90.00000000
_cell_angle_gamma   90.00000000
_symmetry_Int_Tables_number   1
_chemical_formula_structural   Sm2Sc3(InSb)2
_chemical_formula_sum   'Sm8 Sc12 In8 Sb8'
_cell_volume   928.15044109
_cell_formula_units_Z   4
loop_
 _symmetry_equiv_pos_site_id
 _symmetry_equiv_pos_as_xyz
  1  'x, y, z'
loop_
 _atom_site_type_symbol
 _atom_site_label
 _atom_site_symmetry_multiplicity
 _atom_site_fract_x
 _atom_site_fract_y
 _atom_site_fract_z
 _atom_site_occupancy
  Sm  Sm0  1  0.518709  0.317651  0.906469  1
  Sm  Sm1  1  0.018709  0.182349  0.593531  1
  Sm  Sm2  1  0.481291  0.682349  0.406469  1
  Sm  Sm3  1  0.981291  0.817651  0.093531  1
  Sm  Sm4  1  0.481291  0.682349  0.093531  1
  Sm  Sm5  1  0.981291  0.817651  0.406469  1
  Sm  Sm6  1  0.518709  0.317651  0.593531  1
  Sm  Sm7  1  0.018709  0.182349  0.906469  1
  Sc  Sc8  1  0.362332  0.842321  0.876306  1
  Sc  Sc9  1  0.862332  0.657679  0.623694  1
  Sc  Sc10  1  0.637668  0.157679  0.376306  1
  Sc  Sc11  1  0.137668  0.342321  0.123694  1
  Sc  Sc12  1  0.637668  0.157679  0.123694  1
  Sc  Sc13  1  0.137668  0.342321  0.376306  1
  Sc  Sc14  1  0.362332  0.842321  0.623694  1
  Sc  Sc15  1  0.862332  0.657679  0.876306  1
  Sc  Sc16  1  0.190870  0.505870  0.750000  1
  Sc  Sc17  1  0.690870  0.994130  0.750000  1
  Sc  Sc18  1  0.809130  0.494130  0.250000  1
  Sc  Sc19  1  0.309130  0.005870  0.250000  1
  In  In20  1  0.558867  0.623674  0.750000  1
  In  In21  1  0.058867  0.876326  0.750000  1
  In  In22  1  0.441133  0.376326  0.250000  1
  In  In23  1  0.941133  0.123674  0.250000  1
  In  In24  1  0.319362  0.139206  0.750000  1
  In  In25  1  0.819362  0.360794  0.750000  1
  In  In26  1  0.680638  0.860794  0.250000  1
  In  In27  1  0.180638  0.639206  0.250000  1
  Sb  Sb28  1  0.297942  0.045121  0.045635  1
  Sb  Sb29  1  0.797942  0.454879  0.454365  1
  Sb  Sb30  1  0.702058  0.954879  0.545635  1
  Sb  Sb31  1  0.202058  0.545121  0.954365  1
  Sb  Sb32  1  0.702058  0.954879  0.954365  1
  Sb  Sb33  1  0.202058  0.545121  0.545635  1
  Sb  Sb34  1  0.297942  0.045121  0.454365  1
  Sb  Sb35  1  0.797942  0.454879  0.045635  1
