# generated using pymatgen
data_Tm11LuAl(InFe)2
_symmetry_space_group_name_H-M   'P 1'
_cell_length_a   8.28695767
_cell_length_b   8.28695979
_cell_length_c   8.28863233
_cell_angle_alpha   109.72755650
_cell_angle_beta   109.72756647
_cell_angle_gamma   108.95147871
_symmetry_Int_Tables_number   1
_chemical_formula_structural   Tm11LuAl(InFe)2
_chemical_formula_sum   'Tm11 Lu1 Al1 In2 Fe2'
_cell_volume   438.19689259
_cell_formula_units_Z   1
loop_
 _symmetry_equiv_pos_site_id
 _symmetry_equiv_pos_as_xyz
  1  'x, y, z'
loop_
 _atom_site_type_symbol
 _atom_site_label
 _atom_site_symmetry_multiplicity
 _atom_site_fract_x
 _atom_site_fract_y
 _atom_site_fract_z
 _atom_site_occupancy
  Tm  Tm0  1  0.448023  0.203974  0.243790  1
  Tm  Tm1  1  0.551640  0.796210  0.755995  1
  Tm  Tm2  1  0.959785  0.204355  0.755995  1
  Tm  Tm3  1  0.204233  0.960184  0.756210  1
  Tm  Tm4  1  0.039816  0.795767  0.243790  1
  Tm  Tm5  1  0.795645  0.040215  0.244005  1
  Tm  Tm6  1  0.203790  0.448360  0.244005  1
  Tm  Tm7  1  0.796026  0.551977  0.756210  1
  Tm  Tm8  1  0.305323  0.304978  0.610301  1
  Tm  Tm9  1  0.695022  0.694677  0.389699  1
  Tm  Tm10  1  0.304966  0.695034  0.000000  1
  Lu  Lu11  1  0.694366  0.305634  0.000000  1
  Al  Al12  1  0.999627  0.000373  0.000000  1
  In  In13  1  0.500138  0.999180  0.499318  1
  In  In14  1  0.000820  0.499862  0.500682  1
  Fe  Fe15  1  0.387023  0.386242  0.000000  1
  Fe  Fe16  1  0.613758  0.612977  0.000000  1
