# generated using pymatgen
data_LiTm6Sc(Co4P3)4
_symmetry_space_group_name_H-M   'P 1'
_cell_length_a   3.70033900
_cell_length_b   10.57893300
_cell_length_c   12.19667500
_cell_angle_alpha   90.00000000
_cell_angle_beta   90.00000000
_cell_angle_gamma   90.00000000
_symmetry_Int_Tables_number   1
_chemical_formula_structural   LiTm6Sc(Co4P3)4
_chemical_formula_sum   'Li1 Tm6 Sc1 Co16 P12'
_cell_volume   477.44662872
_cell_formula_units_Z   1
loop_
 _symmetry_equiv_pos_site_id
 _symmetry_equiv_pos_as_xyz
  1  'x, y, z'
loop_
 _atom_site_type_symbol
 _atom_site_label
 _atom_site_symmetry_multiplicity
 _atom_site_fract_x
 _atom_site_fract_y
 _atom_site_fract_z
 _atom_site_occupancy
  Li  Li0  1  0.500000  0.500000  0.157416  1
  Tm  Tm1  1  0.000000  0.500000  0.524974  1
  Tm  Tm2  1  0.500000  0.000000  0.471354  1
  Tm  Tm3  1  0.500000  0.820876  0.204743  1
  Tm  Tm4  1  0.500000  0.179124  0.204743  1
  Tm  Tm5  1  0.000000  0.677073  0.793299  1
  Tm  Tm6  1  0.000000  0.322927  0.793299  1
  Sc  Sc7  1  0.000000  0.000000  0.843975  1
  Co  Co8  1  0.500000  0.500000  0.705900  1
  Co  Co9  1  0.000000  0.000000  0.295739  1
  Co  Co10  1  0.000000  0.500000  0.988969  1
  Co  Co11  1  0.500000  0.000000  0.013234  1
  Co  Co12  1  0.500000  0.334740  0.999056  1
  Co  Co13  1  0.500000  0.665260  0.999056  1
  Co  Co14  1  0.000000  0.171071  0.007241  1
  Co  Co15  1  0.000000  0.828929  0.007241  1
  Co  Co16  1  0.500000  0.297249  0.431387  1
  Co  Co17  1  0.500000  0.702751  0.431387  1
  Co  Co18  1  0.000000  0.204670  0.566426  1
  Co  Co19  1  0.000000  0.795330  0.566426  1
  Co  Co20  1  0.500000  0.877088  0.702781  1
  Co  Co21  1  0.500000  0.122912  0.702781  1
  Co  Co22  1  0.000000  0.621678  0.295201  1
  Co  Co23  1  0.000000  0.378322  0.295201  1
  P  P24  1  0.500000  0.500000  0.886314  1
  P  P25  1  0.000000  0.000000  0.115796  1
  P  P26  1  0.500000  0.500000  0.349846  1
  P  P27  1  0.000000  0.000000  0.638801  1
  P  P28  1  0.500000  0.311704  0.615409  1
  P  P29  1  0.500000  0.688296  0.615409  1
  P  P30  1  0.000000  0.189751  0.382725  1
  P  P31  1  0.000000  0.810249  0.382725  1
  P  P32  1  0.500000  0.836650  0.894413  1
  P  P33  1  0.500000  0.163350  0.894413  1
  P  P34  1  0.000000  0.655201  0.111162  1
  P  P35  1  0.000000  0.344799  0.111162  1
