# generated using pymatgen
data_Ce5Hf3(P3Ir4)4
_symmetry_space_group_name_H-M   'P 1'
_cell_length_a   12.90237900
_cell_length_b   12.90237876
_cell_length_c   4.01632100
_cell_angle_alpha   90.00000000
_cell_angle_beta   90.00000000
_cell_angle_gamma   119.99999804
_symmetry_Int_Tables_number   1
_chemical_formula_structural   Ce5Hf3(P3Ir4)4
_chemical_formula_sum   'Ce5 Hf3 P12 Ir16'
_cell_volume   579.02676380
_cell_formula_units_Z   1
loop_
 _symmetry_equiv_pos_site_id
 _symmetry_equiv_pos_as_xyz
  1  'x, y, z'
loop_
 _atom_site_type_symbol
 _atom_site_label
 _atom_site_symmetry_multiplicity
 _atom_site_fract_x
 _atom_site_fract_y
 _atom_site_fract_z
 _atom_site_occupancy
  Ce  Ce0  1  0.333333  0.666667  0.000000  1
  Ce  Ce1  1  0.666667  0.333333  0.000000  1
  Ce  Ce2  1  0.816494  0.000000  0.500000  1
  Ce  Ce3  1  0.000000  0.816494  0.500000  1
  Ce  Ce4  1  0.183506  0.183506  0.500000  1
  Hf  Hf5  1  0.448927  0.000000  0.000000  1
  Hf  Hf6  1  0.000000  0.448927  0.000000  1
  Hf  Hf7  1  0.551073  0.551073  0.000000  1
  P  P8  1  0.177486  0.000000  0.000000  1
  P  P9  1  0.000000  0.177486  0.000000  1
  P  P10  1  0.822514  0.822514  0.000000  1
  P  P11  1  0.166994  0.482001  0.500000  1
  P  P12  1  0.517999  0.684992  0.500000  1
  P  P13  1  0.315008  0.833006  0.500000  1
  P  P14  1  0.684992  0.517999  0.500000  1
  P  P15  1  0.833006  0.315008  0.500000  1
  P  P16  1  0.482001  0.166994  0.500000  1
  P  P17  1  0.644730  0.000000  0.000000  1
  P  P18  1  0.000000  0.644730  0.000000  1
  P  P19  1  0.355270  0.355270  0.000000  1
  Ir  Ir20  1  0.355848  0.489738  0.500000  1
  Ir  Ir21  1  0.510262  0.866110  0.500000  1
  Ir  Ir22  1  0.133890  0.644152  0.500000  1
  Ir  Ir23  1  0.866110  0.510262  0.500000  1
  Ir  Ir24  1  0.644152  0.133890  0.500000  1
  Ir  Ir25  1  0.489738  0.355848  0.500000  1
  Ir  Ir26  1  0.177470  0.372239  0.000000  1
  Ir  Ir27  1  0.627761  0.805232  0.000000  1
  Ir  Ir28  1  0.194768  0.822530  0.000000  1
  Ir  Ir29  1  0.805232  0.627761  0.000000  1
  Ir  Ir30  1  0.822530  0.194768  0.000000  1
  Ir  Ir31  1  0.372239  0.177470  0.000000  1
  Ir  Ir32  1  0.282481  0.000000  0.500000  1
  Ir  Ir33  1  0.000000  0.282481  0.500000  1
  Ir  Ir34  1  0.717519  0.717519  0.500000  1
  Ir  Ir35  1  0.000000  0.000000  0.000000  1
