# generated using pymatgen
data_DyHoU(SnRh)3
_symmetry_space_group_name_H-M   'P 1'
_cell_length_a   7.52841396
_cell_length_b   7.52639451
_cell_length_c   3.84865700
_cell_angle_alpha   90.00000000
_cell_angle_beta   90.00000000
_cell_angle_gamma   118.93473994
_symmetry_Int_Tables_number   1
_chemical_formula_structural   DyHoU(SnRh)3
_chemical_formula_sum   'Dy1 Ho1 U1 Sn3 Rh3'
_cell_volume   190.85026397
_cell_formula_units_Z   1
loop_
 _symmetry_equiv_pos_site_id
 _symmetry_equiv_pos_as_xyz
  1  'x, y, z'
loop_
 _atom_site_type_symbol
 _atom_site_label
 _atom_site_symmetry_multiplicity
 _atom_site_fract_x
 _atom_site_fract_y
 _atom_site_fract_z
 _atom_site_occupancy
  Dy  Dy0  1  0.000361  0.593646  0.500000  1
  Ho  Ho1  1  0.593825  0.000426  0.500000  1
  U  U2  1  0.415252  0.415213  0.500000  1
  Sn  Sn3  1  0.754248  0.754576  0.000000  1
  Sn  Sn4  1  0.259422  0.986914  0.000000  1
  Sn  Sn5  1  0.986661  0.258993  0.000000  1
  Rh  Rh6  1  0.636865  0.336069  0.000000  1
  Rh  Rh7  1  0.336977  0.637375  0.000000  1
  Rh  Rh8  1  0.016390  0.016789  0.500000  1
