# generated using pymatgen
data_DyLu3(Si4Tc3)2
_symmetry_space_group_name_H-M   'P 1'
_cell_length_a   6.75716085
_cell_length_b   6.75780530
_cell_length_c   12.58939198
_cell_angle_alpha   90.09998169
_cell_angle_beta   89.72914032
_cell_angle_gamma   90.00882413
_symmetry_Int_Tables_number   1
_chemical_formula_structural   DyLu3(Si4Tc3)2
_chemical_formula_sum   'Dy2 Lu6 Si16 Tc12'
_cell_volume   574.86936971
_cell_formula_units_Z   2
loop_
 _symmetry_equiv_pos_site_id
 _symmetry_equiv_pos_as_xyz
  1  'x, y, z'
loop_
 _atom_site_type_symbol
 _atom_site_label
 _atom_site_symmetry_multiplicity
 _atom_site_fract_x
 _atom_site_fract_y
 _atom_site_fract_z
 _atom_site_occupancy
  Dy  Dy0  1  0.504084  0.838709  0.719699  1
  Dy  Dy1  1  0.337545  0.997658  0.469412  1
  Lu  Lu2  1  0.003172  0.660636  0.029982  1
  Lu  Lu3  1  0.996104  0.340042  0.529562  1
  Lu  Lu4  1  0.659995  0.003981  0.970323  1
  Lu  Lu5  1  0.160978  0.496908  0.779982  1
  Lu  Lu6  1  0.840221  0.504253  0.279575  1
  Lu  Lu7  1  0.497353  0.161137  0.219981  1
  Si  Si8  1  0.022251  0.723689  0.435953  1
  Si  Si9  1  0.973420  0.280602  0.935165  1
  Si  Si10  1  0.728138  0.024429  0.562460  1
  Si  Si11  1  0.221459  0.474099  0.184405  1
  Si  Si12  1  0.778851  0.522861  0.686697  1
  Si  Si13  1  0.474568  0.224794  0.815545  1
  Si  Si14  1  0.526348  0.777756  0.313118  1
  Si  Si15  1  0.280208  0.972801  0.065978  1
  Si  Si16  1  0.807844  0.881136  0.185576  1
  Si  Si17  1  0.306530  0.614284  0.563139  1
  Si  Si18  1  0.692889  0.380946  0.064064  1
  Si  Si19  1  0.617657  0.309984  0.435940  1
  Si  Si20  1  0.381421  0.691788  0.937353  1
  Si  Si21  1  0.116688  0.193747  0.311921  1
  Si  Si22  1  0.189932  0.117532  0.687638  1
  Si  Si23  1  0.883307  0.807273  0.815295  1
  Tc  Tc24  1  0.318255  0.481056  0.375750  1
  Tc  Tc25  1  0.816461  0.024160  0.369730  1
  Tc  Tc26  1  0.978976  0.178202  0.125632  1
  Tc  Tc27  1  0.019913  0.813776  0.629862  1
  Tc  Tc28  1  0.479841  0.318877  0.623780  1
  Tc  Tc29  1  0.177189  0.980406  0.876285  1
  Tc  Tc30  1  0.669112  0.666902  0.498401  1
  Tc  Tc31  1  0.833851  0.168997  0.750706  1
  Tc  Tc32  1  0.167130  0.832360  0.248442  1
  Tc  Tc33  1  0.332726  0.333350  0.000529  1
  Tc  Tc34  1  0.522638  0.679534  0.122416  1
  Tc  Tc35  1  0.682945  0.521339  0.879703  1
