# generated using pymatgen
data_Yb3Ho5(B6Os)4
_symmetry_space_group_name_H-M   'P 1'
_cell_length_a   3.64131400
_cell_length_b   9.14214914
_cell_length_c   11.52747570
_cell_angle_alpha   89.92156251
_cell_angle_beta   90.00000000
_cell_angle_gamma   90.00000000
_symmetry_Int_Tables_number   1
_chemical_formula_structural   Yb3Ho5(B6Os)4
_chemical_formula_sum   'Yb3 Ho5 B24 Os4'
_cell_volume   383.74280106
_cell_formula_units_Z   1
loop_
 _symmetry_equiv_pos_site_id
 _symmetry_equiv_pos_as_xyz
  1  'x, y, z'
loop_
 _atom_site_type_symbol
 _atom_site_label
 _atom_site_symmetry_multiplicity
 _atom_site_fract_x
 _atom_site_fract_y
 _atom_site_fract_z
 _atom_site_occupancy
  Yb  Yb0  1  0.000000  0.324763  0.414296  1
  Yb  Yb1  1  0.000000  0.675364  0.585182  1
  Yb  Yb2  1  0.000000  0.823362  0.086403  1
  Ho  Ho3  1  0.000000  0.175740  0.914759  1
  Ho  Ho4  1  0.000000  0.941416  0.367623  1
  Ho  Ho5  1  0.000000  0.057818  0.630572  1
  Ho  Ho6  1  0.000000  0.443184  0.132109  1
  Ho  Ho7  1  0.000000  0.558428  0.868591  1
  B  B8  1  0.500000  0.553089  0.433204  1
  B  B9  1  0.500000  0.446296  0.567547  1
  B  B10  1  0.500000  0.053608  0.066683  1
  B  B11  1  0.500000  0.946136  0.933478  1
  B  B12  1  0.500000  0.748221  0.417687  1
  B  B13  1  0.500000  0.251629  0.582330  1
  B  B14  1  0.500000  0.248710  0.081684  1
  B  B15  1  0.500000  0.751998  0.918115  1
  B  B16  1  0.500000  0.790560  0.264392  1
  B  B17  1  0.500000  0.208861  0.735718  1
  B  B18  1  0.500000  0.290775  0.234604  1
  B  B19  1  0.500000  0.710267  0.765185  1
  B  B20  1  0.500000  0.631188  0.186337  1
  B  B21  1  0.500000  0.368767  0.814752  1
  B  B22  1  0.500000  0.131252  0.313246  1
  B  B23  1  0.500000  0.869188  0.685646  1
  B  B24  1  0.500000  0.983029  0.210575  1
  B  B25  1  0.500000  0.016963  0.788670  1
  B  B26  1  0.500000  0.483904  0.289068  1
  B  B27  1  0.500000  0.515987  0.711609  1
  B  B28  1  0.500000  0.599695  0.027719  1
  B  B29  1  0.500000  0.399600  0.972319  1
  B  B30  1  0.500000  0.097486  0.472425  1
  B  B31  1  0.500000  0.902338  0.526633  1
  Os  Os32  1  0.000000  0.638672  0.321236  1
  Os  Os33  1  0.000000  0.360056  0.680408  1
  Os  Os34  1  0.000000  0.138236  0.178484  1
  Os  Os35  1  0.000000  0.863413  0.820712  1
