# generated using pymatgen
data_LaPuN2
_symmetry_space_group_name_H-M   'P 1'
_cell_length_a   6.24036950
_cell_length_b   6.24036947
_cell_length_c   6.24036939
_cell_angle_alpha   33.49014430
_cell_angle_beta   33.49014449
_cell_angle_gamma   33.49014121
_symmetry_Int_Tables_number   1
_chemical_formula_structural   LaPuN2
_chemical_formula_sum   'La1 Pu1 N2'
_cell_volume   65.89904321
_cell_formula_units_Z   1
loop_
 _symmetry_equiv_pos_site_id
 _symmetry_equiv_pos_as_xyz
  1  'x, y, z'
loop_
 _atom_site_type_symbol
 _atom_site_label
 _atom_site_symmetry_multiplicity
 _atom_site_fract_x
 _atom_site_fract_y
 _atom_site_fract_z
 _atom_site_occupancy
  La  La0  1  0.500000  0.500000  0.500000  1
  Pu  Pu1  1  0.000000  0.000000  0.000000  1
  N  N2  1  0.261176  0.261176  0.261176  1
  N  N3  1  0.738824  0.738824  0.738824  1
