# generated using pymatgen
data_Ca7SmBi6
_symmetry_space_group_name_H-M   'P 1'
_cell_length_a   8.42233430
_cell_length_b   8.42233388
_cell_length_c   8.42233447
_cell_angle_alpha   109.68021812
_cell_angle_beta   109.68022406
_cell_angle_gamma   109.68021329
_symmetry_Int_Tables_number   1
_chemical_formula_structural   Ca7SmBi6
_chemical_formula_sum   'Ca7 Sm1 Bi6'
_cell_volume   456.31936326
_cell_formula_units_Z   1
loop_
 _symmetry_equiv_pos_site_id
 _symmetry_equiv_pos_as_xyz
  1  'x, y, z'
loop_
 _atom_site_type_symbol
 _atom_site_label
 _atom_site_symmetry_multiplicity
 _atom_site_fract_x
 _atom_site_fract_y
 _atom_site_fract_z
 _atom_site_occupancy
  Ca  Ca0  1  0.147452  0.999827  0.000316  1
  Ca  Ca1  1  0.643807  0.997797  0.999965  1
  Ca  Ca2  1  0.499827  0.500316  0.147452  1
  Ca  Ca3  1  0.353295  0.853295  0.353295  1
  Ca  Ca4  1  0.000316  0.647452  0.499827  1
  Ca  Ca5  1  0.999965  0.143806  0.497798  1
  Ca  Ca6  1  0.497798  0.499966  0.643807  1
  Sm  Sm7  1  0.857288  0.357288  0.857288  1
  Bi  Bi8  1  0.873285  0.746372  0.120631  1
  Bi  Bi9  1  0.120631  0.373286  0.246372  1
  Bi  Bi10  1  0.627426  0.251460  0.381081  1
  Bi  Bi11  1  0.751460  0.881080  0.627426  1
  Bi  Bi12  1  0.381079  0.127425  0.751460  1
  Bi  Bi13  1  0.246372  0.620631  0.873285  1
