# generated using pymatgen
data_Ca14LuSb11
_symmetry_space_group_name_H-M   'P 1'
_cell_length_a   16.32875127
_cell_length_b   16.32875065
_cell_length_c   16.32875100
_cell_angle_alpha   118.33509099
_cell_angle_beta   118.33508982
_cell_angle_gamma   92.90873859
_symmetry_Int_Tables_number   1
_chemical_formula_structural   Ca14LuSb11
_chemical_formula_sum   'Ca56 Lu4 Sb44'
_cell_volume   3151.61190325
_cell_formula_units_Z   4
loop_
 _symmetry_equiv_pos_site_id
 _symmetry_equiv_pos_as_xyz
  1  'x, y, z'
loop_
 _atom_site_type_symbol
 _atom_site_label
 _atom_site_symmetry_multiplicity
 _atom_site_fract_x
 _atom_site_fract_y
 _atom_site_fract_z
 _atom_site_occupancy
  Ca  Ca0  1  0.488903  0.094073  0.348137  1
  Ca  Ca1  1  0.004064  0.109234  0.848137  1
  Ca  Ca2  1  0.352193  0.374210  0.660173  1
  Ca  Ca3  1  0.859234  0.511097  0.605170  1
  Ca  Ca4  1  0.405927  0.011097  0.651863  1
  Ca  Ca5  1  0.125000  0.729740  0.104740  1
  Ca  Ca6  1  0.261097  0.155927  0.151863  1
  Ca  Ca7  1  0.472418  0.252444  0.132967  1
  Ca  Ca8  1  0.277582  0.997556  0.367033  1
  Ca  Ca9  1  0.625790  0.285963  0.977983  1
  Ca  Ca10  1  0.089451  0.722418  0.719975  1
  Ca  Ca11  1  0.442021  0.602193  0.477983  1
  Ca  Ca12  1  0.214037  0.874210  0.022017  1
  Ca  Ca13  1  0.125790  0.147807  0.339827  1
  Ca  Ca14  1  0.245936  0.594073  0.605170  1
  Ca  Ca15  1  0.504064  0.655927  0.894830  1
  Ca  Ca16  1  0.770260  0.375000  0.895260  1
  Ca  Ca17  1  0.397807  0.875790  0.839827  1
  Ca  Ca18  1  0.630524  0.910549  0.632967  1
  Ca  Ca19  1  0.479740  0.875000  0.104740  1
  Ca  Ca20  1  0.125000  0.229740  0.604740  1
  Ca  Ca21  1  0.625000  0.020260  0.895260  1
  Ca  Ca22  1  0.344073  0.238903  0.848137  1
  Ca  Ca23  1  0.359234  0.754064  0.348137  1
  Ca  Ca24  1  0.247556  0.027582  0.867033  1
  Ca  Ca25  1  0.942021  0.464037  0.839827  1
  Ca  Ca26  1  0.747556  0.880524  0.219975  1
  Ca  Ca27  1  0.035963  0.557979  0.160173  1
  Ca  Ca28  1  0.777582  0.410549  0.280025  1
  Ca  Ca29  1  0.160549  0.380524  0.132967  1
  Ca  Ca30  1  0.307979  0.647807  0.022017  1
  Ca  Ca31  1  0.002444  0.369476  0.280025  1
  Ca  Ca32  1  0.619476  0.752444  0.780025  1
  Ca  Ca33  1  0.660549  0.527582  0.780025  1
  Ca  Ca34  1  0.270260  0.375000  0.395260  1
  Ca  Ca35  1  0.761097  0.609234  0.105170  1
  Ca  Ca36  1  0.988903  0.640766  0.394830  1
  Ca  Ca37  1  0.852193  0.192021  0.977983  1
  Ca  Ca38  1  0.897807  0.057979  0.522017  1
  Ca  Ca39  1  0.714037  0.692021  0.339827  1
  Ca  Ca40  1  0.844073  0.995936  0.105170  1
  Ca  Ca41  1  0.119476  0.339451  0.867033  1
  Ca  Ca42  1  0.905927  0.254064  0.394830  1
  Ca  Ca43  1  0.890766  0.738903  0.894830  1
  Ca  Ca44  1  0.502444  0.222418  0.632967  1
  Ca  Ca45  1  0.625000  0.520260  0.395260  1
  Ca  Ca46  1  0.624210  0.102193  0.160173  1
  Ca  Ca47  1  0.589451  0.869476  0.367033  1
  Ca  Ca48  1  0.130524  0.497556  0.719975  1
  Ca  Ca49  1  0.979740  0.875000  0.604740  1
  Ca  Ca50  1  0.390766  0.495936  0.151863  1
  Ca  Ca51  1  0.535963  0.375790  0.477983  1
  Ca  Ca52  1  0.124210  0.964037  0.522017  1
  Ca  Ca53  1  0.972418  0.839451  0.219975  1
  Ca  Ca54  1  0.807979  0.785963  0.660173  1
  Ca  Ca55  1  0.745936  0.140766  0.651863  1
  Lu  Lu56  1  0.500000  0.500000  0.000000  1
  Lu  Lu57  1  0.750000  0.250000  0.500000  1
  Lu  Lu58  1  0.000000  0.000000  0.000000  1
  Lu  Lu59  1  0.250000  0.750000  0.500000  1
  Sb  Sb60  1  0.788435  0.935503  0.861690  1
  Sb  Sb61  1  0.447719  0.542045  0.644473  1
  Sb  Sb62  1  0.385543  0.385543  0.271085  1
  Sb  Sb63  1  0.864457  0.635543  0.500000  1
  Sb  Sb64  1  0.292045  0.147572  0.594326  1
  Sb  Sb65  1  0.573813  0.435503  0.147067  1
  Sb  Sb66  1  0.961565  0.314497  0.638310  1
  Sb  Sb67  1  0.564497  0.711565  0.138310  1
  Sb  Sb68  1  0.685503  0.323813  0.647067  1
  Sb  Sb69  1  0.185503  0.538435  0.361690  1
  Sb  Sb70  1  0.461565  0.823254  0.647067  1
  Sb  Sb71  1  0.302281  0.707955  0.855527  1
  Sb  Sb72  1  0.792045  0.197719  0.144473  1
  Sb  Sb73  1  0.553246  0.697719  0.405674  1
  Sb  Sb74  1  0.064497  0.926187  0.852933  1
  Sb  Sb75  1  0.947719  0.303246  0.905674  1
  Sb  Sb76  1  0.750000  0.750000  0.000000  1
  Sb  Sb77  1  0.852428  0.446754  0.144473  1
  Sb  Sb78  1  0.635543  0.135543  0.771085  1
  Sb  Sb79  1  0.696754  0.602428  0.644473  1
  Sb  Sb80  1  0.957955  0.052281  0.355527  1
  Sb  Sb81  1  0.802281  0.946754  0.594326  1
  Sb  Sb82  1  0.500000  0.000000  0.500000  1
  Sb  Sb83  1  0.114457  0.114457  0.728915  1
  Sb  Sb84  1  0.053246  0.647572  0.855527  1
  Sb  Sb85  1  0.073254  0.211565  0.147067  1
  Sb  Sb86  1  0.288435  0.426746  0.852933  1
  Sb  Sb87  1  0.397572  0.042045  0.094326  1
  Sb  Sb88  1  0.897572  0.803246  0.355527  1
  Sb  Sb89  1  0.176746  0.823813  0.638310  1
  Sb  Sb90  1  0.000000  0.500000  0.500000  1
  Sb  Sb91  1  0.196754  0.552281  0.094326  1
  Sb  Sb92  1  0.135543  0.364457  0.500000  1
  Sb  Sb93  1  0.176187  0.814497  0.352933  1
  Sb  Sb94  1  0.457955  0.102428  0.905674  1
  Sb  Sb95  1  0.073813  0.926746  0.138310  1
  Sb  Sb96  1  0.676187  0.323254  0.361690  1
  Sb  Sb97  1  0.352428  0.207955  0.405674  1
  Sb  Sb98  1  0.250000  0.250000  0.000000  1
  Sb  Sb99  1  0.573254  0.426187  0.861690  1
  Sb  Sb100  1  0.676746  0.038435  0.352933  1
  Sb  Sb101  1  0.885543  0.614457  0.000000  1
  Sb  Sb102  1  0.614457  0.885543  0.000000  1
  Sb  Sb103  1  0.364457  0.864457  0.228915  1
