# generated using pymatgen
data_Er8Hf11Si16Os
_symmetry_space_group_name_H-M   'P 1'
_cell_length_a   7.21985445
_cell_length_b   7.21985416
_cell_length_c   13.20222599
_cell_angle_alpha   89.90105249
_cell_angle_beta   90.09895040
_cell_angle_gamma   90.02463205
_symmetry_Int_Tables_number   1
_chemical_formula_structural   Er8Hf11Si16Os
_chemical_formula_sum   'Er8 Hf11 Si16 Os1'
_cell_volume   688.18102678
_cell_formula_units_Z   1
loop_
 _symmetry_equiv_pos_site_id
 _symmetry_equiv_pos_as_xyz
  1  'x, y, z'
loop_
 _atom_site_type_symbol
 _atom_site_label
 _atom_site_symmetry_multiplicity
 _atom_site_fract_x
 _atom_site_fract_y
 _atom_site_fract_z
 _atom_site_occupancy
  Er  Er0  1  0.998733  0.343974  0.211677  1
  Er  Er1  1  0.005118  0.654654  0.717484  1
  Er  Er2  1  0.155471  0.494865  0.465159  1
  Er  Er3  1  0.501777  0.846630  0.032768  1
  Er  Er4  1  0.846630  0.501777  0.967232  1
  Er  Er5  1  0.494865  0.155471  0.534841  1
  Er  Er6  1  0.343974  0.998733  0.788323  1
  Er  Er7  1  0.654654  0.005118  0.282516  1
  Hf  Hf8  1  0.824669  0.824669  0.500000  1
  Hf  Hf9  1  0.324431  0.675229  0.247816  1
  Hf  Hf10  1  0.675229  0.324431  0.752184  1
  Hf  Hf11  1  0.146194  0.998432  0.371888  1
  Hf  Hf12  1  0.853163  0.004037  0.878401  1
  Hf  Hf13  1  0.502176  0.646710  0.625521  1
  Hf  Hf14  1  0.352418  0.497435  0.876733  1
  Hf  Hf15  1  0.497435  0.352418  0.123267  1
  Hf  Hf16  1  0.646710  0.502176  0.374479  1
  Hf  Hf17  1  0.998432  0.146194  0.628112  1
  Hf  Hf18  1  0.004037  0.853163  0.121599  1
  Si  Si19  1  0.359157  0.294987  0.315716  1
  Si  Si20  1  0.640777  0.705002  0.818910  1
  Si  Si21  1  0.205579  0.860222  0.567388  1
  Si  Si22  1  0.137810  0.794187  0.930664  1
  Si  Si23  1  0.794187  0.137810  0.069336  1
  Si  Si24  1  0.860222  0.205579  0.432612  1
  Si  Si25  1  0.294987  0.359157  0.684284  1
  Si  Si26  1  0.705002  0.640777  0.181090  1
  Si  Si27  1  0.293954  0.054327  0.180041  1
  Si  Si28  1  0.702648  0.950762  0.686161  1
  Si  Si29  1  0.449509  0.797828  0.434682  1
  Si  Si30  1  0.204904  0.547298  0.064199  1
  Si  Si31  1  0.547298  0.204904  0.935801  1
  Si  Si32  1  0.797828  0.449509  0.565318  1
  Si  Si33  1  0.054327  0.293954  0.819959  1
  Si  Si34  1  0.950762  0.702648  0.313839  1
  Os  Os35  1  0.174939  0.174939  0.000000  1
