# generated using pymatgen
data_Cs2LuP2S7
_symmetry_space_group_name_H-M   'P 1'
_cell_length_a   9.65032232
_cell_length_b   9.65032312
_cell_length_c   9.33919042
_cell_angle_alpha   72.16327930
_cell_angle_beta   72.16327029
_cell_angle_gamma   69.74766092
_symmetry_Int_Tables_number   1
_chemical_formula_structural   Cs2LuP2S7
_chemical_formula_sum   'Cs4 Lu2 P4 S14'
_cell_volume   756.97220295
_cell_formula_units_Z   2
loop_
 _symmetry_equiv_pos_site_id
 _symmetry_equiv_pos_as_xyz
  1  'x, y, z'
loop_
 _atom_site_type_symbol
 _atom_site_label
 _atom_site_symmetry_multiplicity
 _atom_site_fract_x
 _atom_site_fract_y
 _atom_site_fract_z
 _atom_site_occupancy
  Cs  Cs0  1  0.608242  0.053329  0.165837  1
  Cs  Cs1  1  0.946671  0.391758  0.834163  1
  Cs  Cs2  1  0.391758  0.946671  0.834163  1
  Cs  Cs3  1  0.053329  0.608242  0.165837  1
  Lu  Lu4  1  0.683891  0.316109  0.500000  1
  Lu  Lu5  1  0.316109  0.683891  0.500000  1
  P  P6  1  0.947205  0.947205  0.442092  1
  P  P7  1  0.052795  0.052795  0.557908  1
  P  P8  1  0.394704  0.394704  0.810879  1
  P  P9  1  0.605296  0.605296  0.189121  1
  S  S10  1  0.683849  0.375788  0.202160  1
  S  S11  1  0.624212  0.316151  0.797840  1
  S  S12  1  0.316151  0.624212  0.797840  1
  S  S13  1  0.375788  0.683849  0.202160  1
  S  S14  1  0.003725  0.003725  0.213200  1
  S  S15  1  0.996275  0.996275  0.786800  1
  S  S16  1  0.717291  0.022695  0.532548  1
  S  S17  1  0.977305  0.282709  0.467452  1
  S  S18  1  0.282709  0.977305  0.467452  1
  S  S19  1  0.022695  0.717291  0.532548  1
  S  S20  1  0.277779  0.277779  0.994244  1
  S  S21  1  0.722221  0.722221  0.005756  1
  S  S22  1  0.371677  0.371677  0.600339  1
  S  S23  1  0.628323  0.628323  0.399661  1
