# generated using pymatgen
data_Al3(CuAu5)2
_symmetry_space_group_name_H-M   'P 1'
_cell_length_a   3.18275700
_cell_length_b   9.25502700
_cell_length_c   16.99877600
_cell_angle_alpha   90.00000000
_cell_angle_beta   90.00000000
_cell_angle_gamma   90.00000000
_symmetry_Int_Tables_number   1
_chemical_formula_structural   Al3(CuAu5)2
_chemical_formula_sum   'Al6 Cu4 Au20'
_cell_volume   500.72447872
_cell_formula_units_Z   2
loop_
 _symmetry_equiv_pos_site_id
 _symmetry_equiv_pos_as_xyz
  1  'x, y, z'
loop_
 _atom_site_type_symbol
 _atom_site_label
 _atom_site_symmetry_multiplicity
 _atom_site_fract_x
 _atom_site_fract_y
 _atom_site_fract_z
 _atom_site_occupancy
  Al  Al0  1  0.000000  0.000000  0.000000  1
  Al  Al1  1  0.500000  0.500000  0.500000  1
  Al  Al2  1  0.000000  0.033490  0.396285  1
  Al  Al3  1  0.000000  0.966510  0.603715  1
  Al  Al4  1  0.500000  0.533490  0.103715  1
  Al  Al5  1  0.500000  0.466510  0.896285  1
  Cu  Cu6  1  0.000000  0.975887  0.200549  1
  Cu  Cu7  1  0.000000  0.024113  0.799451  1
  Cu  Cu8  1  0.500000  0.475887  0.299451  1
  Cu  Cu9  1  0.500000  0.524113  0.700549  1
  Au  Au10  1  0.000000  0.349425  0.013342  1
  Au  Au11  1  0.000000  0.650575  0.986658  1
  Au  Au12  1  0.500000  0.849425  0.486658  1
  Au  Au13  1  0.500000  0.150575  0.513342  1
  Au  Au14  1  0.000000  0.357791  0.186594  1
  Au  Au15  1  0.000000  0.642209  0.813406  1
  Au  Au16  1  0.500000  0.857791  0.313406  1
  Au  Au17  1  0.500000  0.142209  0.686594  1
  Au  Au18  1  0.000000  0.327440  0.404348  1
  Au  Au19  1  0.000000  0.672560  0.595652  1
  Au  Au20  1  0.500000  0.827440  0.095652  1
  Au  Au21  1  0.500000  0.172560  0.904348  1
  Au  Au22  1  0.000000  0.365574  0.603035  1
  Au  Au23  1  0.000000  0.634426  0.396965  1
  Au  Au24  1  0.500000  0.865574  0.896965  1
  Au  Au25  1  0.500000  0.134426  0.103035  1
  Au  Au26  1  0.000000  0.335011  0.785117  1
  Au  Au27  1  0.000000  0.664989  0.214883  1
  Au  Au28  1  0.500000  0.835011  0.714883  1
  Au  Au29  1  0.500000  0.164989  0.285117  1
