# generated using pymatgen
data_Yb5Pr3Cu3Si12Pd
_symmetry_space_group_name_H-M   'P 1'
_cell_length_a   8.13998300
_cell_length_b   8.15906539
_cell_length_c   8.44295305
_cell_angle_alpha   90.01060726
_cell_angle_beta   90.00000000
_cell_angle_gamma   119.92273222
_symmetry_Int_Tables_number   1
_chemical_formula_structural   Yb5Pr3Cu3Si12Pd
_chemical_formula_sum   'Yb5 Pr3 Cu3 Si12 Pd1'
_cell_volume   485.98909440
_cell_formula_units_Z   1
loop_
 _symmetry_equiv_pos_site_id
 _symmetry_equiv_pos_as_xyz
  1  'x, y, z'
loop_
 _atom_site_type_symbol
 _atom_site_label
 _atom_site_symmetry_multiplicity
 _atom_site_fract_x
 _atom_site_fract_y
 _atom_site_fract_z
 _atom_site_occupancy
  Yb  Yb0  1  0.499995  0.500164  0.748318  1
  Yb  Yb1  1  0.500556  0.499606  0.251778  1
  Yb  Yb2  1  0.000168  0.500163  0.748318  1
  Yb  Yb3  1  0.999051  0.499606  0.251778  1
  Yb  Yb4  1  0.499759  0.999517  0.748409  1
  Pr  Pr5  1  0.501121  0.002243  0.251242  1
  Pr  Pr6  1  0.000070  0.000139  0.749904  1
  Pr  Pr7  1  0.999914  0.999828  0.249932  1
  Cu  Cu8  1  0.667505  0.335011  0.993890  1
  Cu  Cu9  1  0.331991  0.663982  0.997742  1
  Cu  Cu10  1  0.332376  0.664751  0.501813  1
  Si  Si11  1  0.831898  0.169109  0.998526  1
  Si  Si12  1  0.167780  0.831431  0.999129  1
  Si  Si13  1  0.337211  0.169109  0.998526  1
  Si  Si14  1  0.167499  0.831556  0.500660  1
  Si  Si15  1  0.663651  0.831431  0.999129  1
  Si  Si16  1  0.835272  0.165766  0.501533  1
  Si  Si17  1  0.831172  0.662345  0.001503  1
  Si  Si18  1  0.664057  0.831556  0.500660  1
  Si  Si19  1  0.168496  0.336991  0.001124  1
  Si  Si20  1  0.330494  0.165766  0.501533  1
  Si  Si21  1  0.167997  0.335994  0.498514  1
  Si  Si22  1  0.834355  0.668709  0.499993  1
  Pd  Pd23  1  0.667611  0.335223  0.506044  1
