# generated using pymatgen
data_Nd4ErOs2
_symmetry_space_group_name_H-M   'P 1'
_cell_length_a   6.58251719
_cell_length_b   7.42445078
_cell_length_c   8.75193081
_cell_angle_alpha   96.34637360
_cell_angle_beta   112.08989093
_cell_angle_gamma   89.99999765
_symmetry_Int_Tables_number   1
_chemical_formula_structural   Nd4ErOs2
_chemical_formula_sum   'Nd8 Er2 Os4'
_cell_volume   393.49356961
_cell_formula_units_Z   2
loop_
 _symmetry_equiv_pos_site_id
 _symmetry_equiv_pos_as_xyz
  1  'x, y, z'
loop_
 _atom_site_type_symbol
 _atom_site_label
 _atom_site_symmetry_multiplicity
 _atom_site_fract_x
 _atom_site_fract_y
 _atom_site_fract_z
 _atom_site_occupancy
  Nd  Nd0  1  0.793691  0.582723  0.818796  1
  Nd  Nd1  1  0.974895  0.917277  0.181204  1
  Nd  Nd2  1  0.206309  0.417277  0.181204  1
  Nd  Nd3  1  0.025105  0.082723  0.818796  1
  Nd  Nd4  1  0.207055  0.685077  0.568760  1
  Nd  Nd5  1  0.638295  0.814923  0.431240  1
  Nd  Nd6  1  0.792945  0.314923  0.431240  1
  Nd  Nd7  1  0.361705  0.185077  0.568760  1
  Er  Er8  1  0.430254  0.750000  0.000000  1
  Er  Er9  1  0.569746  0.250000  0.000000  1
  Os  Os10  1  0.601887  0.927789  0.788174  1
  Os  Os11  1  0.813713  0.572211  0.211826  1
  Os  Os12  1  0.398113  0.072211  0.211826  1
  Os  Os13  1  0.186287  0.427789  0.788174  1
