# generated using pymatgen
data_Lu6Al13V3Os7
_symmetry_space_group_name_H-M   'P 1'
_cell_length_a   8.91509559
_cell_length_b   8.91509705
_cell_length_c   8.91509800
_cell_angle_alpha   59.54886428
_cell_angle_beta   59.54885876
_cell_angle_gamma   59.54886419
_symmetry_Int_Tables_number   1
_chemical_formula_structural   Lu6Al13V3Os7
_chemical_formula_sum   'Lu6 Al13 V3 Os7'
_cell_volume   495.89031641
_cell_formula_units_Z   1
loop_
 _symmetry_equiv_pos_site_id
 _symmetry_equiv_pos_as_xyz
  1  'x, y, z'
loop_
 _atom_site_type_symbol
 _atom_site_label
 _atom_site_symmetry_multiplicity
 _atom_site_fract_x
 _atom_site_fract_y
 _atom_site_fract_z
 _atom_site_occupancy
  Lu  Lu0  1  0.710163  0.710163  0.286044  1
  Lu  Lu1  1  0.289408  0.713157  0.289408  1
  Lu  Lu2  1  0.713157  0.289408  0.289408  1
  Lu  Lu3  1  0.289408  0.289408  0.713157  1
  Lu  Lu4  1  0.710163  0.286044  0.710163  1
  Lu  Lu5  1  0.286044  0.710163  0.710163  1
  Al  Al6  1  0.881333  0.881333  0.881333  1
  Al  Al7  1  0.120534  0.120534  0.642886  1
  Al  Al8  1  0.120534  0.642886  0.120534  1
  Al  Al9  1  0.642886  0.120534  0.120534  1
  Al  Al10  1  0.120838  0.120838  0.120838  1
  Al  Al11  1  0.668246  0.668246  0.993764  1
  Al  Al12  1  0.668246  0.993764  0.668246  1
  Al  Al13  1  0.993764  0.668246  0.668246  1
  Al  Al14  1  0.667615  0.667615  0.667615  1
  Al  Al15  1  0.332172  0.332172  0.005762  1
  Al  Al16  1  0.332172  0.005762  0.332172  1
  Al  Al17  1  0.005762  0.332172  0.332172  1
  Al  Al18  1  0.332961  0.332961  0.332961  1
  V  V19  1  0.877234  0.877234  0.361017  1
  V  V20  1  0.877234  0.361017  0.877234  1
  V  V21  1  0.361017  0.877234  0.877234  1
  Os  Os22  1  0.004677  0.004677  0.004677  1
  Os  Os23  1  0.997878  0.997878  0.497624  1
  Os  Os24  1  0.502672  0.995708  0.502672  1
  Os  Os25  1  0.995708  0.502672  0.502672  1
  Os  Os26  1  0.502672  0.502672  0.995708  1
  Os  Os27  1  0.997878  0.497624  0.997878  1
  Os  Os28  1  0.497624  0.997878  0.997878  1
