# generated using pymatgen
data_Yb2CeAl3Si2Pd
_symmetry_space_group_name_H-M   'P 1'
_cell_length_a   6.90617600
_cell_length_b   6.97428384
_cell_length_c   4.35651800
_cell_angle_alpha   90.00000000
_cell_angle_beta   90.00000000
_cell_angle_gamma   119.67747055
_symmetry_Int_Tables_number   1
_chemical_formula_structural   Yb2CeAl3Si2Pd
_chemical_formula_sum   'Yb2 Ce1 Al3 Si2 Pd1'
_cell_volume   182.30967457
_cell_formula_units_Z   1
loop_
 _symmetry_equiv_pos_site_id
 _symmetry_equiv_pos_as_xyz
  1  'x, y, z'
loop_
 _atom_site_type_symbol
 _atom_site_label
 _atom_site_symmetry_multiplicity
 _atom_site_fract_x
 _atom_site_fract_y
 _atom_site_fract_z
 _atom_site_occupancy
  Yb  Yb0  1  0.999187  0.579823  0.500000  1
  Yb  Yb1  1  0.419364  0.420177  0.500000  1
  Ce  Ce2  1  0.576823  0.000000  0.500000  1
  Al  Al3  1  0.994878  0.232966  0.000000  1
  Al  Al4  1  0.761912  0.767034  0.000000  1
  Al  Al5  1  0.237117  0.000000  0.000000  1
  Si  Si6  1  0.337636  0.670145  0.000000  1
  Si  Si7  1  0.667492  0.329855  0.000000  1
  Pd  Pd8  1  0.005590  0.000000  0.500000  1
