# generated using pymatgen
data_Cs(V3S4)4
_symmetry_space_group_name_H-M   'P 1'
_cell_length_a   9.81975968
_cell_length_b   9.81975950
_cell_length_c   9.27871333
_cell_angle_alpha   61.71594869
_cell_angle_beta   61.71594850
_cell_angle_gamma   38.26457706
_symmetry_Int_Tables_number   1
_chemical_formula_structural   Cs(V3S4)4
_chemical_formula_sum   'Cs1 V12 S16'
_cell_volume   479.36675874
_cell_formula_units_Z   1
loop_
 _symmetry_equiv_pos_site_id
 _symmetry_equiv_pos_as_xyz
  1  'x, y, z'
loop_
 _atom_site_type_symbol
 _atom_site_label
 _atom_site_symmetry_multiplicity
 _atom_site_fract_x
 _atom_site_fract_y
 _atom_site_fract_z
 _atom_site_occupancy
  Cs  Cs0  1  0.374844  0.374844  0.000002  1
  V  V1  1  0.932809  0.932809  0.510761  1
  V  V2  1  0.432978  0.432978  0.515699  1
  V  V3  1  0.130842  0.130842  0.374910  1
  V  V4  1  0.633167  0.633167  0.367299  1
  V  V5  1  0.058291  0.058291  0.116480  1
  V  V6  1  0.562369  0.562369  0.114727  1
  V  V7  1  0.065751  0.568899  0.491127  1
  V  V8  1  0.568899  0.065751  0.491127  1
  V  V9  1  0.876155  0.364653  0.623834  1
  V  V10  1  0.364653  0.876155  0.623834  1
  V  V11  1  0.932771  0.441562  0.884920  1
  V  V12  1  0.441562  0.932771  0.884920  1
  S  S13  1  0.528053  0.528053  0.638065  1
  S  S14  1  0.022314  0.022314  0.651266  1
  S  S15  1  0.700791  0.700791  0.053289  1
  S  S16  1  0.193524  0.193524  0.057304  1
  S  S17  1  0.403576  0.403576  0.304670  1
  S  S18  1  0.901198  0.901198  0.296832  1
  S  S19  1  0.478098  0.977985  0.348759  1
  S  S20  1  0.977985  0.478098  0.348759  1
  S  S21  1  0.299486  0.799719  0.945081  1
  S  S22  1  0.799719  0.299486  0.945081  1
  S  S23  1  0.600391  0.095133  0.705388  1
  S  S24  1  0.095133  0.600391  0.705388  1
  S  S25  1  0.707507  0.707507  0.666119  1
  S  S26  1  0.208672  0.208672  0.667661  1
  S  S27  1  0.291104  0.792359  0.333350  1
  S  S28  1  0.792359  0.291104  0.333350  1
