# generated using pymatgen
data_Hf6Co2Cu2Si5Ge
_symmetry_space_group_name_H-M   'P 1'
_cell_length_a   3.87487400
_cell_length_b   5.34040018
_cell_length_c   12.95075086
_cell_angle_alpha   90.83757167
_cell_angle_beta   90.00000000
_cell_angle_gamma   111.27156059
_symmetry_Int_Tables_number   1
_chemical_formula_structural   Hf6Co2Cu2Si5Ge
_chemical_formula_sum   'Hf6 Co2 Cu2 Si5 Ge1'
_cell_volume   249.70594772
_cell_formula_units_Z   1
loop_
 _symmetry_equiv_pos_site_id
 _symmetry_equiv_pos_as_xyz
  1  'x, y, z'
loop_
 _atom_site_type_symbol
 _atom_site_label
 _atom_site_symmetry_multiplicity
 _atom_site_fract_x
 _atom_site_fract_y
 _atom_site_fract_z
 _atom_site_occupancy
  Hf  Hf0  1  0.072290  0.144578  0.389113  1
  Hf  Hf1  1  0.926663  0.853328  0.614662  1
  Hf  Hf2  1  0.071126  0.142252  0.116215  1
  Hf  Hf3  1  0.928356  0.856712  0.880344  1
  Hf  Hf4  1  0.364407  0.728814  0.251837  1
  Hf  Hf5  1  0.635564  0.271129  0.748196  1
  Co  Co6  1  0.221846  0.443691  0.579291  1
  Co  Co7  1  0.780428  0.560856  0.424699  1
  Cu  Cu8  1  0.219973  0.439947  0.904800  1
  Cu  Cu9  1  0.781570  0.563140  0.091007  1
  Si  Si10  1  0.389588  0.779176  0.457248  1
  Si  Si11  1  0.610727  0.221456  0.544263  1
  Si  Si12  1  0.392596  0.785192  0.040024  1
  Si  Si13  1  0.607284  0.214570  0.958508  1
  Si  Si14  1  0.339752  0.679503  0.741804  1
  Ge  Ge15  1  0.657830  0.315659  0.257988  1
