# generated using pymatgen
data_PrY2ThSe6
_symmetry_space_group_name_H-M   'P 1'
_cell_length_a   11.32374500
_cell_length_b   4.13725500
_cell_length_c   11.01853700
_cell_angle_alpha   90.00000000
_cell_angle_beta   90.00000000
_cell_angle_gamma   90.00000000
_symmetry_Int_Tables_number   1
_chemical_formula_structural   PrY2ThSe6
_chemical_formula_sum   'Pr2 Y4 Th2 Se12'
_cell_volume   516.20987082
_cell_formula_units_Z   2
loop_
 _symmetry_equiv_pos_site_id
 _symmetry_equiv_pos_as_xyz
  1  'x, y, z'
loop_
 _atom_site_type_symbol
 _atom_site_label
 _atom_site_symmetry_multiplicity
 _atom_site_fract_x
 _atom_site_fract_y
 _atom_site_fract_z
 _atom_site_occupancy
  Pr  Pr0  1  0.696884  0.750000  0.496458  1
  Pr  Pr1  1  0.196884  0.750000  0.003542  1
  Y  Y2  1  0.485645  0.250000  0.187331  1
  Y  Y3  1  0.985645  0.250000  0.312669  1
  Y  Y4  1  0.513055  0.750000  0.812425  1
  Y  Y5  1  0.013055  0.750000  0.687575  1
  Th  Th6  1  0.305471  0.250000  0.495844  1
  Th  Th7  1  0.805471  0.250000  0.004156  1
  Se  Se8  1  0.542589  0.250000  0.629408  1
  Se  Se9  1  0.042589  0.250000  0.870592  1
  Se  Se10  1  0.452841  0.750000  0.369128  1
  Se  Se11  1  0.952841  0.750000  0.130872  1
  Se  Se12  1  0.616356  0.750000  0.053551  1
  Se  Se13  1  0.116356  0.750000  0.446449  1
  Se  Se14  1  0.384706  0.250000  0.945514  1
  Se  Se15  1  0.884706  0.250000  0.554486  1
  Se  Se16  1  0.728108  0.250000  0.291281  1
  Se  Se17  1  0.228108  0.250000  0.208719  1
  Se  Se18  1  0.274344  0.750000  0.697698  1
  Se  Se19  1  0.774344  0.750000  0.802302  1
