# generated using pymatgen
data_Pr4Pu(BN3)2
_symmetry_space_group_name_H-M   'P 1'
_cell_length_a   6.42900676
_cell_length_b   6.42900713
_cell_length_c   8.81098679
_cell_angle_alpha   74.57171402
_cell_angle_beta   74.57171306
_cell_angle_gamma   32.57525202
_symmetry_Int_Tables_number   1
_chemical_formula_structural   Pr4Pu(BN3)2
_chemical_formula_sum   'Pr4 Pu1 B2 N6'
_cell_volume   188.39408113
_cell_formula_units_Z   1
loop_
 _symmetry_equiv_pos_site_id
 _symmetry_equiv_pos_as_xyz
  1  'x, y, z'
loop_
 _atom_site_type_symbol
 _atom_site_label
 _atom_site_symmetry_multiplicity
 _atom_site_fract_x
 _atom_site_fract_y
 _atom_site_fract_z
 _atom_site_occupancy
  Pr  Pr0  1  0.622347  0.622347  0.627399  1
  Pr  Pr1  1  0.309428  0.309428  0.817658  1
  Pr  Pr2  1  0.690572  0.690572  0.182342  1
  Pr  Pr3  1  0.377653  0.377653  0.372601  1
  Pu  Pu4  1  0.000000  0.000000  0.000000  1
  B  B5  1  0.055057  0.055057  0.408225  1
  B  B6  1  0.944943  0.944943  0.591775  1
  N  N7  1  0.026256  0.026256  0.254491  1
  N  N8  1  0.362186  0.362186  0.073849  1
  N  N9  1  0.825847  0.825847  0.591374  1
  N  N10  1  0.973744  0.973744  0.745509  1
  N  N11  1  0.637814  0.637814  0.926151  1
  N  N12  1  0.174153  0.174153  0.408626  1
