# generated using pymatgen
data_TbPr6(ErPb2)3
_symmetry_space_group_name_H-M   'P 1'
_cell_length_a   9.31944300
_cell_length_b   9.31944291
_cell_length_c   6.80759400
_cell_angle_alpha   90.00000000
_cell_angle_beta   90.00000000
_cell_angle_gamma   120.00000385
_symmetry_Int_Tables_number   1
_chemical_formula_structural   TbPr6(ErPb2)3
_chemical_formula_sum   'Tb1 Pr6 Er3 Pb6'
_cell_volume   512.04033207
_cell_formula_units_Z   1
loop_
 _symmetry_equiv_pos_site_id
 _symmetry_equiv_pos_as_xyz
  1  'x, y, z'
loop_
 _atom_site_type_symbol
 _atom_site_label
 _atom_site_symmetry_multiplicity
 _atom_site_fract_x
 _atom_site_fract_y
 _atom_site_fract_z
 _atom_site_occupancy
  Tb  Tb0  1  0.333333  0.666667  0.000000  1
  Pr  Pr1  1  0.239517  0.000011  0.249978  1
  Pr  Pr2  1  0.239517  0.239505  0.750022  1
  Pr  Pr3  1  0.999989  0.760483  0.750022  1
  Pr  Pr4  1  0.999989  0.239505  0.249978  1
  Pr  Pr5  1  0.760495  0.760483  0.249978  1
  Pr  Pr6  1  0.760495  0.000011  0.750022  1
  Er  Er7  1  0.666667  0.333333  0.500000  1
  Er  Er8  1  0.666667  0.333333  0.000000  1
  Er  Er9  1  0.333333  0.666667  0.500000  1
  Pb  Pb10  1  0.601182  0.000614  0.250468  1
  Pb  Pb11  1  0.601182  0.600568  0.749532  1
  Pb  Pb12  1  0.999386  0.398818  0.749532  1
  Pb  Pb13  1  0.999386  0.600568  0.250468  1
  Pb  Pb14  1  0.399432  0.398818  0.250468  1
  Pb  Pb15  1  0.399432  0.000614  0.749532  1
