# generated using pymatgen
data_Nd6Cd23Sn
_symmetry_space_group_name_H-M   'P 1'
_cell_length_a   10.08468287
_cell_length_b   10.08474059
_cell_length_c   10.08478706
_cell_angle_alpha   60.65788863
_cell_angle_beta   60.65831326
_cell_angle_gamma   60.65856260
_symmetry_Int_Tables_number   1
_chemical_formula_structural   Nd6Cd23Sn
_chemical_formula_sum   'Nd6 Cd23 Sn1'
_cell_volume   736.01266573
_cell_formula_units_Z   1
loop_
 _symmetry_equiv_pos_site_id
 _symmetry_equiv_pos_as_xyz
  1  'x, y, z'
loop_
 _atom_site_type_symbol
 _atom_site_label
 _atom_site_symmetry_multiplicity
 _atom_site_fract_x
 _atom_site_fract_y
 _atom_site_fract_z
 _atom_site_occupancy
  Nd  Nd0  1  0.778632  0.778630  0.222777  1
  Nd  Nd1  1  0.221369  0.777223  0.221369  1
  Nd  Nd2  1  0.777227  0.221367  0.221367  1
  Nd  Nd3  1  0.221368  0.221370  0.777223  1
  Nd  Nd4  1  0.778631  0.222777  0.778631  1
  Nd  Nd5  1  0.222773  0.778633  0.778633  1
  Cd  Cd6  1  0.839077  0.839075  0.479166  1
  Cd  Cd7  1  0.839077  0.479168  0.839075  1
  Cd  Cd8  1  0.479166  0.839078  0.839076  1
  Cd  Cd9  1  0.840404  0.840407  0.840406  1
  Cd  Cd10  1  0.160923  0.160925  0.520834  1
  Cd  Cd11  1  0.160923  0.520832  0.160925  1
  Cd  Cd12  1  0.520834  0.160922  0.160924  1
  Cd  Cd13  1  0.159596  0.159593  0.159594  1
  Cd  Cd14  1  0.625520  0.625518  0.126393  1
  Cd  Cd15  1  0.625519  0.126395  0.625517  1
  Cd  Cd16  1  0.126393  0.625521  0.625519  1
  Cd  Cd17  1  0.625579  0.625583  0.625584  1
  Cd  Cd18  1  0.374480  0.374482  0.873607  1
  Cd  Cd19  1  0.374481  0.873605  0.374483  1
  Cd  Cd20  1  0.873607  0.374479  0.374481  1
  Cd  Cd21  1  0.374421  0.374417  0.374416  1
  Cd  Cd22  1  0.000000  0.000000  0.500000  1
  Cd  Cd23  1  0.500000  0.000000  0.500000  1
  Cd  Cd24  1  0.000000  0.500000  0.500000  1
  Cd  Cd25  1  0.500000  0.500000  0.000000  1
  Cd  Cd26  1  0.000000  0.500000  0.000000  1
  Cd  Cd27  1  0.500000  0.000000  0.000000  1
  Cd  Cd28  1  0.500000  0.500000  0.500000  1
  Sn  Sn29  1  0.000000  0.000000  0.000000  1
