# generated using pymatgen
data_Ho6Er2Sc11Si16Au
_symmetry_space_group_name_H-M   'P 1'
_cell_length_a   6.98995826
_cell_length_b   7.36900521
_cell_length_c   13.98192675
_cell_angle_alpha   89.96765385
_cell_angle_beta   89.98084180
_cell_angle_gamma   89.81636150
_symmetry_Int_Tables_number   1
_chemical_formula_structural   Ho6Er2Sc11Si16Au
_chemical_formula_sum   'Ho6 Er2 Sc11 Si16 Au1'
_cell_volume   720.19175393
_cell_formula_units_Z   1
loop_
 _symmetry_equiv_pos_site_id
 _symmetry_equiv_pos_as_xyz
  1  'x, y, z'
loop_
 _atom_site_type_symbol
 _atom_site_label
 _atom_site_symmetry_multiplicity
 _atom_site_fract_x
 _atom_site_fract_y
 _atom_site_fract_z
 _atom_site_occupancy
  Ho  Ho0  1  0.486454  0.672315  0.902169  1
  Ho  Ho1  1  0.990471  0.813731  0.597872  1
  Ho  Ho2  1  0.510120  0.323002  0.096166  1
  Ho  Ho3  1  0.010333  0.174995  0.403853  1
  Ho  Ho4  1  0.510085  0.323036  0.403403  1
  Ho  Ho5  1  0.486052  0.672286  0.598274  1
  Er  Er6  1  0.010548  0.175347  0.096057  1
  Er  Er7  1  0.989980  0.813886  0.902201  1
  Sc  Sc8  1  0.838247  0.497032  0.249754  1
  Sc  Sc9  1  0.340387  0.004158  0.249784  1
  Sc  Sc10  1  0.655080  0.996930  0.749949  1
  Sc  Sc11  1  0.322353  0.182703  0.627859  1
  Sc  Sc12  1  0.671736  0.824005  0.375304  1
  Sc  Sc13  1  0.170252  0.678772  0.373889  1
  Sc  Sc14  1  0.671624  0.824227  0.124433  1
  Sc  Sc15  1  0.840202  0.327884  0.627657  1
  Sc  Sc16  1  0.322214  0.182335  0.872427  1
  Sc  Sc17  1  0.840100  0.327558  0.872543  1
  Sc  Sc18  1  0.170475  0.679169  0.125875  1
  Si  Si19  1  0.024318  0.090441  0.750271  1
  Si  Si20  1  0.968824  0.889460  0.249666  1
  Si  Si21  1  0.467135  0.617097  0.249809  1
  Si  Si22  1  0.536680  0.383974  0.750157  1
  Si  Si23  1  0.287987  0.879168  0.750280  1
  Si  Si24  1  0.713824  0.129001  0.249606  1
  Si  Si25  1  0.212461  0.371415  0.249616  1
  Si  Si26  1  0.778547  0.629611  0.750258  1
  Si  Si27  1  0.163523  0.459103  0.529803  1
  Si  Si28  1  0.842144  0.534525  0.462041  1
  Si  Si29  1  0.343967  0.965279  0.463511  1
  Si  Si30  1  0.842231  0.534626  0.037795  1
  Si  Si31  1  0.657250  0.034081  0.540844  1
  Si  Si32  1  0.163119  0.459390  0.969682  1
  Si  Si33  1  0.657605  0.033885  0.959109  1
  Si  Si34  1  0.343541  0.965642  0.036511  1
  Au  Au35  1  0.160135  0.529930  0.751573  1
