# generated using pymatgen
data_Sr6TaTcO12
_symmetry_space_group_name_H-M   'P 1'
_cell_length_a   6.15162461
_cell_length_b   5.89687226
_cell_length_c   10.33564740
_cell_angle_alpha   54.87184140
_cell_angle_beta   89.83142429
_cell_angle_gamma   89.84572699
_symmetry_Int_Tables_number   1
_chemical_formula_structural   Sr6TaTcO12
_chemical_formula_sum   'Sr6 Ta1 Tc1 O12'
_cell_volume   306.64064890
_cell_formula_units_Z   1
loop_
 _symmetry_equiv_pos_site_id
 _symmetry_equiv_pos_as_xyz
  1  'x, y, z'
loop_
 _atom_site_type_symbol
 _atom_site_label
 _atom_site_symmetry_multiplicity
 _atom_site_fract_x
 _atom_site_fract_y
 _atom_site_fract_z
 _atom_site_occupancy
  Sr  Sr0  1  0.500000  0.500000  0.500000  1
  Sr  Sr1  1  0.950289  0.723491  0.264995  1
  Sr  Sr2  1  0.444400  0.262727  0.256580  1
  Sr  Sr3  1  0.000000  0.500000  0.000000  1
  Sr  Sr4  1  0.555600  0.737273  0.743420  1
  Sr  Sr5  1  0.049711  0.276509  0.735005  1
  Ta  Ta6  1  0.000000  0.000000  0.500000  1
  Tc  Tc7  1  0.500000  0.000000  0.000000  1
  O  O8  1  0.456826  0.109842  0.788394  1
  O  O9  1  0.240839  0.776153  0.063543  1
  O  O10  1  0.181564  0.323589  0.450812  1
  O  O11  1  0.667981  0.689808  0.045923  1
  O  O12  1  0.731765  0.244524  0.429814  1
  O  O13  1  0.947079  0.885216  0.723678  1
  O  O14  1  0.052921  0.114784  0.276322  1
  O  O15  1  0.268235  0.755476  0.570186  1
  O  O16  1  0.332019  0.310192  0.954077  1
  O  O17  1  0.818436  0.676411  0.549188  1
  O  O18  1  0.759161  0.223847  0.936457  1
  O  O19  1  0.543174  0.890158  0.211606  1
