# generated using pymatgen
data_Nb2ZnRu3
_symmetry_space_group_name_H-M   'P 1'
_cell_length_a   7.65086600
_cell_length_b   7.65086709
_cell_length_c   5.45327200
_cell_angle_alpha   90.00000000
_cell_angle_beta   90.00000000
_cell_angle_gamma   120.00000393
_symmetry_Int_Tables_number   1
_chemical_formula_structural   Nb2ZnRu3
_chemical_formula_sum   'Nb6 Zn3 Ru9'
_cell_volume   276.44518364
_cell_formula_units_Z   3
loop_
 _symmetry_equiv_pos_site_id
 _symmetry_equiv_pos_as_xyz
  1  'x, y, z'
loop_
 _atom_site_type_symbol
 _atom_site_label
 _atom_site_symmetry_multiplicity
 _atom_site_fract_x
 _atom_site_fract_y
 _atom_site_fract_z
 _atom_site_occupancy
  Nb  Nb0  1  0.666666  0.333333  0.540314  1
  Nb  Nb1  1  0.333334  0.666667  0.540314  1
  Nb  Nb2  1  0.000000  0.000000  0.540601  1
  Nb  Nb3  1  0.332950  0.000000  0.910239  1
  Nb  Nb4  1  0.000000  0.332949  0.910239  1
  Nb  Nb5  1  0.667051  0.667051  0.910239  1
  Zn  Zn6  1  0.665725  0.000000  0.225706  1
  Zn  Zn7  1  0.334275  0.334274  0.225706  1
  Zn  Zn8  1  0.000000  0.665726  0.225706  1
  Ru  Ru9  1  0.666666  0.333333  0.048832  1
  Ru  Ru10  1  0.333334  0.666667  0.048832  1
  Ru  Ru11  1  0.000000  0.000000  0.049918  1
  Ru  Ru12  1  0.332965  0.000000  0.401524  1
  Ru  Ru13  1  0.000000  0.332964  0.401524  1
  Ru  Ru14  1  0.667036  0.667036  0.401524  1
  Ru  Ru15  1  0.666513  0.000000  0.725542  1
  Ru  Ru16  1  0.333487  0.333487  0.725542  1
  Ru  Ru17  1  0.000000  0.666513  0.725542  1
