# generated using pymatgen
data_La8PrNd3(RhBr3)4
_symmetry_space_group_name_H-M   'P 1'
_cell_length_a   10.59504009
_cell_length_b   10.59317804
_cell_length_c   10.60376079
_cell_angle_alpha   108.64164227
_cell_angle_beta   108.65914215
_cell_angle_gamma   111.14708249
_symmetry_Int_Tables_number   1
_chemical_formula_structural   La8PrNd3(RhBr3)4
_chemical_formula_sum   'La8 Pr1 Nd3 Rh4 Br12'
_cell_volume   915.32607328
_cell_formula_units_Z   1
loop_
 _symmetry_equiv_pos_site_id
 _symmetry_equiv_pos_as_xyz
  1  'x, y, z'
loop_
 _atom_site_type_symbol
 _atom_site_label
 _atom_site_symmetry_multiplicity
 _atom_site_fract_x
 _atom_site_fract_y
 _atom_site_fract_z
 _atom_site_occupancy
  La  La0  1  0.468556  0.479891  0.237651  1
  La  La1  1  0.742711  0.231177  0.262841  1
  La  La2  1  0.757090  0.019916  0.488379  1
  La  La3  1  0.231055  0.468620  0.488292  1
  La  La4  1  0.268942  0.757234  0.237183  1
  La  La5  1  0.031368  0.268850  0.011633  1
  La  La6  1  0.020004  0.031470  0.262281  1
  La  La7  1  0.480078  0.742982  0.011722  1
  Pr  Pr8  1  0.234781  0.265247  0.750055  1
  Nd  Nd9  1  0.484321  0.234320  0.468580  1
  Nd  Nd10  1  0.015558  0.484561  0.750078  1
  Nd  Nd11  1  0.265695  0.015694  0.031434  1
  Rh  Rh12  1  0.249407  0.250607  0.249971  1
  Rh  Rh13  1  0.500545  0.999412  0.250007  1
  Rh  Rh14  1  0.998866  0.249514  0.498349  1
  Rh  Rh15  1  0.250505  0.501107  0.001678  1
  Br  Br16  1  0.246942  0.756654  0.746869  1
  Br  Br17  1  0.510859  0.501519  0.753178  1
  Br  Br18  1  0.990201  0.743447  0.990295  1
  Br  Br19  1  0.743382  0.253106  0.753167  1
  Br  Br20  1  0.998550  0.989042  0.746838  1
  Br  Br21  1  0.253003  0.998844  0.508543  1
  Br  Br22  1  0.756581  0.509861  0.509751  1
  Br  Br23  1  0.501127  0.246967  0.991381  1
  Br  Br24  1  0.754417  0.745545  0.250014  1
  Br  Br25  1  0.745450  0.995491  0.990941  1
  Br  Br26  1  0.995477  0.504497  0.249931  1
  Br  Br27  1  0.504527  0.754423  0.508952  1
