# generated using pymatgen
data_Er3In3PtAu2
_symmetry_space_group_name_H-M   'P 1'
_cell_length_a   7.68558600
_cell_length_b   7.68558711
_cell_length_c   3.96241400
_cell_angle_alpha   90.00000000
_cell_angle_beta   90.00000000
_cell_angle_gamma   119.99999522
_symmetry_Int_Tables_number   1
_chemical_formula_structural   Er3In3PtAu2
_chemical_formula_sum   'Er3 In3 Pt1 Au2'
_cell_volume   202.69570105
_cell_formula_units_Z   1
loop_
 _symmetry_equiv_pos_site_id
 _symmetry_equiv_pos_as_xyz
  1  'x, y, z'
loop_
 _atom_site_type_symbol
 _atom_site_label
 _atom_site_symmetry_multiplicity
 _atom_site_fract_x
 _atom_site_fract_y
 _atom_site_fract_z
 _atom_site_occupancy
  Er  Er0  1  0.598037  0.011534  0.500000  1
  Er  Er1  1  0.413497  0.401963  0.500000  1
  Er  Er2  1  0.988466  0.586503  0.500000  1
  In  In3  1  0.999076  0.262063  0.000000  1
  In  In4  1  0.737937  0.737013  0.000000  1
  In  In5  1  0.262987  0.000924  0.000000  1
  Pt  Pt6  1  0.666667  0.333333  0.000000  1
  Au  Au7  1  0.333333  0.666667  0.000000  1
  Au  Au8  1  0.000000  0.000000  0.500000  1
