# generated using pymatgen
data_Tb4Ga18IrRuRh4
_symmetry_space_group_name_H-M   'P 1'
_cell_length_a   7.57231777
_cell_length_b   7.57232161
_cell_length_c   9.56664978
_cell_angle_alpha   90.05039538
_cell_angle_beta   90.05013962
_cell_angle_gamma   119.80182336
_symmetry_Int_Tables_number   1
_chemical_formula_structural   Tb4Ga18IrRuRh4
_chemical_formula_sum   'Tb4 Ga18 Ir1 Ru1 Rh4'
_cell_volume   476.00502075
_cell_formula_units_Z   1
loop_
 _symmetry_equiv_pos_site_id
 _symmetry_equiv_pos_as_xyz
  1  'x, y, z'
loop_
 _atom_site_type_symbol
 _atom_site_label
 _atom_site_symmetry_multiplicity
 _atom_site_fract_x
 _atom_site_fract_y
 _atom_site_fract_z
 _atom_site_occupancy
  Tb  Tb0  1  0.996573  0.666974  0.247939  1
  Tb  Tb1  1  0.002190  0.332762  0.751806  1
  Tb  Tb2  1  0.667241  0.997806  0.248195  1
  Tb  Tb3  1  0.333021  0.003428  0.752061  1
  Ga  Ga4  1  0.124959  0.125133  0.250248  1
  Ga  Ga5  1  0.874865  0.875041  0.749754  1
  Ga  Ga6  1  0.999321  0.333756  0.079754  1
  Ga  Ga7  1  0.997150  0.664470  0.920250  1
  Ga  Ga8  1  0.999437  0.666007  0.579406  1
  Ga  Ga9  1  0.333993  0.000564  0.420595  1
  Ga  Ga10  1  0.000458  0.334078  0.420958  1
  Ga  Ga11  1  0.665925  0.999542  0.579042  1
  Ga  Ga12  1  0.666242  0.000678  0.920246  1
  Ga  Ga13  1  0.335534  0.002852  0.079749  1
  Ga  Ga14  1  0.332730  0.332791  0.563128  1
  Ga  Ga15  1  0.667208  0.667271  0.436873  1
  Ga  Ga16  1  0.666785  0.664733  0.062967  1
  Ga  Ga17  1  0.335267  0.333216  0.937032  1
  Ga  Ga18  1  0.338150  0.546307  0.250733  1
  Ga  Ga19  1  0.662017  0.452660  0.750861  1
  Ga  Ga20  1  0.547338  0.337984  0.249138  1
  Ga  Ga21  1  0.453694  0.661853  0.749267  1
  Ir  Ir22  1  0.328042  0.671958  0.000002  1
  Ru  Ru23  1  0.672096  0.327904  0.000000  1
  Rh  Rh24  1  0.328652  0.671353  0.499997  1
  Rh  Rh25  1  0.671351  0.328651  0.499996  1
  Rh  Rh26  1  0.999786  0.000211  0.000000  1
  Rh  Rh27  1  0.999975  0.000020  0.500001  1
