# generated using pymatgen
data_HfZr3Ru10Pt2C3
_symmetry_space_group_name_H-M   'P 1'
_cell_length_a   4.08991300
_cell_length_b   4.08991300
_cell_length_c   16.21372900
_cell_angle_alpha   90.00000000
_cell_angle_beta   90.00000000
_cell_angle_gamma   90.00000000
_symmetry_Int_Tables_number   1
_chemical_formula_structural   HfZr3Ru10Pt2C3
_chemical_formula_sum   'Hf1 Zr3 Ru10 Pt2 C3'
_cell_volume   271.21334155
_cell_formula_units_Z   1
loop_
 _symmetry_equiv_pos_site_id
 _symmetry_equiv_pos_as_xyz
  1  'x, y, z'
loop_
 _atom_site_type_symbol
 _atom_site_label
 _atom_site_symmetry_multiplicity
 _atom_site_fract_x
 _atom_site_fract_y
 _atom_site_fract_z
 _atom_site_occupancy
  Hf  Hf0  1  0.000000  0.000000  0.625969  1
  Zr  Zr1  1  0.000000  0.000000  0.877020  1
  Zr  Zr2  1  0.000000  0.000000  0.122790  1
  Zr  Zr3  1  0.000000  0.000000  0.374298  1
  Ru  Ru4  1  0.500000  0.500000  0.878590  1
  Ru  Ru5  1  0.500000  0.500000  0.121311  1
  Ru  Ru6  1  0.500000  0.500000  0.373574  1
  Ru  Ru7  1  0.500000  0.500000  0.626407  1
  Ru  Ru8  1  0.500000  0.000000  0.249614  1
  Ru  Ru9  1  0.500000  0.000000  0.501141  1
  Ru  Ru10  1  0.500000  0.000000  0.749421  1
  Ru  Ru11  1  0.000000  0.500000  0.249614  1
  Ru  Ru12  1  0.000000  0.500000  0.501141  1
  Ru  Ru13  1  0.000000  0.500000  0.749421  1
  Pt  Pt14  1  0.500000  0.000000  0.999931  1
  Pt  Pt15  1  0.000000  0.500000  0.999931  1
  C  C16  1  0.500000  0.500000  0.242644  1
  C  C17  1  0.500000  0.500000  0.499774  1
  C  C18  1  0.500000  0.500000  0.757408  1
