# generated using pymatgen
data_Pr7Nd9Mg2(HgIr2)2
_symmetry_space_group_name_H-M   'P 1'
_cell_length_a   9.98459491
_cell_length_b   9.98459604
_cell_length_c   10.00039900
_cell_angle_alpha   59.94763307
_cell_angle_beta   59.94762932
_cell_angle_gamma   60.24054708
_symmetry_Int_Tables_number   1
_chemical_formula_structural   Pr7Nd9Mg2(HgIr2)2
_chemical_formula_sum   'Pr7 Nd9 Mg2 Hg2 Ir4'
_cell_volume   705.66910171
_cell_formula_units_Z   1
loop_
 _symmetry_equiv_pos_site_id
 _symmetry_equiv_pos_as_xyz
  1  'x, y, z'
loop_
 _atom_site_type_symbol
 _atom_site_label
 _atom_site_symmetry_multiplicity
 _atom_site_fract_x
 _atom_site_fract_y
 _atom_site_fract_z
 _atom_site_occupancy
  Pr  Pr0  1  0.805750  0.805750  0.194250  1
  Pr  Pr1  1  0.938927  0.559267  0.561839  1
  Pr  Pr2  1  0.559267  0.938927  0.939967  1
  Pr  Pr3  1  0.559267  0.938927  0.561839  1
  Pr  Pr4  1  0.938927  0.559267  0.939967  1
  Pr  Pr5  1  0.560196  0.560196  0.939804  1
  Pr  Pr6  1  0.938831  0.938831  0.561169  1
  Nd  Nd7  1  0.347480  0.347480  0.346010  1
  Nd  Nd8  1  0.347480  0.347480  0.959030  1
  Nd  Nd9  1  0.348778  0.954893  0.348165  1
  Nd  Nd10  1  0.954893  0.348778  0.348165  1
  Nd  Nd11  1  0.809912  0.188591  0.190803  1
  Nd  Nd12  1  0.188591  0.809912  0.810694  1
  Nd  Nd13  1  0.188591  0.809912  0.190803  1
  Nd  Nd14  1  0.809912  0.188591  0.810694  1
  Nd  Nd15  1  0.187658  0.187658  0.812342  1
  Mg  Mg16  1  0.579187  0.273138  0.573838  1
  Mg  Mg17  1  0.273138  0.579187  0.573838  1
  Hg  Hg18  1  0.580747  0.580747  0.587231  1
  Hg  Hg19  1  0.580747  0.580747  0.251275  1
  Ir  Ir20  1  0.141926  0.141926  0.141012  1
  Ir  Ir21  1  0.141926  0.141926  0.575137  1
  Ir  Ir22  1  0.142640  0.575229  0.141065  1
  Ir  Ir23  1  0.575229  0.142640  0.141065  1
