# generated using pymatgen
data_Na3Li2TiSb3
_symmetry_space_group_name_H-M   'P 1'
_cell_length_a   10.33789373
_cell_length_b   10.33789480
_cell_length_c   14.80514500
_cell_angle_alpha   90.00000000
_cell_angle_beta   90.00000000
_cell_angle_gamma   143.62300802
_symmetry_Int_Tables_number   1
_chemical_formula_structural   Na3Li2TiSb3
_chemical_formula_sum   'Na12 Li8 Ti4 Sb12'
_cell_volume   938.42929006
_cell_formula_units_Z   4
loop_
 _symmetry_equiv_pos_site_id
 _symmetry_equiv_pos_as_xyz
  1  'x, y, z'
loop_
 _atom_site_type_symbol
 _atom_site_label
 _atom_site_symmetry_multiplicity
 _atom_site_fract_x
 _atom_site_fract_y
 _atom_site_fract_z
 _atom_site_occupancy
  Na  Na0  1  0.594296  0.934673  0.825301  1
  Na  Na1  1  0.263765  0.263765  0.324615  1
  Na  Na2  1  0.236235  0.236235  0.824615  1
  Na  Na3  1  0.736235  0.736235  0.675385  1
  Na  Na4  1  0.434673  0.094296  0.674699  1
  Na  Na5  1  0.905704  0.565327  0.325301  1
  Na  Na6  1  0.065327  0.405704  0.174699  1
  Na  Na7  1  0.405704  0.065327  0.174699  1
  Na  Na8  1  0.565327  0.905704  0.325301  1
  Na  Na9  1  0.094296  0.434673  0.674699  1
  Na  Na10  1  0.934673  0.594296  0.825301  1
  Na  Na11  1  0.763765  0.763765  0.175385  1
  Li  Li12  1  0.083802  0.916198  0.000000  1
  Li  Li13  1  0.583802  0.416198  0.500000  1
  Li  Li14  1  0.916198  0.083802  0.000000  1
  Li  Li15  1  0.752626  0.247374  0.000000  1
  Li  Li16  1  0.747374  0.252626  0.500000  1
  Li  Li17  1  0.247374  0.752626  0.000000  1
  Li  Li18  1  0.252626  0.747374  0.500000  1
  Li  Li19  1  0.416198  0.583802  0.500000  1
  Ti  Ti20  1  0.087551  0.912449  0.500000  1
  Ti  Ti21  1  0.412449  0.587551  0.000000  1
  Ti  Ti22  1  0.912449  0.087551  0.500000  1
  Ti  Ti23  1  0.587551  0.412449  0.000000  1
  Sb  Sb24  1  0.068935  0.395024  0.389984  1
  Sb  Sb25  1  0.895024  0.568935  0.110016  1
  Sb  Sb26  1  0.431065  0.104976  0.889984  1
  Sb  Sb27  1  0.604976  0.931065  0.610016  1
  Sb  Sb28  1  0.931065  0.604976  0.610016  1
  Sb  Sb29  1  0.104976  0.431065  0.889984  1
  Sb  Sb30  1  0.568935  0.895024  0.110016  1
  Sb  Sb31  1  0.395024  0.068935  0.389984  1
  Sb  Sb32  1  0.228540  0.228540  0.604281  1
  Sb  Sb33  1  0.728540  0.728540  0.895719  1
  Sb  Sb34  1  0.271460  0.271460  0.104281  1
  Sb  Sb35  1  0.771460  0.771460  0.395719  1
