# generated using pymatgen
data_Ba3YInWO9
_symmetry_space_group_name_H-M   'P 1'
_cell_length_a   10.49762760
_cell_length_b   10.49762824
_cell_length_c   10.49762774
_cell_angle_alpha   146.36477475
_cell_angle_beta   132.13817626
_cell_angle_gamma   59.76805561
_symmetry_Int_Tables_number   1
_chemical_formula_structural   Ba3YInWO9
_chemical_formula_sum   'Ba6 Y2 In2 W2 O18'
_cell_volume   470.86154153
_cell_formula_units_Z   2
loop_
 _symmetry_equiv_pos_site_id
 _symmetry_equiv_pos_as_xyz
  1  'x, y, z'
loop_
 _atom_site_type_symbol
 _atom_site_label
 _atom_site_symmetry_multiplicity
 _atom_site_fract_x
 _atom_site_fract_y
 _atom_site_fract_z
 _atom_site_occupancy
  Ba  Ba0  1  0.585322  0.841464  0.743858  1
  Ba  Ba1  1  0.262264  0.500000  0.762264  1
  Ba  Ba2  1  0.902393  0.158536  0.743858  1
  Ba  Ba3  1  0.097607  0.841464  0.256142  1
  Ba  Ba4  1  0.737736  0.500000  0.237736  1
  Ba  Ba5  1  0.414678  0.158536  0.256142  1
  Y  Y6  1  0.330881  0.330881  0.000000  1
  Y  Y7  1  0.669119  0.669119  0.000000  1
  In  In8  1  0.000000  0.000000  0.000000  1
  In  In9  1  0.500000  0.000000  0.500000  1
  W  W10  1  0.166372  0.666372  0.500000  1
  W  W11  1  0.833628  0.333628  0.500000  1
  O  O12  1  0.600200  0.330806  0.269393  1
  O  O13  1  0.239950  0.000000  0.239950  1
  O  O14  1  0.938587  0.669194  0.269393  1
  O  O15  1  0.909767  0.638692  0.728926  1
  O  O16  1  0.585255  0.332619  0.747364  1
  O  O17  1  0.241925  0.971713  0.729788  1
  O  O18  1  0.758075  0.487865  0.729788  1
  O  O19  1  0.414745  0.162110  0.747364  1
  O  O20  1  0.090233  0.819159  0.728926  1
  O  O21  1  0.061413  0.330806  0.730607  1
  O  O22  1  0.760050  0.000000  0.760050  1
  O  O23  1  0.399800  0.669194  0.730607  1
  O  O24  1  0.758075  0.028287  0.270212  1
  O  O25  1  0.414745  0.667381  0.252636  1
  O  O26  1  0.090233  0.361308  0.271074  1
  O  O27  1  0.909767  0.180841  0.271074  1
  O  O28  1  0.585255  0.837890  0.252636  1
  O  O29  1  0.241925  0.512135  0.270212  1
