# generated using pymatgen
data_TbGaAu3
_symmetry_space_group_name_H-M   'P 1'
_cell_length_a   9.22111700
_cell_length_b   9.22111700
_cell_length_c   9.22111700
_cell_angle_alpha   90.00000000
_cell_angle_beta   90.00000000
_cell_angle_gamma   90.00000000
_symmetry_Int_Tables_number   1
_chemical_formula_structural   TbGaAu3
_chemical_formula_sum   'Tb8 Ga8 Au24'
_cell_volume   784.06234566
_cell_formula_units_Z   8
loop_
 _symmetry_equiv_pos_site_id
 _symmetry_equiv_pos_as_xyz
  1  'x, y, z'
loop_
 _atom_site_type_symbol
 _atom_site_label
 _atom_site_symmetry_multiplicity
 _atom_site_fract_x
 _atom_site_fract_y
 _atom_site_fract_z
 _atom_site_occupancy
  Tb  Tb0  1  0.390811  0.390811  0.390811  1
  Tb  Tb1  1  0.609189  0.890811  0.109189  1
  Tb  Tb2  1  0.109189  0.890811  0.390811  1
  Tb  Tb3  1  0.609189  0.609189  0.609189  1
  Tb  Tb4  1  0.890811  0.390811  0.109189  1
  Tb  Tb5  1  0.390811  0.109189  0.890811  1
  Tb  Tb6  1  0.109189  0.609189  0.890811  1
  Tb  Tb7  1  0.890811  0.109189  0.609189  1
  Ga  Ga8  1  0.895440  0.604560  0.395440  1
  Ga  Ga9  1  0.604560  0.395440  0.895440  1
  Ga  Ga10  1  0.895440  0.895440  0.895440  1
  Ga  Ga11  1  0.395440  0.604560  0.104560  1
  Ga  Ga12  1  0.104560  0.104560  0.104560  1
  Ga  Ga13  1  0.395440  0.895440  0.604560  1
  Ga  Ga14  1  0.604560  0.104560  0.395440  1
  Ga  Ga15  1  0.104560  0.395440  0.604560  1
  Au  Au16  1  0.579321  0.261708  0.142882  1
  Au  Au17  1  0.079321  0.238292  0.857118  1
  Au  Au18  1  0.261708  0.142882  0.579321  1
  Au  Au19  1  0.642882  0.579321  0.238292  1
  Au  Au20  1  0.579321  0.238292  0.642882  1
  Au  Au21  1  0.261708  0.357118  0.079321  1
  Au  Au22  1  0.357118  0.420679  0.761708  1
  Au  Au23  1  0.238292  0.857118  0.079321  1
  Au  Au24  1  0.238292  0.642882  0.579321  1
  Au  Au25  1  0.761708  0.142882  0.920679  1
  Au  Au26  1  0.738292  0.642882  0.920679  1
  Au  Au27  1  0.738292  0.857118  0.420679  1
  Au  Au28  1  0.357118  0.079321  0.261708  1
  Au  Au29  1  0.420679  0.738292  0.857118  1
  Au  Au30  1  0.920679  0.738292  0.642882  1
  Au  Au31  1  0.642882  0.920679  0.738292  1
  Au  Au32  1  0.857118  0.420679  0.738292  1
  Au  Au33  1  0.420679  0.761708  0.357118  1
  Au  Au34  1  0.920679  0.761708  0.142882  1
  Au  Au35  1  0.079321  0.261708  0.357118  1
  Au  Au36  1  0.761708  0.357118  0.420679  1
  Au  Au37  1  0.142882  0.579321  0.261708  1
  Au  Au38  1  0.857118  0.079321  0.238292  1
  Au  Au39  1  0.142882  0.920679  0.761708  1
