# generated using pymatgen
data_Cs3Ag5O4
_symmetry_space_group_name_H-M   'P 1'
_cell_length_a   8.22409800
_cell_length_b   10.95554160
_cell_length_c   15.93753900
_cell_angle_alpha   73.45080499
_cell_angle_beta   90.00000000
_cell_angle_gamma   90.00000000
_symmetry_Int_Tables_number   1
_chemical_formula_structural   Cs3Ag5O4
_chemical_formula_sum   'Cs12 Ag20 O16'
_cell_volume   1376.47942466
_cell_formula_units_Z   4
loop_
 _symmetry_equiv_pos_site_id
 _symmetry_equiv_pos_as_xyz
  1  'x, y, z'
loop_
 _atom_site_type_symbol
 _atom_site_label
 _atom_site_symmetry_multiplicity
 _atom_site_fract_x
 _atom_site_fract_y
 _atom_site_fract_z
 _atom_site_occupancy
  Cs  Cs0  1  0.838517  0.402099  0.090076  1
  Cs  Cs1  1  0.338517  0.597901  0.409924  1
  Cs  Cs2  1  0.161483  0.597901  0.909924  1
  Cs  Cs3  1  0.661483  0.402099  0.590076  1
  Cs  Cs4  1  0.215483  0.227134  0.580792  1
  Cs  Cs5  1  0.715483  0.772866  0.919208  1
  Cs  Cs6  1  0.784517  0.772866  0.419208  1
  Cs  Cs7  1  0.284517  0.227134  0.080792  1
  Cs  Cs8  1  0.912134  0.170928  0.898283  1
  Cs  Cs9  1  0.412134  0.829072  0.601717  1
  Cs  Cs10  1  0.087866  0.829072  0.101717  1
  Cs  Cs11  1  0.587866  0.170928  0.398283  1
  Ag  Ag12  1  0.582558  0.437594  0.884986  1
  Ag  Ag13  1  0.200825  0.952647  0.386128  1
  Ag  Ag14  1  0.799175  0.047353  0.613872  1
  Ag  Ag15  1  0.299175  0.952647  0.886128  1
  Ag  Ag16  1  0.056915  0.198645  0.369251  1
  Ag  Ag17  1  0.556915  0.801355  0.130749  1
  Ag  Ag18  1  0.943085  0.801355  0.630749  1
  Ag  Ag19  1  0.443085  0.198645  0.869251  1
  Ag  Ag20  1  0.168873  0.438484  0.241284  1
  Ag  Ag21  1  0.668873  0.561516  0.258716  1
  Ag  Ag22  1  0.831127  0.561516  0.758716  1
  Ag  Ag23  1  0.331127  0.438484  0.741284  1
  Ag  Ag24  1  0.956559  0.067790  0.231475  1
  Ag  Ag25  1  0.456559  0.932210  0.268525  1
  Ag  Ag26  1  0.043441  0.932210  0.768525  1
  Ag  Ag27  1  0.543441  0.067790  0.731475  1
  Ag  Ag28  1  0.417442  0.562406  0.115014  1
  Ag  Ag29  1  0.917442  0.437594  0.384986  1
  Ag  Ag30  1  0.700825  0.047353  0.113872  1
  Ag  Ag31  1  0.082558  0.562406  0.615014  1
  O  O32  1  0.818006  0.497987  0.894475  1
  O  O33  1  0.318006  0.502013  0.605525  1
  O  O34  1  0.181994  0.502013  0.105525  1
  O  O35  1  0.681994  0.497987  0.394475  1
  O  O36  1  0.540519  0.021529  0.868493  1
  O  O37  1  0.040519  0.978471  0.631507  1
  O  O38  1  0.459481  0.978471  0.131507  1
  O  O39  1  0.959481  0.021529  0.368493  1
  O  O40  1  0.657273  0.628701  0.119970  1
  O  O41  1  0.157273  0.371299  0.380030  1
  O  O42  1  0.342727  0.371299  0.880030  1
  O  O43  1  0.842727  0.628701  0.619970  1
  O  O44  1  0.940043  0.111330  0.095418  1
  O  O45  1  0.440043  0.888670  0.404582  1
  O  O46  1  0.059957  0.888670  0.904582  1
  O  O47  1  0.559957  0.111330  0.595418  1
