# generated using pymatgen
data_TbBi5(WO7)2
_symmetry_space_group_name_H-M   'P 1'
_cell_length_a   6.56825432
_cell_length_b   6.99907199
_cell_length_c   7.65715230
_cell_angle_alpha   106.05403595
_cell_angle_beta   89.57171633
_cell_angle_gamma   102.13760362
_symmetry_Int_Tables_number   1
_chemical_formula_structural   TbBi5(WO7)2
_chemical_formula_sum   'Tb1 Bi5 W2 O14'
_cell_volume   330.24063797
_cell_formula_units_Z   1
loop_
 _symmetry_equiv_pos_site_id
 _symmetry_equiv_pos_as_xyz
  1  'x, y, z'
loop_
 _atom_site_type_symbol
 _atom_site_label
 _atom_site_symmetry_multiplicity
 _atom_site_fract_x
 _atom_site_fract_y
 _atom_site_fract_z
 _atom_site_occupancy
  Tb  Tb0  1  0.540728  0.005204  0.746262  1
  Bi  Bi1  1  0.478839  0.992953  0.256484  1
  Bi  Bi2  1  0.269387  0.503764  0.875631  1
  Bi  Bi3  1  0.744451  0.491751  0.125477  1
  Bi  Bi4  1  0.746588  0.534633  0.634216  1
  Bi  Bi5  1  0.257042  0.464094  0.371736  1
  W  W6  1  0.003536  0.999643  0.500846  1
  W  W7  1  0.001399  0.002332  0.998187  1
  O  O8  1  0.470359  0.633347  0.182335  1
  O  O9  1  0.536401  0.348407  0.815967  1
  O  O10  1  0.270187  0.955410  0.933581  1
  O  O11  1  0.713342  0.050927  0.041673  1
  O  O12  1  0.275586  0.952092  0.529077  1
  O  O13  1  0.717743  0.049151  0.478975  1
  O  O14  1  0.534708  0.338915  0.360191  1
  O  O15  1  0.470503  0.659186  0.645180  1
  O  O16  1  0.891056  0.696445  0.959049  1
  O  O17  1  0.099110  0.310034  0.041178  1
  O  O18  1  0.098775  0.307343  0.616376  1
  O  O19  1  0.901996  0.693116  0.387558  1
  O  O20  1  0.889569  0.929591  0.730837  1
  O  O21  1  0.088694  0.081660  0.269182  1
