# generated using pymatgen
data_Ho5NiTe4
_symmetry_space_group_name_H-M   'P 1'
_cell_length_a   7.55337047
_cell_length_b   7.55336977
_cell_length_c   10.71029200
_cell_angle_alpha   60.53750599
_cell_angle_beta   60.53750026
_cell_angle_gamma   31.64869565
_symmetry_Int_Tables_number   1
_chemical_formula_structural   Ho5NiTe4
_chemical_formula_sum   'Ho5 Ni1 Te4'
_cell_volume   275.56239611
_cell_formula_units_Z   1
loop_
 _symmetry_equiv_pos_site_id
 _symmetry_equiv_pos_as_xyz
  1  'x, y, z'
loop_
 _atom_site_type_symbol
 _atom_site_label
 _atom_site_symmetry_multiplicity
 _atom_site_fract_x
 _atom_site_fract_y
 _atom_site_fract_z
 _atom_site_occupancy
  Ho  Ho0  1  0.000000  0.000000  0.500000  1
  Ho  Ho1  1  0.578137  0.578137  0.083322  1
  Ho  Ho2  1  0.178848  0.178848  0.740807  1
  Ho  Ho3  1  0.821152  0.821152  0.259193  1
  Ho  Ho4  1  0.421863  0.421863  0.916678  1
  Ni  Ni5  1  0.000000  0.000000  0.000000  1
  Te  Te6  1  0.614344  0.614344  0.579927  1
  Te  Te7  1  0.189418  0.189418  0.192924  1
  Te  Te8  1  0.810582  0.810582  0.807076  1
  Te  Te9  1  0.385656  0.385656  0.420073  1
