# generated using pymatgen
data_TbPrYGa8Ag3
_symmetry_space_group_name_H-M   'P 1'
_cell_length_a   4.37291787
_cell_length_b   8.44612737
_cell_length_c   8.44612557
_cell_angle_alpha   69.02842281
_cell_angle_beta   74.99689369
_cell_angle_gamma   74.99689855
_symmetry_Int_Tables_number   1
_chemical_formula_structural   TbPrYGa8Ag3
_chemical_formula_sum   'Tb1 Pr1 Y1 Ga8 Ag3'
_cell_volume   276.53805796
_cell_formula_units_Z   1
loop_
 _symmetry_equiv_pos_site_id
 _symmetry_equiv_pos_as_xyz
  1  'x, y, z'
loop_
 _atom_site_type_symbol
 _atom_site_label
 _atom_site_symmetry_multiplicity
 _atom_site_fract_x
 _atom_site_fract_y
 _atom_site_fract_z
 _atom_site_occupancy
  Tb  Tb0  1  0.199449  0.800551  0.800551  1
  Pr  Pr1  1  0.500270  0.499730  0.499730  1
  Y  Y2  1  0.800728  0.199272  0.199272  1
  Ga  Ga3  1  0.355647  0.361026  0.927679  1
  Ga  Ga4  1  0.644295  0.638843  0.072568  1
  Ga  Ga5  1  0.355647  0.927679  0.361026  1
  Ga  Ga6  1  0.644295  0.072568  0.638843  1
  Ga  Ga7  1  0.161066  0.471283  0.206584  1
  Ga  Ga8  1  0.839182  0.528506  0.793130  1
  Ga  Ga9  1  0.161066  0.206584  0.471283  1
  Ga  Ga10  1  0.839182  0.793130  0.528506  1
  Ag  Ag11  1  0.499662  0.000338  0.000338  1
  Ag  Ag12  1  0.999756  0.805342  0.195146  1
  Ag  Ag13  1  0.999756  0.195146  0.805342  1
