# generated using pymatgen
data_Y4Al15Ga3PtRh5
_symmetry_space_group_name_H-M   'P 1'
_cell_length_a   7.55058631
_cell_length_b   7.55255110
_cell_length_c   9.53115861
_cell_angle_alpha   89.98950723
_cell_angle_beta   89.97067543
_cell_angle_gamma   119.40530876
_symmetry_Int_Tables_number   1
_chemical_formula_structural   Y4Al15Ga3PtRh5
_chemical_formula_sum   'Y4 Al15 Ga3 Pt1 Rh5'
_cell_volume   473.50220987
_cell_formula_units_Z   1
loop_
 _symmetry_equiv_pos_site_id
 _symmetry_equiv_pos_as_xyz
  1  'x, y, z'
loop_
 _atom_site_type_symbol
 _atom_site_label
 _atom_site_symmetry_multiplicity
 _atom_site_fract_x
 _atom_site_fract_y
 _atom_site_fract_z
 _atom_site_occupancy
  Y  Y0  1  0.996976  0.673057  0.250146  1
  Y  Y1  1  0.004449  0.326472  0.750031  1
  Y  Y2  1  0.670246  0.992493  0.249951  1
  Y  Y3  1  0.327241  0.004206  0.749846  1
  Al  Al4  1  0.005037  0.335158  0.075277  1
  Al  Al5  1  0.002156  0.667902  0.924801  1
  Al  Al6  1  0.999830  0.664465  0.573470  1
  Al  Al7  1  0.335800  0.001853  0.426533  1
  Al  Al8  1  0.001478  0.334917  0.426185  1
  Al  Al9  1  0.664427  0.998811  0.573884  1
  Al  Al10  1  0.664402  0.995418  0.924630  1
  Al  Al11  1  0.332323  0.999475  0.075118  1
  Al  Al12  1  0.333443  0.333517  0.554531  1
  Al  Al13  1  0.666840  0.666384  0.449343  1
  Al  Al14  1  0.665882  0.668820  0.052811  1
  Al  Al15  1  0.330884  0.334299  0.943268  1
  Al  Al16  1  0.662189  0.452794  0.746685  1
  Al  Al17  1  0.548397  0.339856  0.253347  1
  Al  Al18  1  0.449617  0.661885  0.749554  1
  Ga  Ga19  1  0.128923  0.128602  0.250259  1
  Ga  Ga20  1  0.868786  0.867885  0.749822  1
  Ga  Ga21  1  0.339635  0.548783  0.250434  1
  Pt  Pt22  1  0.671467  0.328740  0.000033  1
  Rh  Rh23  1  0.328575  0.672291  0.998037  1
  Rh  Rh24  1  0.328764  0.672203  0.501995  1
  Rh  Rh25  1  0.671720  0.328694  0.499930  1
  Rh  Rh26  1  0.000203  0.000544  0.999833  1
  Rh  Rh27  1  0.000308  0.000473  0.500246  1
