# generated using pymatgen
data_Ho3ErTc2(B8Ru)2
_symmetry_space_group_name_H-M   'P 1'
_cell_length_a   3.56884800
_cell_length_b   5.95070208
_cell_length_c   11.50841707
_cell_angle_alpha   90.18178173
_cell_angle_beta   90.00000000
_cell_angle_gamma   90.00000000
_symmetry_Int_Tables_number   1
_chemical_formula_structural   Ho3ErTc2(B8Ru)2
_chemical_formula_sum   'Ho3 Er1 Tc2 B16 Ru2'
_cell_volume   244.40476356
_cell_formula_units_Z   1
loop_
 _symmetry_equiv_pos_site_id
 _symmetry_equiv_pos_as_xyz
  1  'x, y, z'
loop_
 _atom_site_type_symbol
 _atom_site_label
 _atom_site_symmetry_multiplicity
 _atom_site_fract_x
 _atom_site_fract_y
 _atom_site_fract_z
 _atom_site_occupancy
  Ho  Ho0  1  0.000000  0.628869  0.351393  1
  Ho  Ho1  1  0.000000  0.371136  0.648629  1
  Ho  Ho2  1  0.000000  0.129016  0.150914  1
  Er  Er3  1  0.000000  0.870854  0.849097  1
  Tc  Tc4  1  0.000000  0.633309  0.088246  1
  Tc  Tc5  1  0.000000  0.366733  0.911606  1
  B  B6  1  0.500000  0.790122  0.185434  1
  B  B7  1  0.500000  0.209608  0.814562  1
  B  B8  1  0.500000  0.290175  0.315051  1
  B  B9  1  0.500000  0.709877  0.685068  1
  B  B10  1  0.500000  0.865009  0.030943  1
  B  B11  1  0.500000  0.134862  0.968873  1
  B  B12  1  0.500000  0.364211  0.469393  1
  B  B13  1  0.500000  0.635817  0.530617  1
  B  B14  1  0.500000  0.887599  0.452984  1
  B  B15  1  0.500000  0.112377  0.547048  1
  B  B16  1  0.500000  0.387322  0.047227  1
  B  B17  1  0.500000  0.612990  0.952631  1
  B  B18  1  0.500000  0.976937  0.308134  1
  B  B19  1  0.500000  0.022975  0.692013  1
  B  B20  1  0.500000  0.478518  0.192836  1
  B  B21  1  0.500000  0.521674  0.807144  1
  Ru  Ru22  1  0.000000  0.140814  0.407646  1
  Ru  Ru23  1  0.000000  0.859196  0.592510  1
