# generated using pymatgen
data_NaYb5Gd2(Si3Pd)4
_symmetry_space_group_name_H-M   'P 1'
_cell_length_a   8.25465820
_cell_length_b   8.25465805
_cell_length_c   8.16666900
_cell_angle_alpha   90.00000000
_cell_angle_beta   90.00000000
_cell_angle_gamma   120.21378207
_symmetry_Int_Tables_number   1
_chemical_formula_structural   NaYb5Gd2(Si3Pd)4
_chemical_formula_sum   'Na1 Yb5 Gd2 Si12 Pd4'
_cell_volume   480.87718190
_cell_formula_units_Z   1
loop_
 _symmetry_equiv_pos_site_id
 _symmetry_equiv_pos_as_xyz
  1  'x, y, z'
loop_
 _atom_site_type_symbol
 _atom_site_label
 _atom_site_symmetry_multiplicity
 _atom_site_fract_x
 _atom_site_fract_y
 _atom_site_fract_z
 _atom_site_occupancy
  Na  Na0  1  0.498976  0.501024  0.750000  1
  Yb  Yb1  1  0.500797  0.001338  0.250000  1
  Yb  Yb2  1  0.499289  0.998521  0.750000  1
  Yb  Yb3  1  0.998662  0.499203  0.250000  1
  Yb  Yb4  1  0.001479  0.500711  0.750000  1
  Yb  Yb5  1  0.500643  0.499357  0.250000  1
  Gd  Gd6  1  0.999974  0.000026  0.250000  1
  Gd  Gd7  1  0.000133  0.999867  0.750000  1
  Si  Si8  1  0.165361  0.329589  0.000877  1
  Si  Si9  1  0.834689  0.670367  0.999942  1
  Si  Si10  1  0.670411  0.834639  0.000877  1
  Si  Si11  1  0.834689  0.670367  0.500058  1
  Si  Si12  1  0.329633  0.165311  0.999942  1
  Si  Si13  1  0.165361  0.329589  0.499123  1
  Si  Si14  1  0.163496  0.836504  0.001512  1
  Si  Si15  1  0.329633  0.165311  0.500058  1
  Si  Si16  1  0.836488  0.163512  0.000363  1
  Si  Si17  1  0.670411  0.834639  0.499123  1
  Si  Si18  1  0.836488  0.163512  0.499637  1
  Si  Si19  1  0.163496  0.836504  0.498488  1
  Pd  Pd20  1  0.331817  0.668183  0.003403  1
  Pd  Pd21  1  0.668127  0.331873  0.000365  1
  Pd  Pd22  1  0.668127  0.331873  0.499635  1
  Pd  Pd23  1  0.331817  0.668183  0.496597  1
