# generated using pymatgen
data_Tb8Ta8Nb4Si15Ge
_symmetry_space_group_name_H-M   'P 1'
_cell_length_a   6.88459623
_cell_length_b   7.07173519
_cell_length_c   13.43738207
_cell_angle_alpha   90.03669786
_cell_angle_beta   89.92545790
_cell_angle_gamma   90.01426157
_symmetry_Int_Tables_number   1
_chemical_formula_structural   Tb8Ta8Nb4Si15Ge
_chemical_formula_sum   'Tb8 Ta8 Nb4 Si15 Ge1'
_cell_volume   654.21223145
_cell_formula_units_Z   1
loop_
 _symmetry_equiv_pos_site_id
 _symmetry_equiv_pos_as_xyz
  1  'x, y, z'
loop_
 _atom_site_type_symbol
 _atom_site_label
 _atom_site_symmetry_multiplicity
 _atom_site_fract_x
 _atom_site_fract_y
 _atom_site_fract_z
 _atom_site_occupancy
  Tb  Tb0  1  0.503358  0.329362  0.095939  1
  Tb  Tb1  1  0.002302  0.170367  0.403724  1
  Tb  Tb2  1  0.499720  0.672570  0.596636  1
  Tb  Tb3  1  0.996554  0.829151  0.904475  1
  Tb  Tb4  1  0.496598  0.670521  0.904463  1
  Tb  Tb5  1  0.996629  0.829969  0.596018  1
  Tb  Tb6  1  0.503659  0.328063  0.403338  1
  Tb  Tb7  1  0.003229  0.171002  0.095602  1
  Ta  Ta8  1  0.664263  0.009516  0.750183  1
  Ta  Ta9  1  0.164183  0.489635  0.752026  1
  Ta  Ta10  1  0.335447  0.990565  0.249738  1
  Ta  Ta11  1  0.835779  0.509847  0.249855  1
  Ta  Ta12  1  0.836319  0.324004  0.625834  1
  Ta  Ta13  1  0.338083  0.175400  0.874796  1
  Ta  Ta14  1  0.161834  0.675605  0.125243  1
  Ta  Ta15  1  0.661364  0.824979  0.374148  1
  Nb  Nb16  1  0.160633  0.677940  0.373114  1
  Nb  Nb17  1  0.661406  0.824372  0.125123  1
  Nb  Nb18  1  0.837736  0.324452  0.874910  1
  Nb  Nb19  1  0.340392  0.171738  0.626540  1
  Si  Si20  1  0.797496  0.624845  0.750179  1
  Si  Si21  1  0.296409  0.874016  0.750613  1
  Si  Si22  1  0.202912  0.375153  0.249711  1
  Si  Si23  1  0.703049  0.124852  0.249578  1
  Si  Si24  1  0.542697  0.375596  0.750163  1
  Si  Si25  1  0.042704  0.124727  0.750264  1
  Si  Si26  1  0.456897  0.624594  0.249643  1
  Si  Si27  1  0.956240  0.875973  0.249309  1
  Si  Si28  1  0.663879  0.037729  0.540385  1
  Si  Si29  1  0.163043  0.462650  0.959290  1
  Si  Si30  1  0.336568  0.962847  0.040847  1
  Si  Si31  1  0.832880  0.538205  0.458374  1
  Si  Si32  1  0.336908  0.962242  0.459068  1
  Si  Si33  1  0.837619  0.537346  0.041248  1
  Si  Si34  1  0.662496  0.037234  0.959009  1
  Ge  Ge35  1  0.168721  0.462935  0.540616  1
