# generated using pymatgen
data_Ho8ErZn4
_symmetry_space_group_name_H-M   'P 1'
_cell_length_a   8.53479867
_cell_length_b   8.53479802
_cell_length_c   8.53490610
_cell_angle_alpha   94.96455928
_cell_angle_beta   94.97131109
_cell_angle_gamma   145.77156041
_symmetry_Int_Tables_number   1
_chemical_formula_structural   Ho8ErZn4
_chemical_formula_sum   'Ho8 Er1 Zn4'
_cell_volume   334.22137454
_cell_formula_units_Z   1
loop_
 _symmetry_equiv_pos_site_id
 _symmetry_equiv_pos_as_xyz
  1  'x, y, z'
loop_
 _atom_site_type_symbol
 _atom_site_label
 _atom_site_symmetry_multiplicity
 _atom_site_fract_x
 _atom_site_fract_y
 _atom_site_fract_z
 _atom_site_occupancy
  Ho  Ho0  1  0.182101  0.888457  0.070559  1
  Ho  Ho1  1  0.111537  0.182106  0.293643  1
  Ho  Ho2  1  0.882449  0.401693  0.284144  1
  Ho  Ho3  1  0.598325  0.882472  0.480799  1
  Ho  Ho4  1  0.401674  0.117527  0.519200  1
  Ho  Ho5  1  0.117550  0.598306  0.715856  1
  Ho  Ho6  1  0.888462  0.817893  0.706357  1
  Ho  Ho7  1  0.817898  0.111542  0.929441  1
  Er  Er8  1  0.499999  0.499999  0.000000  1
  Zn  Zn9  1  0.392246  0.735228  0.127475  1
  Zn  Zn10  1  0.735201  0.607761  0.342965  1
  Zn  Zn11  1  0.264798  0.392238  0.657035  1
  Zn  Zn12  1  0.607753  0.264771  0.872525  1
