# generated using pymatgen
data_Ti6Al6Ir5Rh7
_symmetry_space_group_name_H-M   'P 1'
_cell_length_a   4.18052000
_cell_length_b   6.61210903
_cell_length_c   12.52767505
_cell_angle_alpha   90.01009647
_cell_angle_beta   90.00000000
_cell_angle_gamma   90.00000000
_symmetry_Int_Tables_number   1
_chemical_formula_structural   Ti6Al6Ir5Rh7
_chemical_formula_sum   'Ti6 Al6 Ir5 Rh7'
_cell_volume   346.29066511
_cell_formula_units_Z   1
loop_
 _symmetry_equiv_pos_site_id
 _symmetry_equiv_pos_as_xyz
  1  'x, y, z'
loop_
 _atom_site_type_symbol
 _atom_site_label
 _atom_site_symmetry_multiplicity
 _atom_site_fract_x
 _atom_site_fract_y
 _atom_site_fract_z
 _atom_site_occupancy
  Ti  Ti0  1  0.000000  0.500246  0.999498  1
  Ti  Ti1  1  0.500003  0.999461  0.166868  1
  Ti  Ti2  1  0.000000  0.500118  0.333778  1
  Ti  Ti3  1  0.500000  0.999915  0.500050  1
  Ti  Ti4  1  0.000000  0.500180  0.666637  1
  Ti  Ti5  1  0.499996  0.999973  0.833198  1
  Al  Al6  1  0.000000  0.999960  0.999438  1
  Al  Al7  1  0.500003  0.500527  0.166966  1
  Al  Al8  1  0.000000  0.999272  0.333696  1
  Al  Al9  1  0.500000  0.500217  0.499955  1
  Al  Al10  1  0.000000  0.999952  0.666753  1
  Al  Al11  1  0.499998  0.500099  0.833211  1
  Ir  Ir12  1  0.500000  0.250218  0.000215  1
  Ir  Ir13  1  0.500000  0.749738  0.999724  1
  Ir  Ir14  1  0.000000  0.249817  0.166443  1
  Ir  Ir15  1  0.000000  0.750243  0.167000  1
  Ir  Ir16  1  0.500003  0.250452  0.333383  1
  Rh  Rh17  1  0.500003  0.750128  0.332965  1
  Rh  Rh18  1  0.000000  0.249894  0.499906  1
  Rh  Rh19  1  0.000000  0.750143  0.499750  1
  Rh  Rh20  1  0.499998  0.249497  0.666636  1
  Rh  Rh21  1  0.499998  0.750077  0.666768  1
  Rh  Rh22  1  0.000000  0.249919  0.833606  1
  Rh  Rh23  1  0.000000  0.749957  0.833560  1
