# generated using pymatgen
data_CePr(SiRh2)2
_symmetry_space_group_name_H-M   'P 1'
_cell_length_a   9.27910225
_cell_length_b   9.27910289
_cell_length_c   4.10959900
_cell_angle_alpha   90.00000000
_cell_angle_beta   90.00000000
_cell_angle_gamma   154.98620264
_symmetry_Int_Tables_number   1
_chemical_formula_structural   CePr(SiRh2)2
_chemical_formula_sum   'Ce1 Pr1 Si2 Rh4'
_cell_volume   149.61800647
_cell_formula_units_Z   1
loop_
 _symmetry_equiv_pos_site_id
 _symmetry_equiv_pos_as_xyz
  1  'x, y, z'
loop_
 _atom_site_type_symbol
 _atom_site_label
 _atom_site_symmetry_multiplicity
 _atom_site_fract_x
 _atom_site_fract_y
 _atom_site_fract_z
 _atom_site_occupancy
  Ce  Ce0  1  0.901917  0.098083  0.250000  1
  Pr  Pr1  1  0.099974  0.900026  0.750000  1
  Si  Si2  1  0.320929  0.679071  0.750000  1
  Si  Si3  1  0.678853  0.321147  0.250000  1
  Rh  Rh4  1  0.546373  0.453627  0.250000  1
  Rh  Rh5  1  0.450877  0.549123  0.750000  1
  Rh  Rh6  1  0.250553  0.749447  0.250000  1
  Rh  Rh7  1  0.750524  0.249476  0.750000  1
