# generated using pymatgen
data_La16PrY3Sn16
_symmetry_space_group_name_H-M   'P 1'
_cell_length_a   8.40772479
_cell_length_b   8.55947075
_cell_length_c   16.29529600
_cell_angle_alpha   90.00000000
_cell_angle_beta   90.00000000
_cell_angle_gamma   89.91474763
_symmetry_Int_Tables_number   1
_chemical_formula_structural   La16PrY3Sn16
_chemical_formula_sum   'La16 Pr1 Y3 Sn16'
_cell_volume   1172.70066870
_cell_formula_units_Z   1
loop_
 _symmetry_equiv_pos_site_id
 _symmetry_equiv_pos_as_xyz
  1  'x, y, z'
loop_
 _atom_site_type_symbol
 _atom_site_label
 _atom_site_symmetry_multiplicity
 _atom_site_fract_x
 _atom_site_fract_y
 _atom_site_fract_z
 _atom_site_occupancy
  La  La0  1  0.368395  0.838021  0.880545  1
  La  La1  1  0.867528  0.662462  0.619632  1
  La  La2  1  0.632227  0.161904  0.379945  1
  La  La3  1  0.132383  0.338026  0.120804  1
  La  La4  1  0.632227  0.161904  0.120055  1
  La  La5  1  0.132383  0.338026  0.379196  1
  La  La6  1  0.368395  0.838021  0.619455  1
  La  La7  1  0.867528  0.662462  0.880368  1
  La  La8  1  0.520082  0.318901  0.901809  1
  La  La9  1  0.019158  0.179970  0.598209  1
  La  La10  1  0.480088  0.680534  0.400842  1
  La  La11  1  0.980474  0.819067  0.098691  1
  La  La12  1  0.480088  0.680534  0.099158  1
  La  La13  1  0.980474  0.819067  0.401309  1
  La  La14  1  0.520082  0.318901  0.598191  1
  La  La15  1  0.019158  0.179970  0.901791  1
  Pr  Pr16  1  0.198775  0.500712  0.750000  1
  Y  Y17  1  0.700603  0.998786  0.750000  1
  Y  Y18  1  0.799394  0.499634  0.250000  1
  Y  Y19  1  0.299072  0.000047  0.250000  1
  Sn  Sn20  1  0.291636  0.033237  0.045170  1
  Sn  Sn21  1  0.791844  0.466933  0.454961  1
  Sn  Sn22  1  0.708246  0.966843  0.544892  1
  Sn  Sn23  1  0.208402  0.534957  0.957462  1
  Sn  Sn24  1  0.708246  0.966843  0.955108  1
  Sn  Sn25  1  0.208402  0.534957  0.542538  1
  Sn  Sn26  1  0.291636  0.033237  0.454830  1
  Sn  Sn27  1  0.791844  0.466933  0.045039  1
  Sn  Sn28  1  0.568733  0.615700  0.750000  1
  Sn  Sn29  1  0.064043  0.887683  0.750000  1
  Sn  Sn30  1  0.435542  0.384762  0.250000  1
  Sn  Sn31  1  0.934927  0.115142  0.250000  1
  Sn  Sn32  1  0.326265  0.142958  0.750000  1
  Sn  Sn33  1  0.822506  0.351923  0.750000  1
  Sn  Sn34  1  0.674839  0.852964  0.250000  1
  Sn  Sn35  1  0.174379  0.647974  0.250000  1
