# generated using pymatgen
data_Tb2DySn3GeIr2
_symmetry_space_group_name_H-M   'P 1'
_cell_length_a   7.41634529
_cell_length_b   7.41079434
_cell_length_c   4.19729300
_cell_angle_alpha   90.00000000
_cell_angle_beta   90.00000000
_cell_angle_gamma   119.99293123
_symmetry_Int_Tables_number   1
_chemical_formula_structural   Tb2DySn3GeIr2
_chemical_formula_sum   'Tb2 Dy1 Sn3 Ge1 Ir2'
_cell_volume   199.79543045
_cell_formula_units_Z   1
loop_
 _symmetry_equiv_pos_site_id
 _symmetry_equiv_pos_as_xyz
  1  'x, y, z'
loop_
 _atom_site_type_symbol
 _atom_site_label
 _atom_site_symmetry_multiplicity
 _atom_site_fract_x
 _atom_site_fract_y
 _atom_site_fract_z
 _atom_site_occupancy
  Tb  Tb0  1  0.987671  0.586629  0.000000  1
  Tb  Tb1  1  0.413351  0.400920  0.000000  1
  Dy  Dy2  1  0.599647  0.012966  0.000000  1
  Sn  Sn3  1  0.257947  0.013879  0.500000  1
  Sn  Sn4  1  0.985660  0.243493  0.500000  1
  Sn  Sn5  1  0.756218  0.742415  0.500000  1
  Ge  Ge6  1  0.333619  0.667099  0.500000  1
  Ir  Ir7  1  0.666478  0.332613  0.500000  1
  Ir  Ir8  1  0.999408  0.999986  0.000000  1
