# generated using pymatgen
data_Ti8Al15Pt6Rh
_symmetry_space_group_name_H-M   'P 1'
_cell_length_a   8.70565096
_cell_length_b   8.70565120
_cell_length_c   8.70565056
_cell_angle_alpha   120.14932644
_cell_angle_beta   119.81250950
_cell_angle_gamma   90.03330474
_symmetry_Int_Tables_number   1
_chemical_formula_structural   Ti8Al15Pt6Rh
_chemical_formula_sum   'Ti8 Al15 Pt6 Rh1'
_cell_volume   466.66927865
_cell_formula_units_Z   1
loop_
 _symmetry_equiv_pos_site_id
 _symmetry_equiv_pos_as_xyz
  1  'x, y, z'
loop_
 _atom_site_type_symbol
 _atom_site_label
 _atom_site_symmetry_multiplicity
 _atom_site_fract_x
 _atom_site_fract_y
 _atom_site_fract_z
 _atom_site_occupancy
  Ti  Ti0  1  0.786357  0.289237  0.075555  1
  Ti  Ti1  1  0.213682  0.289237  0.502880  1
  Ti  Ti2  1  0.212395  0.712395  0.500000  1
  Ti  Ti3  1  0.213682  0.710802  0.924445  1
  Ti  Ti4  1  0.786357  0.710802  0.497120  1
  Ti  Ti5  1  0.787350  0.287350  0.500000  1
  Ti  Ti6  1  0.380606  0.121619  0.741013  1
  Ti  Ti7  1  0.380606  0.639594  0.258987  1
  Al  Al8  1  0.000202  0.500202  0.500000  1
  Al  Al9  1  0.155555  0.347606  0.192050  1
  Al  Al10  1  0.155555  0.963505  0.807950  1
  Al  Al11  1  0.156875  0.343859  0.813016  1
  Al  Al12  1  0.530842  0.343859  0.186984  1
  Al  Al13  1  0.845750  0.654761  0.809012  1
  Al  Al14  1  0.845750  0.036738  0.190988  1
  Al  Al15  1  0.845799  0.654741  0.191057  1
  Al  Al16  1  0.463684  0.654741  0.808943  1
  Al  Al17  1  0.379901  0.119846  0.260056  1
  Al  Al18  1  0.859791  0.119846  0.739944  1
  Al  Al19  1  0.620852  0.878473  0.257622  1
  Al  Al20  1  0.620852  0.363230  0.742378  1
  Al  Al21  1  0.620715  0.878803  0.741913  1
  Al  Al22  1  0.136889  0.878803  0.258087  1
  Pt  Pt23  1  0.997453  0.999706  0.498846  1
  Pt  Pt24  1  0.500860  0.999706  0.002253  1
  Pt  Pt25  1  0.501908  0.501908  0.000000  1
  Pt  Pt26  1  0.500860  0.498607  0.501154  1
  Pt  Pt27  1  0.997453  0.498607  0.997747  1
  Pt  Pt28  1  0.001487  0.001487  0.000000  1
  Rh  Rh29  1  0.499930  0.999930  0.500000  1
