# generated using pymatgen
data_Ca12Al8Si11Ge
_symmetry_space_group_name_H-M   'P 1'
_cell_length_a   4.34808100
_cell_length_b   11.27322409
_cell_length_c   14.62006912
_cell_angle_alpha   89.98524982
_cell_angle_beta   90.00000000
_cell_angle_gamma   90.00000000
_symmetry_Int_Tables_number   1
_chemical_formula_structural   Ca12Al8Si11Ge
_chemical_formula_sum   'Ca12 Al8 Si11 Ge1'
_cell_volume   716.63031793
_cell_formula_units_Z   1
loop_
 _symmetry_equiv_pos_site_id
 _symmetry_equiv_pos_as_xyz
  1  'x, y, z'
loop_
 _atom_site_type_symbol
 _atom_site_label
 _atom_site_symmetry_multiplicity
 _atom_site_fract_x
 _atom_site_fract_y
 _atom_site_fract_z
 _atom_site_occupancy
  Ca  Ca0  1  0.250000  0.894888  0.567304  1
  Ca  Ca1  1  0.750000  0.104961  0.432665  1
  Ca  Ca2  1  0.250000  0.395364  0.932634  1
  Ca  Ca3  1  0.750000  0.605083  0.067449  1
  Ca  Ca4  1  0.250000  0.605488  0.437296  1
  Ca  Ca5  1  0.750000  0.394541  0.562319  1
  Ca  Ca6  1  0.250000  0.104917  0.063726  1
  Ca  Ca7  1  0.750000  0.893688  0.937207  1
  Ca  Ca8  1  0.750000  0.378328  0.297149  1
  Ca  Ca9  1  0.250000  0.621806  0.703184  1
  Ca  Ca10  1  0.750000  0.878127  0.203405  1
  Ca  Ca11  1  0.250000  0.121500  0.795680  1
  Al  Al12  1  0.750000  0.859379  0.709520  1
  Al  Al13  1  0.250000  0.140557  0.290671  1
  Al  Al14  1  0.750000  0.361913  0.788946  1
  Al  Al15  1  0.250000  0.640651  0.209740  1
  Al  Al16  1  0.250000  0.682764  0.911460  1
  Al  Al17  1  0.750000  0.318104  0.089998  1
  Al  Al18  1  0.250000  0.182610  0.588161  1
  Al  Al19  1  0.750000  0.817335  0.411587  1
  Si  Si20  1  0.250000  0.928143  0.362272  1
  Si  Si21  1  0.750000  0.071885  0.637531  1
  Si  Si22  1  0.250000  0.428607  0.137909  1
  Si  Si23  1  0.750000  0.572120  0.862631  1
  Si  Si24  1  0.250000  0.858512  0.797424  1
  Si  Si25  1  0.750000  0.141504  0.202876  1
  Si  Si26  1  0.250000  0.358770  0.701742  1
  Si  Si27  1  0.750000  0.641480  0.297704  1
  Si  Si28  1  0.250000  0.298494  0.434085  1
  Si  Si29  1  0.750000  0.701461  0.565844  1
  Si  Si30  1  0.250000  0.798488  0.065982  1
  Ge  Ge31  1  0.750000  0.198535  0.933897  1
