# generated using pymatgen
data_DyEr(OsO4)2
_symmetry_space_group_name_H-M   'P 1'
_cell_length_a   5.35229374
_cell_length_b   7.68250579
_cell_length_c   7.42970364
_cell_angle_alpha   79.84399341
_cell_angle_beta   91.04429421
_cell_angle_gamma   93.95935149
_symmetry_Int_Tables_number   1
_chemical_formula_structural   DyEr(OsO4)2
_chemical_formula_sum   'Dy2 Er2 Os4 O16'
_cell_volume   299.99194936
_cell_formula_units_Z   2
loop_
 _symmetry_equiv_pos_site_id
 _symmetry_equiv_pos_as_xyz
  1  'x, y, z'
loop_
 _atom_site_type_symbol
 _atom_site_label
 _atom_site_symmetry_multiplicity
 _atom_site_fract_x
 _atom_site_fract_y
 _atom_site_fract_z
 _atom_site_occupancy
  Dy  Dy0  1  0.261937  0.116710  0.611991  1
  Dy  Dy1  1  0.738063  0.883290  0.388009  1
  Er  Er2  1  0.195212  0.169244  0.104105  1
  Er  Er3  1  0.804788  0.830756  0.895895  1
  Os  Os4  1  0.246461  0.664284  0.204921  1
  Os  Os5  1  0.753539  0.335716  0.795079  1
  Os  Os6  1  0.715220  0.335047  0.299297  1
  Os  Os7  1  0.284780  0.664953  0.700703  1
  O  O8  1  0.058262  0.464555  0.708974  1
  O  O9  1  0.941738  0.535445  0.291026  1
  O  O10  1  0.613483  0.325520  0.551014  1
  O  O11  1  0.386517  0.674480  0.448986  1
  O  O12  1  0.849028  0.321254  0.055127  1
  O  O13  1  0.150972  0.678746  0.944873  1
  O  O14  1  0.405184  0.439454  0.198031  1
  O  O15  1  0.594816  0.560546  0.801969  1
  O  O16  1  0.053231  0.887915  0.176161  1
  O  O17  1  0.946769  0.112085  0.823839  1
  O  O18  1  0.490314  0.109228  0.320068  1
  O  O19  1  0.509686  0.890772  0.679932  1
  O  O20  1  0.447266  0.199604  0.872455  1
  O  O21  1  0.552734  0.800396  0.127545  1
  O  O22  1  0.977732  0.163895  0.381379  1
  O  O23  1  0.022268  0.836105  0.618621  1
