# generated using pymatgen
data_SmEr7(WC2)4
_symmetry_space_group_name_H-M   'P 1'
_cell_length_a   5.72327039
_cell_length_b   5.72327024
_cell_length_c   9.83727370
_cell_angle_alpha   89.65156439
_cell_angle_beta   89.65156737
_cell_angle_gamma   89.92260600
_symmetry_Int_Tables_number   1
_chemical_formula_structural   SmEr7(WC2)4
_chemical_formula_sum   'Sm1 Er7 W4 C8'
_cell_volume   322.21580224
_cell_formula_units_Z   1
loop_
 _symmetry_equiv_pos_site_id
 _symmetry_equiv_pos_as_xyz
  1  'x, y, z'
loop_
 _atom_site_type_symbol
 _atom_site_label
 _atom_site_symmetry_multiplicity
 _atom_site_fract_x
 _atom_site_fract_y
 _atom_site_fract_z
 _atom_site_occupancy
  Sm  Sm0  1  0.800657  0.800657  0.659092  1
  Er  Er1  1  0.199669  0.199669  0.340963  1
  Er  Er2  1  0.301984  0.701000  0.843215  1
  Er  Er3  1  0.701000  0.301984  0.843215  1
  Er  Er4  1  0.701785  0.300807  0.158430  1
  Er  Er5  1  0.300807  0.701785  0.158430  1
  Er  Er6  1  0.199292  0.199292  0.657193  1
  Er  Er7  1  0.798435  0.798435  0.341911  1
  W  W8  1  0.319646  0.675332  0.497683  1
  W  W9  1  0.824030  0.824030  0.002591  1
  W  W10  1  0.180839  0.180839  0.001712  1
  W  W11  1  0.675332  0.319646  0.497683  1
  C  C12  1  0.000656  0.000656  0.157163  1
  C  C13  1  0.494648  0.494648  0.653839  1
  C  C14  1  0.493172  0.999065  0.495697  1
  C  C15  1  0.498882  0.498882  0.342958  1
  C  C16  1  0.005268  0.005268  0.849024  1
  C  C17  1  0.502356  0.002476  0.001752  1
  C  C18  1  0.002476  0.502356  0.001752  1
  C  C19  1  0.999065  0.493172  0.495697  1
