# generated using pymatgen
data_Cs12NaLuS8
_symmetry_space_group_name_H-M   'P 1'
_cell_length_a   10.98431700
_cell_length_b   10.98431676
_cell_length_c   8.36234200
_cell_angle_alpha   90.00000000
_cell_angle_beta   90.00000000
_cell_angle_gamma   120.00000373
_symmetry_Int_Tables_number   1
_chemical_formula_structural   Cs12NaLuS8
_chemical_formula_sum   'Cs12 Na1 Lu1 S8'
_cell_volume   873.78512426
_cell_formula_units_Z   1
loop_
 _symmetry_equiv_pos_site_id
 _symmetry_equiv_pos_as_xyz
  1  'x, y, z'
loop_
 _atom_site_type_symbol
 _atom_site_label
 _atom_site_symmetry_multiplicity
 _atom_site_fract_x
 _atom_site_fract_y
 _atom_site_fract_z
 _atom_site_occupancy
  Cs  Cs0  1  0.141197  0.858803  0.540657  1
  Cs  Cs1  1  0.296505  0.148252  0.045513  1
  Cs  Cs2  1  0.851748  0.703495  0.045513  1
  Cs  Cs3  1  0.141197  0.282394  0.540657  1
  Cs  Cs4  1  0.717606  0.858803  0.540657  1
  Cs  Cs5  1  0.851748  0.148252  0.045513  1
  Cs  Cs6  1  0.537301  0.462699  0.379098  1
  Cs  Cs7  1  0.048616  0.524308  0.848309  1
  Cs  Cs8  1  0.475692  0.951384  0.848309  1
  Cs  Cs9  1  0.537301  0.074603  0.379098  1
  Cs  Cs10  1  0.925397  0.462699  0.379098  1
  Cs  Cs11  1  0.475692  0.524308  0.848309  1
  Na  Na12  1  0.666667  0.333333  0.757539  1
  Lu  Lu13  1  0.333333  0.666667  0.249244  1
  S  S14  1  0.333333  0.666667  0.556070  1
  S  S15  1  0.666667  0.333333  0.090369  1
  S  S16  1  0.205450  0.794550  0.151906  1
  S  S17  1  0.375844  0.187923  0.656578  1
  S  S18  1  0.812077  0.624156  0.656578  1
  S  S19  1  0.205450  0.410899  0.151906  1
  S  S20  1  0.589101  0.794550  0.151906  1
  S  S21  1  0.812077  0.187923  0.656578  1
