# generated using pymatgen
data_TmCuPd5O8
_symmetry_space_group_name_H-M   'P 1'
_cell_length_a   6.81318056
_cell_length_b   6.81318129
_cell_length_c   6.78172700
_cell_angle_alpha   60.15259659
_cell_angle_beta   60.15259308
_cell_angle_gamma   59.18934144
_symmetry_Int_Tables_number   1
_chemical_formula_structural   TmCuPd5O8
_chemical_formula_sum   'Tm1 Cu1 Pd5 O8'
_cell_volume   221.70701999
_cell_formula_units_Z   1
loop_
 _symmetry_equiv_pos_site_id
 _symmetry_equiv_pos_as_xyz
  1  'x, y, z'
loop_
 _atom_site_type_symbol
 _atom_site_label
 _atom_site_symmetry_multiplicity
 _atom_site_fract_x
 _atom_site_fract_y
 _atom_site_fract_z
 _atom_site_occupancy
  Tm  Tm0  1  0.000000  0.000000  0.000000  1
  Cu  Cu1  1  0.000000  0.000000  0.500000  1
  Pd  Pd2  1  0.500000  0.000000  0.000000  1
  Pd  Pd3  1  0.000000  0.500000  0.000000  1
  Pd  Pd4  1  0.500000  0.500000  0.000000  1
  Pd  Pd5  1  0.000000  0.500000  0.500000  1
  Pd  Pd6  1  0.500000  0.000000  0.500000  1
  O  O7  1  0.133426  0.133426  0.575367  1
  O  O8  1  0.136507  0.586652  0.138421  1
  O  O9  1  0.586652  0.136507  0.138421  1
  O  O10  1  0.863493  0.413348  0.861579  1
  O  O11  1  0.133426  0.133426  0.157782  1
  O  O12  1  0.866574  0.866574  0.842218  1
  O  O13  1  0.866574  0.866574  0.424633  1
  O  O14  1  0.413348  0.863493  0.861579  1
