# generated using pymatgen
data_Ta3Cr(PO4)6
_symmetry_space_group_name_H-M   'P 1'
_cell_length_a   8.71352214
_cell_length_b   9.00921427
_cell_length_c   8.71401702
_cell_angle_alpha   89.99633758
_cell_angle_beta   59.99629122
_cell_angle_gamma   118.91540904
_symmetry_Int_Tables_number   1
_chemical_formula_structural   Ta3Cr(PO4)6
_chemical_formula_sum   'Ta3 Cr1 P6 O24'
_cell_volume   491.44610462
_cell_formula_units_Z   1
loop_
 _symmetry_equiv_pos_site_id
 _symmetry_equiv_pos_as_xyz
  1  'x, y, z'
loop_
 _atom_site_type_symbol
 _atom_site_label
 _atom_site_symmetry_multiplicity
 _atom_site_fract_x
 _atom_site_fract_y
 _atom_site_fract_z
 _atom_site_occupancy
  Ta  Ta0  1  0.284481  0.926633  0.357732  1
  Ta  Ta1  1  0.281662  0.422416  0.859152  1
  Ta  Ta2  1  0.714404  0.571539  0.142775  1
  Cr  Cr3  1  0.712185  0.068058  0.643899  1
  P  P4  1  0.780820  0.755065  0.750617  1
  P  P5  1  0.504460  0.247002  0.534014  1
  P  P6  1  0.505823  0.755096  0.468493  1
  P  P7  1  0.208649  0.247082  0.257300  1
  P  P8  1  0.781150  0.247087  0.961542  1
  P  P9  1  0.223808  0.755116  0.025527  1
  O  O10  1  0.659841  0.917503  0.485306  1
  O  O11  1  0.007744  0.718131  0.075375  1
  O  O12  1  0.220332  0.583229  0.001405  1
  O  O13  1  0.227119  0.781299  0.201097  1
  O  O14  1  0.986735  0.275469  0.932554  1
  O  O15  1  0.783111  0.415491  0.002488  1
  O  O16  1  0.776187  0.226689  0.793233  1
  O  O17  1  0.793746  0.718222  0.916802  1
  O  O18  1  0.982461  0.781170  0.571651  1
  O  O19  1  0.657508  0.226791  0.549310  1
  O  O20  1  0.772352  0.917470  0.742105  1
  O  O21  1  0.584671  0.583236  0.778333  1
  O  O22  1  0.589279  0.083895  0.141719  1
  O  O23  1  0.629693  0.415358  0.367572  1
  O  O24  1  0.208021  0.275364  0.080692  1
  O  O25  1  0.356218  0.275445  0.711160  1
  O  O26  1  0.635099  0.718139  0.289448  1
  O  O27  1  0.352898  0.083805  0.505409  1
  O  O28  1  0.403097  0.917412  0.854613  1
  O  O29  1  0.361695  0.583342  0.637000  1
  O  O30  1  0.225700  0.083941  0.269012  1
  O  O31  1  0.418128  0.415517  0.214147  1
  O  O32  1  0.353018  0.781183  0.445734  1
  O  O33  1  0.020037  0.226808  0.430652  1
