# generated using pymatgen
data_In7SiRhO8
_symmetry_space_group_name_H-M   'P 1'
_cell_length_a   7.23239766
_cell_length_b   7.23239767
_cell_length_c   7.23239700
_cell_angle_alpha   59.99999849
_cell_angle_beta   59.99999842
_cell_angle_gamma   60.00000166
_symmetry_Int_Tables_number   1
_chemical_formula_structural   In7SiRhO8
_chemical_formula_sum   'In7 Si1 Rh1 O8'
_cell_volume   267.50496628
_cell_formula_units_Z   1
loop_
 _symmetry_equiv_pos_site_id
 _symmetry_equiv_pos_as_xyz
  1  'x, y, z'
loop_
 _atom_site_type_symbol
 _atom_site_label
 _atom_site_symmetry_multiplicity
 _atom_site_fract_x
 _atom_site_fract_y
 _atom_site_fract_z
 _atom_site_occupancy
  In  In0  1  0.248778  0.751222  0.751222  1
  In  In1  1  0.751222  0.248778  0.248778  1
  In  In2  1  0.248778  0.248778  0.751222  1
  In  In3  1  0.248778  0.751222  0.248778  1
  In  In4  1  0.751222  0.751222  0.248778  1
  In  In5  1  0.751222  0.248778  0.751222  1
  In  In6  1  0.750000  0.750000  0.750000  1
  Si  Si7  1  0.250000  0.250000  0.250000  1
  Rh  Rh8  1  0.000000  0.000000  0.000000  1
  O  O9  1  0.344605  0.966186  0.344605  1
  O  O10  1  0.628762  0.628762  0.628762  1
  O  O11  1  0.966186  0.344605  0.344605  1
  O  O12  1  0.628762  0.113716  0.628762  1
  O  O13  1  0.344605  0.344605  0.344605  1
  O  O14  1  0.113716  0.628762  0.628762  1
  O  O15  1  0.344605  0.344605  0.966186  1
  O  O16  1  0.628762  0.628762  0.113716  1
