# generated using pymatgen
data_TmNp3F15
_symmetry_space_group_name_H-M   'P 1'
_cell_length_a   8.54423217
_cell_length_b   8.54423267
_cell_length_c   8.56176331
_cell_angle_alpha   79.61970005
_cell_angle_beta   79.61970230
_cell_angle_gamma   100.09245114
_symmetry_Int_Tables_number   1
_chemical_formula_structural   TmNp3F15
_chemical_formula_sum   'Tm2 Np6 F30'
_cell_volume   590.65111817
_cell_formula_units_Z   2
loop_
 _symmetry_equiv_pos_site_id
 _symmetry_equiv_pos_as_xyz
  1  'x, y, z'
loop_
 _atom_site_type_symbol
 _atom_site_label
 _atom_site_symmetry_multiplicity
 _atom_site_fract_x
 _atom_site_fract_y
 _atom_site_fract_z
 _atom_site_occupancy
  Tm  Tm0  1  0.677442  0.322558  0.750000  1
  Tm  Tm1  1  0.322558  0.677442  0.250000  1
  Np  Np2  1  0.247424  0.752576  0.750000  1
  Np  Np3  1  0.752576  0.247424  0.250000  1
  Np  Np4  1  0.821984  0.741782  0.326129  1
  Np  Np5  1  0.258218  0.178016  0.173871  1
  Np  Np6  1  0.178016  0.258218  0.673871  1
  Np  Np7  1  0.741782  0.821984  0.826129  1
  F  F8  1  0.151457  0.177360  0.950270  1
  F  F9  1  0.684300  0.552436  0.841578  1
  F  F10  1  0.053877  0.654998  0.317197  1
  F  F11  1  0.654998  0.053877  0.817197  1
  F  F12  1  0.552436  0.684300  0.341578  1
  F  F13  1  0.177360  0.151457  0.450270  1
  F  F14  1  0.848543  0.822640  0.049730  1
  F  F15  1  0.315700  0.447564  0.158422  1
  F  F16  1  0.946123  0.345002  0.682803  1
  F  F17  1  0.345002  0.946123  0.182803  1
  F  F18  1  0.447564  0.315700  0.658422  1
  F  F19  1  0.822640  0.848543  0.549730  1
  F  F20  1  0.967060  0.032940  0.750000  1
  F  F21  1  0.531492  0.748630  0.035532  1
  F  F22  1  0.251370  0.468508  0.464468  1
  F  F23  1  0.468508  0.251370  0.964468  1
  F  F24  1  0.748630  0.531492  0.535532  1
  F  F25  1  0.032940  0.967060  0.250000  1
  F  F26  1  0.222426  0.724046  0.009396  1
  F  F27  1  0.222551  0.488121  0.787212  1
  F  F28  1  0.986311  0.716686  0.777031  1
  F  F29  1  0.716686  0.986311  0.277031  1
  F  F30  1  0.488121  0.222551  0.287212  1
  F  F31  1  0.724046  0.222426  0.509396  1
  F  F32  1  0.777574  0.275954  0.990604  1
  F  F33  1  0.777449  0.511879  0.212788  1
  F  F34  1  0.013689  0.283314  0.222969  1
  F  F35  1  0.283314  0.013689  0.722969  1
  F  F36  1  0.511879  0.777449  0.712788  1
  F  F37  1  0.275954  0.777574  0.490604  1
