# generated using pymatgen
data_Y7Er13(Bi2Sb)4
_symmetry_space_group_name_H-M   'P 1'
_cell_length_a   8.14122913
_cell_length_b   9.39897900
_cell_length_c   11.96112219
_cell_angle_alpha   90.00000000
_cell_angle_beta   89.97971784
_cell_angle_gamma   90.00000000
_symmetry_Int_Tables_number   1
_chemical_formula_structural   Y7Er13(Bi2Sb)4
_chemical_formula_sum   'Y7 Er13 Bi8 Sb4'
_cell_volume   915.25594116
_cell_formula_units_Z   1
loop_
 _symmetry_equiv_pos_site_id
 _symmetry_equiv_pos_as_xyz
  1  'x, y, z'
loop_
 _atom_site_type_symbol
 _atom_site_label
 _atom_site_symmetry_multiplicity
 _atom_site_fract_x
 _atom_site_fract_y
 _atom_site_fract_z
 _atom_site_occupancy
  Y  Y0  1  0.682974  0.750000  0.781721  1
  Y  Y1  1  0.817091  0.250000  0.281641  1
  Y  Y2  1  0.317111  0.250000  0.218385  1
  Y  Y3  1  0.353258  0.750000  0.213146  1
  Y  Y4  1  0.853536  0.750000  0.287145  1
  Y  Y5  1  0.646743  0.250000  0.786687  1
  Y  Y6  1  0.146668  0.250000  0.713217  1
  Er  Er7  1  0.028377  0.750000  0.988145  1
  Er  Er8  1  0.527758  0.750000  0.511655  1
  Er  Er9  1  0.971995  0.250000  0.011110  1
  Er  Er10  1  0.471787  0.250000  0.488920  1
  Er  Er11  1  0.183444  0.750000  0.717554  1
  Er  Er12  1  0.310485  0.437183  0.941764  1
  Er  Er13  1  0.810222  0.062835  0.558096  1
  Er  Er14  1  0.689471  0.936993  0.057931  1
  Er  Er15  1  0.189526  0.562950  0.442331  1
  Er  Er16  1  0.689471  0.563007  0.057931  1
  Er  Er17  1  0.189526  0.937050  0.442331  1
  Er  Er18  1  0.310485  0.062817  0.941764  1
  Er  Er19  1  0.810222  0.437165  0.558096  1
  Bi  Bi20  1  0.432846  0.003192  0.673255  1
  Bi  Bi21  1  0.934385  0.496720  0.826618  1
  Bi  Bi22  1  0.566305  0.503797  0.327197  1
  Bi  Bi23  1  0.066271  0.996170  0.172871  1
  Bi  Bi24  1  0.566305  0.996203  0.327197  1
  Bi  Bi25  1  0.066271  0.503830  0.172871  1
  Bi  Bi26  1  0.432846  0.496808  0.673255  1
  Bi  Bi27  1  0.934385  0.003280  0.826618  1
  Sb  Sb28  1  0.407519  0.750000  0.958565  1
  Sb  Sb29  1  0.908228  0.750000  0.542025  1
  Sb  Sb30  1  0.592312  0.250000  0.041090  1
  Sb  Sb31  1  0.092177  0.250000  0.458869  1
