# generated using pymatgen
data_Tm4MnB12Rh
_symmetry_space_group_name_H-M   'P 1'
_cell_length_a   3.57590100
_cell_length_b   9.04823789
_cell_length_c   11.41389716
_cell_angle_alpha   90.16044859
_cell_angle_beta   90.00000000
_cell_angle_gamma   90.00000000
_symmetry_Int_Tables_number   1
_chemical_formula_structural   Tm4MnB12Rh
_chemical_formula_sum   'Tm8 Mn2 B24 Rh2'
_cell_volume   369.30207632
_cell_formula_units_Z   2
loop_
 _symmetry_equiv_pos_site_id
 _symmetry_equiv_pos_as_xyz
  1  'x, y, z'
loop_
 _atom_site_type_symbol
 _atom_site_label
 _atom_site_symmetry_multiplicity
 _atom_site_fract_x
 _atom_site_fract_y
 _atom_site_fract_z
 _atom_site_occupancy
  Tm  Tm0  1  0.500000  0.317530  0.410074  1
  Tm  Tm1  1  0.500000  0.682470  0.589926  1
  Tm  Tm2  1  0.500000  0.171977  0.917887  1
  Tm  Tm3  1  0.500000  0.828023  0.082113  1
  Tm  Tm4  1  0.500000  0.439985  0.126258  1
  Tm  Tm5  1  0.500000  0.560015  0.873742  1
  Tm  Tm6  1  0.500000  0.051930  0.629673  1
  Tm  Tm7  1  0.500000  0.948070  0.370327  1
  Mn  Mn8  1  0.500000  0.139721  0.180506  1
  Mn  Mn9  1  0.500000  0.860279  0.819494  1
  B  B10  1  0.000000  0.108380  0.470456  1
  B  B11  1  0.000000  0.891620  0.529544  1
  B  B12  1  0.000000  0.390792  0.970015  1
  B  B13  1  0.000000  0.609208  0.029985  1
  B  B14  1  0.000000  0.132395  0.313504  1
  B  B15  1  0.000000  0.867605  0.686496  1
  B  B16  1  0.000000  0.367472  0.817282  1
  B  B17  1  0.000000  0.632528  0.182718  1
  B  B18  1  0.000000  0.053738  0.067665  1
  B  B19  1  0.000000  0.946262  0.932335  1
  B  B20  1  0.000000  0.446285  0.565941  1
  B  B21  1  0.000000  0.553715  0.434059  1
  B  B22  1  0.000000  0.481875  0.286746  1
  B  B23  1  0.000000  0.518125  0.713254  1
  B  B24  1  0.000000  0.014628  0.788478  1
  B  B25  1  0.000000  0.985372  0.211522  1
  B  B26  1  0.000000  0.246219  0.081289  1
  B  B27  1  0.000000  0.753781  0.918711  1
  B  B28  1  0.000000  0.249469  0.578705  1
  B  B29  1  0.000000  0.750531  0.421295  1
  B  B30  1  0.000000  0.291100  0.233510  1
  B  B31  1  0.000000  0.708900  0.766490  1
  B  B32  1  0.000000  0.206701  0.735282  1
  B  B33  1  0.000000  0.793299  0.264718  1
  Rh  Rh34  1  0.500000  0.361267  0.678683  1
  Rh  Rh35  1  0.500000  0.638733  0.321317  1
