# generated using pymatgen
data_La4Al18(OsPt)3
_symmetry_space_group_name_H-M   'P 1'
_cell_length_a   7.69986180
_cell_length_b   7.69986255
_cell_length_c   9.72465947
_cell_angle_alpha   89.91906934
_cell_angle_beta   89.91907340
_cell_angle_gamma   119.38114278
_symmetry_Int_Tables_number   1
_chemical_formula_structural   La4Al18(OsPt)3
_chemical_formula_sum   'La4 Al18 Os3 Pt3'
_cell_volume   502.39332964
_cell_formula_units_Z   1
loop_
 _symmetry_equiv_pos_site_id
 _symmetry_equiv_pos_as_xyz
  1  'x, y, z'
loop_
 _atom_site_type_symbol
 _atom_site_label
 _atom_site_symmetry_multiplicity
 _atom_site_fract_x
 _atom_site_fract_y
 _atom_site_fract_z
 _atom_site_occupancy
  La  La0  1  0.997786  0.670706  0.250835  1
  La  La1  1  0.003428  0.329524  0.749373  1
  La  La2  1  0.670476  0.996572  0.250627  1
  La  La3  1  0.329294  0.002214  0.749165  1
  Al  Al4  1  0.137178  0.135696  0.250271  1
  Al  Al5  1  0.864304  0.862822  0.749729  1
  Al  Al6  1  0.010133  0.340583  0.073642  1
  Al  Al7  1  0.999292  0.664835  0.926617  1
  Al  Al8  1  0.995707  0.659045  0.571052  1
  Al  Al9  1  0.340955  0.004293  0.428948  1
  Al  Al10  1  0.005288  0.340287  0.428593  1
  Al  Al11  1  0.659713  0.994712  0.571407  1
  Al  Al12  1  0.659417  0.989867  0.926358  1
  Al  Al13  1  0.335165  0.000708  0.073383  1
  Al  Al14  1  0.339651  0.339595  0.543483  1
  Al  Al15  1  0.660405  0.660349  0.456517  1
  Al  Al16  1  0.658714  0.663972  0.048702  1
  Al  Al17  1  0.336028  0.341286  0.951298  1
  Al  Al18  1  0.338730  0.546841  0.250600  1
  Al  Al19  1  0.662409  0.457075  0.745639  1
  Al  Al20  1  0.542925  0.337591  0.254361  1
  Al  Al21  1  0.453159  0.661270  0.749400  1
  Os  Os22  1  0.328344  0.671656  0.000000  1
  Os  Os23  1  0.328807  0.671193  0.500000  1
  Os  Os24  1  0.671729  0.328271  0.500000  1
  Pt  Pt25  1  0.671030  0.328970  0.000000  1
  Pt  Pt26  1  0.999820  0.000180  0.000000  1
  Pt  Pt27  1  0.000112  0.999888  0.500000  1
