# generated using pymatgen
data_U4Si8Tc5
_symmetry_space_group_name_H-M   'P 1'
_cell_length_a   7.07230000
_cell_length_b   7.12517754
_cell_length_c   7.07230071
_cell_angle_alpha   109.88679768
_cell_angle_beta   108.33591992
_cell_angle_gamma   109.88680334
_symmetry_Int_Tables_number   1
_chemical_formula_structural   U4Si8Tc5
_chemical_formula_sum   'U4 Si8 Tc5'
_cell_volume   275.31847753
_cell_formula_units_Z   1
loop_
 _symmetry_equiv_pos_site_id
 _symmetry_equiv_pos_as_xyz
  1  'x, y, z'
loop_
 _atom_site_type_symbol
 _atom_site_label
 _atom_site_symmetry_multiplicity
 _atom_site_fract_x
 _atom_site_fract_y
 _atom_site_fract_z
 _atom_site_occupancy
  U  U0  1  0.497448  0.500000  0.502552  1
  U  U1  1  0.997448  0.500000  0.002552  1
  U  U2  1  0.501587  0.000000  0.999839  1
  U  U3  1  0.000161  0.000000  0.498413  1
  Si  Si4  1  0.698570  0.000000  0.697869  1
  Si  Si5  1  0.690178  0.690588  0.000410  1
  Si  Si6  1  0.308330  0.304530  0.996200  1
  Si  Si7  1  0.003800  0.695470  0.691670  1
  Si  Si8  1  0.999590  0.309412  0.309822  1
  Si  Si9  1  0.302131  0.000000  0.301430  1
  Si  Si10  1  0.496545  0.742954  0.246409  1
  Si  Si11  1  0.753591  0.257046  0.503455  1
  Tc  Tc12  1  0.253889  0.751295  0.497407  1
  Tc  Tc13  1  0.247308  0.500000  0.752692  1
  Tc  Tc14  1  0.999523  0.000000  0.000477  1
  Tc  Tc15  1  0.502593  0.248705  0.746111  1
  Tc  Tc16  1  0.747308  0.500000  0.252692  1
