# generated using pymatgen
data_Ce3Pu(C2Cl)2
_symmetry_space_group_name_H-M   'P 1'
_cell_length_a   7.43109960
_cell_length_b   7.44131693
_cell_length_c   6.49061536
_cell_angle_alpha   79.81169070
_cell_angle_beta   79.81145368
_cell_angle_gamma   32.11458377
_symmetry_Int_Tables_number   1
_chemical_formula_structural   Ce3Pu(C2Cl)2
_chemical_formula_sum   'Ce3 Pu1 C4 Cl2'
_cell_volume   187.54292561
_cell_formula_units_Z   1
loop_
 _symmetry_equiv_pos_site_id
 _symmetry_equiv_pos_as_xyz
  1  'x, y, z'
loop_
 _atom_site_type_symbol
 _atom_site_label
 _atom_site_symmetry_multiplicity
 _atom_site_fract_x
 _atom_site_fract_y
 _atom_site_fract_z
 _atom_site_occupancy
  Ce  Ce0  1  0.537929  0.159997  0.146703  1
  Ce  Ce1  1  0.160986  0.534763  0.647256  1
  Ce  Ce2  1  0.468231  0.831322  0.855070  1
  Pu  Pu3  1  0.833834  0.473901  0.350357  1
  C  C4  1  0.343302  0.098395  0.473492  1
  C  C5  1  0.909944  0.649649  0.025545  1
  C  C6  1  0.646899  0.909593  0.527105  1
  C  C7  1  0.095599  0.346875  0.973470  1
  Cl  Cl8  1  0.209302  0.790713  0.253759  1
  Cl  Cl9  1  0.793972  0.204793  0.747242  1
