# generated using pymatgen
data_DyNp2Nb7N12
_symmetry_space_group_name_H-M   'P 1'
_cell_length_a   5.37360900
_cell_length_b   5.37360710
_cell_length_c   10.92575400
_cell_angle_alpha   90.00000000
_cell_angle_beta   90.00000000
_cell_angle_gamma   120.00000553
_symmetry_Int_Tables_number   1
_chemical_formula_structural   DyNp2Nb7N12
_chemical_formula_sum   'Dy1 Np2 Nb7 N12'
_cell_volume   273.22095011
_cell_formula_units_Z   1
loop_
 _symmetry_equiv_pos_site_id
 _symmetry_equiv_pos_as_xyz
  1  'x, y, z'
loop_
 _atom_site_type_symbol
 _atom_site_label
 _atom_site_symmetry_multiplicity
 _atom_site_fract_x
 _atom_site_fract_y
 _atom_site_fract_z
 _atom_site_occupancy
  Dy  Dy0  1  0.333333  0.666667  0.500000  1
  Np  Np1  1  0.666667  0.333333  0.000000  1
  Np  Np2  1  0.666667  0.333333  0.500000  1
  Nb  Nb3  1  0.333333  0.666667  0.000000  1
  Nb  Nb4  1  0.675198  0.996335  0.755799  1
  Nb  Nb5  1  0.675198  0.678863  0.244201  1
  Nb  Nb6  1  0.003665  0.324802  0.244201  1
  Nb  Nb7  1  0.003665  0.678863  0.755799  1
  Nb  Nb8  1  0.321137  0.324802  0.755799  1
  Nb  Nb9  1  0.321137  0.996335  0.244201  1
  N  N10  1  0.352141  0.340632  0.363542  1
  N  N11  1  0.659368  0.011510  0.363542  1
  N  N12  1  0.988490  0.647859  0.363542  1
  N  N13  1  0.004366  0.348044  0.875814  1
  N  N14  1  0.651956  0.995634  0.124186  1
  N  N15  1  0.651956  0.656321  0.875814  1
  N  N16  1  0.343679  0.995634  0.875814  1
  N  N17  1  0.659368  0.647859  0.636458  1
  N  N18  1  0.988490  0.340632  0.636458  1
  N  N19  1  0.004366  0.656321  0.124186  1
  N  N20  1  0.352141  0.011510  0.636458  1
  N  N21  1  0.343679  0.348044  0.124186  1
