# generated using pymatgen
data_Dy6Al7Au16
_symmetry_space_group_name_H-M   'P 1'
_cell_length_a   9.26887400
_cell_length_b   9.26885963
_cell_length_c   9.26887400
_cell_angle_alpha   119.99998652
_cell_angle_beta   89.99995055
_cell_angle_gamma   119.99998652
_symmetry_Int_Tables_number   1
_chemical_formula_structural   Dy6Al7Au16
_chemical_formula_sum   'Dy6 Al7 Au16'
_cell_volume   563.07420039
_cell_formula_units_Z   1
loop_
 _symmetry_equiv_pos_site_id
 _symmetry_equiv_pos_as_xyz
  1  'x, y, z'
loop_
 _atom_site_type_symbol
 _atom_site_label
 _atom_site_symmetry_multiplicity
 _atom_site_fract_x
 _atom_site_fract_y
 _atom_site_fract_z
 _atom_site_occupancy
  Dy  Dy0  1  0.286066  0.000001  0.286066  1
  Dy  Dy1  1  0.286067  0.572132  0.286067  1
  Dy  Dy2  1  0.713935  0.000000  0.286066  1
  Dy  Dy3  1  0.713935  0.000000  0.713935  1
  Dy  Dy4  1  0.286066  0.000000  0.713935  1
  Dy  Dy5  1  0.713934  0.427868  0.713934  1
  Al  Al6  1  0.000001  0.000001  0.000001  1
  Al  Al7  1  0.500001  0.000001  0.000001  1
  Al  Al8  1  0.000001  0.500001  0.000001  1
  Al  Al9  1  0.500000  0.500000  0.000001  1
  Al  Al10  1  0.000001  0.000001  0.500001  1
  Al  Al11  1  0.000001  0.500000  0.500000  1
  Al  Al12  1  0.500001  0.500001  0.500001  1
  Au  Au13  1  0.659304  0.318613  0.977919  1
  Au  Au14  1  0.882084  0.764166  0.117917  1
  Au  Au15  1  0.353752  0.235835  0.117918  1
  Au  Au16  1  0.882083  0.235835  0.117917  1
  Au  Au17  1  0.659304  0.318612  0.340694  1
  Au  Au18  1  0.659305  0.681387  0.340695  1
  Au  Au19  1  0.022081  0.681387  0.340696  1
  Au  Au20  1  0.117918  0.235835  0.353752  1
  Au  Au21  1  0.882083  0.764166  0.646249  1
  Au  Au22  1  0.977919  0.318613  0.659304  1
  Au  Au23  1  0.340694  0.318612  0.659304  1
  Au  Au24  1  0.340695  0.681387  0.659305  1
  Au  Au25  1  0.117917  0.235835  0.882083  1
  Au  Au26  1  0.117917  0.764166  0.882084  1
  Au  Au27  1  0.646249  0.764166  0.882083  1
  Au  Au28  1  0.340696  0.681387  0.022081  1
