# generated using pymatgen
data_MnNb4Ge2B4Ru9
_symmetry_space_group_name_H-M   'P 1'
_cell_length_a   9.27219454
_cell_length_b   9.27219454
_cell_length_c   2.98590600
_cell_angle_alpha   90.00000000
_cell_angle_beta   90.00000000
_cell_angle_gamma   90.16439446
_symmetry_Int_Tables_number   1
_chemical_formula_structural   MnNb4Ge2B4Ru9
_chemical_formula_sum   'Mn1 Nb4 Ge2 B4 Ru9'
_cell_volume   256.70800638
_cell_formula_units_Z   1
loop_
 _symmetry_equiv_pos_site_id
 _symmetry_equiv_pos_as_xyz
  1  'x, y, z'
loop_
 _atom_site_type_symbol
 _atom_site_label
 _atom_site_symmetry_multiplicity
 _atom_site_fract_x
 _atom_site_fract_y
 _atom_site_fract_z
 _atom_site_occupancy
  Mn  Mn0  1  0.500000  0.000000  0.500000  1
  Nb  Nb1  1  0.822063  0.677937  0.000000  1
  Nb  Nb2  1  0.177937  0.322063  0.000000  1
  Nb  Nb3  1  0.330653  0.830653  0.000000  1
  Nb  Nb4  1  0.669347  0.169347  0.000000  1
  Ge  Ge5  1  0.500000  0.500000  0.000000  1
  Ge  Ge6  1  0.000000  0.000000  0.000000  1
  B  B7  1  0.616373  0.883627  0.000000  1
  B  B8  1  0.383627  0.116373  0.000000  1
  B  B9  1  0.125387  0.625387  0.000000  1
  B  B10  1  0.874613  0.374613  0.000000  1
  Ru  Ru11  1  0.566806  0.717734  0.500000  1
  Ru  Ru12  1  0.433194  0.282266  0.500000  1
  Ru  Ru13  1  0.069155  0.786999  0.500000  1
  Ru  Ru14  1  0.930845  0.213001  0.500000  1
  Ru  Ru15  1  0.286999  0.569155  0.500000  1
  Ru  Ru16  1  0.713001  0.430845  0.500000  1
  Ru  Ru17  1  0.217734  0.066806  0.500000  1
  Ru  Ru18  1  0.782266  0.933194  0.500000  1
  Ru  Ru19  1  0.000000  0.500000  0.500000  1
