# generated using pymatgen
data_Ho10FeCoSb4
_symmetry_space_group_name_H-M   'P 1'
_cell_length_a   7.85176000
_cell_length_b   8.76551200
_cell_length_c   12.17217600
_cell_angle_alpha   90.00000000
_cell_angle_beta   90.00000000
_cell_angle_gamma   90.00000000
_symmetry_Int_Tables_number   1
_chemical_formula_structural   Ho10FeCoSb4
_chemical_formula_sum   'Ho20 Fe2 Co2 Sb8'
_cell_volume   837.74631896
_cell_formula_units_Z   2
loop_
 _symmetry_equiv_pos_site_id
 _symmetry_equiv_pos_as_xyz
  1  'x, y, z'
loop_
 _atom_site_type_symbol
 _atom_site_label
 _atom_site_symmetry_multiplicity
 _atom_site_fract_x
 _atom_site_fract_y
 _atom_site_fract_z
 _atom_site_occupancy
  Ho  Ho0  1  0.157678  0.750000  0.205052  1
  Ho  Ho1  1  0.657678  0.250000  0.294948  1
  Ho  Ho2  1  0.843546  0.250000  0.796230  1
  Ho  Ho3  1  0.343546  0.750000  0.703770  1
  Ho  Ho4  1  0.451128  0.750000  0.997285  1
  Ho  Ho5  1  0.951128  0.250000  0.502715  1
  Ho  Ho6  1  0.549269  0.250000  0.002644  1
  Ho  Ho7  1  0.049269  0.750000  0.497356  1
  Ho  Ho8  1  0.622778  0.750000  0.307560  1
  Ho  Ho9  1  0.122778  0.250000  0.192440  1
  Ho  Ho10  1  0.376583  0.250000  0.692903  1
  Ho  Ho11  1  0.876583  0.750000  0.807097  1
  Ho  Ho12  1  0.823584  0.964572  0.064869  1
  Ho  Ho13  1  0.323584  0.035428  0.435131  1
  Ho  Ho14  1  0.176812  0.461909  0.934859  1
  Ho  Ho15  1  0.676812  0.538091  0.565141  1
  Ho  Ho16  1  0.176812  0.038091  0.934859  1
  Ho  Ho17  1  0.676812  0.961909  0.565141  1
  Ho  Ho18  1  0.823584  0.535428  0.064869  1
  Ho  Ho19  1  0.323584  0.464572  0.435131  1
  Fe  Fe20  1  0.428789  0.750000  0.489220  1
  Fe  Fe21  1  0.928789  0.250000  0.010780  1
  Co  Co22  1  0.570061  0.250000  0.510124  1
  Co  Co23  1  0.070061  0.750000  0.989876  1
  Sb  Sb24  1  0.930282  0.991878  0.327248  1
  Sb  Sb25  1  0.430282  0.008122  0.172752  1
  Sb  Sb26  1  0.069405  0.491703  0.672646  1
  Sb  Sb27  1  0.569405  0.508297  0.827354  1
  Sb  Sb28  1  0.069405  0.008297  0.672646  1
  Sb  Sb29  1  0.569405  0.991703  0.827354  1
  Sb  Sb30  1  0.930282  0.508122  0.327248  1
  Sb  Sb31  1  0.430282  0.491878  0.172752  1
