# generated using pymatgen
data_DyTh3Os8
_symmetry_space_group_name_H-M   'P 1'
_cell_length_a   5.39937200
_cell_length_b   5.39937309
_cell_length_c   9.03154200
_cell_angle_alpha   90.00000000
_cell_angle_beta   90.00000000
_cell_angle_gamma   120.00000556
_symmetry_Int_Tables_number   1
_chemical_formula_structural   DyTh3Os8
_chemical_formula_sum   'Dy1 Th3 Os8'
_cell_volume   228.02323415
_cell_formula_units_Z   1
loop_
 _symmetry_equiv_pos_site_id
 _symmetry_equiv_pos_as_xyz
  1  'x, y, z'
loop_
 _atom_site_type_symbol
 _atom_site_label
 _atom_site_symmetry_multiplicity
 _atom_site_fract_x
 _atom_site_fract_y
 _atom_site_fract_z
 _atom_site_occupancy
  Dy  Dy0  1  0.333333  0.666667  0.065898  1
  Th  Th1  1  0.333333  0.666667  0.429302  1
  Th  Th2  1  0.666667  0.333333  0.568920  1
  Th  Th3  1  0.666667  0.333333  0.933888  1
  Os  Os4  1  0.000000  0.000000  0.499775  1
  Os  Os5  1  0.000000  0.000000  0.002909  1
  Os  Os6  1  0.829342  0.170658  0.247317  1
  Os  Os7  1  0.829342  0.658683  0.247317  1
  Os  Os8  1  0.341317  0.170658  0.247317  1
  Os  Os9  1  0.170923  0.829077  0.752453  1
  Os  Os10  1  0.170923  0.341848  0.752453  1
  Os  Os11  1  0.658152  0.829077  0.752453  1
