# generated using pymatgen
data_Y6Er4In7HgPt4
_symmetry_space_group_name_H-M   'P 1'
_cell_length_a   3.62140500
_cell_length_b   8.14565415
_cell_length_c   18.21052800
_cell_angle_alpha   90.05780466
_cell_angle_beta   90.00000000
_cell_angle_gamma   90.00000000
_symmetry_Int_Tables_number   1
_chemical_formula_structural   Y6Er4In7HgPt4
_chemical_formula_sum   'Y6 Er4 In7 Hg1 Pt4'
_cell_volume   537.18685930
_cell_formula_units_Z   1
loop_
 _symmetry_equiv_pos_site_id
 _symmetry_equiv_pos_as_xyz
  1  'x, y, z'
loop_
 _atom_site_type_symbol
 _atom_site_label
 _atom_site_symmetry_multiplicity
 _atom_site_fract_x
 _atom_site_fract_y
 _atom_site_fract_z
 _atom_site_occupancy
  Y  Y0  1  0.000000  0.499262  0.500636  1
  Y  Y1  1  0.000000  0.996080  0.997337  1
  Y  Y2  1  0.000000  0.739207  0.281479  1
  Y  Y3  1  0.000000  0.260319  0.717245  1
  Y  Y4  1  0.000000  0.760042  0.785592  1
  Y  Y5  1  0.000000  0.239783  0.218549  1
  Er  Er6  1  0.000000  0.616547  0.084190  1
  Er  Er7  1  0.000000  0.390735  0.914735  1
  Er  Er8  1  0.000000  0.882190  0.585640  1
  Er  Er9  1  0.000000  0.116561  0.414921  1
  In  In10  1  0.500000  0.292168  0.065260  1
  In  In11  1  0.500000  0.794221  0.434884  1
  In  In12  1  0.500000  0.203960  0.565266  1
  In  In13  1  0.500000  0.582937  0.650616  1
  In  In14  1  0.500000  0.419501  0.350450  1
  In  In15  1  0.500000  0.919339  0.148854  1
  In  In16  1  0.500000  0.085324  0.850000  1
  Hg  Hg17  1  0.500000  0.706615  0.936034  1
  Pt  Pt18  1  0.500000  0.525141  0.194246  1
  Pt  Pt19  1  0.500000  0.472013  0.803589  1
  Pt  Pt20  1  0.500000  0.973255  0.695498  1
  Pt  Pt21  1  0.500000  0.024803  0.304976  1
