# generated using pymatgen
data_Ti2NbAuC2
_symmetry_space_group_name_H-M   'P 1'
_cell_length_a   3.13678500
_cell_length_b   3.13678655
_cell_length_c   18.64671200
_cell_angle_alpha   90.00000000
_cell_angle_beta   90.00000000
_cell_angle_gamma   119.99999418
_symmetry_Int_Tables_number   1
_chemical_formula_structural   Ti2NbAuC2
_chemical_formula_sum   'Ti4 Nb2 Au2 C4'
_cell_volume   158.89222270
_cell_formula_units_Z   2
loop_
 _symmetry_equiv_pos_site_id
 _symmetry_equiv_pos_as_xyz
  1  'x, y, z'
loop_
 _atom_site_type_symbol
 _atom_site_label
 _atom_site_symmetry_multiplicity
 _atom_site_fract_x
 _atom_site_fract_y
 _atom_site_fract_z
 _atom_site_occupancy
  Ti  Ti0  1  0.333333  0.666667  0.130184  1
  Ti  Ti1  1  0.333333  0.666667  0.369816  1
  Ti  Ti2  1  0.666667  0.333333  0.630184  1
  Ti  Ti3  1  0.666667  0.333333  0.869816  1
  Nb  Nb4  1  0.000000  0.000000  0.000000  1
  Nb  Nb5  1  0.000000  0.000000  0.500000  1
  Au  Au6  1  0.000000  0.000000  0.250000  1
  Au  Au7  1  0.000000  0.000000  0.750000  1
  C  C8  1  0.333333  0.666667  0.926867  1
  C  C9  1  0.666667  0.333333  0.073133  1
  C  C10  1  0.666667  0.333333  0.426867  1
  C  C11  1  0.333333  0.666667  0.573133  1
