# generated using pymatgen
data_Sm7ThGaPd24
_symmetry_space_group_name_H-M   'P 1'
_cell_length_a   8.44473345
_cell_length_b   8.44473345
_cell_length_c   8.44473345
_cell_angle_alpha   89.95244230
_cell_angle_beta   89.95244230
_cell_angle_gamma   89.95244230
_symmetry_Int_Tables_number   1
_chemical_formula_structural   Sm7ThGaPd24
_chemical_formula_sum   'Sm7 Th1 Ga1 Pd24'
_cell_volume   602.22307228
_cell_formula_units_Z   1
loop_
 _symmetry_equiv_pos_site_id
 _symmetry_equiv_pos_as_xyz
  1  'x, y, z'
loop_
 _atom_site_type_symbol
 _atom_site_label
 _atom_site_symmetry_multiplicity
 _atom_site_fract_x
 _atom_site_fract_y
 _atom_site_fract_z
 _atom_site_occupancy
  Sm  Sm0  1  0.747685  0.747685  0.747685  1
  Sm  Sm1  1  0.747817  0.747817  0.252241  1
  Sm  Sm2  1  0.747817  0.252241  0.747817  1
  Sm  Sm3  1  0.252168  0.252168  0.748087  1
  Sm  Sm4  1  0.252168  0.748087  0.252168  1
  Sm  Sm5  1  0.252241  0.747817  0.747817  1
  Sm  Sm6  1  0.748087  0.252168  0.252168  1
  Th  Th7  1  0.253198  0.253198  0.253198  1
  Ga  Ga8  1  0.999238  0.999238  0.999238  1
  Pd  Pd9  1  0.260281  0.499297  0.000956  1
  Pd  Pd10  1  0.739730  0.499968  0.000026  1
  Pd  Pd11  1  0.000956  0.260281  0.499297  1
  Pd  Pd12  1  0.499297  0.260281  0.000956  1
  Pd  Pd13  1  0.000026  0.739730  0.499968  1
  Pd  Pd14  1  0.499968  0.739730  0.000026  1
  Pd  Pd15  1  0.499297  0.000956  0.260281  1
  Pd  Pd16  1  0.260281  0.000956  0.499297  1
  Pd  Pd17  1  0.499968  0.000026  0.739730  1
  Pd  Pd18  1  0.739730  0.000026  0.499968  1
  Pd  Pd19  1  0.000956  0.499297  0.260281  1
  Pd  Pd20  1  0.000026  0.499968  0.739730  1
  Pd  Pd21  1  0.253100  0.499342  0.499342  1
  Pd  Pd22  1  0.747044  0.499931  0.499931  1
  Pd  Pd23  1  0.499342  0.253100  0.499342  1
  Pd  Pd24  1  0.499931  0.747044  0.499931  1
  Pd  Pd25  1  0.499342  0.499342  0.253100  1
  Pd  Pd26  1  0.499931  0.499931  0.747044  1
  Pd  Pd27  1  0.291913  0.000362  0.000362  1
  Pd  Pd28  1  0.707837  0.999950  0.999950  1
  Pd  Pd29  1  0.000362  0.291913  0.000362  1
  Pd  Pd30  1  0.999950  0.707837  0.999950  1
  Pd  Pd31  1  0.000362  0.000362  0.291913  1
  Pd  Pd32  1  0.999950  0.999950  0.707837  1
