# generated using pymatgen
data_Ce(SCl6)2
_symmetry_space_group_name_H-M   'P 1'
_cell_length_a   8.68948300
_cell_length_b   8.68948222
_cell_length_c   8.68948367
_cell_angle_alpha   78.45024438
_cell_angle_beta   78.45024505
_cell_angle_gamma   78.45024668
_symmetry_Int_Tables_number   1
_chemical_formula_structural   Ce(SCl6)2
_chemical_formula_sum   'Ce1 S2 Cl12'
_cell_volume   620.99038968
_cell_formula_units_Z   1
loop_
 _symmetry_equiv_pos_site_id
 _symmetry_equiv_pos_as_xyz
  1  'x, y, z'
loop_
 _atom_site_type_symbol
 _atom_site_label
 _atom_site_symmetry_multiplicity
 _atom_site_fract_x
 _atom_site_fract_y
 _atom_site_fract_z
 _atom_site_occupancy
  Ce  Ce0  1  0.000000  0.000000  0.000000  1
  S  S1  1  0.209037  0.209037  0.209037  1
  S  S2  1  0.790963  0.790963  0.790963  1
  Cl  Cl3  1  0.833792  0.833792  0.548973  1
  Cl  Cl4  1  0.867545  0.199725  0.199725  1
  Cl  Cl5  1  0.199725  0.199725  0.867545  1
  Cl  Cl6  1  0.199725  0.867545  0.199725  1
  Cl  Cl7  1  0.800275  0.132455  0.800275  1
  Cl  Cl8  1  0.132455  0.800275  0.800275  1
  Cl  Cl9  1  0.800275  0.800275  0.132455  1
  Cl  Cl10  1  0.451027  0.166208  0.166208  1
  Cl  Cl11  1  0.166208  0.166208  0.451027  1
  Cl  Cl12  1  0.166208  0.451027  0.166208  1
  Cl  Cl13  1  0.833792  0.548973  0.833792  1
  Cl  Cl14  1  0.548973  0.833792  0.833792  1
