# generated using pymatgen
data_Yb2CdIn3Pt2
_symmetry_space_group_name_H-M   'P 1'
_cell_length_a   5.51428570
_cell_length_b   5.51428634
_cell_length_c   8.38786976
_cell_angle_alpha   90.04384668
_cell_angle_beta   89.95615232
_cell_angle_gamma   134.36405804
_symmetry_Int_Tables_number   1
_chemical_formula_structural   Yb2CdIn3Pt2
_chemical_formula_sum   'Yb2 Cd1 In3 Pt2'
_cell_volume   182.34016935
_cell_formula_units_Z   1
loop_
 _symmetry_equiv_pos_site_id
 _symmetry_equiv_pos_as_xyz
  1  'x, y, z'
loop_
 _atom_site_type_symbol
 _atom_site_label
 _atom_site_symmetry_multiplicity
 _atom_site_fract_x
 _atom_site_fract_y
 _atom_site_fract_z
 _atom_site_occupancy
  Yb  Yb0  1  0.567582  0.432418  0.254772  1
  Yb  Yb1  1  0.431161  0.568839  0.745954  1
  Cd  Cd2  1  0.860153  0.139847  0.450727  1
  In  In3  1  0.147403  0.852597  0.547669  1
  In  In4  1  0.855891  0.144109  0.054175  1
  In  In5  1  0.143084  0.856916  0.948174  1
  Pt  Pt6  1  0.275128  0.724872  0.245594  1
  Pt  Pt7  1  0.719598  0.280402  0.752935  1
