# generated using pymatgen
data_Na2Pd3O7
_symmetry_space_group_name_H-M   'P 1'
_cell_length_a   6.94475381
_cell_length_b   6.92349785
_cell_length_c   8.14109474
_cell_angle_alpha   103.96506850
_cell_angle_beta   110.29370467
_cell_angle_gamma   107.76015387
_symmetry_Int_Tables_number   1
_chemical_formula_structural   Na2Pd3O7
_chemical_formula_sum   'Na4 Pd6 O14'
_cell_volume   322.16212408
_cell_formula_units_Z   2
loop_
 _symmetry_equiv_pos_site_id
 _symmetry_equiv_pos_as_xyz
  1  'x, y, z'
loop_
 _atom_site_type_symbol
 _atom_site_label
 _atom_site_symmetry_multiplicity
 _atom_site_fract_x
 _atom_site_fract_y
 _atom_site_fract_z
 _atom_site_occupancy
  Na  Na0  1  0.277666  0.680169  0.479479  1
  Na  Na1  1  0.722334  0.319831  0.520521  1
  Na  Na2  1  0.339416  0.830584  0.067541  1
  Na  Na3  1  0.660584  0.169416  0.932459  1
  Pd  Pd4  1  0.928202  0.926521  0.782560  1
  Pd  Pd5  1  0.071798  0.073479  0.217440  1
  Pd  Pd6  1  0.356137  0.358006  0.075254  1
  Pd  Pd7  1  0.643863  0.641994  0.924746  1
  Pd  Pd8  1  0.218162  0.215335  0.643605  1
  Pd  Pd9  1  0.781838  0.784665  0.356395  1
  O  O10  1  0.552403  0.350618  0.722760  1
  O  O11  1  0.447597  0.649382  0.277240  1
  O  O12  1  0.876740  0.061737  0.582412  1
  O  O13  1  0.123260  0.938263  0.417588  1
  O  O14  1  0.311324  0.494392  0.868789  1
  O  O15  1  0.688676  0.505608  0.131211  1
  O  O16  1  0.872494  0.675945  0.563468  1
  O  O17  1  0.127506  0.324055  0.436532  1
  O  O18  1  0.975963  0.792634  0.982790  1
  O  O19  1  0.024037  0.207366  0.017210  1
  O  O20  1  0.390212  0.193240  0.247639  1
  O  O21  1  0.609788  0.806760  0.752361  1
  O  O22  1  0.730640  0.921620  0.151085  1
  O  O23  1  0.269360  0.078380  0.848915  1
