# generated using pymatgen
data_YPa3Ge4Ir3Rh
_symmetry_space_group_name_H-M   'P 1'
_cell_length_a   4.33866300
_cell_length_b   6.95957557
_cell_length_c   7.67233584
_cell_angle_alpha   90.46290339
_cell_angle_beta   90.00000000
_cell_angle_gamma   90.00000000
_symmetry_Int_Tables_number   1
_chemical_formula_structural   YPa3Ge4Ir3Rh
_chemical_formula_sum   'Y1 Pa3 Ge4 Ir3 Rh1'
_cell_volume   231.66056108
_cell_formula_units_Z   1
loop_
 _symmetry_equiv_pos_site_id
 _symmetry_equiv_pos_as_xyz
  1  'x, y, z'
loop_
 _atom_site_type_symbol
 _atom_site_label
 _atom_site_symmetry_multiplicity
 _atom_site_fract_x
 _atom_site_fract_y
 _atom_site_fract_z
 _atom_site_occupancy
  Y  Y0  1  0.750000  0.508619  0.797521  1
  Pa  Pa1  1  0.250000  0.993724  0.297932  1
  Pa  Pa2  1  0.250000  0.494963  0.204134  1
  Pa  Pa3  1  0.750000  0.007631  0.698734  1
  Ge  Ge4  1  0.250000  0.320351  0.590895  1
  Ge  Ge5  1  0.250000  0.815483  0.913759  1
  Ge  Ge6  1  0.750000  0.677544  0.418533  1
  Ge  Ge7  1  0.750000  0.187048  0.079917  1
  Ir  Ir8  1  0.250000  0.734351  0.581100  1
  Ir  Ir9  1  0.750000  0.778754  0.093714  1
  Ir  Ir10  1  0.750000  0.271594  0.410240  1
  Rh  Rh11  1  0.250000  0.209937  0.913520  1
