# generated using pymatgen
data_Y12Th4Mg4MnCo3
_symmetry_space_group_name_H-M   'P 1'
_cell_length_a   9.72125536
_cell_length_b   9.72139075
_cell_length_c   9.72124518
_cell_angle_alpha   59.48623627
_cell_angle_beta   59.48392311
_cell_angle_gamma   59.48598589
_symmetry_Int_Tables_number   1
_chemical_formula_structural   Y12Th4Mg4MnCo3
_chemical_formula_sum   'Y12 Th4 Mg4 Mn1 Co3'
_cell_volume   642.01373597
_cell_formula_units_Z   1
loop_
 _symmetry_equiv_pos_site_id
 _symmetry_equiv_pos_as_xyz
  1  'x, y, z'
loop_
 _atom_site_type_symbol
 _atom_site_label
 _atom_site_symmetry_multiplicity
 _atom_site_fract_x
 _atom_site_fract_y
 _atom_site_fract_z
 _atom_site_occupancy
  Y  Y0  1  0.813485  0.186858  0.186855  1
  Y  Y1  1  0.186169  0.812901  0.812899  1
  Y  Y2  1  0.186843  0.813510  0.186860  1
  Y  Y3  1  0.812884  0.186193  0.812903  1
  Y  Y4  1  0.186842  0.186863  0.813497  1
  Y  Y5  1  0.812889  0.812901  0.186181  1
  Y  Y6  1  0.936417  0.563543  0.563532  1
  Y  Y7  1  0.559905  0.936615  0.936617  1
  Y  Y8  1  0.563546  0.936404  0.563554  1
  Y  Y9  1  0.936631  0.559876  0.936632  1
  Y  Y10  1  0.563533  0.563554  0.936411  1
  Y  Y11  1  0.936626  0.936621  0.559900  1
  Th  Th12  1  0.344093  0.344050  0.344068  1
  Th  Th13  1  0.342618  0.342590  0.970196  1
  Th  Th14  1  0.342622  0.970198  0.342597  1
  Th  Th15  1  0.970181  0.342599  0.342606  1
  Mg  Mg16  1  0.579014  0.579031  0.579024  1
  Mg  Mg17  1  0.578629  0.578654  0.260053  1
  Mg  Mg18  1  0.578629  0.260051  0.578643  1
  Mg  Mg19  1  0.260052  0.578648  0.578636  1
  Mn  Mn20  1  0.148136  0.148168  0.148142  1
  Co  Co21  1  0.147155  0.147145  0.565894  1
  Co  Co22  1  0.147173  0.565887  0.147160  1
  Co  Co23  1  0.565927  0.147138  0.147137  1
