# generated using pymatgen
data_MgTl3(NO3)8
_symmetry_space_group_name_H-M   'P 1'
_cell_length_a   8.08258984
_cell_length_b   8.61775089
_cell_length_c   8.12964133
_cell_angle_alpha   91.32636448
_cell_angle_beta   87.99458354
_cell_angle_gamma   86.93248745
_symmetry_Int_Tables_number   1
_chemical_formula_structural   MgTl3(NO3)8
_chemical_formula_sum   'Mg1 Tl3 N8 O24'
_cell_volume   564.92466403
_cell_formula_units_Z   1
loop_
 _symmetry_equiv_pos_site_id
 _symmetry_equiv_pos_as_xyz
  1  'x, y, z'
loop_
 _atom_site_type_symbol
 _atom_site_label
 _atom_site_symmetry_multiplicity
 _atom_site_fract_x
 _atom_site_fract_y
 _atom_site_fract_z
 _atom_site_occupancy
  Mg  Mg0  1  0.000000  0.000000  0.500000  1
  Tl  Tl1  1  0.500000  0.500000  0.500000  1
  Tl  Tl2  1  0.500000  0.000000  0.000000  1
  Tl  Tl3  1  0.000000  0.500000  0.000000  1
  N  N4  1  0.682707  0.117171  0.308636  1
  N  N5  1  0.678949  0.301688  0.874579  1
  N  N6  1  0.841324  0.838611  0.798947  1
  N  N7  1  0.845510  0.712264  0.365137  1
  N  N8  1  0.158676  0.161389  0.201053  1
  N  N9  1  0.154490  0.287736  0.634863  1
  N  N10  1  0.321051  0.698312  0.125421  1
  N  N11  1  0.317293  0.882829  0.691364  1
  O  O12  1  0.554303  0.215287  0.844345  1
  O  O13  1  0.570890  0.219168  0.290852  1
  O  O14  1  0.692939  0.420025  0.791145  1
  O  O15  1  0.699239  0.998481  0.207367  1
  O  O16  1  0.732742  0.742503  0.471666  1
  O  O17  1  0.729626  0.822722  0.912311  1
  O  O18  1  0.777216  0.263421  0.984204  1
  O  O19  1  0.783205  0.124598  0.423787  1
  O  O20  1  0.840529  0.960370  0.714967  1
  O  O21  1  0.830805  0.597325  0.265731  1
  O  O22  1  0.950055  0.730846  0.773694  1
  O  O23  1  0.972496  0.792398  0.354840  1
  O  O24  1  0.027504  0.207602  0.645160  1
  O  O25  1  0.049945  0.269154  0.226306  1
  O  O26  1  0.169195  0.402675  0.734269  1
  O  O27  1  0.159471  0.039630  0.285033  1
  O  O28  1  0.222784  0.736579  0.015796  1
  O  O29  1  0.216795  0.875402  0.576213  1
  O  O30  1  0.270374  0.177278  0.087689  1
  O  O31  1  0.267258  0.257497  0.528334  1
  O  O32  1  0.307061  0.579975  0.208855  1
  O  O33  1  0.300761  0.001519  0.792633  1
  O  O34  1  0.429110  0.780832  0.709148  1
  O  O35  1  0.445697  0.784713  0.155655  1
