# generated using pymatgen
data_Hg3BiPtRh3O14
_symmetry_space_group_name_H-M   'P 1'
_cell_length_a   7.35546478
_cell_length_b   7.35546426
_cell_length_c   7.35546608
_cell_angle_alpha   59.10691088
_cell_angle_beta   59.10691299
_cell_angle_gamma   59.10691388
_symmetry_Int_Tables_number   1
_chemical_formula_structural   Hg3BiPtRh3O14
_chemical_formula_sum   'Hg3 Bi1 Pt1 Rh3 O14'
_cell_volume   275.66547112
_cell_formula_units_Z   1
loop_
 _symmetry_equiv_pos_site_id
 _symmetry_equiv_pos_as_xyz
  1  'x, y, z'
loop_
 _atom_site_type_symbol
 _atom_site_label
 _atom_site_symmetry_multiplicity
 _atom_site_fract_x
 _atom_site_fract_y
 _atom_site_fract_z
 _atom_site_occupancy
  Hg  Hg0  1  0.125000  0.625000  0.125000  1
  Hg  Hg1  1  0.625000  0.125000  0.125000  1
  Hg  Hg2  1  0.125000  0.125000  0.625000  1
  Bi  Bi3  1  0.125000  0.125000  0.125000  1
  Pt  Pt4  1  0.625000  0.625000  0.625000  1
  Rh  Rh5  1  0.625000  0.625000  0.125000  1
  Rh  Rh6  1  0.125000  0.625000  0.625000  1
  Rh  Rh7  1  0.625000  0.125000  0.625000  1
  O  O8  1  0.251267  0.251267  0.251267  1
  O  O9  1  0.296512  0.714406  0.296512  1
  O  O10  1  0.953488  0.953488  0.535594  1
  O  O11  1  0.548701  0.954773  0.548701  1
  O  O12  1  0.701299  0.701299  0.295227  1
  O  O13  1  0.954773  0.548701  0.548701  1
  O  O14  1  0.701299  0.295227  0.701299  1
  O  O15  1  0.296512  0.296512  0.714406  1
  O  O16  1  0.714406  0.296512  0.296512  1
  O  O17  1  0.295227  0.701299  0.701299  1
  O  O18  1  0.953488  0.535594  0.953488  1
  O  O19  1  0.548701  0.548701  0.954773  1
  O  O20  1  0.998733  0.998733  0.998733  1
  O  O21  1  0.535594  0.953488  0.953488  1
