# generated using pymatgen
data_Pu4Al7Ga5
_symmetry_space_group_name_H-M   'P 1'
_cell_length_a   6.06550455
_cell_length_b   6.06524746
_cell_length_c   9.62779711
_cell_angle_alpha   89.93605885
_cell_angle_beta   90.04082583
_cell_angle_gamma   120.02353781
_symmetry_Int_Tables_number   1
_chemical_formula_structural   Pu4Al7Ga5
_chemical_formula_sum   'Pu4 Al7 Ga5'
_cell_volume   306.66886482
_cell_formula_units_Z   1
loop_
 _symmetry_equiv_pos_site_id
 _symmetry_equiv_pos_as_xyz
  1  'x, y, z'
loop_
 _atom_site_type_symbol
 _atom_site_label
 _atom_site_symmetry_multiplicity
 _atom_site_fract_x
 _atom_site_fract_y
 _atom_site_fract_z
 _atom_site_occupancy
  Pu  Pu0  1  0.000560  0.000832  0.501080  1
  Pu  Pu1  1  0.000504  0.000443  0.998782  1
  Pu  Pu2  1  0.332481  0.665164  0.250080  1
  Pu  Pu3  1  0.666966  0.334841  0.749903  1
  Al  Al4  1  0.501321  0.501389  0.499109  1
  Al  Al5  1  0.500296  0.000262  0.500266  1
  Al  Al6  1  0.999681  0.500975  0.499312  1
  Al  Al7  1  0.501354  0.501122  0.000979  1
  Al  Al8  1  0.500439  0.000462  0.999773  1
  Al  Al9  1  0.999579  0.500673  0.000803  1
  Al  Al10  1  0.820833  0.641825  0.249309  1
  Ga  Ga11  1  0.353445  0.174649  0.249128  1
  Ga  Ga12  1  0.821599  0.174676  0.249029  1
  Ga  Ga13  1  0.177825  0.356357  0.751097  1
  Ga  Ga14  1  0.644198  0.823478  0.750800  1
  Ga  Ga15  1  0.178921  0.822851  0.750549  1
