# generated using pymatgen
data_AcHo3(Si5Os3)2
_symmetry_space_group_name_H-M   'P 1'
_cell_length_a   8.20692405
_cell_length_b   8.19188564
_cell_length_c   5.84731238
_cell_angle_alpha   70.70244754
_cell_angle_beta   70.27032131
_cell_angle_gamma   93.86513210
_symmetry_Int_Tables_number   1
_chemical_formula_structural   AcHo3(Si5Os3)2
_chemical_formula_sum   'Ac1 Ho3 Si10 Os6'
_cell_volume   342.08771563
_cell_formula_units_Z   1
loop_
 _symmetry_equiv_pos_site_id
 _symmetry_equiv_pos_as_xyz
  1  'x, y, z'
loop_
 _atom_site_type_symbol
 _atom_site_label
 _atom_site_symmetry_multiplicity
 _atom_site_fract_x
 _atom_site_fract_y
 _atom_site_fract_z
 _atom_site_occupancy
  Ac  Ac0  1  0.866258  0.603067  0.756469  1
  Ho  Ho1  1  0.401094  0.130384  0.746252  1
  Ho  Ho2  1  0.132392  0.397517  0.245520  1
  Ho  Ho3  1  0.601548  0.866326  0.254704  1
  Si  Si4  1  0.071684  0.260274  0.834055  1
  Si  Si5  1  0.735325  0.943267  0.663717  1
  Si  Si6  1  0.936581  0.742684  0.163604  1
  Si  Si7  1  0.259428  0.065722  0.334023  1
  Si  Si8  1  0.214276  0.798959  0.746497  1
  Si  Si9  1  0.790121  0.205931  0.252693  1
  Si  Si10  1  0.505201  0.482531  0.753945  1
  Si  Si11  1  0.482562  0.509182  0.254352  1
  Si  Si12  1  0.770507  0.219456  0.750283  1
  Si  Si13  1  0.233309  0.773469  0.244056  1
  Os  Os14  1  0.257323  0.543714  0.633997  1
  Os  Os15  1  0.458174  0.742873  0.865752  1
  Os  Os16  1  0.741709  0.456456  0.370781  1
  Os  Os17  1  0.540556  0.250896  0.132077  1
  Os  Os18  1  0.004343  0.000664  0.749138  1
  Os  Os19  1  0.997609  0.006628  0.248082  1
