# generated using pymatgen
data_YMg3Ge6Ir7
_symmetry_space_group_name_H-M   'P 1'
_cell_length_a   6.99527754
_cell_length_b   7.16920236
_cell_length_c   7.16920292
_cell_angle_alpha   109.95743464
_cell_angle_beta   108.98051998
_cell_angle_gamma   108.98051519
_symmetry_Int_Tables_number   1
_chemical_formula_structural   YMg3Ge6Ir7
_chemical_formula_sum   'Y1 Mg3 Ge6 Ir7'
_cell_volume   278.43194719
_cell_formula_units_Z   1
loop_
 _symmetry_equiv_pos_site_id
 _symmetry_equiv_pos_as_xyz
  1  'x, y, z'
loop_
 _atom_site_type_symbol
 _atom_site_label
 _atom_site_symmetry_multiplicity
 _atom_site_fract_x
 _atom_site_fract_y
 _atom_site_fract_z
 _atom_site_occupancy
  Y  Y0  1  0.500000  0.000000  0.000000  1
  Mg  Mg1  1  0.500000  0.500000  0.500000  1
  Mg  Mg2  1  0.000000  0.000000  0.500000  1
  Mg  Mg3  1  0.000000  0.500000  0.000000  1
  Ge  Ge4  1  0.008067  0.314867  0.314867  1
  Ge  Ge5  1  0.991933  0.685133  0.685133  1
  Ge  Ge6  1  0.306800  0.000000  0.314867  1
  Ge  Ge7  1  0.693200  0.000000  0.685133  1
  Ge  Ge8  1  0.306800  0.314867  0.000000  1
  Ge  Ge9  1  0.693200  0.685133  0.000000  1
  Ir  Ir10  1  0.500000  0.746020  0.253980  1
  Ir  Ir11  1  0.500000  0.253980  0.746020  1
  Ir  Ir12  1  0.246020  0.492040  0.746020  1
  Ir  Ir13  1  0.753980  0.507960  0.253980  1
  Ir  Ir14  1  0.753980  0.253980  0.507960  1
  Ir  Ir15  1  0.246020  0.746020  0.492040  1
  Ir  Ir16  1  0.000000  0.000000  0.000000  1
