# generated using pymatgen
data_Tl(SnAs)2
_symmetry_space_group_name_H-M   'P 1'
_cell_length_a   4.15701583
_cell_length_b   4.15701597
_cell_length_c   9.72301317
_cell_angle_alpha   77.65649622
_cell_angle_beta   102.34350411
_cell_angle_gamma   119.99999644
_symmetry_Int_Tables_number   1
_chemical_formula_structural   Tl(SnAs)2
_chemical_formula_sum   'Tl1 Sn2 As2'
_cell_volume   141.00793507
_cell_formula_units_Z   1
loop_
 _symmetry_equiv_pos_site_id
 _symmetry_equiv_pos_as_xyz
  1  'x, y, z'
loop_
 _atom_site_type_symbol
 _atom_site_label
 _atom_site_symmetry_multiplicity
 _atom_site_fract_x
 _atom_site_fract_y
 _atom_site_fract_z
 _atom_site_occupancy
  Tl  Tl0  1  0.000000  0.000000  0.000000  1
  Sn  Sn1  1  0.790029  0.209972  0.370086  1
  Sn  Sn2  1  0.209972  0.790028  0.629914  1
  As  As3  1  0.408680  0.591319  0.226041  1
  As  As4  1  0.591321  0.408679  0.773959  1
