# generated using pymatgen
data_Pm4Mn(NiO4)3
_symmetry_space_group_name_H-M   'P 1'
_cell_length_a   5.39597280
_cell_length_b   5.57213009
_cell_length_c   7.69210978
_cell_angle_alpha   90.22142898
_cell_angle_beta   90.01294353
_cell_angle_gamma   90.13545893
_symmetry_Int_Tables_number   1
_chemical_formula_structural   Pm4Mn(NiO4)3
_chemical_formula_sum   'Pm4 Mn1 Ni3 O12'
_cell_volume   231.27676469
_cell_formula_units_Z   1
loop_
 _symmetry_equiv_pos_site_id
 _symmetry_equiv_pos_as_xyz
  1  'x, y, z'
loop_
 _atom_site_type_symbol
 _atom_site_label
 _atom_site_symmetry_multiplicity
 _atom_site_fract_x
 _atom_site_fract_y
 _atom_site_fract_z
 _atom_site_occupancy
  Pm  Pm0  1  0.986551  0.059968  0.252396  1
  Pm  Pm1  1  0.514014  0.556443  0.252996  1
  Pm  Pm2  1  0.485986  0.443558  0.747003  1
  Pm  Pm3  1  0.013450  0.940032  0.747603  1
  Mn  Mn4  1  0.499999  0.000000  0.000000  1
  Ni  Ni5  1  0.000000  0.500000  0.000000  1
  Ni  Ni6  1  0.499999  0.000000  0.500000  1
  Ni  Ni7  1  0.000000  0.500000  0.500000  1
  O  O8  1  0.695295  0.286898  0.047699  1
  O  O9  1  0.787223  0.802811  0.045654  1
  O  O10  1  0.087227  0.479304  0.255008  1
  O  O11  1  0.412811  0.978665  0.242748  1
  O  O12  1  0.710647  0.299516  0.454680  1
  O  O13  1  0.799767  0.789520  0.453932  1
  O  O14  1  0.200231  0.210480  0.546068  1
  O  O15  1  0.289354  0.700485  0.545320  1
  O  O16  1  0.587190  0.021336  0.757251  1
  O  O17  1  0.912773  0.520698  0.744991  1
  O  O18  1  0.212775  0.197189  0.954346  1
  O  O19  1  0.304706  0.713103  0.952301  1
