# generated using pymatgen
data_NdYCu2(TeO6)2
_symmetry_space_group_name_H-M   'P 1'
_cell_length_a   5.17071102
_cell_length_b   5.17105099
_cell_length_c   10.07540800
_cell_angle_alpha   90.00537385
_cell_angle_beta   89.99531281
_cell_angle_gamma   120.00260409
_symmetry_Int_Tables_number   1
_chemical_formula_structural   NdYCu2(TeO6)2
_chemical_formula_sum   'Nd1 Y1 Cu2 Te2 O12'
_cell_volume   233.29797085
_cell_formula_units_Z   1
loop_
 _symmetry_equiv_pos_site_id
 _symmetry_equiv_pos_as_xyz
  1  'x, y, z'
loop_
 _atom_site_type_symbol
 _atom_site_label
 _atom_site_symmetry_multiplicity
 _atom_site_fract_x
 _atom_site_fract_y
 _atom_site_fract_z
 _atom_site_occupancy
  Nd  Nd0  1  0.000005  0.999994  0.499998  1
  Y  Y1  1  0.999995  0.999990  0.999999  1
  Cu  Cu2  1  0.333268  0.666655  0.245180  1
  Cu  Cu3  1  0.666732  0.333341  0.754823  1
  Te  Te4  1  0.666612  0.333321  0.244851  1
  Te  Te5  1  0.333387  0.666679  0.755147  1
  O  O6  1  0.647110  0.636189  0.137236  1
  O  O7  1  0.989034  0.352791  0.137252  1
  O  O8  1  0.363696  0.010879  0.137258  1
  O  O9  1  0.376128  0.367479  0.355519  1
  O  O10  1  0.991221  0.623863  0.355502  1
  O  O11  1  0.632508  0.008767  0.355532  1
  O  O12  1  0.367508  0.991235  0.644462  1
  O  O13  1  0.008798  0.376165  0.644480  1
  O  O14  1  0.623900  0.632552  0.644489  1
  O  O15  1  0.636272  0.989097  0.862758  1
  O  O16  1  0.010970  0.647208  0.862750  1
  O  O17  1  0.352852  0.363792  0.862760  1
