# generated using pymatgen
data_PaCu2Ni2Pd
_symmetry_space_group_name_H-M   'P 1'
_cell_length_a   4.92818282
_cell_length_b   4.92818231
_cell_length_c   5.05305600
_cell_angle_alpha   59.15820233
_cell_angle_beta   59.15820591
_cell_angle_gamma   59.19811444
_symmetry_Int_Tables_number   1
_chemical_formula_structural   PaCu2Ni2Pd
_chemical_formula_sum   'Pa1 Cu2 Ni2 Pd1'
_cell_volume   85.14026568
_cell_formula_units_Z   1
loop_
 _symmetry_equiv_pos_site_id
 _symmetry_equiv_pos_as_xyz
  1  'x, y, z'
loop_
 _atom_site_type_symbol
 _atom_site_label
 _atom_site_symmetry_multiplicity
 _atom_site_fract_x
 _atom_site_fract_y
 _atom_site_fract_z
 _atom_site_occupancy
  Pa  Pa0  1  0.257523  0.257523  0.242477  1
  Cu  Cu1  1  0.623814  0.118935  0.628625  1
  Cu  Cu2  1  0.118935  0.623814  0.628625  1
  Ni  Ni3  1  0.623340  0.623340  0.624905  1
  Ni  Ni4  1  0.623340  0.623340  0.128415  1
  Pd  Pd5  1  0.003047  0.003047  0.996953  1
