# generated using pymatgen
data_NdTm7(CdPt)2
_symmetry_space_group_name_H-M   'P 1'
_cell_length_a   9.62425770
_cell_length_b   9.62425874
_cell_length_c   9.60041800
_cell_angle_alpha   60.08190284
_cell_angle_beta   60.08189927
_cell_angle_gamma   59.83618348
_symmetry_Int_Tables_number   1
_chemical_formula_structural   NdTm7(CdPt)2
_chemical_formula_sum   'Nd2 Tm14 Cd4 Pt4'
_cell_volume   628.78810042
_cell_formula_units_Z   2
loop_
 _symmetry_equiv_pos_site_id
 _symmetry_equiv_pos_as_xyz
  1  'x, y, z'
loop_
 _atom_site_type_symbol
 _atom_site_label
 _atom_site_symmetry_multiplicity
 _atom_site_fract_x
 _atom_site_fract_y
 _atom_site_fract_z
 _atom_site_occupancy
  Nd  Nd0  1  0.568403  0.568403  0.931597  1
  Nd  Nd1  1  0.931597  0.931597  0.568403  1
  Tm  Tm2  1  0.351674  0.351674  0.351833  1
  Tm  Tm3  1  0.351674  0.351674  0.944818  1
  Tm  Tm4  1  0.351833  0.944818  0.351674  1
  Tm  Tm5  1  0.944818  0.351833  0.351674  1
  Tm  Tm6  1  0.810606  0.189394  0.189394  1
  Tm  Tm7  1  0.189394  0.810606  0.810606  1
  Tm  Tm8  1  0.189394  0.810606  0.189394  1
  Tm  Tm9  1  0.810606  0.189394  0.810606  1
  Tm  Tm10  1  0.189093  0.189093  0.810907  1
  Tm  Tm11  1  0.810907  0.810907  0.189093  1
  Tm  Tm12  1  0.938425  0.561575  0.561575  1
  Tm  Tm13  1  0.561575  0.938425  0.938425  1
  Tm  Tm14  1  0.561575  0.938425  0.561575  1
  Tm  Tm15  1  0.938425  0.561575  0.938425  1
  Cd  Cd16  1  0.583022  0.583022  0.577837  1
  Cd  Cd17  1  0.583022  0.583022  0.256120  1
  Cd  Cd18  1  0.577837  0.256120  0.583022  1
  Cd  Cd19  1  0.256120  0.577837  0.583022  1
  Pt  Pt20  1  0.144386  0.144386  0.140530  1
  Pt  Pt21  1  0.144386  0.144386  0.570697  1
  Pt  Pt22  1  0.140530  0.570697  0.144386  1
  Pt  Pt23  1  0.570697  0.140530  0.144386  1
