# generated using pymatgen
data_Sr3SmAl18OsPd5
_symmetry_space_group_name_H-M   'P 1'
_cell_length_a   7.73559650
_cell_length_b   7.73216376
_cell_length_c   9.71770811
_cell_angle_alpha   90.03764113
_cell_angle_beta   90.12208785
_cell_angle_gamma   119.40985169
_symmetry_Int_Tables_number   1
_chemical_formula_structural   Sr3SmAl18OsPd5
_chemical_formula_sum   'Sr3 Sm1 Al18 Os1 Pd5'
_cell_volume   506.33686930
_cell_formula_units_Z   1
loop_
 _symmetry_equiv_pos_site_id
 _symmetry_equiv_pos_as_xyz
  1  'x, y, z'
loop_
 _atom_site_type_symbol
 _atom_site_label
 _atom_site_symmetry_multiplicity
 _atom_site_fract_x
 _atom_site_fract_y
 _atom_site_fract_z
 _atom_site_occupancy
  Sr  Sr0  1  0.993582  0.670603  0.248928  1
  Sr  Sr1  1  0.004633  0.329795  0.749859  1
  Sr  Sr2  1  0.671668  0.994246  0.249928  1
  Sm  Sm3  1  0.329029  0.001087  0.751778  1
  Al  Al4  1  0.135817  0.137030  0.249169  1
  Al  Al5  1  0.869469  0.866901  0.750726  1
  Al  Al6  1  0.996636  0.334609  0.070888  1
  Al  Al7  1  0.993051  0.658991  0.924405  1
  Al  Al8  1  0.997082  0.667162  0.577839  1
  Al  Al9  1  0.334830  0.005953  0.426860  1
  Al  Al10  1  0.006646  0.336023  0.426698  1
  Al  Al11  1  0.663152  0.995859  0.577377  1
  Al  Al12  1  0.665189  0.003430  0.925341  1
  Al  Al13  1  0.341525  0.008452  0.071191  1
  Al  Al14  1  0.335555  0.333746  0.553881  1
  Al  Al15  1  0.662397  0.662830  0.455353  1
  Al  Al16  1  0.665103  0.660421  0.038512  1
  Al  Al17  1  0.337155  0.331636  0.953002  1
  Al  Al18  1  0.338893  0.541761  0.249231  1
  Al  Al19  1  0.654563  0.450977  0.754079  1
  Al  Al20  1  0.543862  0.340130  0.244479  1
  Al  Al21  1  0.460538  0.667147  0.751037  1
  Os  Os22  1  0.668530  0.328037  0.997844  1
  Pd  Pd23  1  0.328841  0.671302  0.997819  1
  Pd  Pd24  1  0.328839  0.671612  0.502326  1
  Pd  Pd25  1  0.669971  0.328991  0.501612  1
  Pd  Pd26  1  0.001887  0.000605  0.997711  1
  Pd  Pd27  1  0.001556  0.000668  0.502126  1
