# generated using pymatgen
data_Ti18ReSi16Os
_symmetry_space_group_name_H-M   'P 1'
_cell_length_a   6.66125413
_cell_length_b   6.65235574
_cell_length_c   12.13829627
_cell_angle_alpha   89.92512748
_cell_angle_beta   90.24258148
_cell_angle_gamma   89.96445384
_symmetry_Int_Tables_number   1
_chemical_formula_structural   Ti18ReSi16Os
_chemical_formula_sum   'Ti18 Re1 Si16 Os1'
_cell_volume   537.87932782
_cell_formula_units_Z   1
loop_
 _symmetry_equiv_pos_site_id
 _symmetry_equiv_pos_as_xyz
  1  'x, y, z'
loop_
 _atom_site_type_symbol
 _atom_site_label
 _atom_site_symmetry_multiplicity
 _atom_site_fract_x
 _atom_site_fract_y
 _atom_site_fract_z
 _atom_site_occupancy
  Ti  Ti0  1  0.996880  0.148150  0.623817  1
  Ti  Ti1  1  0.353485  0.499852  0.872113  1
  Ti  Ti2  1  0.650384  0.505756  0.370741  1
  Ti  Ti3  1  0.497388  0.351739  0.130239  1
  Ti  Ti4  1  0.503369  0.648320  0.626665  1
  Ti  Ti5  1  0.003427  0.848828  0.120464  1
  Ti  Ti6  1  0.147317  0.998357  0.376857  1
  Ti  Ti7  1  0.848178  0.005149  0.879138  1
  Ti  Ti8  1  0.998783  0.340477  0.222979  1
  Ti  Ti9  1  0.155205  0.502060  0.470277  1
  Ti  Ti10  1  0.837311  0.501240  0.971716  1
  Ti  Ti11  1  0.500157  0.156879  0.529439  1
  Ti  Ti12  1  0.501853  0.838566  0.027376  1
  Ti  Ti13  1  0.999962  0.656820  0.720967  1
  Ti  Ti14  1  0.345302  0.001636  0.779325  1
  Ti  Ti15  1  0.661374  0.000168  0.277860  1
  Ti  Ti16  1  0.670246  0.327830  0.751873  1
  Ti  Ti17  1  0.829822  0.828420  0.498688  1
  Re  Re18  1  0.327081  0.670929  0.247255  1
  Si  Si19  1  0.046639  0.301155  0.816753  1
  Si  Si20  1  0.197313  0.540322  0.063325  1
  Si  Si21  1  0.802089  0.455271  0.565220  1
  Si  Si22  1  0.539712  0.198171  0.936609  1
  Si  Si23  1  0.454139  0.802015  0.434016  1
  Si  Si24  1  0.959178  0.697836  0.314329  1
  Si  Si25  1  0.302246  0.042851  0.184749  1
  Si  Si26  1  0.697846  0.955593  0.684852  1
  Si  Si27  1  0.293629  0.358337  0.673915  1
  Si  Si28  1  0.140428  0.795580  0.921691  1
  Si  Si29  1  0.856744  0.205932  0.424852  1
  Si  Si30  1  0.794267  0.141600  0.077405  1
  Si  Si31  1  0.206264  0.858477  0.576065  1
  Si  Si32  1  0.705836  0.642363  0.172552  1
  Si  Si33  1  0.358903  0.295394  0.328466  1
  Si  Si34  1  0.643711  0.705979  0.825010  1
  Os  Os35  1  0.173533  0.171946  0.002402  1
