# generated using pymatgen
data_Tb2Dy4SiBBr6
_symmetry_space_group_name_H-M   'P 1'
_cell_length_a   10.01371475
_cell_length_b   10.01437831
_cell_length_c   9.87306607
_cell_angle_alpha   109.43766418
_cell_angle_beta   109.44107493
_cell_angle_gamma   110.09831223
_symmetry_Int_Tables_number   1
_chemical_formula_structural   Tb2Dy4SiBBr6
_chemical_formula_sum   'Tb4 Dy8 Si2 B2 Br12'
_cell_volume   756.79492213
_cell_formula_units_Z   2
loop_
 _symmetry_equiv_pos_site_id
 _symmetry_equiv_pos_as_xyz
  1  'x, y, z'
loop_
 _atom_site_type_symbol
 _atom_site_label
 _atom_site_symmetry_multiplicity
 _atom_site_fract_x
 _atom_site_fract_y
 _atom_site_fract_z
 _atom_site_occupancy
  Tb  Tb0  1  0.227209  0.468058  0.495479  1
  Tb  Tb1  1  0.463309  0.492047  0.221683  1
  Tb  Tb2  1  0.768340  0.027480  0.495493  1
  Tb  Tb3  1  0.489391  0.239452  0.478932  1
  Dy  Dy4  1  0.260703  0.010749  0.021480  1
  Dy  Dy5  1  0.033048  0.273686  0.004551  1
  Dy  Dy6  1  0.471319  0.730852  0.004524  1
  Dy  Dy7  1  0.770901  0.241274  0.279042  1
  Dy  Dy8  1  0.008051  0.037599  0.279017  1
  Dy  Dy9  1  0.022414  0.477357  0.749840  1
  Dy  Dy10  1  0.227384  0.272580  0.749923  1
  Dy  Dy11  1  0.258622  0.729131  0.220776  1
  Si  Si12  1  0.500185  0.998868  0.248995  1
  Si  Si13  1  0.248319  0.249631  0.248946  1
  B  B14  1  0.000377  0.250460  0.500916  1
  B  B15  1  0.248975  0.499510  0.998505  1
  Br  Br16  1  0.756474  0.744041  0.249307  1
  Br  Br17  1  0.503997  0.250548  0.993839  1
  Br  Br18  1  0.248003  0.995181  0.505351  1
  Br  Br19  1  0.513860  0.507405  0.759689  1
  Br  Br20  1  0.993783  0.986686  0.742024  1
  Br  Br21  1  0.745611  0.995619  0.991265  1
  Br  Br22  1  0.504182  0.754881  0.509139  1
  Br  Br23  1  0.757664  0.510151  0.505741  1
  Br  Br24  1  0.993426  0.505877  0.249335  1
  Br  Br25  1  0.990437  0.743249  0.994502  1
  Br  Br26  1  0.248211  0.755329  0.742040  1
  Br  Br27  1  0.745808  0.252294  0.759664  1
