# generated using pymatgen
data_Tb6Er4In8PdAu3
_symmetry_space_group_name_H-M   'P 1'
_cell_length_a   3.66775300
_cell_length_b   8.22314731
_cell_length_c   18.36469175
_cell_angle_alpha   89.91919017
_cell_angle_beta   90.00000000
_cell_angle_gamma   90.00000000
_symmetry_Int_Tables_number   1
_chemical_formula_structural   Tb6Er4In8PdAu3
_chemical_formula_sum   'Tb6 Er4 In8 Pd1 Au3'
_cell_volume   553.88724266
_cell_formula_units_Z   1
loop_
 _symmetry_equiv_pos_site_id
 _symmetry_equiv_pos_as_xyz
  1  'x, y, z'
loop_
 _atom_site_type_symbol
 _atom_site_label
 _atom_site_symmetry_multiplicity
 _atom_site_fract_x
 _atom_site_fract_y
 _atom_site_fract_z
 _atom_site_occupancy
  Tb  Tb0  1  0.000000  0.500935  0.499308  1
  Tb  Tb1  1  0.000000  0.000672  0.000677  1
  Tb  Tb2  1  0.000000  0.744492  0.284960  1
  Tb  Tb3  1  0.000000  0.265325  0.714508  1
  Tb  Tb4  1  0.000000  0.764178  0.784347  1
  Tb  Tb5  1  0.000000  0.231106  0.218322  1
  Er  Er6  1  0.000000  0.620670  0.081603  1
  Er  Er7  1  0.000000  0.379665  0.920153  1
  Er  Er8  1  0.000000  0.879626  0.579644  1
  Er  Er9  1  0.000000  0.116120  0.415794  1
  In  In10  1  0.500000  0.706036  0.935892  1
  In  In11  1  0.500000  0.293315  0.066311  1
  In  In12  1  0.500000  0.795233  0.433711  1
  In  In13  1  0.500000  0.205813  0.562589  1
  In  In14  1  0.500000  0.583956  0.647156  1
  In  In15  1  0.500000  0.414663  0.351512  1
  In  In16  1  0.500000  0.918852  0.150022  1
  In  In17  1  0.500000  0.084297  0.852038  1
  Pd  Pd18  1  0.500000  0.026161  0.304723  1
  Au  Au19  1  0.500000  0.527790  0.197190  1
  Au  Au20  1  0.500000  0.470143  0.804536  1
  Au  Au21  1  0.500000  0.970952  0.695004  1
