# generated using pymatgen
data_Er2LuGaSn3Ir2
_symmetry_space_group_name_H-M   'P 1'
_cell_length_a   7.40468482
_cell_length_b   7.39730281
_cell_length_c   4.08706600
_cell_angle_alpha   90.00000000
_cell_angle_beta   90.00000000
_cell_angle_gamma   120.23784343
_symmetry_Int_Tables_number   1
_chemical_formula_structural   Er2LuGaSn3Ir2
_chemical_formula_sum   'Er2 Lu1 Ga1 Sn3 Ir2'
_cell_volume   193.40887557
_cell_formula_units_Z   1
loop_
 _symmetry_equiv_pos_site_id
 _symmetry_equiv_pos_as_xyz
  1  'x, y, z'
loop_
 _atom_site_type_symbol
 _atom_site_label
 _atom_site_symmetry_multiplicity
 _atom_site_fract_x
 _atom_site_fract_y
 _atom_site_fract_z
 _atom_site_occupancy
  Er  Er0  1  0.985453  0.396166  0.500000  1
  Er  Er1  1  0.603184  0.589156  0.500000  1
  Lu  Lu2  1  0.410544  0.017346  0.500000  1
  Ga  Ga3  1  0.333763  0.668762  0.000000  1
  Sn  Sn4  1  0.996020  0.742640  0.000000  1
  Sn  Sn5  1  0.256981  0.253022  0.000000  1
  Sn  Sn6  1  0.747241  0.003314  0.000000  1
  Ir  Ir7  1  0.664655  0.330112  0.000000  1
  Ir  Ir8  1  0.002158  0.999483  0.500000  1
