# generated using pymatgen
data_Ce10CuGeSb6
_symmetry_space_group_name_H-M   'P 1'
_cell_length_a   9.44208500
_cell_length_b   9.44208520
_cell_length_c   6.40762900
_cell_angle_alpha   90.00000000
_cell_angle_beta   90.00000000
_cell_angle_gamma   119.99999578
_symmetry_Int_Tables_number   1
_chemical_formula_structural   Ce10CuGeSb6
_chemical_formula_sum   'Ce10 Cu1 Ge1 Sb6'
_cell_volume   494.72496830
_cell_formula_units_Z   1
loop_
 _symmetry_equiv_pos_site_id
 _symmetry_equiv_pos_as_xyz
  1  'x, y, z'
loop_
 _atom_site_type_symbol
 _atom_site_label
 _atom_site_symmetry_multiplicity
 _atom_site_fract_x
 _atom_site_fract_y
 _atom_site_fract_z
 _atom_site_occupancy
  Ce  Ce0  1  0.666667  0.333333  0.000000  1
  Ce  Ce1  1  0.333333  0.666667  0.000000  1
  Ce  Ce2  1  0.333333  0.666667  0.500000  1
  Ce  Ce3  1  0.666667  0.333333  0.500000  1
  Ce  Ce4  1  0.737305  0.737305  0.750011  1
  Ce  Ce5  1  0.262695  0.000000  0.750011  1
  Ce  Ce6  1  0.000000  0.262695  0.750011  1
  Ce  Ce7  1  0.262695  0.262695  0.249989  1
  Ce  Ce8  1  0.737305  0.000000  0.249989  1
  Ce  Ce9  1  0.000000  0.737305  0.249989  1
  Cu  Cu10  1  0.000000  0.000000  0.000000  1
  Ge  Ge11  1  0.000000  0.000000  0.500000  1
  Sb  Sb12  1  0.381839  0.381839  0.750187  1
  Sb  Sb13  1  0.618161  0.000000  0.750187  1
  Sb  Sb14  1  0.000000  0.618161  0.750187  1
  Sb  Sb15  1  0.618161  0.618161  0.249813  1
  Sb  Sb16  1  0.381839  0.000000  0.249813  1
  Sb  Sb17  1  0.000000  0.381839  0.249813  1
