# generated using pymatgen
data_LaDy19(SnPb)8
_symmetry_space_group_name_H-M   'P 1'
_cell_length_a   8.08933951
_cell_length_b   8.20663166
_cell_length_c   15.52387500
_cell_angle_alpha   89.98482889
_cell_angle_beta   89.68724702
_cell_angle_gamma   89.91808653
_symmetry_Int_Tables_number   1
_chemical_formula_structural   LaDy19(SnPb)8
_chemical_formula_sum   'La1 Dy19 Sn8 Pb8'
_cell_volume   1030.55509176
_cell_formula_units_Z   1
loop_
 _symmetry_equiv_pos_site_id
 _symmetry_equiv_pos_as_xyz
  1  'x, y, z'
loop_
 _atom_site_type_symbol
 _atom_site_label
 _atom_site_symmetry_multiplicity
 _atom_site_fract_x
 _atom_site_fract_y
 _atom_site_fract_z
 _atom_site_occupancy
  La  La0  1  0.021217  0.178788  0.901409  1
  Dy  Dy1  1  0.368902  0.837871  0.875420  1
  Dy  Dy2  1  0.870505  0.661731  0.622427  1
  Dy  Dy3  1  0.629253  0.161132  0.376075  1
  Dy  Dy4  1  0.132307  0.339177  0.124652  1
  Dy  Dy5  1  0.631705  0.161356  0.124849  1
  Dy  Dy6  1  0.129238  0.338825  0.376429  1
  Dy  Dy7  1  0.371152  0.838680  0.623368  1
  Dy  Dy8  1  0.868777  0.661305  0.876010  1
  Dy  Dy9  1  0.525556  0.323706  0.898884  1
  Dy  Dy10  1  0.027581  0.177529  0.602029  1
  Dy  Dy11  1  0.473045  0.677177  0.398124  1
  Dy  Dy12  1  0.975383  0.821258  0.101680  1
  Dy  Dy13  1  0.475062  0.677487  0.101528  1
  Dy  Dy14  1  0.973157  0.822800  0.398269  1
  Dy  Dy15  1  0.526453  0.323065  0.600448  1
  Dy  Dy16  1  0.200857  0.503245  0.748995  1
  Dy  Dy17  1  0.700028  0.996579  0.748750  1
  Dy  Dy18  1  0.799643  0.497190  0.250302  1
  Dy  Dy19  1  0.300163  0.002955  0.250816  1
  Sn  Sn20  1  0.566127  0.620292  0.749613  1
  Sn  Sn21  1  0.065851  0.877933  0.748957  1
  Sn  Sn22  1  0.434069  0.380360  0.250349  1
  Sn  Sn23  1  0.934790  0.120131  0.250211  1
  Sn  Sn24  1  0.335332  0.149170  0.749255  1
  Sn  Sn25  1  0.829439  0.353820  0.747437  1
  Sn  Sn26  1  0.667510  0.850745  0.249909  1
  Sn  Sn27  1  0.167009  0.649374  0.249911  1
  Pb  Pb28  1  0.294278  0.034338  0.043471  1
  Pb  Pb29  1  0.787931  0.463669  0.458414  1
  Pb  Pb30  1  0.712266  0.964875  0.540967  1
  Pb  Pb31  1  0.211947  0.539740  0.959455  1
  Pb  Pb32  1  0.703817  0.957879  0.960259  1
  Pb  Pb33  1  0.211862  0.536528  0.540915  1
  Pb  Pb34  1  0.288262  0.036272  0.458814  1
  Pb  Pb35  1  0.789528  0.463020  0.041600  1
