# generated using pymatgen
data_Tb6Al24Fe3Os5
_symmetry_space_group_name_H-M   'P 1'
_cell_length_a   8.77883100
_cell_length_b   8.76875015
_cell_length_c   9.48947062
_cell_angle_alpha   90.17286499
_cell_angle_beta   90.00000000
_cell_angle_gamma   120.03803309
_symmetry_Int_Tables_number   1
_chemical_formula_structural   Tb6Al24Fe3Os5
_chemical_formula_sum   'Tb6 Al24 Fe3 Os5'
_cell_volume   632.37951704
_cell_formula_units_Z   1
loop_
 _symmetry_equiv_pos_site_id
 _symmetry_equiv_pos_as_xyz
  1  'x, y, z'
loop_
 _atom_site_type_symbol
 _atom_site_label
 _atom_site_symmetry_multiplicity
 _atom_site_fract_x
 _atom_site_fract_y
 _atom_site_fract_z
 _atom_site_occupancy
  Tb  Tb0  1  0.193945  0.387889  0.248232  1
  Tb  Tb1  1  0.806055  0.612111  0.751768  1
  Tb  Tb2  1  0.613869  0.806074  0.250109  1
  Tb  Tb3  1  0.386131  0.193926  0.749891  1
  Tb  Tb4  1  0.192205  0.806074  0.250109  1
  Tb  Tb5  1  0.807795  0.193926  0.749891  1
  Al  Al6  1  0.337136  0.674273  0.012396  1
  Al  Al7  1  0.662864  0.325727  0.987604  1
  Al  Al8  1  0.666463  0.332924  0.512440  1
  Al  Al9  1  0.333537  0.667076  0.487560  1
  Al  Al10  1  0.159509  0.319018  0.574273  1
  Al  Al11  1  0.840491  0.680982  0.425727  1
  Al  Al12  1  0.680698  0.840614  0.574629  1
  Al  Al13  1  0.839849  0.679699  0.074556  1
  Al  Al14  1  0.319302  0.159386  0.425371  1
  Al  Al15  1  0.160151  0.320301  0.925444  1
  Al  Al16  1  0.159917  0.840614  0.574629  1
  Al  Al17  1  0.320342  0.157805  0.073854  1
  Al  Al18  1  0.840083  0.159386  0.425371  1
  Al  Al19  1  0.679658  0.842195  0.926146  1
  Al  Al20  1  0.837462  0.157805  0.073854  1
  Al  Al21  1  0.162538  0.842195  0.926146  1
  Al  Al22  1  0.559228  0.118455  0.244798  1
  Al  Al23  1  0.440772  0.881545  0.755202  1
  Al  Al24  1  0.875628  0.437580  0.249650  1
  Al  Al25  1  0.124372  0.562420  0.750350  1
  Al  Al26  1  0.561953  0.437580  0.249650  1
  Al  Al27  1  0.438047  0.562420  0.750350  1
  Al  Al28  1  0.000298  0.000596  0.250072  1
  Al  Al29  1  0.999702  0.999404  0.749928  1
  Fe  Fe30  1  0.500000  0.000000  0.000000  1
  Fe  Fe31  1  0.000000  0.000000  0.000000  1
  Fe  Fe32  1  0.000000  0.000000  0.500000  1
  Os  Os33  1  0.000000  0.500000  0.000000  1
  Os  Os34  1  0.500000  0.000000  0.500000  1
  Os  Os35  1  0.500000  0.500000  0.000000  1
  Os  Os36  1  0.000000  0.500000  0.500000  1
  Os  Os37  1  0.500000  0.500000  0.500000  1
