# generated using pymatgen
data_Tb3Dy13(CdNi)4
_symmetry_space_group_name_H-M   'P 1'
_cell_length_a   9.53902176
_cell_length_b   9.53857178
_cell_length_c   9.53857200
_cell_angle_alpha   59.99999924
_cell_angle_beta   60.00155968
_cell_angle_gamma   60.00155845
_symmetry_Int_Tables_number   1
_chemical_formula_structural   Tb3Dy13(CdNi)4
_chemical_formula_sum   'Tb3 Dy13 Cd4 Ni4'
_cell_volume   613.71365670
_cell_formula_units_Z   1
loop_
 _symmetry_equiv_pos_site_id
 _symmetry_equiv_pos_as_xyz
  1  'x, y, z'
loop_
 _atom_site_type_symbol
 _atom_site_label
 _atom_site_symmetry_multiplicity
 _atom_site_fract_x
 _atom_site_fract_y
 _atom_site_fract_z
 _atom_site_occupancy
  Tb  Tb0  1  0.598622  0.598908  0.598908  1
  Tb  Tb1  1  0.598622  0.598908  0.203562  1
  Tb  Tb2  1  0.598622  0.203562  0.598908  1
  Dy  Dy3  1  0.203700  0.598767  0.598767  1
  Dy  Dy4  1  0.061310  0.438785  0.438785  1
  Dy  Dy5  1  0.438771  0.061324  0.061324  1
  Dy  Dy6  1  0.438771  0.061324  0.438580  1
  Dy  Dy7  1  0.061310  0.438785  0.061120  1
  Dy  Dy8  1  0.438771  0.438580  0.061324  1
  Dy  Dy9  1  0.061310  0.061120  0.438785  1
  Dy  Dy10  1  0.186109  0.813916  0.813916  1
  Dy  Dy11  1  0.813883  0.186107  0.186107  1
  Dy  Dy12  1  0.813883  0.186107  0.813904  1
  Dy  Dy13  1  0.186109  0.813916  0.186059  1
  Dy  Dy14  1  0.813883  0.813904  0.186107  1
  Dy  Dy15  1  0.186109  0.186059  0.813916  1
  Cd  Cd16  1  0.831450  0.831040  0.831040  1
  Cd  Cd17  1  0.831450  0.831040  0.506470  1
  Cd  Cd18  1  0.831450  0.506470  0.831040  1
  Cd  Cd19  1  0.506460  0.831180  0.831180  1
  Ni  Ni20  1  0.392185  0.392554  0.392554  1
  Ni  Ni21  1  0.392185  0.392554  0.822707  1
  Ni  Ni22  1  0.392185  0.822707  0.392554  1
  Ni  Ni23  1  0.822851  0.392383  0.392383  1
