# generated using pymatgen
data_Rb12AlGaAs6
_symmetry_space_group_name_H-M   'P 1'
_cell_length_a   6.07085800
_cell_length_b   10.31634551
_cell_length_c   11.85720837
_cell_angle_alpha   79.11468788
_cell_angle_beta   90.00000000
_cell_angle_gamma   90.00000000
_symmetry_Int_Tables_number   1
_chemical_formula_structural   Rb12AlGaAs6
_chemical_formula_sum   'Rb12 Al1 Ga1 As6'
_cell_volume   729.24432436
_cell_formula_units_Z   1
loop_
 _symmetry_equiv_pos_site_id
 _symmetry_equiv_pos_as_xyz
  1  'x, y, z'
loop_
 _atom_site_type_symbol
 _atom_site_label
 _atom_site_symmetry_multiplicity
 _atom_site_fract_x
 _atom_site_fract_y
 _atom_site_fract_z
 _atom_site_occupancy
  Rb  Rb0  1  0.750000  0.121375  0.322119  1
  Rb  Rb1  1  0.250000  0.877559  0.678162  1
  Rb  Rb2  1  0.750000  0.135838  0.977713  1
  Rb  Rb3  1  0.250000  0.864465  0.022864  1
  Rb  Rb4  1  0.750000  0.438586  0.461181  1
  Rb  Rb5  1  0.250000  0.561398  0.538808  1
  Rb  Rb6  1  0.750000  0.458711  0.076860  1
  Rb  Rb7  1  0.250000  0.541553  0.922987  1
  Rb  Rb8  1  0.750000  0.738553  0.225000  1
  Rb  Rb9  1  0.250000  0.260647  0.774887  1
  Rb  Rb10  1  0.750000  0.084302  0.630669  1
  Rb  Rb11  1  0.250000  0.915494  0.368957  1
  Al  Al12  1  0.250000  0.321997  0.279679  1
  Ga  Ga13  1  0.750000  0.678235  0.720221  1
  As  As14  1  0.750000  0.436185  0.773178  1
  As  As15  1  0.250000  0.562976  0.226995  1
  As  As16  1  0.750000  0.785763  0.514638  1
  As  As17  1  0.250000  0.214741  0.483886  1
  As  As18  1  0.750000  0.819102  0.873929  1
  As  As19  1  0.250000  0.182520  0.127266  1
