# generated using pymatgen
data_Np2Ta3Co9As7
_symmetry_space_group_name_H-M   'P 1'
_cell_length_a   3.83983100
_cell_length_b   9.60475076
_cell_length_c   9.60475100
_cell_angle_alpha   119.99999585
_cell_angle_beta   90.00000000
_cell_angle_gamma   90.00000000
_symmetry_Int_Tables_number   1
_chemical_formula_structural   Np2Ta3Co9As7
_chemical_formula_sum   'Np2 Ta3 Co9 As7'
_cell_volume   306.77147192
_cell_formula_units_Z   1
loop_
 _symmetry_equiv_pos_site_id
 _symmetry_equiv_pos_as_xyz
  1  'x, y, z'
loop_
 _atom_site_type_symbol
 _atom_site_label
 _atom_site_symmetry_multiplicity
 _atom_site_fract_x
 _atom_site_fract_y
 _atom_site_fract_z
 _atom_site_occupancy
  Np  Np0  1  0.000000  0.666667  0.333333  1
  Np  Np1  1  0.500000  0.333333  0.666667  1
  Ta  Ta2  1  0.500000  0.776155  0.897072  1
  Ta  Ta3  1  0.500000  0.120917  0.223845  1
  Ta  Ta4  1  0.500000  0.102928  0.879083  1
  Co  Co5  1  0.000000  0.574160  0.937314  1
  Co  Co6  1  0.000000  0.363153  0.425840  1
  Co  Co7  1  0.000000  0.062686  0.636847  1
  Co  Co8  1  0.000000  0.877696  0.157559  1
  Co  Co9  1  0.000000  0.279865  0.122304  1
  Co  Co10  1  0.000000  0.842441  0.720135  1
  Co  Co11  1  0.500000  0.949135  0.382051  1
  Co  Co12  1  0.500000  0.432915  0.050865  1
  Co  Co13  1  0.500000  0.617949  0.567085  1
  As  As14  1  0.000000  0.000000  0.000000  1
  As  As15  1  0.500000  0.707014  0.123080  1
  As  As16  1  0.500000  0.416066  0.292986  1
  As  As17  1  0.500000  0.876920  0.583934  1
  As  As18  1  0.000000  0.580602  0.689872  1
  As  As19  1  0.000000  0.109270  0.419398  1
  As  As20  1  0.000000  0.310128  0.890730  1
