# generated using pymatgen
data_Hf6Zr3NiMo4
_symmetry_space_group_name_H-M   'P 1'
_cell_length_a   8.45896000
_cell_length_b   8.72443409
_cell_length_c   8.72443361
_cell_angle_alpha   120.01257586
_cell_angle_beta   90.00000000
_cell_angle_gamma   90.00000000
_symmetry_Int_Tables_number   1
_chemical_formula_structural   Hf6Zr3NiMo4
_chemical_formula_sum   'Hf12 Zr6 Ni2 Mo8'
_cell_volume   557.52848683
_cell_formula_units_Z   2
loop_
 _symmetry_equiv_pos_site_id
 _symmetry_equiv_pos_as_xyz
  1  'x, y, z'
loop_
 _atom_site_type_symbol
 _atom_site_label
 _atom_site_symmetry_multiplicity
 _atom_site_fract_x
 _atom_site_fract_y
 _atom_site_fract_z
 _atom_site_occupancy
  Hf  Hf0  1  0.557843  0.800688  0.601353  1
  Hf  Hf1  1  0.557857  0.800697  0.199303  1
  Hf  Hf2  1  0.557843  0.398647  0.199312  1
  Hf  Hf3  1  0.442157  0.199312  0.398647  1
  Hf  Hf4  1  0.442143  0.199303  0.800697  1
  Hf  Hf5  1  0.442157  0.601353  0.800688  1
  Hf  Hf6  1  0.057843  0.199312  0.398647  1
  Hf  Hf7  1  0.057857  0.199303  0.800697  1
  Hf  Hf8  1  0.057843  0.601353  0.800688  1
  Hf  Hf9  1  0.942157  0.800688  0.601353  1
  Hf  Hf10  1  0.942143  0.800697  0.199303  1
  Hf  Hf11  1  0.942157  0.398647  0.199312  1
  Zr  Zr12  1  0.750000  0.457705  0.915391  1
  Zr  Zr13  1  0.750000  0.457687  0.542313  1
  Zr  Zr14  1  0.750000  0.084609  0.542295  1
  Zr  Zr15  1  0.250000  0.542295  0.084609  1
  Zr  Zr16  1  0.250000  0.542313  0.457687  1
  Zr  Zr17  1  0.250000  0.915391  0.457705  1
  Ni  Ni18  1  0.750000  0.666685  0.333315  1
  Ni  Ni19  1  0.250000  0.333315  0.666685  1
  Mo  Mo20  1  0.750000  0.111350  0.222616  1
  Mo  Mo21  1  0.750000  0.111315  0.888685  1
  Mo  Mo22  1  0.750000  0.777384  0.888650  1
  Mo  Mo23  1  0.250000  0.888650  0.777384  1
  Mo  Mo24  1  0.250000  0.888685  0.111315  1
  Mo  Mo25  1  0.250000  0.222616  0.111350  1
  Mo  Mo26  1  0.500000  0.000000  0.000000  1
  Mo  Mo27  1  0.000000  0.000000  0.000000  1
