# generated using pymatgen
data_LiY18Tm(Cd3Ni)2
_symmetry_space_group_name_H-M   'P 1'
_cell_length_a   9.58658500
_cell_length_b   9.58658549
_cell_length_c   9.67787100
_cell_angle_alpha   90.00000000
_cell_angle_beta   90.00000000
_cell_angle_gamma   119.99999486
_symmetry_Int_Tables_number   1
_chemical_formula_structural   LiY18Tm(Cd3Ni)2
_chemical_formula_sum   'Li1 Y18 Tm1 Cd6 Ni2'
_cell_volume   770.26179958
_cell_formula_units_Z   1
loop_
 _symmetry_equiv_pos_site_id
 _symmetry_equiv_pos_as_xyz
  1  'x, y, z'
loop_
 _atom_site_type_symbol
 _atom_site_label
 _atom_site_symmetry_multiplicity
 _atom_site_fract_x
 _atom_site_fract_y
 _atom_site_fract_z
 _atom_site_occupancy
  Li  Li0  1  0.000000  0.000000  0.500000  1
  Y  Y1  1  0.543533  0.456467  0.253662  1
  Y  Y2  1  0.543533  0.087065  0.253662  1
  Y  Y3  1  0.912935  0.456467  0.253662  1
  Y  Y4  1  0.456467  0.543533  0.746338  1
  Y  Y5  1  0.456467  0.912935  0.746338  1
  Y  Y6  1  0.087065  0.543533  0.746338  1
  Y  Y7  1  0.207633  0.792367  0.434491  1
  Y  Y8  1  0.207633  0.415267  0.434491  1
  Y  Y9  1  0.584733  0.792367  0.434491  1
  Y  Y10  1  0.792367  0.207633  0.565509  1
  Y  Y11  1  0.792367  0.584733  0.565509  1
  Y  Y12  1  0.415267  0.207633  0.565509  1
  Y  Y13  1  0.789560  0.210440  0.941766  1
  Y  Y14  1  0.789560  0.579118  0.941766  1
  Y  Y15  1  0.420882  0.210440  0.941766  1
  Y  Y16  1  0.210440  0.789560  0.058234  1
  Y  Y17  1  0.210440  0.420882  0.058234  1
  Y  Y18  1  0.579118  0.789560  0.058234  1
  Tm  Tm19  1  0.000000  0.000000  0.000000  1
  Cd  Cd20  1  0.888642  0.111358  0.258981  1
  Cd  Cd21  1  0.888642  0.777283  0.258981  1
  Cd  Cd22  1  0.222717  0.111358  0.258981  1
  Cd  Cd23  1  0.111358  0.888642  0.741019  1
  Cd  Cd24  1  0.111358  0.222717  0.741019  1
  Cd  Cd25  1  0.777283  0.888642  0.741019  1
  Ni  Ni26  1  0.333333  0.666667  0.249905  1
  Ni  Ni27  1  0.666667  0.333333  0.750095  1
