# generated using pymatgen
data_Er6Al24CoNiOs5Ru
_symmetry_space_group_name_H-M   'P 1'
_cell_length_a   8.75187300
_cell_length_b   8.69894830
_cell_length_c   9.41044200
_cell_angle_alpha   90.29049303
_cell_angle_beta   90.00000000
_cell_angle_gamma   120.20145933
_symmetry_Int_Tables_number   1
_chemical_formula_structural   Er6Al24CoNiOs5Ru
_chemical_formula_sum   'Er6 Al24 Co1 Ni1 Os5 Ru1'
_cell_volume   619.17828803
_cell_formula_units_Z   1
loop_
 _symmetry_equiv_pos_site_id
 _symmetry_equiv_pos_as_xyz
  1  'x, y, z'
loop_
 _atom_site_type_symbol
 _atom_site_label
 _atom_site_symmetry_multiplicity
 _atom_site_fract_x
 _atom_site_fract_y
 _atom_site_fract_z
 _atom_site_occupancy
  Er  Er0  1  0.195076  0.390153  0.248461  1
  Er  Er1  1  0.804924  0.609847  0.751539  1
  Er  Er2  1  0.612683  0.801705  0.250377  1
  Er  Er3  1  0.387317  0.198295  0.749623  1
  Er  Er4  1  0.189021  0.801705  0.250377  1
  Er  Er5  1  0.810979  0.198295  0.749623  1
  Al  Al6  1  0.335588  0.671175  0.019389  1
  Al  Al7  1  0.664412  0.328825  0.980611  1
  Al  Al8  1  0.666593  0.333185  0.516911  1
  Al  Al9  1  0.333407  0.666815  0.483089  1
  Al  Al10  1  0.160014  0.320028  0.575636  1
  Al  Al11  1  0.839986  0.679972  0.424364  1
  Al  Al12  1  0.680280  0.841345  0.577533  1
  Al  Al13  1  0.836889  0.673778  0.077157  1
  Al  Al14  1  0.319720  0.158655  0.422467  1
  Al  Al15  1  0.163111  0.326222  0.922843  1
  Al  Al16  1  0.161066  0.841345  0.577533  1
  Al  Al17  1  0.323696  0.161679  0.077467  1
  Al  Al18  1  0.838934  0.158655  0.422467  1
  Al  Al19  1  0.676304  0.838321  0.922533  1
  Al  Al20  1  0.837984  0.161679  0.077467  1
  Al  Al21  1  0.162016  0.838321  0.922533  1
  Al  Al22  1  0.558949  0.117900  0.245226  1
  Al  Al23  1  0.441051  0.882100  0.754774  1
  Al  Al24  1  0.874618  0.435728  0.248985  1
  Al  Al25  1  0.125382  0.564272  0.751015  1
  Al  Al26  1  0.561110  0.435728  0.248985  1
  Al  Al27  1  0.438890  0.564272  0.751015  1
  Al  Al28  1  0.999393  0.998787  0.256286  1
  Al  Al29  1  0.000607  0.001213  0.743714  1
  Co  Co30  1  0.000000  0.000000  0.500000  1
  Ni  Ni31  1  0.500000  0.000000  0.000000  1
  Os  Os32  1  0.000000  0.500000  0.000000  1
  Os  Os33  1  0.500000  0.000000  0.500000  1
  Os  Os34  1  0.500000  0.500000  0.000000  1
  Os  Os35  1  0.000000  0.500000  0.500000  1
  Os  Os36  1  0.500000  0.500000  0.500000  1
  Ru  Ru37  1  0.000000  0.000000  0.000000  1
