# generated using pymatgen
data_Er4Si(HgRh2)4
_symmetry_space_group_name_H-M   'P 1'
_cell_length_a   7.40348038
_cell_length_b   7.34675146
_cell_length_c   7.40348047
_cell_angle_alpha   108.54725429
_cell_angle_beta   111.63553049
_cell_angle_gamma   108.54726093
_symmetry_Int_Tables_number   1
_chemical_formula_structural   Er4Si(HgRh2)4
_chemical_formula_sum   'Er4 Si1 Hg4 Rh8'
_cell_volume   308.54612558
_cell_formula_units_Z   1
loop_
 _symmetry_equiv_pos_site_id
 _symmetry_equiv_pos_as_xyz
  1  'x, y, z'
loop_
 _atom_site_type_symbol
 _atom_site_label
 _atom_site_symmetry_multiplicity
 _atom_site_fract_x
 _atom_site_fract_y
 _atom_site_fract_z
 _atom_site_occupancy
  Er  Er0  1  0.990243  0.980485  0.490243  1
  Er  Er1  1  0.037088  0.524673  0.037088  1
  Er  Er2  1  0.490243  0.980485  0.990243  1
  Er  Er3  1  0.487585  0.524673  0.487585  1
  Si  Si4  1  0.001067  0.002134  0.001067  1
  Hg  Hg5  1  0.746016  0.245842  0.499826  1
  Hg  Hg6  1  0.748944  0.497889  0.248944  1
  Hg  Hg7  1  0.499826  0.245842  0.746016  1
  Hg  Hg8  1  0.248944  0.497889  0.748944  1
  Rh  Rh9  1  0.248441  0.754706  0.506265  1
  Rh  Rh10  1  0.506265  0.754706  0.248441  1
  Rh  Rh11  1  0.733630  0.726842  0.993213  1
  Rh  Rh12  1  0.275388  0.005662  0.275388  1
  Rh  Rh13  1  0.994618  0.262834  0.268216  1
  Rh  Rh14  1  0.268216  0.262834  0.994618  1
  Rh  Rh15  1  0.730274  0.005662  0.730274  1
  Rh  Rh16  1  0.993213  0.726842  0.733630  1
