# generated using pymatgen
data_SmDyY3(FeB3)2
_symmetry_space_group_name_H-M   'P 1'
_cell_length_a   5.44219959
_cell_length_b   5.44220000
_cell_length_c   8.29366762
_cell_angle_alpha   70.84690054
_cell_angle_beta   70.84689985
_cell_angle_gamma   59.99999285
_symmetry_Int_Tables_number   1
_chemical_formula_structural   SmDyY3(FeB3)2
_chemical_formula_sum   'Sm1 Dy1 Y3 Fe2 B6'
_cell_volume   196.87156656
_cell_formula_units_Z   1
loop_
 _symmetry_equiv_pos_site_id
 _symmetry_equiv_pos_as_xyz
  1  'x, y, z'
loop_
 _atom_site_type_symbol
 _atom_site_label
 _atom_site_symmetry_multiplicity
 _atom_site_fract_x
 _atom_site_fract_y
 _atom_site_fract_z
 _atom_site_occupancy
  Sm  Sm0  1  0.999976  0.999976  0.000073  1
  Dy  Dy1  1  0.583155  0.583155  0.250537  1
  Y  Y2  1  0.251033  0.251033  0.246902  1
  Y  Y3  1  0.748972  0.748972  0.753085  1
  Y  Y4  1  0.416704  0.416704  0.749887  1
  Fe  Fe5  1  0.117774  0.117774  0.646678  1
  Fe  Fe6  1  0.882242  0.882242  0.353274  1
  B  B7  1  0.167740  0.832316  0.499928  1
  B  B8  1  0.832316  0.500016  0.499928  1
  B  B9  1  0.500016  0.167740  0.499928  1
  B  B10  1  0.167740  0.500016  0.499928  1
  B  B11  1  0.500016  0.832316  0.499928  1
  B  B12  1  0.832316  0.167740  0.499928  1
