# generated using pymatgen
data_Dy4Y6AlSb5
_symmetry_space_group_name_H-M   'P 1'
_cell_length_a   6.34646300
_cell_length_b   8.99116351
_cell_length_c   8.95843181
_cell_angle_alpha   120.12107254
_cell_angle_beta   89.99978420
_cell_angle_gamma   90.00037048
_symmetry_Int_Tables_number   1
_chemical_formula_structural   Dy4Y6AlSb5
_chemical_formula_sum   'Dy4 Y6 Al1 Sb5'
_cell_volume   442.15967862
_cell_formula_units_Z   1
loop_
 _symmetry_equiv_pos_site_id
 _symmetry_equiv_pos_as_xyz
  1  'x, y, z'
loop_
 _atom_site_type_symbol
 _atom_site_label
 _atom_site_symmetry_multiplicity
 _atom_site_fract_x
 _atom_site_fract_y
 _atom_site_fract_z
 _atom_site_occupancy
  Dy  Dy0  1  0.501195  0.337919  0.672833  1
  Dy  Dy1  1  0.501195  0.665085  0.327166  1
  Dy  Dy2  1  0.998804  0.665089  0.327171  1
  Dy  Dy3  1  0.998805  0.337918  0.672829  1
  Y  Y4  1  0.749997  0.248052  0.000000  1
  Y  Y5  1  0.750002  0.753508  0.762088  1
  Y  Y6  1  0.750002  0.991422  0.237914  1
  Y  Y7  1  0.249998  0.757142  0.999999  1
  Y  Y8  1  0.250002  0.246060  0.245727  1
  Y  Y9  1  0.250002  0.000333  0.754274  1
  Al  Al10  1  0.750002  0.603969  0.000000  1
  Sb  Sb11  1  0.749999  0.388660  0.390486  1
  Sb  Sb12  1  0.749999  0.998174  0.609514  1
  Sb  Sb13  1  0.249997  0.392444  0.000000  1
  Sb  Sb14  1  0.250001  0.611251  0.608275  1
  Sb  Sb15  1  0.250001  0.002976  0.391725  1
