# generated using pymatgen
data_ErTm2Mg3Ga2Hg
_symmetry_space_group_name_H-M   'P 1'
_cell_length_a   7.33921504
_cell_length_b   7.33781458
_cell_length_c   4.37047000
_cell_angle_alpha   90.00000000
_cell_angle_beta   90.00000000
_cell_angle_gamma   119.99368169
_symmetry_Int_Tables_number   1
_chemical_formula_structural   ErTm2Mg3Ga2Hg
_chemical_formula_sum   'Er1 Tm2 Mg3 Ga2 Hg1'
_cell_volume   203.84626965
_cell_formula_units_Z   1
loop_
 _symmetry_equiv_pos_site_id
 _symmetry_equiv_pos_as_xyz
  1  'x, y, z'
loop_
 _atom_site_type_symbol
 _atom_site_label
 _atom_site_symmetry_multiplicity
 _atom_site_fract_x
 _atom_site_fract_y
 _atom_site_fract_z
 _atom_site_occupancy
  Er  Er0  1  0.000000  0.570892  0.000000  1
  Tm  Tm1  1  0.429099  0.429090  0.000000  1
  Tm  Tm2  1  0.570901  0.999991  0.000000  1
  Mg  Mg3  1  0.000000  0.248403  0.500000  1
  Mg  Mg4  1  0.751553  0.751573  0.500000  1
  Mg  Mg5  1  0.248447  0.000020  0.500000  1
  Ga  Ga6  1  0.666598  0.333286  0.500000  1
  Ga  Ga7  1  0.333402  0.666688  0.500000  1
  Hg  Hg8  1  0.000000  0.000056  0.000000  1
