# generated using pymatgen
data_U2MnAl20Rh3
_symmetry_space_group_name_H-M   'P 1'
_cell_length_a   6.84449421
_cell_length_b   6.81486062
_cell_length_c   9.11114423
_cell_angle_alpha   89.41691914
_cell_angle_beta   89.80132347
_cell_angle_gamma   97.75352072
_symmetry_Int_Tables_number   1
_chemical_formula_structural   U2MnAl20Rh3
_chemical_formula_sum   'U2 Mn1 Al20 Rh3'
_cell_volume   421.07052009
_cell_formula_units_Z   1
loop_
 _symmetry_equiv_pos_site_id
 _symmetry_equiv_pos_as_xyz
  1  'x, y, z'
loop_
 _atom_site_type_symbol
 _atom_site_label
 _atom_site_symmetry_multiplicity
 _atom_site_fract_x
 _atom_site_fract_y
 _atom_site_fract_z
 _atom_site_occupancy
  U  U0  1  0.115648  0.871749  0.253972  1
  U  U1  1  0.884352  0.128251  0.746028  1
  Mn  Mn2  1  0.000000  0.500000  0.500000  1
  Al  Al3  1  0.222676  0.481283  0.743634  1
  Al  Al4  1  0.376958  0.621738  0.053109  1
  Al  Al5  1  0.846610  0.159488  0.400003  1
  Al  Al6  1  0.137275  0.408723  0.253800  1
  Al  Al7  1  0.523172  0.777114  0.749794  1
  Al  Al8  1  0.623042  0.378262  0.946891  1
  Al  Al9  1  0.777324  0.518717  0.256366  1
  Al  Al10  1  0.628379  0.379474  0.549064  1
  Al  Al11  1  0.153390  0.840512  0.599997  1
  Al  Al12  1  0.592445  0.858812  0.251122  1
  Al  Al13  1  0.407555  0.141188  0.748878  1
  Al  Al14  1  0.476828  0.222886  0.250206  1
  Al  Al15  1  0.781550  0.775552  0.498628  1
  Al  Al16  1  0.778721  0.778774  0.998259  1
  Al  Al17  1  0.862725  0.591277  0.746200  1
  Al  Al18  1  0.844263  0.154523  0.102279  1
  Al  Al19  1  0.371621  0.620526  0.450936  1
  Al  Al20  1  0.155737  0.845477  0.897721  1
  Al  Al21  1  0.221279  0.221226  0.001741  1
  Al  Al22  1  0.218450  0.224448  0.501372  1
  Rh  Rh23  1  0.000000  0.500000  0.000000  1
  Rh  Rh24  1  0.500000  0.000000  0.500000  1
  Rh  Rh25  1  0.500000  0.000000  0.000000  1
