# generated using pymatgen
data_TbHoU2(ReB6)2
_symmetry_space_group_name_H-M   'P 1'
_cell_length_a   3.63805200
_cell_length_b   9.30031227
_cell_length_c   11.41995134
_cell_angle_alpha   89.97217556
_cell_angle_beta   90.00000000
_cell_angle_gamma   90.00000000
_symmetry_Int_Tables_number   1
_chemical_formula_structural   TbHoU2(ReB6)2
_chemical_formula_sum   'Tb2 Ho2 U4 Re4 B24'
_cell_volume   386.39423254
_cell_formula_units_Z   2
loop_
 _symmetry_equiv_pos_site_id
 _symmetry_equiv_pos_as_xyz
  1  'x, y, z'
loop_
 _atom_site_type_symbol
 _atom_site_label
 _atom_site_symmetry_multiplicity
 _atom_site_fract_x
 _atom_site_fract_y
 _atom_site_fract_z
 _atom_site_occupancy
  Tb  Tb0  1  0.000000  0.836465  0.092283  1
  Tb  Tb1  1  0.000000  0.163535  0.907717  1
  Ho  Ho2  1  0.000000  0.336544  0.407798  1
  Ho  Ho3  1  0.000000  0.663456  0.592202  1
  U  U4  1  0.000000  0.956315  0.396249  1
  U  U5  1  0.000000  0.043685  0.603751  1
  U  U6  1  0.000000  0.456282  0.103794  1
  U  U7  1  0.000000  0.543718  0.896206  1
  Re  Re8  1  0.000000  0.645150  0.318655  1
  Re  Re9  1  0.000000  0.354850  0.681345  1
  Re  Re10  1  0.000000  0.145871  0.181972  1
  Re  Re11  1  0.000000  0.854129  0.818028  1
  B  B12  1  0.500000  0.551640  0.431042  1
  B  B13  1  0.500000  0.448360  0.568958  1
  B  B14  1  0.500000  0.052099  0.069316  1
  B  B15  1  0.500000  0.947901  0.930684  1
  B  B16  1  0.500000  0.742899  0.423115  1
  B  B17  1  0.500000  0.257101  0.576885  1
  B  B18  1  0.500000  0.243160  0.077222  1
  B  B19  1  0.500000  0.756840  0.922778  1
  B  B20  1  0.500000  0.801595  0.275269  1
  B  B21  1  0.500000  0.198405  0.724731  1
  B  B22  1  0.500000  0.301783  0.225030  1
  B  B23  1  0.500000  0.698217  0.774970  1
  B  B24  1  0.500000  0.643713  0.188624  1
  B  B25  1  0.500000  0.356287  0.811376  1
  B  B26  1  0.500000  0.144047  0.311614  1
  B  B27  1  0.500000  0.855953  0.688386  1
  B  B28  1  0.500000  0.989207  0.219705  1
  B  B29  1  0.500000  0.010793  0.780295  1
  B  B30  1  0.500000  0.488807  0.280574  1
  B  B31  1  0.500000  0.511193  0.719426  1
  B  B32  1  0.500000  0.639251  0.038545  1
  B  B33  1  0.500000  0.360749  0.961455  1
  B  B34  1  0.500000  0.139949  0.461288  1
  B  B35  1  0.500000  0.860051  0.538712  1
