# generated using pymatgen
data_Yb2YBiRuPt3O14
_symmetry_space_group_name_H-M   'P 1'
_cell_length_a   7.26913658
_cell_length_b   7.23934147
_cell_length_c   7.24094100
_cell_angle_alpha   59.99268619
_cell_angle_beta   60.12822264
_cell_angle_gamma   59.98764494
_symmetry_Int_Tables_number   1
_chemical_formula_structural   Yb2YBiRuPt3O14
_chemical_formula_sum   'Yb2 Y1 Bi1 Ru1 Pt3 O14'
_cell_volume   269.65984795
_cell_formula_units_Z   1
loop_
 _symmetry_equiv_pos_site_id
 _symmetry_equiv_pos_as_xyz
  1  'x, y, z'
loop_
 _atom_site_type_symbol
 _atom_site_label
 _atom_site_symmetry_multiplicity
 _atom_site_fract_x
 _atom_site_fract_y
 _atom_site_fract_z
 _atom_site_occupancy
  Yb  Yb0  1  0.125000  0.125000  0.625000  1
  Yb  Yb1  1  0.125000  0.125000  0.125000  1
  Y  Y2  1  0.625000  0.125000  0.125000  1
  Bi  Bi3  1  0.125000  0.625000  0.125000  1
  Ru  Ru4  1  0.125000  0.625000  0.625000  1
  Pt  Pt5  1  0.625000  0.125000  0.625000  1
  Pt  Pt6  1  0.625000  0.625000  0.125000  1
  Pt  Pt7  1  0.625000  0.625000  0.625000  1
  O  O8  1  0.998530  0.993086  0.004192  1
  O  O9  1  0.251470  0.256914  0.245808  1
  O  O10  1  0.293044  0.302196  0.702380  1
  O  O11  1  0.539067  0.538492  0.961221  1
  O  O12  1  0.716231  0.283888  0.716324  1
  O  O13  1  0.716231  0.283888  0.283557  1
  O  O14  1  0.292345  0.701260  0.711654  1
  O  O15  1  0.292345  0.701260  0.294741  1
  O  O16  1  0.710933  0.711508  0.288779  1
  O  O17  1  0.957655  0.548740  0.538346  1
  O  O18  1  0.533769  0.966112  0.966443  1
  O  O19  1  0.956956  0.947804  0.547620  1
  O  O20  1  0.957655  0.548740  0.955259  1
  O  O21  1  0.533769  0.966112  0.533676  1
