# generated using pymatgen
data_Tm3Ga3Sn2Ru
_symmetry_space_group_name_H-M   'P 1'
_cell_length_a   7.14778118
_cell_length_b   7.14778111
_cell_length_c   4.29831600
_cell_angle_alpha   90.00000000
_cell_angle_beta   90.00000000
_cell_angle_gamma   120.62755375
_symmetry_Int_Tables_number   1
_chemical_formula_structural   Tm3Ga3Sn2Ru
_chemical_formula_sum   'Tm3 Ga3 Sn2 Ru1'
_cell_volume   188.96886684
_cell_formula_units_Z   1
loop_
 _symmetry_equiv_pos_site_id
 _symmetry_equiv_pos_as_xyz
  1  'x, y, z'
loop_
 _atom_site_type_symbol
 _atom_site_label
 _atom_site_symmetry_multiplicity
 _atom_site_fract_x
 _atom_site_fract_y
 _atom_site_fract_z
 _atom_site_occupancy
  Tm  Tm0  1  0.591258  0.996751  0.000000  1
  Tm  Tm1  1  0.996751  0.591258  0.000000  1
  Tm  Tm2  1  0.420585  0.420585  0.000000  1
  Ga  Ga3  1  0.755550  0.755550  0.500000  1
  Ga  Ga4  1  0.342283  0.666251  0.500000  1
  Ga  Ga5  1  0.666251  0.342283  0.500000  1
  Sn  Sn6  1  0.242117  0.993672  0.500000  1
  Sn  Sn7  1  0.993672  0.242117  0.500000  1
  Ru  Ru8  1  0.991535  0.991535  0.000000  1
