# generated using pymatgen
data_TlAgS4(O3F)4
_symmetry_space_group_name_H-M   'P 1'
_cell_length_a   8.22595300
_cell_length_b   9.77927640
_cell_length_c   10.00875346
_cell_angle_alpha   65.18964187
_cell_angle_beta   90.00000000
_cell_angle_gamma   90.00000000
_symmetry_Int_Tables_number   1
_chemical_formula_structural   TlAgS4(O3F)4
_chemical_formula_sum   'Tl2 Ag2 S8 O24 F8'
_cell_volume   730.82947397
_cell_formula_units_Z   2
loop_
 _symmetry_equiv_pos_site_id
 _symmetry_equiv_pos_as_xyz
  1  'x, y, z'
loop_
 _atom_site_type_symbol
 _atom_site_label
 _atom_site_symmetry_multiplicity
 _atom_site_fract_x
 _atom_site_fract_y
 _atom_site_fract_z
 _atom_site_occupancy
  Tl  Tl0  1  0.500000  0.500000  0.500000  1
  Tl  Tl1  1  0.000000  0.000000  0.500000  1
  Ag  Ag2  1  0.500000  0.000000  0.000000  1
  Ag  Ag3  1  0.000000  0.500000  0.000000  1
  S  S4  1  0.290250  0.655319  0.166273  1
  S  S5  1  0.790250  0.844681  0.833727  1
  S  S6  1  0.709750  0.344681  0.833727  1
  S  S7  1  0.209750  0.155319  0.166273  1
  S  S8  1  0.234452  0.206204  0.657270  1
  S  S9  1  0.734452  0.293796  0.342730  1
  S  S10  1  0.765548  0.793796  0.342730  1
  S  S11  1  0.265548  0.706204  0.657270  1
  O  O12  1  0.294232  0.805807  0.050007  1
  O  O13  1  0.794232  0.694193  0.949993  1
  O  O14  1  0.705768  0.194193  0.949993  1
  O  O15  1  0.205768  0.305807  0.050007  1
  O  O16  1  0.142810  0.569321  0.186997  1
  O  O17  1  0.642810  0.930679  0.813003  1
  O  O18  1  0.857190  0.430679  0.813003  1
  O  O19  1  0.357190  0.069321  0.186997  1
  O  O20  1  0.358339  0.654788  0.305800  1
  O  O21  1  0.858339  0.845212  0.694200  1
  O  O22  1  0.641661  0.345212  0.694200  1
  O  O23  1  0.141661  0.154788  0.305800  1
  O  O24  1  0.332163  0.302970  0.527091  1
  O  O25  1  0.832163  0.197030  0.472909  1
  O  O26  1  0.667837  0.697030  0.472909  1
  O  O27  1  0.167837  0.802970  0.527091  1
  O  O28  1  0.178451  0.071122  0.641731  1
  O  O29  1  0.678451  0.428878  0.358269  1
  O  O30  1  0.821549  0.928878  0.358269  1
  O  O31  1  0.321549  0.571122  0.641731  1
  O  O32  1  0.299580  0.180272  0.798445  1
  O  O33  1  0.799580  0.319728  0.201555  1
  O  O34  1  0.700420  0.819728  0.201555  1
  O  O35  1  0.200420  0.680272  0.798445  1
  F  F36  1  0.424448  0.562785  0.122406  1
  F  F37  1  0.924448  0.937215  0.877594  1
  F  F38  1  0.575552  0.437215  0.877594  1
  F  F39  1  0.075552  0.062785  0.122406  1
  F  F40  1  0.073682  0.302786  0.638478  1
  F  F41  1  0.573682  0.197214  0.361522  1
  F  F42  1  0.926318  0.697214  0.361522  1
  F  F43  1  0.426318  0.802786  0.638478  1
