# generated using pymatgen
data_TbLu3Ga17SiIr6
_symmetry_space_group_name_H-M   'P 1'
_cell_length_a   7.55725505
_cell_length_b   7.53442489
_cell_length_c   9.43238663
_cell_angle_alpha   90.07020579
_cell_angle_beta   89.78645764
_cell_angle_gamma   119.93542631
_symmetry_Int_Tables_number   1
_chemical_formula_structural   TbLu3Ga17SiIr6
_chemical_formula_sum   'Tb1 Lu3 Ga17 Si1 Ir6'
_cell_volume   465.42049393
_cell_formula_units_Z   1
loop_
 _symmetry_equiv_pos_site_id
 _symmetry_equiv_pos_as_xyz
  1  'x, y, z'
loop_
 _atom_site_type_symbol
 _atom_site_label
 _atom_site_symmetry_multiplicity
 _atom_site_fract_x
 _atom_site_fract_y
 _atom_site_fract_z
 _atom_site_occupancy
  Tb  Tb0  1  0.330525  0.002497  0.749876  1
  Lu  Lu1  1  0.997286  0.664415  0.248105  1
  Lu  Lu2  1  0.002412  0.330926  0.751670  1
  Lu  Lu3  1  0.674746  0.003134  0.248141  1
  Ga  Ga4  1  0.128753  0.127982  0.250790  1
  Ga  Ga5  1  0.872812  0.874739  0.750742  1
  Ga  Ga6  1  0.998695  0.669589  0.917512  1
  Ga  Ga7  1  0.000219  0.664459  0.580348  1
  Ga  Ga8  1  0.333857  0.996948  0.417511  1
  Ga  Ga9  1  0.998529  0.334587  0.419507  1
  Ga  Ga10  1  0.666649  0.001312  0.580430  1
  Ga  Ga11  1  0.659853  0.995630  0.917627  1
  Ga  Ga12  1  0.333440  0.996701  0.083299  1
  Ga  Ga13  1  0.331327  0.331898  0.565339  1
  Ga  Ga14  1  0.669532  0.670011  0.433159  1
  Ga  Ga15  1  0.668965  0.670324  0.069111  1
  Ga  Ga16  1  0.337221  0.332776  0.933228  1
  Ga  Ga17  1  0.341459  0.547514  0.251465  1
  Ga  Ga18  1  0.662012  0.452511  0.751118  1
  Ga  Ga19  1  0.548465  0.339830  0.250587  1
  Ga  Ga20  1  0.450882  0.658341  0.750445  1
  Si  Si21  1  0.998692  0.334330  0.073608  1
  Ir  Ir22  1  0.684280  0.329311  0.003760  1
  Ir  Ir23  1  0.313006  0.656770  0.001846  1
  Ir  Ir24  1  0.327729  0.671173  0.500072  1
  Ir  Ir25  1  0.671894  0.328380  0.499676  1
  Ir  Ir26  1  0.997698  0.013943  0.001704  1
  Ir  Ir27  1  0.999060  0.999971  0.499320  1
