# generated using pymatgen
data_Ho8Hf11ZrGe16
_symmetry_space_group_name_H-M   'P 1'
_cell_length_a   7.38951111
_cell_length_b   7.38951112
_cell_length_c   13.54651600
_cell_angle_alpha   90.00744707
_cell_angle_beta   89.99255305
_cell_angle_gamma   89.99921800
_symmetry_Int_Tables_number   1
_chemical_formula_structural   Ho8Hf11ZrGe16
_chemical_formula_sum   'Ho8 Hf11 Zr1 Ge16'
_cell_volume   739.70579355
_cell_formula_units_Z   1
loop_
 _symmetry_equiv_pos_site_id
 _symmetry_equiv_pos_as_xyz
  1  'x, y, z'
loop_
 _atom_site_type_symbol
 _atom_site_label
 _atom_site_symmetry_multiplicity
 _atom_site_fract_x
 _atom_site_fract_y
 _atom_site_fract_z
 _atom_site_occupancy
  Ho  Ho0  1  0.996168  0.342846  0.217393  1
  Ho  Ho1  1  0.003579  0.657384  0.717321  1
  Ho  Ho2  1  0.157357  0.496239  0.467561  1
  Ho  Ho3  1  0.503361  0.843152  0.032499  1
  Ho  Ho4  1  0.843152  0.503361  0.967501  1
  Ho  Ho5  1  0.496239  0.157357  0.532439  1
  Ho  Ho6  1  0.342846  0.996168  0.782607  1
  Ho  Ho7  1  0.657384  0.003579  0.282679  1
  Hf  Hf8  1  0.826322  0.826322  0.500000  1
  Hf  Hf9  1  0.326205  0.674036  0.250287  1
  Hf  Hf10  1  0.674036  0.326205  0.749713  1
  Hf  Hf11  1  0.153601  0.996631  0.375306  1
  Hf  Hf12  1  0.846547  0.002990  0.874866  1
  Hf  Hf13  1  0.502655  0.653954  0.625020  1
  Hf  Hf14  1  0.346235  0.496843  0.875037  1
  Hf  Hf15  1  0.496843  0.346235  0.124963  1
  Hf  Hf16  1  0.653954  0.502655  0.374980  1
  Hf  Hf17  1  0.996631  0.153601  0.624694  1
  Hf  Hf18  1  0.002990  0.846547  0.125134  1
  Zr  Zr19  1  0.173725  0.173725  0.000000  1
  Ge  Ge20  1  0.363820  0.301114  0.322465  1
  Ge  Ge21  1  0.636033  0.698793  0.822411  1
  Ge  Ge22  1  0.198887  0.863813  0.572480  1
  Ge  Ge23  1  0.135706  0.799629  0.927464  1
  Ge  Ge24  1  0.799629  0.135706  0.072536  1
  Ge  Ge25  1  0.863813  0.198887  0.427520  1
  Ge  Ge26  1  0.301114  0.363820  0.677535  1
  Ge  Ge27  1  0.698793  0.636033  0.177589  1
  Ge  Ge28  1  0.297708  0.038944  0.182541  1
  Ge  Ge29  1  0.702544  0.960700  0.681417  1
  Ge  Ge30  1  0.461143  0.797319  0.431592  1
  Ge  Ge31  1  0.202996  0.541021  0.068740  1
  Ge  Ge32  1  0.541021  0.202996  0.931260  1
  Ge  Ge33  1  0.797319  0.461143  0.568408  1
  Ge  Ge34  1  0.038944  0.297708  0.817459  1
  Ge  Ge35  1  0.960700  0.702544  0.318583  1
