# generated using pymatgen
data_CsRb2Tc2F11
_symmetry_space_group_name_H-M   'P 1'
_cell_length_a   6.37601562
_cell_length_b   6.37601620
_cell_length_c   9.52522800
_cell_angle_alpha   109.55373712
_cell_angle_beta   109.55373894
_cell_angle_gamma   90.00001552
_symmetry_Int_Tables_number   1
_chemical_formula_structural   CsRb2Tc2F11
_chemical_formula_sum   'Cs1 Rb2 Tc2 F11'
_cell_volume   341.11040284
_cell_formula_units_Z   1
loop_
 _symmetry_equiv_pos_site_id
 _symmetry_equiv_pos_as_xyz
  1  'x, y, z'
loop_
 _atom_site_type_symbol
 _atom_site_label
 _atom_site_symmetry_multiplicity
 _atom_site_fract_x
 _atom_site_fract_y
 _atom_site_fract_z
 _atom_site_occupancy
  Cs  Cs0  1  0.000000  0.000000  0.000000  1
  Rb  Rb1  1  0.750000  0.250001  0.499999  1
  Rb  Rb2  1  0.250000  0.749999  0.500001  1
  Tc  Tc3  1  0.621774  0.621736  0.243548  1
  Tc  Tc4  1  0.378227  0.378265  0.756453  1
  F  F5  1  0.500000  0.500000  0.000000  1
  F  F6  1  0.405015  0.404970  0.245588  1
  F  F7  1  0.840574  0.404970  0.245588  1
  F  F8  1  0.405011  0.840572  0.245603  1
  F  F9  1  0.840592  0.840572  0.245603  1
  F  F10  1  0.262606  0.262589  0.525212  1
  F  F11  1  0.737395  0.737412  0.474787  1
  F  F12  1  0.159408  0.159428  0.754398  1
  F  F13  1  0.594990  0.159428  0.754398  1
  F  F14  1  0.159426  0.595031  0.754413  1
  F  F15  1  0.594986  0.595031  0.754413  1
