# generated using pymatgen
data_Dy8Ti3Nb9Si16
_symmetry_space_group_name_H-M   'P 1'
_cell_length_a   7.06686545
_cell_length_b   7.06686545
_cell_length_c   13.02387089
_cell_angle_alpha   90.06280658
_cell_angle_beta   89.93719342
_cell_angle_gamma   89.96254369
_symmetry_Int_Tables_number   1
_chemical_formula_structural   Dy8Ti3Nb9Si16
_chemical_formula_sum   'Dy8 Ti3 Nb9 Si16'
_cell_volume   650.41883925
_cell_formula_units_Z   1
loop_
 _symmetry_equiv_pos_site_id
 _symmetry_equiv_pos_as_xyz
  1  'x, y, z'
loop_
 _atom_site_type_symbol
 _atom_site_label
 _atom_site_symmetry_multiplicity
 _atom_site_fract_x
 _atom_site_fract_y
 _atom_site_fract_z
 _atom_site_occupancy
  Dy  Dy0  1  0.996013  0.658415  0.033264  1
  Dy  Dy1  1  0.003625  0.341505  0.532770  1
  Dy  Dy2  1  0.658415  0.996013  0.966736  1
  Dy  Dy3  1  0.158649  0.503682  0.783450  1
  Dy  Dy4  1  0.841533  0.496739  0.283315  1
  Dy  Dy5  1  0.503682  0.158649  0.216550  1
  Dy  Dy6  1  0.496739  0.841533  0.716685  1
  Dy  Dy7  1  0.341505  0.003625  0.467230  1
  Ti  Ti8  1  0.827786  0.172619  0.750407  1
  Ti  Ti9  1  0.172619  0.827786  0.249593  1
  Ti  Ti10  1  0.327192  0.327192  0.000000  1
  Nb  Nb11  1  0.347307  0.507641  0.375863  1
  Nb  Nb12  1  0.846293  0.993041  0.374272  1
  Nb  Nb13  1  0.006942  0.153392  0.125870  1
  Nb  Nb14  1  0.993041  0.846293  0.625728  1
  Nb  Nb15  1  0.507641  0.347307  0.624137  1
  Nb  Nb16  1  0.153392  0.006942  0.874130  1
  Nb  Nb17  1  0.672674  0.672674  0.500000  1
  Nb  Nb18  1  0.492509  0.653209  0.124491  1
  Nb  Nb19  1  0.653209  0.492509  0.875509  1
  Si  Si20  1  0.047279  0.707271  0.435478  1
  Si  Si21  1  0.953634  0.292780  0.936500  1
  Si  Si22  1  0.707271  0.047279  0.564522  1
  Si  Si23  1  0.206752  0.453508  0.185873  1
  Si  Si24  1  0.794191  0.545017  0.687565  1
  Si  Si25  1  0.453508  0.206752  0.814127  1
  Si  Si26  1  0.545017  0.794191  0.312435  1
  Si  Si27  1  0.292780  0.953634  0.063500  1
  Si  Si28  1  0.797990  0.865677  0.183279  1
  Si  Si29  1  0.296729  0.634103  0.566835  1
  Si  Si30  1  0.701844  0.365271  0.066069  1
  Si  Si31  1  0.634103  0.296729  0.433165  1
  Si  Si32  1  0.365271  0.701844  0.933931  1
  Si  Si33  1  0.135066  0.202124  0.316194  1
  Si  Si34  1  0.202124  0.135066  0.683806  1
  Si  Si35  1  0.865677  0.797990  0.816721  1
