# generated using pymatgen
data_Be8Re3Mo
_symmetry_space_group_name_H-M   'P 1'
_cell_length_a   4.38626300
_cell_length_b   4.38626309
_cell_length_c   7.20203900
_cell_angle_alpha   90.00000000
_cell_angle_beta   90.00000000
_cell_angle_gamma   120.00000687
_symmetry_Int_Tables_number   1
_chemical_formula_structural   Be8Re3Mo
_chemical_formula_sum   'Be8 Re3 Mo1'
_cell_volume   119.99838912
_cell_formula_units_Z   1
loop_
 _symmetry_equiv_pos_site_id
 _symmetry_equiv_pos_as_xyz
  1  'x, y, z'
loop_
 _atom_site_type_symbol
 _atom_site_label
 _atom_site_symmetry_multiplicity
 _atom_site_fract_x
 _atom_site_fract_y
 _atom_site_fract_z
 _atom_site_occupancy
  Be  Be0  1  0.000000  0.000000  0.998881  1
  Be  Be1  1  0.000000  0.000000  0.500960  1
  Be  Be2  1  0.830768  0.661536  0.251625  1
  Be  Be3  1  0.168867  0.831133  0.748584  1
  Be  Be4  1  0.662266  0.831133  0.748584  1
  Be  Be5  1  0.338464  0.169232  0.251625  1
  Be  Be6  1  0.830768  0.169232  0.251625  1
  Be  Be7  1  0.168867  0.337734  0.748584  1
  Re  Re8  1  0.666667  0.333333  0.561556  1
  Re  Re9  1  0.666667  0.333333  0.937400  1
  Re  Re10  1  0.333333  0.666667  0.438594  1
  Mo  Mo11  1  0.333333  0.666667  0.061981  1
