# generated using pymatgen
data_ErTm11Co4HgPt
_symmetry_space_group_name_H-M   'P 1'
_cell_length_a   8.13916644
_cell_length_b   8.13916655
_cell_length_c   8.13941443
_cell_angle_alpha   110.94617907
_cell_angle_beta   110.60612456
_cell_angle_gamma   106.89064450
_symmetry_Int_Tables_number   1
_chemical_formula_structural   ErTm11Co4HgPt
_chemical_formula_sum   'Er1 Tm11 Co4 Hg1 Pt1'
_cell_volume   414.45450142
_cell_formula_units_Z   1
loop_
 _symmetry_equiv_pos_site_id
 _symmetry_equiv_pos_as_xyz
  1  'x, y, z'
loop_
 _atom_site_type_symbol
 _atom_site_label
 _atom_site_symmetry_multiplicity
 _atom_site_fract_x
 _atom_site_fract_y
 _atom_site_fract_z
 _atom_site_occupancy
  Er  Er0  1  0.813859  0.289456  0.103314  1
  Tm  Tm1  1  0.316675  0.619187  0.302690  1
  Tm  Tm2  1  0.683375  0.380842  0.696947  1
  Tm  Tm3  1  0.316105  0.013572  0.696947  1
  Tm  Tm4  1  0.683505  0.986016  0.302690  1
  Tm  Tm5  1  0.417394  0.219962  0.197846  1
  Tm  Tm6  1  0.581776  0.779457  0.801871  1
  Tm  Tm7  1  0.022414  0.220096  0.801871  1
  Tm  Tm8  1  0.977885  0.780451  0.197846  1
  Tm  Tm9  1  0.186424  0.289282  0.475706  1
  Tm  Tm10  1  0.813878  0.711045  0.524924  1
  Tm  Tm11  1  0.185902  0.710875  0.896777  1
  Co  Co12  1  0.114342  0.614068  0.500698  1
  Co  Co13  1  0.886632  0.386357  0.500698  1
  Co  Co14  1  0.377152  0.000005  0.377157  1
  Co  Co15  1  0.622764  0.999649  0.622414  1
  Hg  Hg16  1  0.500140  0.500064  0.000204  1
  Pt  Pt17  1  0.999780  0.999619  0.999399  1
