# generated using pymatgen
data_Pr2RuRhF14
_symmetry_space_group_name_H-M   'P 1'
_cell_length_a   5.68442300
_cell_length_b   9.22919018
_cell_length_c   12.35707264
_cell_angle_alpha   62.23331288
_cell_angle_beta   90.00000000
_cell_angle_gamma   90.00000000
_symmetry_Int_Tables_number   1
_chemical_formula_structural   Pr2RuRhF14
_chemical_formula_sum   'Pr4 Ru2 Rh2 F28'
_cell_volume   573.63575838
_cell_formula_units_Z   2
loop_
 _symmetry_equiv_pos_site_id
 _symmetry_equiv_pos_as_xyz
  1  'x, y, z'
loop_
 _atom_site_type_symbol
 _atom_site_label
 _atom_site_symmetry_multiplicity
 _atom_site_fract_x
 _atom_site_fract_y
 _atom_site_fract_z
 _atom_site_occupancy
  Pr  Pr0  1  0.756403  0.815641  0.767399  1
  Pr  Pr1  1  0.256403  0.184359  0.732601  1
  Pr  Pr2  1  0.236999  0.196088  0.236991  1
  Pr  Pr3  1  0.736999  0.803912  0.263009  1
  Ru  Ru4  1  0.754739  0.276276  0.954553  1
  Ru  Ru5  1  0.254739  0.723724  0.545447  1
  Rh  Rh6  1  0.242909  0.728742  0.039851  1
  Rh  Rh7  1  0.742909  0.271258  0.460149  1
  F  F8  1  0.436201  0.710387  0.914041  1
  F  F9  1  0.936201  0.289613  0.585959  1
  F  F10  1  0.564289  0.293671  0.076988  1
  F  F11  1  0.064289  0.706329  0.423012  1
  F  F12  1  0.451918  0.282736  0.543671  1
  F  F13  1  0.951918  0.717264  0.956329  1
  F  F14  1  0.539921  0.715727  0.461759  1
  F  F15  1  0.039921  0.284273  0.038241  1
  F  F16  1  0.764555  0.509718  0.860587  1
  F  F17  1  0.264555  0.490282  0.639413  1
  F  F18  1  0.236104  0.488881  0.135429  1
  F  F19  1  0.736104  0.511119  0.364571  1
  F  F20  1  0.754912  0.043901  0.043626  1
  F  F21  1  0.254912  0.956099  0.456374  1
  F  F22  1  0.236779  0.968331  0.945250  1
  F  F23  1  0.736779  0.031669  0.554750  1
  F  F24  1  0.973358  0.726475  0.632849  1
  F  F25  1  0.473358  0.273525  0.867151  1
  F  F26  1  0.029169  0.263998  0.372400  1
  F  F27  1  0.529169  0.736002  0.127600  1
  F  F28  1  0.055828  0.748097  0.167344  1
  F  F29  1  0.555828  0.251903  0.332656  1
  F  F30  1  0.944894  0.262471  0.829462  1
  F  F31  1  0.444894  0.737529  0.670538  1
  F  F32  1  0.416716  0.973632  0.233422  1
  F  F33  1  0.916716  0.026368  0.266578  1
  F  F34  1  0.604306  0.039257  0.773370  1
  F  F35  1  0.104306  0.960743  0.726630  1
