# generated using pymatgen
data_YHo3TcPt3F28
_symmetry_space_group_name_H-M   'P 1'
_cell_length_a   5.55660160
_cell_length_b   8.87544437
_cell_length_c   11.97973298
_cell_angle_alpha   62.52735391
_cell_angle_beta   89.92848253
_cell_angle_gamma   89.95151680
_symmetry_Int_Tables_number   1
_chemical_formula_structural   YHo3TcPt3F28
_chemical_formula_sum   'Y1 Ho3 Tc1 Pt3 F28'
_cell_volume   524.18301000
_cell_formula_units_Z   1
loop_
 _symmetry_equiv_pos_site_id
 _symmetry_equiv_pos_as_xyz
  1  'x, y, z'
loop_
 _atom_site_type_symbol
 _atom_site_label
 _atom_site_symmetry_multiplicity
 _atom_site_fract_x
 _atom_site_fract_y
 _atom_site_fract_z
 _atom_site_occupancy
  Y  Y0  1  0.761106  0.815014  0.763758  1
  Ho  Ho1  1  0.259842  0.187240  0.733829  1
  Ho  Ho2  1  0.239380  0.185819  0.236344  1
  Ho  Ho3  1  0.739576  0.814491  0.264355  1
  Tc  Tc4  1  0.757317  0.272712  0.956963  1
  Pt  Pt5  1  0.259016  0.727534  0.542402  1
  Pt  Pt6  1  0.241163  0.727752  0.043779  1
  Pt  Pt7  1  0.740893  0.273494  0.455869  1
  F  F8  1  0.436588  0.702173  0.916635  1
  F  F9  1  0.934925  0.297152  0.584141  1
  F  F10  1  0.550147  0.292099  0.081684  1
  F  F11  1  0.063654  0.702968  0.415089  1
  F  F12  1  0.440068  0.279105  0.541602  1
  F  F13  1  0.941496  0.721235  0.957806  1
  F  F14  1  0.559865  0.721946  0.456637  1
  F  F15  1  0.050777  0.277630  0.047787  1
  F  F16  1  0.772995  0.521016  0.859095  1
  F  F17  1  0.273538  0.478321  0.641121  1
  F  F18  1  0.226071  0.478754  0.143151  1
  F  F19  1  0.726089  0.522853  0.357386  1
  F  F20  1  0.756352  0.025223  0.054006  1
  F  F21  1  0.255339  0.976638  0.449511  1
  F  F22  1  0.245405  0.976928  0.948945  1
  F  F23  1  0.745370  0.024615  0.548962  1
  F  F24  1  0.966106  0.724525  0.635592  1
  F  F25  1  0.475328  0.270310  0.859323  1
  F  F26  1  0.034287  0.274797  0.363338  1
  F  F27  1  0.533130  0.726574  0.136802  1
  F  F28  1  0.050996  0.747091  0.175616  1
  F  F29  1  0.552343  0.254904  0.323267  1
  F  F30  1  0.958951  0.252700  0.828776  1
  F  F31  1  0.447909  0.745051  0.675217  1
  F  F32  1  0.417723  0.970430  0.233827  1
  F  F33  1  0.917959  0.028060  0.269039  1
  F  F34  1  0.582522  0.031675  0.766519  1
  F  F35  1  0.085771  0.971166  0.731828  1
