# generated using pymatgen
data_Yb2CeSm(CuSn)4
_symmetry_space_group_name_H-M   'P 1'
_cell_length_a   4.59699500
_cell_length_b   7.39104847
_cell_length_c   7.80265868
_cell_angle_alpha   90.66770809
_cell_angle_beta   90.00000000
_cell_angle_gamma   90.00000000
_symmetry_Int_Tables_number   1
_chemical_formula_structural   Yb2CeSm(CuSn)4
_chemical_formula_sum   'Yb2 Ce1 Sm1 Cu4 Sn4'
_cell_volume   265.08991147
_cell_formula_units_Z   1
loop_
 _symmetry_equiv_pos_site_id
 _symmetry_equiv_pos_as_xyz
  1  'x, y, z'
loop_
 _atom_site_type_symbol
 _atom_site_label
 _atom_site_symmetry_multiplicity
 _atom_site_fract_x
 _atom_site_fract_y
 _atom_site_fract_z
 _atom_site_occupancy
  Yb  Yb0  1  0.750000  0.991265  0.712640  1
  Yb  Yb1  1  0.250000  0.008550  0.288660  1
  Ce  Ce2  1  0.750000  0.491641  0.785070  1
  Sm  Sm3  1  0.250000  0.509324  0.214900  1
  Cu  Cu4  1  0.250000  0.813499  0.917495  1
  Cu  Cu5  1  0.750000  0.184997  0.082598  1
  Cu  Cu6  1  0.750000  0.696488  0.419081  1
  Cu  Cu7  1  0.250000  0.304439  0.579839  1
  Sn  Sn8  1  0.250000  0.700561  0.591056  1
  Sn  Sn9  1  0.750000  0.297905  0.408618  1
  Sn  Sn10  1  0.750000  0.794453  0.089595  1
  Sn  Sn11  1  0.250000  0.206878  0.910449  1
