# generated using pymatgen
data_YCdCuPt3
_symmetry_space_group_name_H-M   'P 1'
_cell_length_a   5.20045152
_cell_length_b   5.20045081
_cell_length_c   5.20045098
_cell_angle_alpha   63.38865318
_cell_angle_beta   63.38865698
_cell_angle_gamma   63.38865943
_symmetry_Int_Tables_number   1
_chemical_formula_structural   YCdCuPt3
_chemical_formula_sum   'Y1 Cd1 Cu1 Pt3'
_cell_volume   106.90965507
_cell_formula_units_Z   1
loop_
 _symmetry_equiv_pos_site_id
 _symmetry_equiv_pos_as_xyz
  1  'x, y, z'
loop_
 _atom_site_type_symbol
 _atom_site_label
 _atom_site_symmetry_multiplicity
 _atom_site_fract_x
 _atom_site_fract_y
 _atom_site_fract_z
 _atom_site_occupancy
  Y  Y0  1  0.751424  0.751424  0.751424  1
  Cd  Cd1  1  0.002989  0.002989  0.002989  1
  Cu  Cu2  1  0.373556  0.373556  0.373556  1
  Pt  Pt3  1  0.373439  0.875154  0.373439  1
  Pt  Pt4  1  0.373439  0.373439  0.875154  1
  Pt  Pt5  1  0.875154  0.373439  0.373439  1
