# generated using pymatgen
data_Er9Mg(Ni2Bi)2
_symmetry_space_group_name_H-M   'P 1'
_cell_length_a   8.69343403
_cell_length_b   8.69343410
_cell_length_c   8.69343368
_cell_angle_alpha   129.16557241
_cell_angle_beta   129.16557745
_cell_angle_gamma   74.74430522
_symmetry_Int_Tables_number   1
_chemical_formula_structural   Er9Mg(Ni2Bi)2
_chemical_formula_sum   'Er9 Mg1 Ni4 Bi2'
_cell_volume   384.74692392
_cell_formula_units_Z   1
loop_
 _symmetry_equiv_pos_site_id
 _symmetry_equiv_pos_as_xyz
  1  'x, y, z'
loop_
 _atom_site_type_symbol
 _atom_site_label
 _atom_site_symmetry_multiplicity
 _atom_site_fract_x
 _atom_site_fract_y
 _atom_site_fract_z
 _atom_site_occupancy
  Er  Er0  1  0.500000  0.500000  0.000000  1
  Er  Er1  1  0.798572  0.281921  0.822901  1
  Er  Er2  1  0.201428  0.718079  0.177099  1
  Er  Er3  1  0.459019  0.975670  0.177099  1
  Er  Er4  1  0.281921  0.459019  0.483349  1
  Er  Er5  1  0.024330  0.201428  0.483349  1
  Er  Er6  1  0.540981  0.024330  0.822901  1
  Er  Er7  1  0.718079  0.540981  0.516651  1
  Er  Er8  1  0.975670  0.798572  0.516651  1
  Mg  Mg9  1  0.000000  0.000000  0.000000  1
  Ni  Ni10  1  0.131971  0.623792  0.755764  1
  Ni  Ni11  1  0.868029  0.376208  0.244236  1
  Ni  Ni12  1  0.623792  0.868029  0.491821  1
  Ni  Ni13  1  0.376208  0.131971  0.508179  1
  Bi  Bi14  1  0.258582  0.258582  0.000000  1
  Bi  Bi15  1  0.741418  0.741418  0.000000  1
