# generated using pymatgen
data_Dy3MgCd2Sn2Au
_symmetry_space_group_name_H-M   'P 1'
_cell_length_a   7.50400582
_cell_length_b   7.50400544
_cell_length_c   4.53369500
_cell_angle_alpha   90.00000000
_cell_angle_beta   90.00000000
_cell_angle_gamma   120.52188543
_symmetry_Int_Tables_number   1
_chemical_formula_structural   Dy3MgCd2Sn2Au
_chemical_formula_sum   'Dy3 Mg1 Cd2 Sn2 Au1'
_cell_volume   219.91823062
_cell_formula_units_Z   1
loop_
 _symmetry_equiv_pos_site_id
 _symmetry_equiv_pos_as_xyz
  1  'x, y, z'
loop_
 _atom_site_type_symbol
 _atom_site_label
 _atom_site_symmetry_multiplicity
 _atom_site_fract_x
 _atom_site_fract_y
 _atom_site_fract_z
 _atom_site_occupancy
  Dy  Dy0  1  0.592485  0.001891  0.000000  1
  Dy  Dy1  1  0.001891  0.592485  0.000000  1
  Dy  Dy2  1  0.404558  0.404558  0.000000  1
  Mg  Mg3  1  0.769744  0.769744  0.500000  1
  Cd  Cd4  1  0.239942  0.998731  0.500000  1
  Cd  Cd5  1  0.998731  0.239942  0.500000  1
  Sn  Sn6  1  0.338009  0.666992  0.500000  1
  Sn  Sn7  1  0.666992  0.338009  0.500000  1
  Au  Au8  1  0.987648  0.987648  0.000000  1
