# generated using pymatgen
data_YbCu3PdAu
_symmetry_space_group_name_H-M   'P 1'
_cell_length_a   5.03120805
_cell_length_b   5.03120881
_cell_length_c   5.14612956
_cell_angle_alpha   60.73601402
_cell_angle_beta   60.73600929
_cell_angle_gamma   60.00000143
_symmetry_Int_Tables_number   1
_chemical_formula_structural   YbCu3PdAu
_chemical_formula_sum   'Yb1 Cu3 Pd1 Au1'
_cell_volume   93.12220441
_cell_formula_units_Z   1
loop_
 _symmetry_equiv_pos_site_id
 _symmetry_equiv_pos_as_xyz
  1  'x, y, z'
loop_
 _atom_site_type_symbol
 _atom_site_label
 _atom_site_symmetry_multiplicity
 _atom_site_fract_x
 _atom_site_fract_y
 _atom_site_fract_z
 _atom_site_occupancy
  Yb  Yb0  1  0.999607  0.999607  0.001178  1
  Cu  Cu1  1  0.626318  0.126793  0.620571  1
  Cu  Cu2  1  0.126793  0.626318  0.620571  1
  Cu  Cu3  1  0.626318  0.626318  0.620571  1
  Pd  Pd4  1  0.625968  0.625968  0.122097  1
  Au  Au5  1  0.244996  0.244996  0.265013  1
