# generated using pymatgen
data_La11Nd5(CoHg)4
_symmetry_space_group_name_H-M   'P 1'
_cell_length_a   9.91810705
_cell_length_b   9.90706320
_cell_length_c   9.90810650
_cell_angle_alpha   60.12270953
_cell_angle_beta   60.09177801
_cell_angle_gamma   60.09079063
_symmetry_Int_Tables_number   1
_chemical_formula_structural   La11Nd5(CoHg)4
_chemical_formula_sum   'La11 Nd5 Co4 Hg4'
_cell_volume   690.00063000
_cell_formula_units_Z   1
loop_
 _symmetry_equiv_pos_site_id
 _symmetry_equiv_pos_as_xyz
  1  'x, y, z'
loop_
 _atom_site_type_symbol
 _atom_site_label
 _atom_site_symmetry_multiplicity
 _atom_site_fract_x
 _atom_site_fract_y
 _atom_site_fract_z
 _atom_site_occupancy
  La  La0  1  0.595821  0.594667  0.594798  1
  La  La1  1  0.596956  0.596113  0.209562  1
  La  La2  1  0.596789  0.209601  0.596239  1
  La  La3  1  0.209955  0.596014  0.596005  1
  La  La4  1  0.059456  0.440556  0.440573  1
  La  La5  1  0.441049  0.058272  0.058070  1
  La  La6  1  0.440254  0.061082  0.439335  1
  La  La7  1  0.057633  0.439805  0.059390  1
  La  La8  1  0.440359  0.439358  0.061085  1
  La  La9  1  0.057565  0.059361  0.439859  1
  La  La10  1  0.189626  0.812643  0.812756  1
  Nd  Nd11  1  0.812658  0.187129  0.187130  1
  Nd  Nd12  1  0.812081  0.190048  0.813532  1
  Nd  Nd13  1  0.187316  0.812519  0.188665  1
  Nd  Nd14  1  0.812042  0.813522  0.190083  1
  Nd  Nd15  1  0.187322  0.188644  0.812579  1
  Co  Co16  1  0.390484  0.389532  0.389404  1
  Co  Co17  1  0.390190  0.389973  0.831042  1
  Co  Co18  1  0.390194  0.831138  0.389867  1
  Co  Co19  1  0.830960  0.389899  0.389901  1
  Hg  Hg20  1  0.832145  0.833365  0.833364  1
  Hg  Hg21  1  0.833491  0.832503  0.500891  1
  Hg  Hg22  1  0.833480  0.500916  0.832510  1
  Hg  Hg23  1  0.502171  0.833340  0.833361  1
