# generated using pymatgen
data_DyTm4Tc3(P3Ir4)4
_symmetry_space_group_name_H-M   'P 1'
_cell_length_a   12.63814300
_cell_length_b   12.63814371
_cell_length_c   3.97094400
_cell_angle_alpha   90.00000000
_cell_angle_beta   90.00000000
_cell_angle_gamma   119.99999553
_symmetry_Int_Tables_number   1
_chemical_formula_structural   DyTm4Tc3(P3Ir4)4
_chemical_formula_sum   'Dy1 Tm4 Tc3 P12 Ir16'
_cell_volume   549.27643606
_cell_formula_units_Z   1
loop_
 _symmetry_equiv_pos_site_id
 _symmetry_equiv_pos_as_xyz
  1  'x, y, z'
loop_
 _atom_site_type_symbol
 _atom_site_label
 _atom_site_symmetry_multiplicity
 _atom_site_fract_x
 _atom_site_fract_y
 _atom_site_fract_z
 _atom_site_occupancy
  Dy  Dy0  1  0.666667  0.333333  0.500000  1
  Tm  Tm1  1  0.333333  0.666667  0.500000  1
  Tm  Tm2  1  0.000011  0.817830  0.000000  1
  Tm  Tm3  1  0.182170  0.182181  0.000000  1
  Tm  Tm4  1  0.817819  0.999989  0.000000  1
  Tc  Tc5  1  0.000109  0.455165  0.500000  1
  Tc  Tc6  1  0.544835  0.544944  0.500000  1
  Tc  Tc7  1  0.455056  0.999891  0.500000  1
  P  P8  1  0.999901  0.639234  0.500000  1
  P  P9  1  0.360766  0.360667  0.500000  1
  P  P10  1  0.639333  0.000099  0.500000  1
  P  P11  1  0.515181  0.685113  0.000000  1
  P  P12  1  0.314887  0.830069  0.000000  1
  P  P13  1  0.169931  0.484819  0.000000  1
  P  P14  1  0.484354  0.169378  0.000000  1
  P  P15  1  0.685024  0.515646  0.000000  1
  P  P16  1  0.830622  0.314976  0.000000  1
  P  P17  1  0.000077  0.175736  0.500000  1
  P  P18  1  0.824264  0.824341  0.500000  1
  P  P19  1  0.175659  0.999923  0.500000  1
  Ir  Ir20  1  0.509344  0.867435  0.000000  1
  Ir  Ir21  1  0.132565  0.641910  0.000000  1
  Ir  Ir22  1  0.358090  0.490656  0.000000  1
  Ir  Ir23  1  0.489679  0.358176  0.000000  1
  Ir  Ir24  1  0.868498  0.510321  0.000000  1
  Ir  Ir25  1  0.641824  0.131502  0.000000  1
  Ir  Ir26  1  0.000191  0.290887  0.000000  1
  Ir  Ir27  1  0.709113  0.709304  0.000000  1
  Ir  Ir28  1  0.290696  0.999809  0.000000  1
  Ir  Ir29  1  0.627484  0.806696  0.500000  1
  Ir  Ir30  1  0.193304  0.820788  0.500000  1
  Ir  Ir31  1  0.179212  0.372516  0.500000  1
  Ir  Ir32  1  0.372169  0.178944  0.500000  1
  Ir  Ir33  1  0.806776  0.627831  0.500000  1
  Ir  Ir34  1  0.821056  0.193224  0.500000  1
  Ir  Ir35  1  0.000000  0.000000  0.500000  1
