# generated using pymatgen
data_Lu8Si15GeW12
_symmetry_space_group_name_H-M   'P 1'
_cell_length_a   6.83742153
_cell_length_b   6.83252483
_cell_length_c   12.66894925
_cell_angle_alpha   90.04955662
_cell_angle_beta   89.97053638
_cell_angle_gamma   90.12094487
_symmetry_Int_Tables_number   1
_chemical_formula_structural   Lu8Si15GeW12
_chemical_formula_sum   'Lu8 Si15 Ge1 W12'
_cell_volume   591.85181359
_cell_formula_units_Z   1
loop_
 _symmetry_equiv_pos_site_id
 _symmetry_equiv_pos_as_xyz
  1  'x, y, z'
loop_
 _atom_site_type_symbol
 _atom_site_label
 _atom_site_symmetry_multiplicity
 _atom_site_fract_x
 _atom_site_fract_y
 _atom_site_fract_z
 _atom_site_occupancy
  Lu  Lu0  1  0.003875  0.662624  0.030776  1
  Lu  Lu1  1  0.996806  0.336232  0.531275  1
  Lu  Lu2  1  0.338262  0.996214  0.469560  1
  Lu  Lu3  1  0.162709  0.495949  0.780754  1
  Lu  Lu4  1  0.835158  0.502214  0.278998  1
  Lu  Lu5  1  0.496221  0.163453  0.219085  1
  Lu  Lu6  1  0.504491  0.837735  0.719788  1
  Lu  Lu7  1  0.662833  0.003748  0.969285  1
  Si  Si8  1  0.627588  0.296653  0.432054  1
  Si  Si9  1  0.372628  0.703332  0.932010  1
  Si  Si10  1  0.203575  0.126352  0.682542  1
  Si  Si11  1  0.298449  0.626293  0.569872  1
  Si  Si12  1  0.702824  0.372977  0.067536  1
  Si  Si13  1  0.797163  0.873107  0.181720  1
  Si  Si14  1  0.128178  0.202890  0.317937  1
  Si  Si15  1  0.964047  0.290556  0.935866  1
  Si  Si16  1  0.710651  0.034582  0.563619  1
  Si  Si17  1  0.209928  0.464640  0.186319  1
  Si  Si18  1  0.790110  0.534622  0.686668  1
  Si  Si19  1  0.464948  0.209902  0.813946  1
  Si  Si20  1  0.535375  0.791013  0.313826  1
  Si  Si21  1  0.290827  0.965179  0.063502  1
  Si  Si22  1  0.873339  0.796264  0.818899  1
  Ge  Ge23  1  0.032678  0.709007  0.434423  1
  W  W24  1  0.662103  0.665949  0.501412  1
  W  W25  1  0.167380  0.835260  0.247353  1
  W  W26  1  0.333922  0.334104  0.999652  1
  W  W27  1  0.001200  0.834846  0.629546  1
  W  W28  1  0.998019  0.165381  0.126333  1
  W  W29  1  0.831726  0.008123  0.371373  1
  W  W30  1  0.339763  0.495511  0.376868  1
  W  W31  1  0.664257  0.502031  0.877296  1
  W  W32  1  0.498122  0.334113  0.622982  1
  W  W33  1  0.501467  0.664869  0.123071  1
  W  W34  1  0.165054  0.998949  0.873743  1
  W  W35  1  0.834323  0.165325  0.750113  1
