# generated using pymatgen
data_LaTbHoIrO7
_symmetry_space_group_name_H-M   'P 1'
_cell_length_a   6.49713212
_cell_length_b   6.49713254
_cell_length_c   7.53388300
_cell_angle_alpha   90.00000000
_cell_angle_beta   90.00000000
_cell_angle_gamma   109.53454800
_symmetry_Int_Tables_number   1
_chemical_formula_structural   LaTbHoIrO7
_chemical_formula_sum   'La2 Tb2 Ho2 Ir2 O14'
_cell_volume   299.72020829
_cell_formula_units_Z   2
loop_
 _symmetry_equiv_pos_site_id
 _symmetry_equiv_pos_as_xyz
  1  'x, y, z'
loop_
 _atom_site_type_symbol
 _atom_site_label
 _atom_site_symmetry_multiplicity
 _atom_site_fract_x
 _atom_site_fract_y
 _atom_site_fract_z
 _atom_site_occupancy
  La  La0  1  0.000150  0.999850  0.500000  1
  La  La1  1  0.000150  0.999850  0.000000  1
  Tb  Tb2  1  0.515648  0.063956  0.250000  1
  Tb  Tb3  1  0.936044  0.484352  0.750000  1
  Ho  Ho4  1  0.485017  0.937722  0.750000  1
  Ho  Ho5  1  0.062278  0.514983  0.250000  1
  Ir  Ir6  1  0.500135  0.499865  0.500000  1
  Ir  Ir7  1  0.500135  0.499865  0.000000  1
  O  O8  1  0.442844  0.181712  0.535785  1
  O  O9  1  0.818288  0.557156  0.464215  1
  O  O10  1  0.442844  0.181712  0.964215  1
  O  O11  1  0.818288  0.557156  0.035785  1
  O  O12  1  0.557174  0.818059  0.466750  1
  O  O13  1  0.181941  0.442826  0.533250  1
  O  O14  1  0.557174  0.818059  0.033250  1
  O  O15  1  0.181941  0.442826  0.966750  1
  O  O16  1  0.159309  0.876041  0.250000  1
  O  O17  1  0.123959  0.840691  0.750000  1
  O  O18  1  0.837835  0.119520  0.750000  1
  O  O19  1  0.880480  0.162165  0.250000  1
  O  O20  1  0.407779  0.409411  0.250000  1
  O  O21  1  0.590589  0.592221  0.750000  1
