# generated using pymatgen
data_Rb3Li2TiBi3
_symmetry_space_group_name_H-M   'P 1'
_cell_length_a   14.05566988
_cell_length_b   14.05566940
_cell_length_c   14.05566856
_cell_angle_alpha   150.81500002
_cell_angle_beta   105.91512967
_cell_angle_gamma   81.53165590
_symmetry_Int_Tables_number   1
_chemical_formula_structural   Rb3Li2TiBi3
_chemical_formula_sum   'Rb12 Li8 Ti4 Bi12'
_cell_volume   1276.79849796
_cell_formula_units_Z   4
loop_
 _symmetry_equiv_pos_site_id
 _symmetry_equiv_pos_as_xyz
  1  'x, y, z'
loop_
 _atom_site_type_symbol
 _atom_site_label
 _atom_site_symmetry_multiplicity
 _atom_site_fract_x
 _atom_site_fract_y
 _atom_site_fract_z
 _atom_site_occupancy
  Rb  Rb0  1  0.590092  0.947797  0.197987  1
  Rb  Rb1  1  0.072514  0.750000  0.822514  1
  Rb  Rb2  1  0.909908  0.107895  0.357705  1
  Rb  Rb3  1  0.409908  0.052203  0.802013  1
  Rb  Rb4  1  0.750190  0.607895  0.697987  1
  Rb  Rb5  1  0.249810  0.392105  0.302013  1
  Rb  Rb6  1  0.090092  0.892105  0.642295  1
  Rb  Rb7  1  0.427486  0.250000  0.677486  1
  Rb  Rb8  1  0.749810  0.447797  0.857705  1
  Rb  Rb9  1  0.250190  0.552203  0.142295  1
  Rb  Rb10  1  0.927486  0.250000  0.177486  1
  Rb  Rb11  1  0.572514  0.750000  0.322514  1
  Li  Li12  1  0.999229  0.249229  0.750000  1
  Li  Li13  1  0.665709  0.915709  0.750000  1
  Li  Li14  1  0.000771  0.750771  0.250000  1
  Li  Li15  1  0.500771  0.250771  0.250000  1
  Li  Li16  1  0.499229  0.749229  0.750000  1
  Li  Li17  1  0.165709  0.415709  0.750000  1
  Li  Li18  1  0.334291  0.084291  0.250000  1
  Li  Li19  1  0.834291  0.584291  0.250000  1
  Ti  Ti20  1  0.667187  0.417187  0.250000  1
  Ti  Ti21  1  0.167187  0.917187  0.250000  1
  Ti  Ti22  1  0.832813  0.082813  0.750000  1
  Ti  Ti23  1  0.332813  0.582813  0.750000  1
  Bi  Bi24  1  0.335531  0.750000  0.085531  1
  Bi  Bi25  1  0.497707  0.561119  0.379126  1
  Bi  Bi26  1  0.997707  0.618581  0.936588  1
  Bi  Bi27  1  0.502293  0.438881  0.620874  1
  Bi  Bi28  1  0.318007  0.881419  0.879126  1
  Bi  Bi29  1  0.681993  0.118581  0.120874  1
  Bi  Bi30  1  0.002293  0.381419  0.063412  1
  Bi  Bi31  1  0.664469  0.250000  0.914469  1
  Bi  Bi32  1  0.818007  0.938881  0.436588  1
  Bi  Bi33  1  0.164469  0.250000  0.414469  1
  Bi  Bi34  1  0.181993  0.061119  0.563412  1
  Bi  Bi35  1  0.835531  0.750000  0.585531  1
