# generated using pymatgen
data_Dy3Al8ZnNi6
_symmetry_space_group_name_H-M   'P 1'
_cell_length_a   8.96738500
_cell_length_b   9.00325364
_cell_length_c   4.08358500
_cell_angle_alpha   90.00000000
_cell_angle_beta   90.00000000
_cell_angle_gamma   119.86830248
_symmetry_Int_Tables_number   1
_chemical_formula_structural   Dy3Al8ZnNi6
_chemical_formula_sum   'Dy3 Al8 Zn1 Ni6'
_cell_volume   285.89880770
_cell_formula_units_Z   1
loop_
 _symmetry_equiv_pos_site_id
 _symmetry_equiv_pos_as_xyz
  1  'x, y, z'
loop_
 _atom_site_type_symbol
 _atom_site_label
 _atom_site_symmetry_multiplicity
 _atom_site_fract_x
 _atom_site_fract_y
 _atom_site_fract_z
 _atom_site_occupancy
  Dy  Dy0  1  0.333425  0.669052  0.500000  1
  Dy  Dy1  1  0.664375  0.330948  0.500000  1
  Dy  Dy2  1  0.003462  0.000000  0.000000  1
  Al  Al3  1  0.496938  0.000000  0.000000  1
  Al  Al4  1  0.998508  0.498323  0.000000  1
  Al  Al5  1  0.500186  0.501677  0.000000  1
  Al  Al6  1  0.702572  0.000000  0.500000  1
  Al  Al7  1  0.999967  0.296983  0.500000  1
  Al  Al8  1  0.001760  0.704857  0.500000  1
  Al  Al9  1  0.702983  0.703017  0.500000  1
  Al  Al10  1  0.296904  0.295143  0.500000  1
  Zn  Zn11  1  0.297315  0.000000  0.500000  1
  Ni  Ni12  1  0.181568  0.362705  0.000000  1
  Ni  Ni13  1  0.818863  0.637295  0.000000  1
  Ni  Ni14  1  0.636582  0.818982  0.000000  1
  Ni  Ni15  1  0.367304  0.187616  0.000000  1
  Ni  Ni16  1  0.179688  0.812384  0.000000  1
  Ni  Ni17  1  0.817599  0.181018  0.000000  1
