# generated using pymatgen
data_LaThZn5Ge
_symmetry_space_group_name_H-M   'P 1'
_cell_length_a   8.44408678
_cell_length_b   8.44408660
_cell_length_c   8.93875400
_cell_angle_alpha   90.00000000
_cell_angle_beta   90.00000000
_cell_angle_gamma   149.05274860
_symmetry_Int_Tables_number   1
_chemical_formula_structural   LaThZn5Ge
_chemical_formula_sum   'La2 Th2 Zn10 Ge2'
_cell_volume   327.75971182
_cell_formula_units_Z   2
loop_
 _symmetry_equiv_pos_site_id
 _symmetry_equiv_pos_as_xyz
  1  'x, y, z'
loop_
 _atom_site_type_symbol
 _atom_site_label
 _atom_site_symmetry_multiplicity
 _atom_site_fract_x
 _atom_site_fract_y
 _atom_site_fract_z
 _atom_site_occupancy
  La  La0  1  0.000000  0.000000  0.500000  1
  La  La1  1  0.000000  0.000000  0.000000  1
  Th  Th2  1  0.203450  0.796550  0.250000  1
  Th  Th3  1  0.796550  0.203450  0.750000  1
  Zn  Zn4  1  0.814201  0.185799  0.392574  1
  Zn  Zn5  1  0.185799  0.814201  0.607426  1
  Zn  Zn6  1  0.814201  0.185799  0.107426  1
  Zn  Zn7  1  0.185799  0.814201  0.892574  1
  Zn  Zn8  1  0.654292  0.345708  0.480231  1
  Zn  Zn9  1  0.345708  0.654292  0.519769  1
  Zn  Zn10  1  0.654292  0.345708  0.019769  1
  Zn  Zn11  1  0.345708  0.654292  0.980231  1
  Zn  Zn12  1  0.402938  0.597062  0.250000  1
  Zn  Zn13  1  0.597062  0.402938  0.750000  1
  Ge  Ge14  1  0.559239  0.440761  0.250000  1
  Ge  Ge15  1  0.440761  0.559239  0.750000  1
