# generated using pymatgen
data_Y2Pa(AlCo)3
_symmetry_space_group_name_H-M   'P 1'
_cell_length_a   7.09802217
_cell_length_b   7.09802221
_cell_length_c   3.62831100
_cell_angle_alpha   90.00000000
_cell_angle_beta   90.00000000
_cell_angle_gamma   118.90699089
_symmetry_Int_Tables_number   1
_chemical_formula_structural   Y2Pa(AlCo)3
_chemical_formula_sum   'Y2 Pa1 Al3 Co3'
_cell_volume   160.02524753
_cell_formula_units_Z   1
loop_
 _symmetry_equiv_pos_site_id
 _symmetry_equiv_pos_as_xyz
  1  'x, y, z'
loop_
 _atom_site_type_symbol
 _atom_site_label
 _atom_site_symmetry_multiplicity
 _atom_site_fract_x
 _atom_site_fract_y
 _atom_site_fract_z
 _atom_site_occupancy
  Y  Y0  1  0.581260  0.998155  0.500000  1
  Y  Y1  1  0.998155  0.581260  0.500000  1
  Pa  Pa2  1  0.430501  0.430501  0.500000  1
  Al  Al3  1  0.001899  0.240465  0.000000  1
  Al  Al4  1  0.775106  0.775106  0.000000  1
  Al  Al5  1  0.240465  0.001899  0.000000  1
  Co  Co6  1  0.624261  0.338873  0.000000  1
  Co  Co7  1  0.009481  0.009481  0.500000  1
  Co  Co8  1  0.338873  0.624261  0.000000  1
