# generated using pymatgen
data_ErTm7(HgPt)2
_symmetry_space_group_name_H-M   'P 1'
_cell_length_a   9.51432790
_cell_length_b   9.51432792
_cell_length_c   9.51439700
_cell_angle_alpha   59.99976328
_cell_angle_beta   59.99976322
_cell_angle_gamma   59.99797398
_symmetry_Int_Tables_number   1
_chemical_formula_structural   ErTm7(HgPt)2
_chemical_formula_sum   'Er2 Tm14 Hg4 Pt4'
_cell_volume   608.99579943
_cell_formula_units_Z   2
loop_
 _symmetry_equiv_pos_site_id
 _symmetry_equiv_pos_as_xyz
  1  'x, y, z'
loop_
 _atom_site_type_symbol
 _atom_site_label
 _atom_site_symmetry_multiplicity
 _atom_site_fract_x
 _atom_site_fract_y
 _atom_site_fract_z
 _atom_site_occupancy
  Er  Er0  1  0.355467  0.355467  0.355505  1
  Er  Er1  1  0.355467  0.355467  0.933560  1
  Tm  Tm2  1  0.355350  0.933978  0.355336  1
  Tm  Tm3  1  0.933978  0.355350  0.355336  1
  Tm  Tm4  1  0.810872  0.189185  0.189173  1
  Tm  Tm5  1  0.189185  0.810872  0.810770  1
  Tm  Tm6  1  0.189185  0.810872  0.189173  1
  Tm  Tm7  1  0.810872  0.189185  0.810770  1
  Tm  Tm8  1  0.189082  0.189082  0.810918  1
  Tm  Tm9  1  0.810722  0.810722  0.189278  1
  Tm  Tm10  1  0.935746  0.564221  0.564232  1
  Tm  Tm11  1  0.564221  0.935746  0.935801  1
  Tm  Tm12  1  0.564221  0.935746  0.564232  1
  Tm  Tm13  1  0.935746  0.564221  0.935801  1
  Tm  Tm14  1  0.564287  0.564287  0.935713  1
  Tm  Tm15  1  0.935838  0.935838  0.564162  1
  Hg  Hg16  1  0.586781  0.586781  0.586517  1
  Hg  Hg17  1  0.586781  0.586781  0.239920  1
  Hg  Hg18  1  0.586866  0.239894  0.586619  1
  Hg  Hg19  1  0.239894  0.586866  0.586619  1
  Pt  Pt20  1  0.144034  0.144034  0.144622  1
  Pt  Pt21  1  0.144034  0.144034  0.567310  1
  Pt  Pt22  1  0.143731  0.567634  0.144318  1
  Pt  Pt23  1  0.567634  0.143731  0.144318  1
