# generated using pymatgen
data_LaNdAl9CoPt2
_symmetry_space_group_name_H-M   'P 1'
_cell_length_a   7.63403124
_cell_length_b   7.63356533
_cell_length_c   9.57071411
_cell_angle_alpha   89.83532878
_cell_angle_beta   89.85120977
_cell_angle_gamma   119.66707879
_symmetry_Int_Tables_number   1
_chemical_formula_structural   LaNdAl9CoPt2
_chemical_formula_sum   'La2 Nd2 Al18 Co2 Pt4'
_cell_volume   484.61525798
_cell_formula_units_Z   2
loop_
 _symmetry_equiv_pos_site_id
 _symmetry_equiv_pos_as_xyz
  1  'x, y, z'
loop_
 _atom_site_type_symbol
 _atom_site_label
 _atom_site_symmetry_multiplicity
 _atom_site_fract_x
 _atom_site_fract_y
 _atom_site_fract_z
 _atom_site_occupancy
  La  La0  1  0.004728  0.331267  0.749915  1
  La  La1  1  0.333850  0.007896  0.749512  1
  Nd  Nd2  1  0.991448  0.666038  0.250587  1
  Nd  Nd3  1  0.669521  0.995856  0.250065  1
  Al  Al4  1  0.657466  0.987972  0.930420  1
  Al  Al5  1  0.998616  0.675064  0.569037  1
  Al  Al6  1  0.126159  0.125060  0.256014  1
  Al  Al7  1  0.659899  0.666584  0.051846  1
  Al  Al8  1  0.327296  0.327845  0.545884  1
  Al  Al9  1  0.335033  0.342270  0.953738  1
  Al  Al10  1  0.673508  0.674090  0.448002  1
  Al  Al11  1  0.333404  0.990411  0.073674  1
  Al  Al12  1  0.001921  0.326134  0.426648  1
  Al  Al13  1  0.339688  0.550297  0.242798  1
  Al  Al14  1  0.010312  0.342341  0.073702  1
  Al  Al15  1  0.540507  0.339152  0.249814  1
  Al  Al16  1  0.660655  0.461436  0.750171  1
  Al  Al17  1  0.870746  0.869835  0.743811  1
  Al  Al18  1  0.007939  0.666505  0.930747  1
  Al  Al19  1  0.674449  0.996790  0.569236  1
  Al  Al20  1  0.325418  0.999891  0.426759  1
  Al  Al21  1  0.453336  0.660427  0.757597  1
  Co  Co22  1  0.000036  0.999846  0.499381  1
  Co  Co23  1  0.331176  0.669265  0.001008  1
  Pt  Pt24  1  0.671075  0.329322  0.499283  1
  Pt  Pt25  1  0.671349  0.328303  0.000713  1
  Pt  Pt26  1  0.329907  0.670698  0.499121  1
  Pt  Pt27  1  0.000555  0.999407  0.000516  1
