# generated using pymatgen
data_Be2Nb6BP
_symmetry_space_group_name_H-M   'P 1'
_cell_length_a   6.48096207
_cell_length_b   6.47883573
_cell_length_c   3.37030100
_cell_angle_alpha   90.00000000
_cell_angle_beta   90.00000000
_cell_angle_gamma   90.14767894
_symmetry_Int_Tables_number   1
_chemical_formula_structural   Be2Nb6BP
_chemical_formula_sum   'Be2 Nb6 B1 P1'
_cell_volume   141.51539739
_cell_formula_units_Z   1
loop_
 _symmetry_equiv_pos_site_id
 _symmetry_equiv_pos_as_xyz
  1  'x, y, z'
loop_
 _atom_site_type_symbol
 _atom_site_label
 _atom_site_symmetry_multiplicity
 _atom_site_fract_x
 _atom_site_fract_y
 _atom_site_fract_z
 _atom_site_occupancy
  Be  Be0  1  0.620654  0.881499  0.000000  1
  Be  Be1  1  0.107932  0.609072  0.000000  1
  Nb  Nb2  1  0.995839  0.001791  0.000000  1
  Nb  Nb3  1  0.504381  0.502188  0.000000  1
  Nb  Nb4  1  0.688419  0.188402  0.500000  1
  Nb  Nb5  1  0.165090  0.325805  0.500000  1
  Nb  Nb6  1  0.824372  0.668130  0.500000  1
  Nb  Nb7  1  0.319519  0.818324  0.500000  1
  B  B8  1  0.888190  0.389691  0.000000  1
  P  P9  1  0.385605  0.115098  0.000000  1
