# generated using pymatgen
data_Ca4HfSc3(ReB6)4
_symmetry_space_group_name_H-M   'P 1'
_cell_length_a   3.55343400
_cell_length_b   9.08302238
_cell_length_c   11.43894348
_cell_angle_alpha   89.96689470
_cell_angle_beta   90.00000000
_cell_angle_gamma   90.00000000
_symmetry_Int_Tables_number   1
_chemical_formula_structural   Ca4HfSc3(ReB6)4
_chemical_formula_sum   'Ca4 Hf1 Sc3 Re4 B24'
_cell_volume   369.20236916
_cell_formula_units_Z   1
loop_
 _symmetry_equiv_pos_site_id
 _symmetry_equiv_pos_as_xyz
  1  'x, y, z'
loop_
 _atom_site_type_symbol
 _atom_site_label
 _atom_site_symmetry_multiplicity
 _atom_site_fract_x
 _atom_site_fract_y
 _atom_site_fract_z
 _atom_site_occupancy
  Ca  Ca0  1  0.000000  0.323748  0.415556  1
  Ca  Ca1  1  0.000000  0.676166  0.584849  1
  Ca  Ca2  1  0.000000  0.823425  0.084215  1
  Ca  Ca3  1  0.000000  0.176121  0.915273  1
  Hf  Hf4  1  0.000000  0.944569  0.368361  1
  Sc  Sc5  1  0.000000  0.055368  0.631674  1
  Sc  Sc6  1  0.000000  0.444410  0.132874  1
  Sc  Sc7  1  0.000000  0.555859  0.867230  1
  Re  Re8  1  0.000000  0.645090  0.316168  1
  Re  Re9  1  0.000000  0.356005  0.683402  1
  Re  Re10  1  0.000000  0.143007  0.183315  1
  Re  Re11  1  0.000000  0.855891  0.817301  1
  B  B12  1  0.500000  0.554874  0.432542  1
  B  B13  1  0.500000  0.445058  0.567536  1
  B  B14  1  0.500000  0.055045  0.067336  1
  B  B15  1  0.500000  0.945152  0.932353  1
  B  B16  1  0.500000  0.755117  0.418364  1
  B  B17  1  0.500000  0.244612  0.582098  1
  B  B18  1  0.500000  0.255425  0.082360  1
  B  B19  1  0.500000  0.744075  0.917786  1
  B  B20  1  0.500000  0.797009  0.263448  1
  B  B21  1  0.500000  0.202591  0.736293  1
  B  B22  1  0.500000  0.297540  0.236268  1
  B  B23  1  0.500000  0.702653  0.763489  1
  B  B24  1  0.500000  0.630009  0.182041  1
  B  B25  1  0.500000  0.369897  0.818019  1
  B  B26  1  0.500000  0.131102  0.317893  1
  B  B27  1  0.500000  0.869690  0.682219  1
  B  B28  1  0.500000  0.982932  0.212916  1
  B  B29  1  0.500000  0.017259  0.786484  1
  B  B30  1  0.500000  0.483389  0.286716  1
  B  B31  1  0.500000  0.517246  0.713391  1
  B  B32  1  0.500000  0.591533  0.024437  1
  B  B33  1  0.500000  0.408094  0.975455  1
  B  B34  1  0.500000  0.093627  0.475148  1
  B  B35  1  0.500000  0.906412  0.525188  1
