# generated using pymatgen
data_Ac2Cu3Pd
_symmetry_space_group_name_H-M   'P 1'
_cell_length_a   8.87878400
_cell_length_b   8.87878357
_cell_length_c   4.07928100
_cell_angle_alpha   90.00000000
_cell_angle_beta   90.00000000
_cell_angle_gamma   120.00000161
_symmetry_Int_Tables_number   1
_chemical_formula_structural   Ac2Cu3Pd
_chemical_formula_sum   'Ac4 Cu6 Pd2'
_cell_volume   278.49744013
_cell_formula_units_Z   2
loop_
 _symmetry_equiv_pos_site_id
 _symmetry_equiv_pos_as_xyz
  1  'x, y, z'
loop_
 _atom_site_type_symbol
 _atom_site_label
 _atom_site_symmetry_multiplicity
 _atom_site_fract_x
 _atom_site_fract_y
 _atom_site_fract_z
 _atom_site_occupancy
  Ac  Ac0  1  0.500000  0.500000  0.000000  1
  Ac  Ac1  1  0.000000  0.500000  0.000000  1
  Ac  Ac2  1  0.500000  0.000000  0.000000  1
  Ac  Ac3  1  0.000000  0.000000  0.000000  1
  Cu  Cu4  1  0.837504  0.675008  0.500000  1
  Cu  Cu5  1  0.162496  0.837504  0.500000  1
  Cu  Cu6  1  0.675008  0.837504  0.500000  1
  Cu  Cu7  1  0.162496  0.324992  0.500000  1
  Cu  Cu8  1  0.837504  0.162496  0.500000  1
  Cu  Cu9  1  0.324992  0.162496  0.500000  1
  Pd  Pd10  1  0.333333  0.666667  0.500000  1
  Pd  Pd11  1  0.666667  0.333333  0.500000  1
