# generated using pymatgen
data_Dy3Y13MgHg3Pt4
_symmetry_space_group_name_H-M   'P 1'
_cell_length_a   9.70806219
_cell_length_b   9.71315272
_cell_length_c   9.71315300
_cell_angle_alpha   60.00000246
_cell_angle_beta   59.98265521
_cell_angle_gamma   59.98265113
_symmetry_Int_Tables_number   1
_chemical_formula_structural   Dy3Y13MgHg3Pt4
_chemical_formula_sum   'Dy3 Y13 Mg1 Hg3 Pt4'
_cell_volume   647.47661327
_cell_formula_units_Z   1
loop_
 _symmetry_equiv_pos_site_id
 _symmetry_equiv_pos_as_xyz
  1  'x, y, z'
loop_
 _atom_site_type_symbol
 _atom_site_label
 _atom_site_symmetry_multiplicity
 _atom_site_fract_x
 _atom_site_fract_y
 _atom_site_fract_z
 _atom_site_occupancy
  Dy  Dy0  1  0.603795  0.601278  0.601278  1
  Dy  Dy1  1  0.603795  0.601278  0.193650  1
  Dy  Dy2  1  0.603795  0.193650  0.601278  1
  Y  Y3  1  0.183003  0.605666  0.605666  1
  Y  Y4  1  0.058779  0.440693  0.440693  1
  Y  Y5  1  0.436738  0.062012  0.062012  1
  Y  Y6  1  0.436738  0.062012  0.439238  1
  Y  Y7  1  0.058779  0.440693  0.059835  1
  Y  Y8  1  0.436738  0.439238  0.062012  1
  Y  Y9  1  0.058779  0.059835  0.440693  1
  Y  Y10  1  0.183314  0.815460  0.815460  1
  Y  Y11  1  0.813335  0.185914  0.185914  1
  Y  Y12  1  0.813335  0.185914  0.814838  1
  Y  Y13  1  0.183314  0.815460  0.185766  1
  Y  Y14  1  0.813335  0.814838  0.185914  1
  Y  Y15  1  0.183314  0.185766  0.815460  1
  Mg  Mg16  1  0.531637  0.822787  0.822787  1
  Hg  Hg17  1  0.833503  0.838447  0.838447  1
  Hg  Hg18  1  0.833503  0.838447  0.489602  1
  Hg  Hg19  1  0.833503  0.489602  0.838447  1
  Pt  Pt20  1  0.392670  0.394564  0.394564  1
  Pt  Pt21  1  0.392670  0.394564  0.818203  1
  Pt  Pt22  1  0.392670  0.818203  0.394564  1
  Pt  Pt23  1  0.818965  0.393679  0.393679  1
