# generated using pymatgen
data_DyFe2GeP
_symmetry_space_group_name_H-M   'P 1'
_cell_length_a   5.59277587
_cell_length_b   5.59277604
_cell_length_c   5.59277563
_cell_angle_alpha   138.99516854
_cell_angle_beta   138.99516930
_cell_angle_gamma   59.38221617
_symmetry_Int_Tables_number   1
_chemical_formula_structural   DyFe2GeP
_chemical_formula_sum   'Dy1 Fe2 Ge1 P1'
_cell_volume   74.57010889
_cell_formula_units_Z   1
loop_
 _symmetry_equiv_pos_site_id
 _symmetry_equiv_pos_as_xyz
  1  'x, y, z'
loop_
 _atom_site_type_symbol
 _atom_site_label
 _atom_site_symmetry_multiplicity
 _atom_site_fract_x
 _atom_site_fract_y
 _atom_site_fract_z
 _atom_site_occupancy
  Dy  Dy0  1  0.003224  0.003224  0.000000  1
  Fe  Fe1  1  0.741963  0.241963  0.500000  1
  Fe  Fe2  1  0.241963  0.741963  0.500000  1
  Ge  Ge3  1  0.373808  0.373808  0.000000  1
  P  P4  1  0.639041  0.639041  0.000000  1
