# generated using pymatgen
data_TbEuTmTaO7
_symmetry_space_group_name_H-M   'P 1'
_cell_length_a   6.47977332
_cell_length_b   6.46412582
_cell_length_c   7.54737700
_cell_angle_alpha   90.00000000
_cell_angle_beta   90.00000000
_cell_angle_gamma   108.84710222
_symmetry_Int_Tables_number   1
_chemical_formula_structural   TbEuTmTaO7
_chemical_formula_sum   'Tb2 Eu2 Tm2 Ta2 O14'
_cell_volume   299.18034041
_cell_formula_units_Z   2
loop_
 _symmetry_equiv_pos_site_id
 _symmetry_equiv_pos_as_xyz
  1  'x, y, z'
loop_
 _atom_site_type_symbol
 _atom_site_label
 _atom_site_symmetry_multiplicity
 _atom_site_fract_x
 _atom_site_fract_y
 _atom_site_fract_z
 _atom_site_occupancy
  Tb  Tb0  1  0.534255  0.999622  0.750699  1
  Tb  Tb1  1  0.465745  0.000378  0.250699  1
  Eu  Eu2  1  0.502507  0.501742  0.500215  1
  Eu  Eu3  1  0.497493  0.498258  0.000215  1
  Tm  Tm4  1  0.998950  0.466254  0.749219  1
  Tm  Tm5  1  0.001050  0.533746  0.249219  1
  Ta  Ta6  1  0.999951  0.000112  0.500067  1
  Ta  Ta7  1  0.000049  0.999888  0.000067  1
  O  O8  1  0.644476  0.363167  0.750569  1
  O  O9  1  0.355524  0.636833  0.250569  1
  O  O10  1  0.936703  0.071208  0.750053  1
  O  O11  1  0.063297  0.928792  0.250053  1
  O  O12  1  0.940258  0.680973  0.535770  1
  O  O13  1  0.059742  0.319027  0.035770  1
  O  O14  1  0.322345  0.075677  0.969688  1
  O  O15  1  0.677655  0.924323  0.469688  1
  O  O16  1  0.359889  0.628398  0.749614  1
  O  O17  1  0.640111  0.371602  0.249614  1
  O  O18  1  0.943857  0.682950  0.962264  1
  O  O19  1  0.056143  0.317050  0.462264  1
  O  O20  1  0.321102  0.074806  0.531845  1
  O  O21  1  0.678898  0.925194  0.031845  1
