# generated using pymatgen
data_RbWF7
_symmetry_space_group_name_H-M   'P 1'
_cell_length_a   10.60495000
_cell_length_b   10.60495000
_cell_length_c   10.60495000
_cell_angle_alpha   90.00000000
_cell_angle_beta   90.00000000
_cell_angle_gamma   90.00000000
_symmetry_Int_Tables_number   1
_chemical_formula_structural   RbWF7
_chemical_formula_sum   'Rb8 W8 F56'
_cell_volume   1192.68532530
_cell_formula_units_Z   8
loop_
 _symmetry_equiv_pos_site_id
 _symmetry_equiv_pos_as_xyz
  1  'x, y, z'
loop_
 _atom_site_type_symbol
 _atom_site_label
 _atom_site_symmetry_multiplicity
 _atom_site_fract_x
 _atom_site_fract_y
 _atom_site_fract_z
 _atom_site_occupancy
  Rb  Rb0  1  0.000000  0.000000  0.000000  1
  Rb  Rb1  1  0.000000  0.500000  0.500000  1
  Rb  Rb2  1  0.500000  0.000000  0.500000  1
  Rb  Rb3  1  0.500000  0.500000  0.000000  1
  Rb  Rb4  1  0.500000  0.000000  0.000000  1
  Rb  Rb5  1  0.500000  0.500000  0.500000  1
  Rb  Rb6  1  0.000000  0.000000  0.500000  1
  Rb  Rb7  1  0.000000  0.500000  0.000000  1
  W  W8  1  0.276658  0.723342  0.223342  1
  W  W9  1  0.723342  0.223342  0.276658  1
  W  W10  1  0.223342  0.276658  0.723342  1
  W  W11  1  0.776658  0.776658  0.776658  1
  W  W12  1  0.723342  0.276658  0.776658  1
  W  W13  1  0.276658  0.776658  0.723342  1
  W  W14  1  0.776658  0.723342  0.276658  1
  W  W15  1  0.223342  0.223342  0.223342  1
  F  F16  1  0.171521  0.828479  0.328479  1
  F  F17  1  0.828479  0.328479  0.171521  1
  F  F18  1  0.328479  0.171521  0.828479  1
  F  F19  1  0.671521  0.671521  0.671521  1
  F  F20  1  0.828479  0.171521  0.671521  1
  F  F21  1  0.171521  0.671521  0.828479  1
  F  F22  1  0.671521  0.828479  0.171521  1
  F  F23  1  0.328479  0.328479  0.328479  1
  F  F24  1  0.428242  0.625515  0.260484  1
  F  F25  1  0.571758  0.125515  0.239516  1
  F  F26  1  0.071758  0.374485  0.760484  1
  F  F27  1  0.928242  0.874485  0.739516  1
  F  F28  1  0.260484  0.428242  0.625515  1
  F  F29  1  0.239516  0.571758  0.125515  1
  F  F30  1  0.760484  0.071758  0.374485  1
  F  F31  1  0.739516  0.928242  0.874485  1
  F  F32  1  0.625515  0.260484  0.428242  1
  F  F33  1  0.125515  0.239516  0.571758  1
  F  F34  1  0.374485  0.760484  0.071758  1
  F  F35  1  0.874485  0.739516  0.928242  1
  F  F36  1  0.571758  0.374485  0.739516  1
  F  F37  1  0.428242  0.874485  0.760484  1
  F  F38  1  0.928242  0.625515  0.239516  1
  F  F39  1  0.071758  0.125515  0.260484  1
  F  F40  1  0.739516  0.571758  0.374485  1
  F  F41  1  0.760484  0.428242  0.874485  1
  F  F42  1  0.239516  0.928242  0.625515  1
  F  F43  1  0.260484  0.071758  0.125515  1
  F  F44  1  0.374485  0.739516  0.571758  1
  F  F45  1  0.874485  0.760484  0.428242  1
  F  F46  1  0.625515  0.239516  0.928242  1
  F  F47  1  0.125515  0.260484  0.071758  1
  F  F48  1  0.145885  0.780879  0.111675  1
  F  F49  1  0.854115  0.280879  0.388325  1
  F  F50  1  0.354115  0.219121  0.611675  1
  F  F51  1  0.645885  0.719121  0.888325  1
  F  F52  1  0.111675  0.145885  0.780879  1
  F  F53  1  0.388325  0.854115  0.280879  1
  F  F54  1  0.611675  0.354115  0.219121  1
  F  F55  1  0.888325  0.645885  0.719121  1
  F  F56  1  0.780879  0.111675  0.145885  1
  F  F57  1  0.280879  0.388325  0.854115  1
  F  F58  1  0.219121  0.611675  0.354115  1
  F  F59  1  0.719121  0.888325  0.645885  1
  F  F60  1  0.854115  0.219121  0.888325  1
  F  F61  1  0.145885  0.719121  0.611675  1
  F  F62  1  0.645885  0.780879  0.388325  1
  F  F63  1  0.354115  0.280879  0.111675  1
  F  F64  1  0.888325  0.854115  0.219121  1
  F  F65  1  0.611675  0.145885  0.719121  1
  F  F66  1  0.388325  0.645885  0.780879  1
  F  F67  1  0.111675  0.354115  0.280879  1
  F  F68  1  0.219121  0.888325  0.854115  1
  F  F69  1  0.719121  0.611675  0.145885  1
  F  F70  1  0.780879  0.388325  0.645885  1
  F  F71  1  0.280879  0.111675  0.354115  1
