# generated using pymatgen
data_Er4Lu4IrPt3
_symmetry_space_group_name_H-M   'P 1'
_cell_length_a   4.68690300
_cell_length_b   7.05529223
_cell_length_c   8.62457975
_cell_angle_alpha   89.89206995
_cell_angle_beta   90.00000000
_cell_angle_gamma   90.00000000
_symmetry_Int_Tables_number   1
_chemical_formula_structural   Er4Lu4IrPt3
_chemical_formula_sum   'Er4 Lu4 Ir1 Pt3'
_cell_volume   285.19252911
_cell_formula_units_Z   1
loop_
 _symmetry_equiv_pos_site_id
 _symmetry_equiv_pos_as_xyz
  1  'x, y, z'
loop_
 _atom_site_type_symbol
 _atom_site_label
 _atom_site_symmetry_multiplicity
 _atom_site_fract_x
 _atom_site_fract_y
 _atom_site_fract_z
 _atom_site_occupancy
  Er  Er0  1  0.250000  0.490018  0.170780  1
  Er  Er1  1  0.750000  0.514515  0.828432  1
  Er  Er2  1  0.750000  0.005966  0.666658  1
  Er  Er3  1  0.250000  0.985486  0.333342  1
  Lu  Lu4  1  0.250000  0.858739  0.919593  1
  Lu  Lu5  1  0.750000  0.143346  0.077487  1
  Lu  Lu6  1  0.750000  0.642258  0.425691  1
  Lu  Lu7  1  0.250000  0.357361  0.579216  1
  Ir  Ir8  1  0.250000  0.755385  0.592471  1
  Pt  Pt9  1  0.750000  0.244888  0.404647  1
  Pt  Pt10  1  0.750000  0.744291  0.093833  1
  Pt  Pt11  1  0.250000  0.257747  0.907851  1
