# generated using pymatgen
data_Nd3BCl3
_symmetry_space_group_name_H-M   'P 1'
_cell_length_a   9.84014647
_cell_length_b   9.84014550
_cell_length_c   9.84014700
_cell_angle_alpha   109.47122371
_cell_angle_beta   109.47122173
_cell_angle_gamma   109.47121862
_symmetry_Int_Tables_number   1
_chemical_formula_structural   Nd3BCl3
_chemical_formula_sum   'Nd12 B4 Cl12'
_cell_volume   733.47069576
_cell_formula_units_Z   4
loop_
 _symmetry_equiv_pos_site_id
 _symmetry_equiv_pos_as_xyz
  1  'x, y, z'
loop_
 _atom_site_type_symbol
 _atom_site_label
 _atom_site_symmetry_multiplicity
 _atom_site_fract_x
 _atom_site_fract_y
 _atom_site_fract_z
 _atom_site_occupancy
  Nd  Nd0  1  0.474065  0.487032  0.237032  1
  Nd  Nd1  1  0.750000  0.237032  0.262968  1
  Nd  Nd2  1  0.750000  0.012968  0.487032  1
  Nd  Nd3  1  0.237032  0.474065  0.487032  1
  Nd  Nd4  1  0.262968  0.750000  0.237032  1
  Nd  Nd5  1  0.025935  0.262968  0.012968  1
  Nd  Nd6  1  0.012968  0.025935  0.262968  1
  Nd  Nd7  1  0.487032  0.750000  0.012968  1
  Nd  Nd8  1  0.487032  0.237032  0.474065  1
  Nd  Nd9  1  0.012968  0.487032  0.750000  1
  Nd  Nd10  1  0.262968  0.012968  0.025935  1
  Nd  Nd11  1  0.237032  0.262968  0.750000  1
  B  B12  1  0.250000  0.250000  0.250000  1
  B  B13  1  0.500000  0.000000  0.250000  1
  B  B14  1  0.000000  0.250000  0.500000  1
  B  B15  1  0.250000  0.500000  0.000000  1
  Cl  Cl16  1  0.250000  0.754579  0.745421  1
  Cl  Cl17  1  0.509158  0.504579  0.754579  1
  Cl  Cl18  1  0.990842  0.745421  0.995421  1
  Cl  Cl19  1  0.745421  0.250000  0.754579  1
  Cl  Cl20  1  0.995421  0.990842  0.745421  1
  Cl  Cl21  1  0.250000  0.995421  0.504579  1
  Cl  Cl22  1  0.754579  0.509158  0.504579  1
  Cl  Cl23  1  0.504579  0.250000  0.995421  1
  Cl  Cl24  1  0.754579  0.745421  0.250000  1
  Cl  Cl25  1  0.745421  0.995421  0.990842  1
  Cl  Cl26  1  0.995421  0.504579  0.250000  1
  Cl  Cl27  1  0.504579  0.754579  0.509158  1
