# generated using pymatgen
data_NaDy4(NiP)10
_symmetry_space_group_name_H-M   'P 1'
_cell_length_a   8.67869100
_cell_length_b   7.70999564
_cell_length_c   8.67869100
_cell_angle_alpha   55.74890800
_cell_angle_beta   90.00000000
_cell_angle_gamma   55.74890800
_symmetry_Int_Tables_number   1
_chemical_formula_structural   NaDy4(NiP)10
_chemical_formula_sum   'Na1 Dy4 Ni10 P10'
_cell_volume   351.54367325
_cell_formula_units_Z   1
loop_
 _symmetry_equiv_pos_site_id
 _symmetry_equiv_pos_as_xyz
  1  'x, y, z'
loop_
 _atom_site_type_symbol
 _atom_site_label
 _atom_site_symmetry_multiplicity
 _atom_site_fract_x
 _atom_site_fract_y
 _atom_site_fract_z
 _atom_site_occupancy
  Na  Na0  1  0.000000  0.000000  0.000000  1
  Dy  Dy1  1  0.199527  0.000000  0.601417  1
  Dy  Dy2  1  0.398583  0.000000  0.199527  1
  Dy  Dy3  1  0.601417  0.000000  0.800473  1
  Dy  Dy4  1  0.800473  0.000000  0.398583  1
  Ni  Ni5  1  0.950158  0.500914  0.849234  1
  Ni  Ni6  1  0.150766  0.499086  0.451072  1
  Ni  Ni7  1  0.350148  0.499086  0.049842  1
  Ni  Ni8  1  0.548928  0.500914  0.649852  1
  Ni  Ni9  1  0.750000  0.500000  0.250000  1
  Ni  Ni10  1  0.849234  0.500914  0.548928  1
  Ni  Ni11  1  0.049842  0.499086  0.150766  1
  Ni  Ni12  1  0.250000  0.500000  0.750000  1
  Ni  Ni13  1  0.451072  0.499086  0.350148  1
  Ni  Ni14  1  0.649852  0.500914  0.950158  1
  P  P15  1  0.176834  0.246021  0.777045  1
  P  P16  1  0.377192  0.245615  0.377192  1
  P  P17  1  0.577144  0.246021  0.976934  1
  P  P18  1  0.777045  0.246021  0.577144  1
  P  P19  1  0.976934  0.246021  0.176834  1
  P  P20  1  0.622808  0.754385  0.622808  1
  P  P21  1  0.823166  0.753979  0.222955  1
  P  P22  1  0.023065  0.753979  0.823166  1
  P  P23  1  0.222955  0.753979  0.422856  1
  P  P24  1  0.422856  0.753979  0.023065  1
