# generated using pymatgen
data_Sc4CrB12Os
_symmetry_space_group_name_H-M   'P 1'
_cell_length_a   3.43478300
_cell_length_b   8.88713207
_cell_length_c   11.18599508
_cell_angle_alpha   90.01384559
_cell_angle_beta   90.00000000
_cell_angle_gamma   90.00000000
_symmetry_Int_Tables_number   1
_chemical_formula_structural   Sc4CrB12Os
_chemical_formula_sum   'Sc8 Cr2 B24 Os2'
_cell_volume   341.45663023
_cell_formula_units_Z   2
loop_
 _symmetry_equiv_pos_site_id
 _symmetry_equiv_pos_as_xyz
  1  'x, y, z'
loop_
 _atom_site_type_symbol
 _atom_site_label
 _atom_site_symmetry_multiplicity
 _atom_site_fract_x
 _atom_site_fract_y
 _atom_site_fract_z
 _atom_site_occupancy
  Sc  Sc0  1  0.000000  0.818105  0.087168  1
  Sc  Sc1  1  0.000000  0.181895  0.912832  1
  Sc  Sc2  1  0.000000  0.323093  0.415160  1
  Sc  Sc3  1  0.000000  0.676907  0.584840  1
  Sc  Sc4  1  0.000000  0.445667  0.129389  1
  Sc  Sc5  1  0.000000  0.554333  0.870611  1
  Sc  Sc6  1  0.000000  0.942246  0.371945  1
  Sc  Sc7  1  0.000000  0.057754  0.628055  1
  Cr  Cr8  1  0.000000  0.640352  0.319149  1
  Cr  Cr9  1  0.000000  0.359648  0.680851  1
  B  B10  1  0.500000  0.053318  0.064965  1
  B  B11  1  0.500000  0.946682  0.935035  1
  B  B12  1  0.500000  0.553429  0.434491  1
  B  B13  1  0.500000  0.446571  0.565509  1
  B  B14  1  0.500000  0.253264  0.079060  1
  B  B15  1  0.500000  0.746736  0.920940  1
  B  B16  1  0.500000  0.751072  0.420693  1
  B  B17  1  0.500000  0.248928  0.579307  1
  B  B18  1  0.500000  0.295539  0.236800  1
  B  B19  1  0.500000  0.704461  0.763200  1
  B  B20  1  0.500000  0.794208  0.264217  1
  B  B21  1  0.500000  0.205792  0.735783  1
  B  B22  1  0.500000  0.130484  0.317923  1
  B  B23  1  0.500000  0.869516  0.682077  1
  B  B24  1  0.500000  0.630520  0.183140  1
  B  B25  1  0.500000  0.369480  0.816860  1
  B  B26  1  0.500000  0.480669  0.288193  1
  B  B27  1  0.500000  0.519331  0.711807  1
  B  B28  1  0.500000  0.979041  0.212810  1
  B  B29  1  0.500000  0.020959  0.787190  1
  B  B30  1  0.500000  0.099914  0.472628  1
  B  B31  1  0.500000  0.900086  0.527372  1
  B  B32  1  0.500000  0.599819  0.027397  1
  B  B33  1  0.500000  0.400181  0.972603  1
  Os  Os34  1  0.000000  0.139473  0.179409  1
  Os  Os35  1  0.000000  0.860527  0.820591  1
