# generated using pymatgen
data_SrV2(PbO4)2
_symmetry_space_group_name_H-M   'P 1'
_cell_length_a   6.52082000
_cell_length_b   7.48489518
_cell_length_c   9.48860224
_cell_angle_alpha   65.49775726
_cell_angle_beta   90.00000000
_cell_angle_gamma   90.00000000
_symmetry_Int_Tables_number   1
_chemical_formula_structural   SrV2(PbO4)2
_chemical_formula_sum   'Sr2 V4 Pb4 O16'
_cell_volume   421.41048517
_cell_formula_units_Z   2
loop_
 _symmetry_equiv_pos_site_id
 _symmetry_equiv_pos_as_xyz
  1  'x, y, z'
loop_
 _atom_site_type_symbol
 _atom_site_label
 _atom_site_symmetry_multiplicity
 _atom_site_fract_x
 _atom_site_fract_y
 _atom_site_fract_z
 _atom_site_occupancy
  Sr  Sr0  1  0.500000  0.000000  0.500000  1
  Sr  Sr1  1  0.000000  0.000000  0.000000  1
  V  V2  1  0.518842  0.199518  0.099412  1
  V  V3  1  0.018842  0.800482  0.400588  1
  V  V4  1  0.481158  0.800482  0.900588  1
  V  V5  1  0.981158  0.199518  0.599412  1
  Pb  Pb6  1  0.109436  0.387662  0.211241  1
  Pb  Pb7  1  0.609436  0.612338  0.288759  1
  Pb  Pb8  1  0.890564  0.612338  0.788759  1
  Pb  Pb9  1  0.390564  0.387662  0.711241  1
  O  O10  1  0.539615  0.957744  0.230117  1
  O  O11  1  0.039615  0.042256  0.269883  1
  O  O12  1  0.460385  0.042256  0.769883  1
  O  O13  1  0.960385  0.957744  0.730117  1
  O  O14  1  0.475927  0.327583  0.217577  1
  O  O15  1  0.975927  0.672417  0.282423  1
  O  O16  1  0.524073  0.672417  0.782423  1
  O  O17  1  0.024073  0.327583  0.717577  1
  O  O18  1  0.300155  0.241591  0.979433  1
  O  O19  1  0.800155  0.758409  0.520567  1
  O  O20  1  0.764359  0.271622  0.484781  1
  O  O21  1  0.264359  0.728378  0.015219  1
  O  O22  1  0.235641  0.728378  0.515219  1
  O  O23  1  0.735641  0.271622  0.984781  1
  O  O24  1  0.199845  0.241591  0.479433  1
  O  O25  1  0.699845  0.758409  0.020567  1
