# generated using pymatgen
data_NdHo5(GaIr2)6
_symmetry_space_group_name_H-M   'P 1'
_cell_length_a   5.56569400
_cell_length_b   5.56569503
_cell_length_c   15.80915600
_cell_angle_alpha   90.00000000
_cell_angle_beta   90.00000000
_cell_angle_gamma   120.00000579
_symmetry_Int_Tables_number   1
_chemical_formula_structural   NdHo5(GaIr2)6
_chemical_formula_sum   'Nd1 Ho5 Ga6 Ir12'
_cell_volume   424.10952066
_cell_formula_units_Z   1
loop_
 _symmetry_equiv_pos_site_id
 _symmetry_equiv_pos_as_xyz
  1  'x, y, z'
loop_
 _atom_site_type_symbol
 _atom_site_label
 _atom_site_symmetry_multiplicity
 _atom_site_fract_x
 _atom_site_fract_y
 _atom_site_fract_z
 _atom_site_occupancy
  Nd  Nd0  1  0.666667  0.333333  0.250000  1
  Ho  Ho1  1  0.333333  0.666667  0.540293  1
  Ho  Ho2  1  0.666667  0.333333  0.460511  1
  Ho  Ho3  1  0.666667  0.333333  0.039489  1
  Ho  Ho4  1  0.333333  0.666667  0.959707  1
  Ho  Ho5  1  0.333333  0.666667  0.750000  1
  Ga  Ga6  1  0.000000  0.000000  0.250000  1
  Ga  Ga7  1  0.000000  0.000000  0.750000  1
  Ga  Ga8  1  0.333333  0.666667  0.250000  1
  Ga  Ga9  1  0.666667  0.333333  0.750000  1
  Ga  Ga10  1  0.000000  0.000000  0.999781  1
  Ga  Ga11  1  0.000000  0.000000  0.500219  1
  Ir  Ir12  1  0.169632  0.339265  0.124744  1
  Ir  Ir13  1  0.830423  0.660846  0.874756  1
  Ir  Ir14  1  0.660735  0.830368  0.124744  1
  Ir  Ir15  1  0.830423  0.660846  0.625244  1
  Ir  Ir16  1  0.339154  0.169577  0.874756  1
  Ir  Ir17  1  0.169632  0.339265  0.375256  1
  Ir  Ir18  1  0.169632  0.830368  0.124744  1
  Ir  Ir19  1  0.339154  0.169577  0.625244  1
  Ir  Ir20  1  0.830423  0.169577  0.874756  1
  Ir  Ir21  1  0.660735  0.830368  0.375256  1
  Ir  Ir22  1  0.830423  0.169577  0.625244  1
  Ir  Ir23  1  0.169632  0.830368  0.375256  1
