# generated using pymatgen
data_Tm10Lu2InFe2TcHg
_symmetry_space_group_name_H-M   'P 1'
_cell_length_a   8.20728376
_cell_length_b   8.21688171
_cell_length_c   8.20728500
_cell_angle_alpha   107.72262797
_cell_angle_beta   109.11944473
_cell_angle_gamma   111.54714997
_symmetry_Int_Tables_number   1
_chemical_formula_structural   Tm10Lu2InFe2TcHg
_chemical_formula_sum   'Tm10 Lu2 In1 Fe2 Tc1 Hg1'
_cell_volume   425.83531495
_cell_formula_units_Z   1
loop_
 _symmetry_equiv_pos_site_id
 _symmetry_equiv_pos_as_xyz
  1  'x, y, z'
loop_
 _atom_site_type_symbol
 _atom_site_label
 _atom_site_symmetry_multiplicity
 _atom_site_fract_x
 _atom_site_fract_y
 _atom_site_fract_z
 _atom_site_occupancy
  Tm  Tm0  1  0.191256  0.957198  0.765942  1
  Tm  Tm1  1  0.948529  0.193359  0.756150  1
  Tm  Tm2  1  0.808744  0.042802  0.234058  1
  Tm  Tm3  1  0.051471  0.806641  0.243850  1
  Tm  Tm4  1  0.437209  0.193359  0.244831  1
  Tm  Tm5  1  0.562791  0.806641  0.755169  1
  Tm  Tm6  1  0.308434  0.308885  0.616357  1
  Tm  Tm7  1  0.691566  0.691115  0.383643  1
  Tm  Tm8  1  0.692528  0.308885  0.000451  1
  Tm  Tm9  1  0.307472  0.691115  0.999549  1
  Lu  Lu10  1  0.190936  0.424577  0.233641  1
  Lu  Lu11  1  0.809064  0.575423  0.766359  1
  In  In12  1  0.000000  0.500000  0.500000  1
  Fe  Fe13  1  0.382362  0.382598  0.000235  1
  Fe  Fe14  1  0.617638  0.617402  0.999765  1
  Tc  Tc15  1  0.000000  0.000000  0.000000  1
  Hg  Hg16  1  0.500000  0.000000  0.500000  1
