# generated using pymatgen
data_Hf7Sc(V3Ge4)4
_symmetry_space_group_name_H-M   'P 1'
_cell_length_a   6.61274278
_cell_length_b   6.75714281
_cell_length_c   12.77589605
_cell_angle_alpha   89.99029612
_cell_angle_beta   89.99861476
_cell_angle_gamma   89.94458863
_symmetry_Int_Tables_number   1
_chemical_formula_structural   Hf7Sc(V3Ge4)4
_chemical_formula_sum   'Hf7 Sc1 V12 Ge16'
_cell_volume   570.86824741
_cell_formula_units_Z   1
loop_
 _symmetry_equiv_pos_site_id
 _symmetry_equiv_pos_as_xyz
  1  'x, y, z'
loop_
 _atom_site_type_symbol
 _atom_site_label
 _atom_site_symmetry_multiplicity
 _atom_site_fract_x
 _atom_site_fract_y
 _atom_site_fract_z
 _atom_site_occupancy
  Hf  Hf0  1  0.012048  0.173619  0.091667  1
  Hf  Hf1  1  0.510949  0.327840  0.408444  1
  Hf  Hf2  1  0.487784  0.673275  0.909111  1
  Hf  Hf3  1  0.987267  0.824715  0.592155  1
  Hf  Hf4  1  0.987553  0.826995  0.908726  1
  Hf  Hf5  1  0.487409  0.673715  0.590848  1
  Hf  Hf6  1  0.512192  0.326258  0.091560  1
  Sc  Sc7  1  0.011118  0.173020  0.408879  1
  V  V8  1  0.660681  0.991217  0.249392  1
  V  V9  1  0.162526  0.509828  0.248469  1
  V  V10  1  0.838226  0.492704  0.750173  1
  V  V11  1  0.338072  0.008515  0.750098  1
  V  V12  1  0.837627  0.659087  0.125132  1
  V  V13  1  0.340283  0.838106  0.374225  1
  V  V14  1  0.662621  0.158774  0.874675  1
  V  V15  1  0.165294  0.342746  0.625958  1
  V  V16  1  0.163225  0.341781  0.874575  1
  V  V17  1  0.662355  0.158866  0.625460  1
  V  V18  1  0.337068  0.840505  0.125307  1
  V  V19  1  0.835707  0.659463  0.374304  1
  Ge  Ge20  1  0.810523  0.351827  0.251123  1
  Ge  Ge21  1  0.307609  0.146754  0.250947  1
  Ge  Ge22  1  0.690306  0.853153  0.749994  1
  Ge  Ge23  1  0.191451  0.647426  0.750213  1
  Ge  Ge24  1  0.031638  0.874987  0.250622  1
  Ge  Ge25  1  0.532643  0.624619  0.249261  1
  Ge  Ge26  1  0.468844  0.374767  0.750095  1
  Ge  Ge27  1  0.968267  0.126077  0.749399  1
  Ge  Ge28  1  0.821550  0.453550  0.956786  1
  Ge  Ge29  1  0.321285  0.045742  0.543107  1
  Ge  Ge30  1  0.678502  0.953906  0.043506  1
  Ge  Ge31  1  0.176846  0.544920  0.456108  1
  Ge  Ge32  1  0.178419  0.545984  0.043058  1
  Ge  Ge33  1  0.679147  0.955395  0.456374  1
  Ge  Ge34  1  0.321238  0.046373  0.956707  1
  Ge  Ge35  1  0.821727  0.453492  0.543540  1
