# generated using pymatgen
data_CeGdReB6
_symmetry_space_group_name_H-M   'P 1'
_cell_length_a   3.73977700
_cell_length_b   9.36164900
_cell_length_c   11.51255000
_cell_angle_alpha   90.00000000
_cell_angle_beta   90.00000000
_cell_angle_gamma   90.00000000
_symmetry_Int_Tables_number   1
_chemical_formula_structural   CeGdReB6
_chemical_formula_sum   'Ce4 Gd4 Re4 B24'
_cell_volume   403.05989706
_cell_formula_units_Z   4
loop_
 _symmetry_equiv_pos_site_id
 _symmetry_equiv_pos_as_xyz
  1  'x, y, z'
loop_
 _atom_site_type_symbol
 _atom_site_label
 _atom_site_symmetry_multiplicity
 _atom_site_fract_x
 _atom_site_fract_y
 _atom_site_fract_z
 _atom_site_occupancy
  Ce  Ce0  1  0.000000  0.953041  0.387790  1
  Ce  Ce1  1  0.000000  0.046959  0.612210  1
  Ce  Ce2  1  0.000000  0.453041  0.112210  1
  Ce  Ce3  1  0.000000  0.546959  0.887790  1
  Gd  Gd4  1  0.000000  0.337081  0.408781  1
  Gd  Gd5  1  0.000000  0.662919  0.591219  1
  Gd  Gd6  1  0.000000  0.837081  0.091219  1
  Gd  Gd7  1  0.000000  0.162919  0.908781  1
  Re  Re8  1  0.000000  0.644556  0.319603  1
  Re  Re9  1  0.000000  0.355444  0.680397  1
  Re  Re10  1  0.000000  0.144556  0.180397  1
  Re  Re11  1  0.000000  0.855444  0.819603  1
  B  B12  1  0.500000  0.553720  0.431068  1
  B  B13  1  0.500000  0.446280  0.568932  1
  B  B14  1  0.500000  0.053720  0.068932  1
  B  B15  1  0.500000  0.946280  0.931068  1
  B  B16  1  0.500000  0.743323  0.421833  1
  B  B17  1  0.500000  0.256677  0.578167  1
  B  B18  1  0.500000  0.243323  0.078167  1
  B  B19  1  0.500000  0.756677  0.921833  1
  B  B20  1  0.500000  0.799612  0.273340  1
  B  B21  1  0.500000  0.200388  0.726660  1
  B  B22  1  0.500000  0.299612  0.226660  1
  B  B23  1  0.500000  0.700388  0.773340  1
  B  B24  1  0.500000  0.643195  0.189173  1
  B  B25  1  0.500000  0.356805  0.810827  1
  B  B26  1  0.500000  0.143195  0.310827  1
  B  B27  1  0.500000  0.856805  0.689173  1
  B  B28  1  0.500000  0.990675  0.217362  1
  B  B29  1  0.500000  0.009325  0.782638  1
  B  B30  1  0.500000  0.490675  0.282638  1
  B  B31  1  0.500000  0.509325  0.717362  1
  B  B32  1  0.500000  0.641921  0.039557  1
  B  B33  1  0.500000  0.358079  0.960443  1
  B  B34  1  0.500000  0.141921  0.460443  1
  B  B35  1  0.500000  0.858079  0.539557  1
