# generated using pymatgen
data_Cs4CrCdSe5
_symmetry_space_group_name_H-M   'P 1'
_cell_length_a   8.29059883
_cell_length_b   9.50938861
_cell_length_c   11.61949789
_cell_angle_alpha   74.41863785
_cell_angle_beta   87.03654596
_cell_angle_gamma   80.95345936
_symmetry_Int_Tables_number   1
_chemical_formula_structural   Cs4CrCdSe5
_chemical_formula_sum   'Cs8 Cr2 Cd2 Se10'
_cell_volume   871.37939065
_cell_formula_units_Z   2
loop_
 _symmetry_equiv_pos_site_id
 _symmetry_equiv_pos_as_xyz
  1  'x, y, z'
loop_
 _atom_site_type_symbol
 _atom_site_label
 _atom_site_symmetry_multiplicity
 _atom_site_fract_x
 _atom_site_fract_y
 _atom_site_fract_z
 _atom_site_occupancy
  Cs  Cs0  1  0.434120  0.313380  0.099859  1
  Cs  Cs1  1  0.565880  0.686620  0.900141  1
  Cs  Cs2  1  0.195751  0.080476  0.864310  1
  Cs  Cs3  1  0.063870  0.611478  0.746811  1
  Cs  Cs4  1  0.804249  0.919524  0.135690  1
  Cs  Cs5  1  0.936130  0.388522  0.253189  1
  Cs  Cs6  1  0.567275  0.721803  0.496297  1
  Cs  Cs7  1  0.432725  0.278197  0.503703  1
  Cr  Cr8  1  0.278579  0.719214  0.209252  1
  Cr  Cr9  1  0.721421  0.280786  0.790748  1
  Cd  Cd10  1  0.904893  0.084515  0.599387  1
  Cd  Cd11  1  0.095107  0.915485  0.400613  1
  Se  Se12  1  0.872273  0.368846  0.616482  1
  Se  Se13  1  0.216919  0.951951  0.598193  1
  Se  Se14  1  0.455554  0.403345  0.771220  1
  Se  Se15  1  0.160664  0.681745  0.045410  1
  Se  Se16  1  0.839336  0.318255  0.954590  1
  Se  Se17  1  0.544446  0.596655  0.228780  1
  Se  Se18  1  0.127727  0.631154  0.383518  1
  Se  Se19  1  0.275583  0.973353  0.193573  1
  Se  Se20  1  0.724417  0.026647  0.806427  1
  Se  Se21  1  0.783081  0.048049  0.401807  1
