# generated using pymatgen
data_La9PrSm2(SiBr3)4
_symmetry_space_group_name_H-M   'P 1'
_cell_length_a   10.61484139
_cell_length_b   10.63613837
_cell_length_c   10.61012999
_cell_angle_alpha   109.67076683
_cell_angle_beta   109.53881727
_cell_angle_gamma   109.73029319
_symmetry_Int_Tables_number   1
_chemical_formula_structural   La9PrSm2(SiBr3)4
_chemical_formula_sum   'La9 Pr1 Sm2 Si4 Br12'
_cell_volume   916.09932489
_cell_formula_units_Z   1
loop_
 _symmetry_equiv_pos_site_id
 _symmetry_equiv_pos_as_xyz
  1  'x, y, z'
loop_
 _atom_site_type_symbol
 _atom_site_label
 _atom_site_symmetry_multiplicity
 _atom_site_fract_x
 _atom_site_fract_y
 _atom_site_fract_z
 _atom_site_occupancy
  La  La0  1  0.480250  0.490748  0.237060  1
  La  La1  1  0.262783  0.009547  0.019482  1
  La  La2  1  0.239600  0.480251  0.491251  1
  La  La3  1  0.008588  0.020034  0.260124  1
  La  La4  1  0.010901  0.490784  0.749910  1
  La  La5  1  0.491696  0.239142  0.479207  1
  La  La6  1  0.750563  0.009530  0.489285  1
  La  La7  1  0.020851  0.261350  0.008344  1
  La  La8  1  0.261058  0.750220  0.239212  1
  Pr  Pr9  1  0.237260  0.265469  0.749661  1
  Sm  Sm10  1  0.485281  0.749591  0.014151  1
  Sm  Sm11  1  0.750263  0.232989  0.264036  1
  Si  Si12  1  0.250520  0.249944  0.249601  1
  Si  Si13  1  0.998382  0.250039  0.498029  1
  Si  Si14  1  0.251064  0.502311  0.000569  1
  Si  Si15  1  0.501189  0.999709  0.248903  1
  Br  Br16  1  0.999853  0.993394  0.744285  1
  Br  Br17  1  0.748776  0.744665  0.241161  1
  Br  Br18  1  0.990548  0.745768  0.994577  1
  Br  Br19  1  0.250356  0.998772  0.507033  1
  Br  Br20  1  0.740139  0.996617  0.995983  1
  Br  Br21  1  0.507485  0.250320  0.997806  1
  Br  Br22  1  0.745217  0.249893  0.754436  1
  Br  Br23  1  0.505577  0.754556  0.509484  1
  Br  Br24  1  0.755628  0.503028  0.496095  1
  Br  Br25  1  0.258851  0.755617  0.751226  1
  Br  Br26  1  0.507437  0.507409  0.759729  1
  Br  Br27  1  0.989881  0.498304  0.249365  1
