# generated using pymatgen
data_Sc3AlGa4Cu
_symmetry_space_group_name_H-M   'P 1'
_cell_length_a   6.60677500
_cell_length_b   6.64259850
_cell_length_c   4.03769300
_cell_angle_alpha   90.00000000
_cell_angle_beta   90.00000000
_cell_angle_gamma   119.82176592
_symmetry_Int_Tables_number   1
_chemical_formula_structural   Sc3AlGa4Cu
_chemical_formula_sum   'Sc3 Al1 Ga4 Cu1'
_cell_volume   153.73354539
_cell_formula_units_Z   1
loop_
 _symmetry_equiv_pos_site_id
 _symmetry_equiv_pos_as_xyz
  1  'x, y, z'
loop_
 _atom_site_type_symbol
 _atom_site_label
 _atom_site_symmetry_multiplicity
 _atom_site_fract_x
 _atom_site_fract_y
 _atom_site_fract_z
 _atom_site_occupancy
  Sc  Sc0  1  0.584745  0.000000  0.000000  1
  Sc  Sc1  1  0.998585  0.584123  0.000000  1
  Sc  Sc2  1  0.414463  0.415877  0.000000  1
  Al  Al3  1  0.235906  0.000000  0.500000  1
  Ga  Ga4  1  0.006123  0.247823  0.500000  1
  Ga  Ga5  1  0.758300  0.752177  0.500000  1
  Ga  Ga6  1  0.335558  0.671386  0.500000  1
  Ga  Ga7  1  0.664174  0.328614  0.500000  1
  Cu  Cu8  1  0.002145  0.000000  0.000000  1
