# generated using pymatgen
data_ThCo3TcSn6
_symmetry_space_group_name_H-M   'P 1'
_cell_length_a   6.68884596
_cell_length_b   6.74533365
_cell_length_c   6.83607000
_cell_angle_alpha   120.16092778
_cell_angle_beta   119.89257264
_cell_angle_gamma   88.93805284
_symmetry_Int_Tables_number   1
_chemical_formula_structural   ThCo3TcSn6
_chemical_formula_sum   'Th1 Co3 Tc1 Sn6'
_cell_volume   219.85980516
_cell_formula_units_Z   1
loop_
 _symmetry_equiv_pos_site_id
 _symmetry_equiv_pos_as_xyz
  1  'x, y, z'
loop_
 _atom_site_type_symbol
 _atom_site_label
 _atom_site_symmetry_multiplicity
 _atom_site_fract_x
 _atom_site_fract_y
 _atom_site_fract_z
 _atom_site_occupancy
  Th  Th0  1  0.001734  0.013980  0.999987  1
  Co  Co1  1  0.261995  0.588350  0.999915  1
  Co  Co2  1  0.756561  0.755682  0.365948  1
  Co  Co3  1  0.390613  0.389682  0.633998  1
  Tc  Tc4  1  0.592449  0.256797  0.999907  1
  Sn  Sn5  1  0.882263  0.538093  0.999989  1
  Sn  Sn6  1  0.531433  0.866216  0.000213  1
  Sn  Sn7  1  0.476209  0.479991  0.367319  1
  Sn  Sn8  1  0.493101  0.993405  0.488644  1
  Sn  Sn9  1  0.004847  0.504887  0.511374  1
  Sn  Sn10  1  0.108796  0.112917  0.632709  1
