# generated using pymatgen
data_ErTm19(IrRh2)4
_symmetry_space_group_name_H-M   'P 1'
_cell_length_a   10.75195803
_cell_length_b   10.75318301
_cell_length_c   6.30775202
_cell_angle_alpha   89.99621393
_cell_angle_beta   90.00785666
_cell_angle_gamma   89.99591845
_symmetry_Int_Tables_number   1
_chemical_formula_structural   ErTm19(IrRh2)4
_chemical_formula_sum   'Er1 Tm19 Ir4 Rh8'
_cell_volume   729.28822731
_cell_formula_units_Z   1
loop_
 _symmetry_equiv_pos_site_id
 _symmetry_equiv_pos_as_xyz
  1  'x, y, z'
loop_
 _atom_site_type_symbol
 _atom_site_label
 _atom_site_symmetry_multiplicity
 _atom_site_fract_x
 _atom_site_fract_y
 _atom_site_fract_z
 _atom_site_occupancy
  Er  Er0  1  0.089546  0.291025  0.122237  1
  Tm  Tm1  1  0.291681  0.089232  0.378359  1
  Tm  Tm2  1  0.291501  0.910483  0.878192  1
  Tm  Tm3  1  0.708475  0.089469  0.878096  1
  Tm  Tm4  1  0.708527  0.910490  0.378105  1
  Tm  Tm5  1  0.587163  0.790059  0.878395  1
  Tm  Tm6  1  0.587189  0.209941  0.378349  1
  Tm  Tm7  1  0.412856  0.790037  0.378330  1
  Tm  Tm8  1  0.412901  0.209918  0.878309  1
  Tm  Tm9  1  0.210083  0.413046  0.621641  1
  Tm  Tm10  1  0.210061  0.587519  0.121693  1
  Tm  Tm11  1  0.789792  0.412915  0.121616  1
  Tm  Tm12  1  0.790043  0.587184  0.621681  1
  Tm  Tm13  1  0.910480  0.708540  0.121854  1
  Tm  Tm14  1  0.910268  0.291526  0.621945  1
  Tm  Tm15  1  0.089531  0.708465  0.621887  1
  Tm  Tm16  1  0.999980  0.999932  0.500033  1
  Tm  Tm17  1  0.999880  0.999647  0.999861  1
  Tm  Tm18  1  0.500024  0.500075  0.999920  1
  Tm  Tm19  1  0.499988  0.500028  0.500007  1
  Ir  Ir20  1  0.654531  0.345483  0.750019  1
  Ir  Ir21  1  0.654537  0.654520  0.250009  1
  Ir  Ir22  1  0.346053  0.345593  0.250275  1
  Ir  Ir23  1  0.345495  0.654524  0.750009  1
  Rh  Rh24  1  0.846402  0.152995  0.250261  1
  Rh  Rh25  1  0.846831  0.846829  0.750015  1
  Rh  Rh26  1  0.153422  0.152838  0.749067  1
  Rh  Rh27  1  0.153188  0.846837  0.249955  1
  Rh  Rh28  1  0.500014  0.999946  0.124254  1
  Rh  Rh29  1  0.499967  0.999954  0.624275  1
  Rh  Rh30  1  0.999812  0.500509  0.875190  1
  Rh  Rh31  1  0.999778  0.500441  0.376158  1
