# generated using pymatgen
data_PrHo3Se4
_symmetry_space_group_name_H-M   'P 1'
_cell_length_a   13.41663238
_cell_length_b   13.41663209
_cell_length_c   13.41663353
_cell_angle_alpha   17.78425256
_cell_angle_beta   17.78425651
_cell_angle_gamma   17.78425417
_symmetry_Int_Tables_number   1
_chemical_formula_structural   PrHo3Se4
_chemical_formula_sum   'Pr1 Ho3 Se4'
_cell_volume   196.68319055
_cell_formula_units_Z   1
loop_
 _symmetry_equiv_pos_site_id
 _symmetry_equiv_pos_as_xyz
  1  'x, y, z'
loop_
 _atom_site_type_symbol
 _atom_site_label
 _atom_site_symmetry_multiplicity
 _atom_site_fract_x
 _atom_site_fract_y
 _atom_site_fract_z
 _atom_site_occupancy
  Pr  Pr0  1  0.000000  0.000000  0.000000  1
  Ho  Ho1  1  0.248831  0.248831  0.248831  1
  Ho  Ho2  1  0.500000  0.500000  0.500000  1
  Ho  Ho3  1  0.751169  0.751169  0.751169  1
  Se  Se4  1  0.379141  0.379141  0.379141  1
  Se  Se5  1  0.126198  0.126198  0.126198  1
  Se  Se6  1  0.620859  0.620859  0.620859  1
  Se  Se7  1  0.873802  0.873802  0.873802  1
