# generated using pymatgen
data_U2V2As3P3Rh8
_symmetry_space_group_name_H-M   'P 1'
_cell_length_a   3.94556300
_cell_length_b   7.41735064
_cell_length_c   9.72646508
_cell_angle_alpha   79.34153967
_cell_angle_beta   90.00000000
_cell_angle_gamma   90.00000000
_symmetry_Int_Tables_number   1
_chemical_formula_structural   U2V2As3P3Rh8
_chemical_formula_sum   'U2 V2 As3 P3 Rh8'
_cell_volume   279.74002952
_cell_formula_units_Z   1
loop_
 _symmetry_equiv_pos_site_id
 _symmetry_equiv_pos_as_xyz
  1  'x, y, z'
loop_
 _atom_site_type_symbol
 _atom_site_label
 _atom_site_symmetry_multiplicity
 _atom_site_fract_x
 _atom_site_fract_y
 _atom_site_fract_z
 _atom_site_occupancy
  U  U0  1  0.250000  0.808554  0.779288  1
  U  U1  1  0.750000  0.180911  0.218993  1
  V  V2  1  0.250000  0.309904  0.716927  1
  V  V3  1  0.750000  0.694376  0.284749  1
  As  As4  1  0.250000  0.259691  0.973397  1
  As  As5  1  0.750000  0.746465  0.022791  1
  As  As6  1  0.250000  0.427235  0.331593  1
  P  P7  1  0.750000  0.572075  0.660542  1
  P  P8  1  0.250000  0.897788  0.347841  1
  P  P9  1  0.750000  0.097462  0.657944  1
  Rh  Rh10  1  0.250000  0.541291  0.086959  1
  Rh  Rh11  1  0.750000  0.469729  0.892234  1
  Rh  Rh12  1  0.250000  0.929375  0.106526  1
  Rh  Rh13  1  0.750000  0.076956  0.896208  1
  Rh  Rh14  1  0.250000  0.623620  0.510477  1
  Rh  Rh15  1  0.750000  0.373715  0.502990  1
  Rh  Rh16  1  0.250000  0.122637  0.488345  1
  Rh  Rh17  1  0.750000  0.868219  0.522197  1
