# generated using pymatgen
data_Pa4As3Se
_symmetry_space_group_name_H-M   'P 1'
_cell_length_a   4.13773565
_cell_length_b   9.11048230
_cell_length_c   10.75862799
_cell_angle_alpha   40.52475856
_cell_angle_beta   123.93112728
_cell_angle_gamma   132.38660018
_symmetry_Int_Tables_number   1
_chemical_formula_structural   Pa4As3Se
_chemical_formula_sum   'Pa4 As3 Se1'
_cell_volume   193.75716637
_cell_formula_units_Z   1
loop_
 _symmetry_equiv_pos_site_id
 _symmetry_equiv_pos_as_xyz
  1  'x, y, z'
loop_
 _atom_site_type_symbol
 _atom_site_label
 _atom_site_symmetry_multiplicity
 _atom_site_fract_x
 _atom_site_fract_y
 _atom_site_fract_z
 _atom_site_occupancy
  Pa  Pa0  1  0.500226  0.403736  0.276445  1
  Pa  Pa1  1  0.745006  0.652817  0.524654  1
  Pa  Pa2  1  0.247314  0.153230  0.025524  1
  Pa  Pa3  1  0.998010  0.903700  0.775304  1
  As  As4  1  0.871157  0.277105  0.650819  1
  As  As5  1  0.374058  0.779600  0.150177  1
  As  As6  1  0.622693  0.028392  0.400492  1
  Se  Se7  1  0.122606  0.528311  0.900545  1
