# generated using pymatgen
data_Ho3Tm9TlCo4Rh
_symmetry_space_group_name_H-M   'P 1'
_cell_length_a   8.23120657
_cell_length_b   8.23103253
_cell_length_c   8.22736500
_cell_angle_alpha   110.86449864
_cell_angle_beta   110.96935425
_cell_angle_gamma   106.63769905
_symmetry_Int_Tables_number   1
_chemical_formula_structural   Ho3Tm9TlCo4Rh
_chemical_formula_sum   'Ho3 Tm9 Tl1 Co4 Rh1'
_cell_volume   428.20023820
_cell_formula_units_Z   1
loop_
 _symmetry_equiv_pos_site_id
 _symmetry_equiv_pos_as_xyz
  1  'x, y, z'
loop_
 _atom_site_type_symbol
 _atom_site_label
 _atom_site_symmetry_multiplicity
 _atom_site_fract_x
 _atom_site_fract_y
 _atom_site_fract_z
 _atom_site_occupancy
  Ho  Ho0  1  0.289354  0.187152  0.476514  1
  Ho  Ho1  1  0.711204  0.813410  0.524629  1
  Ho  Ho2  1  0.289254  0.812672  0.101945  1
  Tm  Tm3  1  0.711506  0.186709  0.898169  1
  Tm  Tm4  1  0.619976  0.313361  0.305896  1
  Tm  Tm5  1  0.380341  0.686879  0.693704  1
  Tm  Tm6  1  0.006830  0.313362  0.693676  1
  Tm  Tm7  1  0.992534  0.685943  0.305899  1
  Tm  Tm8  1  0.213106  0.407895  0.193985  1
  Tm  Tm9  1  0.786065  0.590786  0.805462  1
  Tm  Tm10  1  0.214697  0.019416  0.805478  1
  Tm  Tm11  1  0.786108  0.980904  0.193980  1
  Tl  Tl12  1  0.500010  0.500143  0.000126  1
  Co  Co13  1  0.999251  0.378743  0.377965  1
  Co  Co14  1  0.000046  0.621099  0.621138  1
  Co  Co15  1  0.388320  0.888803  0.501423  1
  Co  Co16  1  0.612530  0.112992  0.501401  1
  Rh  Rh17  1  0.998868  0.999731  0.998610  1
