# generated using pymatgen
data_Zr6Ti4Al12Os3Ru4
_symmetry_space_group_name_H-M   'P 1'
_cell_length_a   8.77577475
_cell_length_b   8.79712332
_cell_length_c   8.81950079
_cell_angle_alpha   59.75374966
_cell_angle_beta   59.91104822
_cell_angle_gamma   60.24213023
_symmetry_Int_Tables_number   1
_chemical_formula_structural   Zr6Ti4Al12Os3Ru4
_chemical_formula_sum   'Zr6 Ti4 Al12 Os3 Ru4'
_cell_volume   481.09741296
_cell_formula_units_Z   1
loop_
 _symmetry_equiv_pos_site_id
 _symmetry_equiv_pos_as_xyz
  1  'x, y, z'
loop_
 _atom_site_type_symbol
 _atom_site_label
 _atom_site_symmetry_multiplicity
 _atom_site_fract_x
 _atom_site_fract_y
 _atom_site_fract_z
 _atom_site_occupancy
  Zr  Zr0  1  0.704342  0.699358  0.296144  1
  Zr  Zr1  1  0.295846  0.704154  0.295842  1
  Zr  Zr2  1  0.707268  0.297940  0.291909  1
  Zr  Zr3  1  0.296145  0.300156  0.704345  1
  Zr  Zr4  1  0.704117  0.295881  0.704121  1
  Zr  Zr5  1  0.291911  0.702881  0.707272  1
  Ti  Ti6  1  0.879754  0.879535  0.359007  1
  Ti  Ti7  1  0.881034  0.359475  0.879056  1
  Ti  Ti8  1  0.359008  0.881685  0.879766  1
  Ti  Ti9  1  0.879052  0.880430  0.881037  1
  Al  Al10  1  0.119642  0.120022  0.642859  1
  Al  Al11  1  0.117850  0.642610  0.120523  1
  Al  Al12  1  0.642858  0.117477  0.119644  1
  Al  Al13  1  0.120524  0.119014  0.117852  1
  Al  Al14  1  0.664015  0.664982  0.004337  1
  Al  Al15  1  0.665708  0.006923  0.662166  1
  Al  Al16  1  0.004341  0.666670  0.664011  1
  Al  Al17  1  0.662163  0.665199  0.665716  1
  Al  Al18  1  0.335387  0.334418  0.997980  1
  Al  Al19  1  0.335415  0.995076  0.335697  1
  Al  Al20  1  0.997977  0.332219  0.335385  1
  Al  Al21  1  0.335694  0.333804  0.335424  1
  Os  Os22  1  0.998634  0.500890  0.500728  1
  Os  Os23  1  0.999468  0.500538  0.999468  1
  Os  Os24  1  0.500734  0.999746  0.998642  1
  Ru  Ru25  1  0.999751  0.000262  0.999740  1
  Ru  Ru26  1  0.001008  0.998400  0.499851  1
  Ru  Ru27  1  0.500485  0.999503  0.500492  1
  Ru  Ru28  1  0.499868  0.500750  0.000989  1
