# generated using pymatgen
data_Ta3Ti3B4IrRu9
_symmetry_space_group_name_H-M   'P 1'
_cell_length_a   9.34028719
_cell_length_b   9.32788461
_cell_length_c   3.01627800
_cell_angle_alpha   90.00000000
_cell_angle_beta   90.00000000
_cell_angle_gamma   89.78711863
_symmetry_Int_Tables_number   1
_chemical_formula_structural   Ta3Ti3B4IrRu9
_chemical_formula_sum   'Ta3 Ti3 B4 Ir1 Ru9'
_cell_volume   262.79177222
_cell_formula_units_Z   1
loop_
 _symmetry_equiv_pos_site_id
 _symmetry_equiv_pos_as_xyz
  1  'x, y, z'
loop_
 _atom_site_type_symbol
 _atom_site_label
 _atom_site_symmetry_multiplicity
 _atom_site_fract_x
 _atom_site_fract_y
 _atom_site_fract_z
 _atom_site_occupancy
  Ta  Ta0  1  0.175439  0.324230  0.000000  1
  Ta  Ta1  1  0.319176  0.824758  0.000000  1
  Ta  Ta2  1  0.677919  0.177301  0.000000  1
  Ti  Ti3  1  0.827699  0.676649  0.000000  1
  Ti  Ti4  1  0.499515  0.495032  0.000000  1
  Ti  Ti5  1  0.999538  0.999553  0.000000  1
  B  B6  1  0.627180  0.879319  0.000000  1
  B  B7  1  0.375129  0.122788  0.000000  1
  B  B8  1  0.122208  0.623557  0.000000  1
  B  B9  1  0.876542  0.377749  0.000000  1
  Ir  Ir10  1  0.571395  0.714567  0.500000  1
  Ru  Ru11  1  0.429083  0.282722  0.500000  1
  Ru  Ru12  1  0.071365  0.784737  0.500000  1
  Ru  Ru13  1  0.929085  0.216280  0.500000  1
  Ru  Ru14  1  0.284830  0.571239  0.500000  1
  Ru  Ru15  1  0.715559  0.430052  0.500000  1
  Ru  Ru16  1  0.215309  0.071348  0.500000  1
  Ru  Ru17  1  0.784516  0.927752  0.500000  1
  Ru  Ru18  1  0.499549  0.998590  0.500000  1
  Ru  Ru19  1  0.998962  0.501781  0.500000  1
