# generated using pymatgen
data_Pr2Al6PtAu
_symmetry_space_group_name_H-M   'P 1'
_cell_length_a   4.34934300
_cell_length_b   4.34934300
_cell_length_c   10.83959000
_cell_angle_alpha   90.00000000
_cell_angle_beta   90.00000000
_cell_angle_gamma   90.00000000
_symmetry_Int_Tables_number   1
_chemical_formula_structural   Pr2Al6PtAu
_chemical_formula_sum   'Pr2 Al6 Pt1 Au1'
_cell_volume   205.05018844
_cell_formula_units_Z   1
loop_
 _symmetry_equiv_pos_site_id
 _symmetry_equiv_pos_as_xyz
  1  'x, y, z'
loop_
 _atom_site_type_symbol
 _atom_site_label
 _atom_site_symmetry_multiplicity
 _atom_site_fract_x
 _atom_site_fract_y
 _atom_site_fract_z
 _atom_site_occupancy
  Pr  Pr0  1  0.000000  0.000000  0.992552  1
  Pr  Pr1  1  0.500000  0.500000  0.482803  1
  Al  Al2  1  0.000000  0.500000  0.241923  1
  Al  Al3  1  0.500000  0.000000  0.748295  1
  Al  Al4  1  0.500000  0.000000  0.241923  1
  Al  Al5  1  0.000000  0.500000  0.748295  1
  Al  Al6  1  0.000000  0.000000  0.392243  1
  Al  Al7  1  0.500000  0.500000  0.901583  1
  Pt  Pt8  1  0.500000  0.500000  0.127598  1
  Au  Au9  1  0.000000  0.000000  0.622787  1
