# generated using pymatgen
data_YbEr(Ga2Ag)2
_symmetry_space_group_name_H-M   'P 1'
_cell_length_a   4.34774400
_cell_length_b   6.96536151
_cell_length_c   10.34835243
_cell_angle_alpha   90.72715450
_cell_angle_beta   90.00000000
_cell_angle_gamma   90.00000000
_symmetry_Int_Tables_number   1
_chemical_formula_structural   YbEr(Ga2Ag)2
_chemical_formula_sum   'Yb2 Er2 Ga8 Ag4'
_cell_volume   313.36021801
_cell_formula_units_Z   2
loop_
 _symmetry_equiv_pos_site_id
 _symmetry_equiv_pos_as_xyz
  1  'x, y, z'
loop_
 _atom_site_type_symbol
 _atom_site_label
 _atom_site_symmetry_multiplicity
 _atom_site_fract_x
 _atom_site_fract_y
 _atom_site_fract_z
 _atom_site_occupancy
  Yb  Yb0  1  0.750000  0.723989  0.328187  1
  Yb  Yb1  1  0.250000  0.276011  0.671813  1
  Er  Er2  1  0.250000  0.777261  0.828153  1
  Er  Er3  1  0.750000  0.222739  0.171847  1
  Ga  Ga4  1  0.250000  0.702645  0.535506  1
  Ga  Ga5  1  0.750000  0.297355  0.464494  1
  Ga  Ga6  1  0.750000  0.797146  0.035764  1
  Ga  Ga7  1  0.250000  0.202854  0.964236  1
  Ga  Ga8  1  0.250000  0.927808  0.151255  1
  Ga  Ga9  1  0.750000  0.072192  0.848745  1
  Ga  Ga10  1  0.750000  0.572352  0.652160  1
  Ga  Ga11  1  0.250000  0.427648  0.347840  1
  Ag  Ag12  1  0.250000  0.541846  0.099236  1
  Ag  Ag13  1  0.750000  0.458154  0.900764  1
  Ag  Ag14  1  0.750000  0.959705  0.599044  1
  Ag  Ag15  1  0.250000  0.040295  0.400956  1
