# generated using pymatgen
data_Er19Tm(Cd3Co)2
_symmetry_space_group_name_H-M   'P 1'
_cell_length_a   9.48357600
_cell_length_b   9.48357623
_cell_length_c   9.66830700
_cell_angle_alpha   90.00000000
_cell_angle_beta   90.00000000
_cell_angle_gamma   119.99999920
_symmetry_Int_Tables_number   1
_chemical_formula_structural   Er19Tm(Cd3Co)2
_chemical_formula_sum   'Er19 Tm1 Cd6 Co2'
_cell_volume   753.05264069
_cell_formula_units_Z   1
loop_
 _symmetry_equiv_pos_site_id
 _symmetry_equiv_pos_as_xyz
  1  'x, y, z'
loop_
 _atom_site_type_symbol
 _atom_site_label
 _atom_site_symmetry_multiplicity
 _atom_site_fract_x
 _atom_site_fract_y
 _atom_site_fract_z
 _atom_site_occupancy
  Er  Er0  1  0.000000  0.000000  0.000000  1
  Er  Er1  1  0.542384  0.457616  0.249990  1
  Er  Er2  1  0.542384  0.084769  0.249990  1
  Er  Er3  1  0.915231  0.457616  0.249990  1
  Er  Er4  1  0.457616  0.542384  0.750010  1
  Er  Er5  1  0.457616  0.915231  0.750010  1
  Er  Er6  1  0.084769  0.542384  0.750010  1
  Er  Er7  1  0.212018  0.787982  0.436919  1
  Er  Er8  1  0.212018  0.424036  0.436919  1
  Er  Er9  1  0.575964  0.787982  0.436919  1
  Er  Er10  1  0.787982  0.212018  0.563081  1
  Er  Er11  1  0.787982  0.575964  0.563081  1
  Er  Er12  1  0.424036  0.212018  0.563081  1
  Er  Er13  1  0.787919  0.212081  0.936966  1
  Er  Er14  1  0.787919  0.575839  0.936966  1
  Er  Er15  1  0.424161  0.212081  0.936966  1
  Er  Er16  1  0.212081  0.787919  0.063034  1
  Er  Er17  1  0.212081  0.424161  0.063034  1
  Er  Er18  1  0.575839  0.787919  0.063034  1
  Tm  Tm19  1  0.000000  0.000000  0.500000  1
  Cd  Cd20  1  0.885063  0.114937  0.250132  1
  Cd  Cd21  1  0.885063  0.770127  0.250132  1
  Cd  Cd22  1  0.229873  0.114937  0.250132  1
  Cd  Cd23  1  0.114937  0.885063  0.749868  1
  Cd  Cd24  1  0.114937  0.229873  0.749868  1
  Cd  Cd25  1  0.770127  0.885063  0.749868  1
  Co  Co26  1  0.333333  0.666667  0.250035  1
  Co  Co27  1  0.666667  0.333333  0.749965  1
