# generated using pymatgen
data_Ti3Nb5Si6(WC)2
_symmetry_space_group_name_H-M   'P 1'
_cell_length_a   7.50059520
_cell_length_b   7.50059542
_cell_length_c   5.25199910
_cell_angle_alpha   89.99597221
_cell_angle_beta   89.99596734
_cell_angle_gamma   120.12213991
_symmetry_Int_Tables_number   1
_chemical_formula_structural   Ti3Nb5Si6(WC)2
_chemical_formula_sum   'Ti3 Nb5 Si6 W2 C2'
_cell_volume   255.57060933
_cell_formula_units_Z   1
loop_
 _symmetry_equiv_pos_site_id
 _symmetry_equiv_pos_as_xyz
  1  'x, y, z'
loop_
 _atom_site_type_symbol
 _atom_site_label
 _atom_site_symmetry_multiplicity
 _atom_site_fract_x
 _atom_site_fract_y
 _atom_site_fract_z
 _atom_site_occupancy
  Ti  Ti0  1  0.666305  0.333187  0.500707  1
  Ti  Ti1  1  0.333187  0.666305  0.500707  1
  Ti  Ti2  1  0.234526  0.234526  0.747439  1
  Nb  Nb3  1  0.238800  0.001034  0.253191  1
  Nb  Nb4  1  0.763391  0.000697  0.747839  1
  Nb  Nb5  1  0.001034  0.238800  0.253191  1
  Nb  Nb6  1  0.000697  0.763391  0.747839  1
  Nb  Nb7  1  0.762525  0.762525  0.252420  1
  Si  Si8  1  0.590887  0.000020  0.243746  1
  Si  Si9  1  0.408914  0.001570  0.755320  1
  Si  Si10  1  0.000020  0.590887  0.243746  1
  Si  Si11  1  0.001570  0.408914  0.755320  1
  Si  Si12  1  0.408747  0.408747  0.243710  1
  Si  Si13  1  0.586586  0.586586  0.756501  1
  W  W14  1  0.332982  0.666194  0.999171  1
  W  W15  1  0.666194  0.332982  0.999171  1
  C  C16  1  0.002383  0.002383  0.999259  1
  C  C17  1  0.001249  0.001249  0.500725  1
