# generated using pymatgen
data_Ho6Cd23P
_symmetry_space_group_name_H-M   'P 1'
_cell_length_a   9.90968033
_cell_length_b   9.90968007
_cell_length_c   9.90967900
_cell_angle_alpha   60.00000024
_cell_angle_beta   60.00000109
_cell_angle_gamma   60.00000181
_symmetry_Int_Tables_number   1
_chemical_formula_structural   Ho6Cd23P
_chemical_formula_sum   'Ho6 Cd23 P1'
_cell_volume   688.11952037
_cell_formula_units_Z   1
loop_
 _symmetry_equiv_pos_site_id
 _symmetry_equiv_pos_as_xyz
  1  'x, y, z'
loop_
 _atom_site_type_symbol
 _atom_site_label
 _atom_site_symmetry_multiplicity
 _atom_site_fract_x
 _atom_site_fract_y
 _atom_site_fract_z
 _atom_site_occupancy
  Ho  Ho0  1  0.802841  0.802841  0.197159  1
  Ho  Ho1  1  0.197159  0.802841  0.197159  1
  Ho  Ho2  1  0.802841  0.197159  0.197159  1
  Ho  Ho3  1  0.197159  0.197159  0.802841  1
  Ho  Ho4  1  0.802841  0.197159  0.802841  1
  Ho  Ho5  1  0.197159  0.802841  0.802841  1
  Cd  Cd6  1  0.834534  0.834534  0.496398  1
  Cd  Cd7  1  0.834534  0.496398  0.834534  1
  Cd  Cd8  1  0.496398  0.834534  0.834534  1
  Cd  Cd9  1  0.834534  0.834534  0.834534  1
  Cd  Cd10  1  0.165466  0.165466  0.503602  1
  Cd  Cd11  1  0.165466  0.503602  0.165466  1
  Cd  Cd12  1  0.503602  0.165466  0.165466  1
  Cd  Cd13  1  0.165466  0.165466  0.165466  1
  Cd  Cd14  1  0.620536  0.620536  0.138392  1
  Cd  Cd15  1  0.620536  0.138392  0.620536  1
  Cd  Cd16  1  0.138392  0.620536  0.620536  1
  Cd  Cd17  1  0.620536  0.620536  0.620536  1
  Cd  Cd18  1  0.379464  0.379464  0.861608  1
  Cd  Cd19  1  0.379464  0.861608  0.379464  1
  Cd  Cd20  1  0.861608  0.379464  0.379464  1
  Cd  Cd21  1  0.379464  0.379464  0.379464  1
  Cd  Cd22  1  0.000000  0.000000  0.500000  1
  Cd  Cd23  1  0.500000  0.000000  0.500000  1
  Cd  Cd24  1  0.000000  0.500000  0.500000  1
  Cd  Cd25  1  0.500000  0.500000  0.000000  1
  Cd  Cd26  1  0.000000  0.500000  0.000000  1
  Cd  Cd27  1  0.500000  0.000000  0.000000  1
  Cd  Cd28  1  0.500000  0.500000  0.500000  1
  P  P29  1  0.000000  0.000000  0.000000  1
