# generated using pymatgen
data_CaP12(IrRu)2
_symmetry_space_group_name_H-M   'P 1'
_cell_length_a   7.03682994
_cell_length_b   7.04971843
_cell_length_c   7.03683100
_cell_angle_alpha   109.48109006
_cell_angle_beta   109.38981067
_cell_angle_gamma   109.46857201
_symmetry_Int_Tables_number   1
_chemical_formula_structural   CaP12(IrRu)2
_chemical_formula_sum   'Ca1 P12 Ir2 Ru2'
_cell_volume   268.96812448
_cell_formula_units_Z   1
loop_
 _symmetry_equiv_pos_site_id
 _symmetry_equiv_pos_as_xyz
  1  'x, y, z'
loop_
 _atom_site_type_symbol
 _atom_site_label
 _atom_site_symmetry_multiplicity
 _atom_site_fract_x
 _atom_site_fract_y
 _atom_site_fract_z
 _atom_site_occupancy
  Ca  Ca0  1  0.000000  0.000000  0.000000  1
  P  P1  1  0.355141  0.212110  0.856969  1
  P  P2  1  0.644859  0.787890  0.143031  1
  P  P3  1  0.642503  0.501883  0.859380  1
  P  P4  1  0.357497  0.498117  0.140620  1
  P  P5  1  0.214564  0.860287  0.358483  1
  P  P6  1  0.785436  0.139713  0.641517  1
  P  P7  1  0.501806  0.860287  0.645723  1
  P  P8  1  0.498194  0.139713  0.354277  1
  P  P9  1  0.855505  0.353790  0.214551  1
  P  P10  1  0.144495  0.646210  0.785449  1
  P  P11  1  0.860762  0.646210  0.501715  1
  P  P12  1  0.139238  0.353790  0.498285  1
  Ir  Ir13  1  0.000000  0.500000  0.000000  1
  Ir  Ir14  1  0.500000  0.500000  0.500000  1
  Ru  Ru15  1  0.000000  0.000000  0.500000  1
  Ru  Ru16  1  0.500000  0.000000  0.000000  1
