# generated using pymatgen
data_Sc8CdCo2Ag
_symmetry_space_group_name_H-M   'P 1'
_cell_length_a   8.87473947
_cell_length_b   8.87412508
_cell_length_c   8.87385844
_cell_angle_alpha   59.98784938
_cell_angle_beta   60.01387470
_cell_angle_gamma   59.99015414
_symmetry_Int_Tables_number   1
_chemical_formula_structural   Sc8CdCo2Ag
_chemical_formula_sum   'Sc16 Cd2 Co4 Ag2'
_cell_volume   494.14219929
_cell_formula_units_Z   2
loop_
 _symmetry_equiv_pos_site_id
 _symmetry_equiv_pos_as_xyz
  1  'x, y, z'
loop_
 _atom_site_type_symbol
 _atom_site_label
 _atom_site_symmetry_multiplicity
 _atom_site_fract_x
 _atom_site_fract_y
 _atom_site_fract_z
 _atom_site_occupancy
  Sc  Sc0  1  0.940040  0.935113  0.562931  1
  Sc  Sc1  1  0.812318  0.187309  0.188072  1
  Sc  Sc2  1  0.939986  0.562275  0.562980  1
  Sc  Sc3  1  0.938570  0.561249  0.938536  1
  Sc  Sc4  1  0.812144  0.811839  0.187864  1
  Sc  Sc5  1  0.347379  0.347360  0.347475  1
  Sc  Sc6  1  0.562920  0.935119  0.940052  1
  Sc  Sc7  1  0.563354  0.936677  0.563355  1
  Sc  Sc8  1  0.187847  0.811918  0.812100  1
  Sc  Sc9  1  0.188062  0.187321  0.812269  1
  Sc  Sc10  1  0.347583  0.347192  0.958333  1
  Sc  Sc11  1  0.347414  0.957958  0.347548  1
  Sc  Sc12  1  0.812325  0.187648  0.812239  1
  Sc  Sc13  1  0.562961  0.562288  0.939989  1
  Sc  Sc14  1  0.188094  0.811787  0.188108  1
  Sc  Sc15  1  0.958384  0.347138  0.347642  1
  Cd  Cd16  1  0.580205  0.583795  0.580201  1
  Cd  Cd17  1  0.580036  0.255907  0.580029  1
  Co  Co18  1  0.576219  0.141262  0.141239  1
  Co  Co19  1  0.141321  0.141247  0.141308  1
  Co  Co20  1  0.141428  0.576147  0.141407  1
  Co  Co21  1  0.141229  0.141311  0.576219  1
  Ag  Ag22  1  0.582879  0.585060  0.247281  1
  Ag  Ag23  1  0.247303  0.585084  0.582828  1
