# generated using pymatgen
data_Ho3TaSn2Ir3
_symmetry_space_group_name_H-M   'P 1'
_cell_length_a   7.35268158
_cell_length_b   7.35268105
_cell_length_c   4.13439400
_cell_angle_alpha   90.00000000
_cell_angle_beta   90.00000000
_cell_angle_gamma   121.01526957
_symmetry_Int_Tables_number   1
_chemical_formula_structural   Ho3TaSn2Ir3
_chemical_formula_sum   'Ho3 Ta1 Sn2 Ir3'
_cell_volume   191.55759575
_cell_formula_units_Z   1
loop_
 _symmetry_equiv_pos_site_id
 _symmetry_equiv_pos_as_xyz
  1  'x, y, z'
loop_
 _atom_site_type_symbol
 _atom_site_label
 _atom_site_symmetry_multiplicity
 _atom_site_fract_x
 _atom_site_fract_y
 _atom_site_fract_z
 _atom_site_occupancy
  Ho  Ho0  1  0.398105  0.398105  0.500000  1
  Ho  Ho1  1  0.589880  0.999558  0.500000  1
  Ho  Ho2  1  0.999558  0.589880  0.500000  1
  Ta  Ta3  1  0.748351  0.748351  0.000000  1
  Sn  Sn4  1  0.255851  0.998613  0.000000  1
  Sn  Sn5  1  0.998613  0.255851  0.000000  1
  Ir  Ir6  1  0.676257  0.366704  0.000000  1
  Ir  Ir7  1  0.366704  0.676257  0.000000  1
  Ir  Ir8  1  0.966682  0.966682  0.500000  1
