# generated using pymatgen
data_La6Sn7Hg3
_symmetry_space_group_name_H-M   'P 1'
_cell_length_a   6.72338598
_cell_length_b   6.72338511
_cell_length_c   10.57310226
_cell_angle_alpha   90.37400648
_cell_angle_beta   90.37400787
_cell_angle_gamma   102.84463296
_symmetry_Int_Tables_number   1
_chemical_formula_structural   La6Sn7Hg3
_chemical_formula_sum   'La6 Sn7 Hg3'
_cell_volume   465.96018078
_cell_formula_units_Z   1
loop_
 _symmetry_equiv_pos_site_id
 _symmetry_equiv_pos_as_xyz
  1  'x, y, z'
loop_
 _atom_site_type_symbol
 _atom_site_label
 _atom_site_symmetry_multiplicity
 _atom_site_fract_x
 _atom_site_fract_y
 _atom_site_fract_z
 _atom_site_occupancy
  La  La0  1  0.629033  0.629033  0.252283  1
  La  La1  1  0.370556  0.370556  0.745949  1
  La  La2  1  0.205522  0.798092  0.499621  1
  La  La3  1  0.205146  0.793144  0.000279  1
  La  La4  1  0.798092  0.205522  0.499621  1
  La  La5  1  0.793144  0.205146  0.000279  1
  Sn  Sn6  1  0.020552  0.020552  0.246370  1
  Sn  Sn7  1  0.979328  0.979328  0.751955  1
  Sn  Sn8  1  0.692686  0.692686  0.549779  1
  Sn  Sn9  1  0.491858  0.072925  0.248307  1
  Sn  Sn10  1  0.928348  0.509256  0.751642  1
  Sn  Sn11  1  0.509256  0.928348  0.751642  1
  Sn  Sn12  1  0.072925  0.491858  0.248307  1
  Hg  Hg13  1  0.307840  0.307840  0.042507  1
  Hg  Hg14  1  0.690408  0.690408  0.958154  1
  Hg  Hg15  1  0.305306  0.305306  0.453306  1
