# generated using pymatgen
data_La20Si3GeSb8
_symmetry_space_group_name_H-M   'P 1'
_cell_length_a   8.32539607
_cell_length_b   9.53841400
_cell_length_c   12.81024611
_cell_angle_alpha   90.00000000
_cell_angle_beta   89.98468551
_cell_angle_gamma   90.00000000
_symmetry_Int_Tables_number   1
_chemical_formula_structural   La20Si3GeSb8
_chemical_formula_sum   'La20 Si3 Ge1 Sb8'
_cell_volume   1017.27537185
_cell_formula_units_Z   1
loop_
 _symmetry_equiv_pos_site_id
 _symmetry_equiv_pos_as_xyz
  1  'x, y, z'
loop_
 _atom_site_type_symbol
 _atom_site_label
 _atom_site_symmetry_multiplicity
 _atom_site_fract_x
 _atom_site_fract_y
 _atom_site_fract_z
 _atom_site_occupancy
  La  La0  1  0.029660  0.750000  0.502196  1
  La  La1  1  0.970205  0.250000  0.497799  1
  La  La2  1  0.529764  0.250000  0.997753  1
  La  La3  1  0.471389  0.750000  0.002193  1
  La  La4  1  0.863551  0.750000  0.791614  1
  La  La5  1  0.135278  0.250000  0.207354  1
  La  La6  1  0.364669  0.250000  0.707426  1
  La  La7  1  0.635347  0.750000  0.292569  1
  La  La8  1  0.694417  0.541542  0.561608  1
  La  La9  1  0.305609  0.458457  0.438390  1
  La  La10  1  0.195096  0.456971  0.938191  1
  La  La11  1  0.305609  0.041543  0.438390  1
  La  La12  1  0.804405  0.540674  0.061952  1
  La  La13  1  0.694417  0.958458  0.561608  1
  La  La14  1  0.804405  0.959326  0.061952  1
  La  La15  1  0.195096  0.043029  0.938191  1
  La  La16  1  0.342895  0.750000  0.713189  1
  La  La17  1  0.657216  0.250000  0.286704  1
  La  La18  1  0.842776  0.250000  0.786756  1
  La  La19  1  0.157658  0.750000  0.214353  1
  Si  Si20  1  0.927702  0.250000  0.016895  1
  Si  Si21  1  0.572399  0.250000  0.516908  1
  Si  Si22  1  0.427613  0.750000  0.483091  1
  Ge  Ge23  1  0.072779  0.750000  0.982745  1
  Sb  Sb24  1  0.576296  0.508105  0.826113  1
  Sb  Sb25  1  0.423682  0.492037  0.173920  1
  Sb  Sb26  1  0.076286  0.491991  0.673975  1
  Sb  Sb27  1  0.423682  0.007963  0.173920  1
  Sb  Sb28  1  0.923758  0.508066  0.326078  1
  Sb  Sb29  1  0.576296  0.991895  0.826113  1
  Sb  Sb30  1  0.923758  0.991934  0.326078  1
  Sb  Sb31  1  0.076286  0.008009  0.673975  1
