# generated using pymatgen
data_Pr3Th(NbN2)4
_symmetry_space_group_name_H-M   'P 1'
_cell_length_a   3.43723500
_cell_length_b   5.86153803
_cell_length_c   11.12681606
_cell_angle_alpha   90.01188991
_cell_angle_beta   90.00000000
_cell_angle_gamma   90.00000000
_symmetry_Int_Tables_number   1
_chemical_formula_structural   Pr3Th(NbN2)4
_chemical_formula_sum   'Pr3 Th1 Nb4 N8'
_cell_volume   224.17734011
_cell_formula_units_Z   1
loop_
 _symmetry_equiv_pos_site_id
 _symmetry_equiv_pos_as_xyz
  1  'x, y, z'
loop_
 _atom_site_type_symbol
 _atom_site_label
 _atom_site_symmetry_multiplicity
 _atom_site_fract_x
 _atom_site_fract_y
 _atom_site_fract_z
 _atom_site_occupancy
  Pr  Pr0  1  0.250000  0.583115  0.859550  1
  Pr  Pr1  1  0.750000  0.416523  0.141080  1
  Pr  Pr2  1  0.750000  0.916838  0.358374  1
  Th  Th3  1  0.250000  0.081057  0.639985  1
  Nb  Nb4  1  0.250000  0.921022  0.105321  1
  Nb  Nb5  1  0.750000  0.078967  0.898600  1
  Nb  Nb6  1  0.750000  0.578832  0.601056  1
  Nb  Nb7  1  0.250000  0.422530  0.396624  1
  N  N8  1  0.250000  0.660989  0.249543  1
  N  N9  1  0.750000  0.335317  0.748673  1
  N  N10  1  0.750000  0.844414  0.745038  1
  N  N11  1  0.250000  0.160717  0.250931  1
  N  N12  1  0.250000  0.735862  0.515692  1
  N  N13  1  0.750000  0.261704  0.489553  1
  N  N14  1  0.750000  0.772217  0.013820  1
  N  N15  1  0.250000  0.229896  0.986160  1
