# generated using pymatgen
data_SrTh3H8
_symmetry_space_group_name_H-M   'P 1'
_cell_length_a   5.53777857
_cell_length_b   5.53515557
_cell_length_c   6.72992100
_cell_angle_alpha   114.28241992
_cell_angle_beta   114.29468281
_cell_angle_gamma   89.99999920
_symmetry_Int_Tables_number   1
_chemical_formula_structural   SrTh3H8
_chemical_formula_sum   'Sr1 Th3 H8'
_cell_volume   167.79419426
_cell_formula_units_Z   1
loop_
 _symmetry_equiv_pos_site_id
 _symmetry_equiv_pos_as_xyz
  1  'x, y, z'
loop_
 _atom_site_type_symbol
 _atom_site_label
 _atom_site_symmetry_multiplicity
 _atom_site_fract_x
 _atom_site_fract_y
 _atom_site_fract_z
 _atom_site_occupancy
  Sr  Sr0  1  0.755237  0.255238  0.510475  1
  Th  Th1  1  0.004167  0.004167  0.008336  1
  Th  Th2  1  0.505104  0.505104  0.010209  1
  Th  Th3  1  0.254091  0.754091  0.508182  1
  H  H4  1  0.365626  0.383302  0.250200  1
  H  H5  1  0.884571  0.383302  0.250200  1
  H  H6  1  0.365626  0.866898  0.250200  1
  H  H7  1  0.884571  0.866898  0.250200  1
  H  H8  1  0.145284  0.124481  0.768500  1
  H  H9  1  0.623217  0.124481  0.768500  1
  H  H10  1  0.145284  0.644020  0.768500  1
  H  H11  1  0.623217  0.644020  0.768500  1
