# generated using pymatgen
data_Rb11Tl2Bi5
_symmetry_space_group_name_H-M   'P 1'
_cell_length_a   10.71277449
_cell_length_b   12.86476218
_cell_length_c   13.87194995
_cell_angle_alpha   103.63553579
_cell_angle_beta   96.66480534
_cell_angle_gamma   107.36625907
_symmetry_Int_Tables_number   1
_chemical_formula_structural   Rb11Tl2Bi5
_chemical_formula_sum   'Rb22 Tl4 Bi10'
_cell_volume   1737.03297282
_cell_formula_units_Z   2
loop_
 _symmetry_equiv_pos_site_id
 _symmetry_equiv_pos_as_xyz
  1  'x, y, z'
loop_
 _atom_site_type_symbol
 _atom_site_label
 _atom_site_symmetry_multiplicity
 _atom_site_fract_x
 _atom_site_fract_y
 _atom_site_fract_z
 _atom_site_occupancy
  Rb  Rb0  1  0.857848  0.575733  0.964371  1
  Rb  Rb1  1  0.142152  0.424267  0.035629  1
  Rb  Rb2  1  0.308198  0.892750  0.772828  1
  Rb  Rb3  1  0.691802  0.107250  0.227172  1
  Rb  Rb4  1  0.632059  0.166562  0.529574  1
  Rb  Rb5  1  0.367941  0.833438  0.470426  1
  Rb  Rb6  1  0.632742  0.671933  0.555701  1
  Rb  Rb7  1  0.367258  0.328067  0.444299  1
  Rb  Rb8  1  0.185033  0.553980  0.572204  1
  Rb  Rb9  1  0.814967  0.446020  0.427796  1
  Rb  Rb10  1  0.050897  0.705814  0.267971  1
  Rb  Rb11  1  0.949103  0.294186  0.732029  1
  Rb  Rb12  1  0.186625  0.074273  0.570197  1
  Rb  Rb13  1  0.813375  0.925727  0.429803  1
  Rb  Rb14  1  0.878546  0.093959  0.985633  1
  Rb  Rb15  1  0.121454  0.906041  0.014367  1
  Rb  Rb16  1  0.588724  0.225107  0.866309  1
  Rb  Rb17  1  0.411276  0.774893  0.133691  1
  Rb  Rb18  1  0.377334  0.242612  0.142013  1
  Rb  Rb19  1  0.622666  0.757388  0.857987  1
  Rb  Rb20  1  0.353627  0.415370  0.787390  1
  Rb  Rb21  1  0.646373  0.584630  0.212610  1
  Tl  Tl22  1  0.941139  0.924555  0.743290  1
  Tl  Tl23  1  0.058861  0.075445  0.256710  1
  Tl  Tl24  1  0.939912  0.673676  0.742290  1
  Tl  Tl25  1  0.060088  0.326324  0.257710  1
  Bi  Bi26  1  0.004475  0.763011  0.543795  1
  Bi  Bi27  1  0.995525  0.236989  0.456205  1
  Bi  Bi28  1  0.671049  0.460933  0.693066  1
  Bi  Bi29  1  0.328951  0.539067  0.306934  1
  Bi  Bi30  1  0.671833  0.975228  0.698400  1
  Bi  Bi31  1  0.328167  0.024772  0.301600  1
  Bi  Bi32  1  0.189025  0.145384  0.860155  1
  Bi  Bi33  1  0.810975  0.854616  0.139845  1
  Bi  Bi34  1  0.185659  0.633183  0.864060  1
  Bi  Bi35  1  0.814341  0.366817  0.135940  1
