# generated using pymatgen
data_Pr3Ag5Pd
_symmetry_space_group_name_H-M   'P 1'
_cell_length_a   7.87894300
_cell_length_b   7.87894430
_cell_length_c   3.99291800
_cell_angle_alpha   90.00000000
_cell_angle_beta   90.00000000
_cell_angle_gamma   119.99999876
_symmetry_Int_Tables_number   1
_chemical_formula_structural   Pr3Ag5Pd
_chemical_formula_sum   'Pr3 Ag5 Pd1'
_cell_volume   214.66291235
_cell_formula_units_Z   1
loop_
 _symmetry_equiv_pos_site_id
 _symmetry_equiv_pos_as_xyz
  1  'x, y, z'
loop_
 _atom_site_type_symbol
 _atom_site_label
 _atom_site_symmetry_multiplicity
 _atom_site_fract_x
 _atom_site_fract_y
 _atom_site_fract_z
 _atom_site_occupancy
  Pr  Pr0  1  0.984040  0.592980  0.500000  1
  Pr  Pr1  1  0.407020  0.391061  0.500000  1
  Pr  Pr2  1  0.608939  0.015960  0.500000  1
  Ag  Ag3  1  0.734717  0.738451  0.000000  1
  Ag  Ag4  1  0.003733  0.265283  0.000000  1
  Ag  Ag5  1  0.261549  0.996267  0.000000  1
  Ag  Ag6  1  0.333333  0.666667  0.000000  1
  Ag  Ag7  1  0.000000  0.000000  0.500000  1
  Pd  Pd8  1  0.666667  0.333333  0.000000  1
