# generated using pymatgen
data_La6In2SiSe14
_symmetry_space_group_name_H-M   'P 1'
_cell_length_a   10.79422100
_cell_length_b   10.79422123
_cell_length_c   6.30564700
_cell_angle_alpha   90.00000000
_cell_angle_beta   90.00000000
_cell_angle_gamma   120.00000849
_symmetry_Int_Tables_number   1
_chemical_formula_structural   La6In2SiSe14
_chemical_formula_sum   'La6 In2 Si1 Se14'
_cell_volume   636.27208430
_cell_formula_units_Z   1
loop_
 _symmetry_equiv_pos_site_id
 _symmetry_equiv_pos_as_xyz
  1  'x, y, z'
loop_
 _atom_site_type_symbol
 _atom_site_label
 _atom_site_symmetry_multiplicity
 _atom_site_fract_x
 _atom_site_fract_y
 _atom_site_fract_z
 _atom_site_occupancy
  La  La0  1  0.805385  0.699552  0.523192  1
  La  La1  1  0.894166  0.194615  0.523192  1
  La  La2  1  0.300448  0.105834  0.523192  1
  La  La3  1  0.522704  0.967384  0.046858  1
  La  La4  1  0.444680  0.477296  0.046858  1
  La  La5  1  0.032616  0.555320  0.046858  1
  In  In6  1  0.666667  0.333333  0.322465  1
  In  In7  1  0.333333  0.666667  0.453214  1
  Si  Si8  1  0.000000  0.000000  0.939721  1
  Se  Se9  1  0.000000  0.000000  0.303444  1
  Se  Se10  1  0.333333  0.666667  0.856535  1
  Se  Se11  1  0.082546  0.857728  0.797959  1
  Se  Se12  1  0.775181  0.917454  0.797959  1
  Se  Se13  1  0.142272  0.224819  0.797959  1
  Se  Se14  1  0.233213  0.821541  0.289998  1
  Se  Se15  1  0.588327  0.766787  0.289998  1
  Se  Se16  1  0.178459  0.411673  0.289998  1
  Se  Se17  1  0.921409  0.490649  0.555672  1
  Se  Se18  1  0.569241  0.078591  0.555672  1
  Se  Se19  1  0.509351  0.430759  0.555672  1
  Se  Se20  1  0.419605  0.186106  0.075198  1
  Se  Se21  1  0.766501  0.580395  0.075198  1
  Se  Se22  1  0.813894  0.233499  0.075198  1
