# generated using pymatgen
data_Zr7Co8Si14Mo
_symmetry_space_group_name_H-M   'P 1'
_cell_length_a   9.44798813
_cell_length_b   9.44798663
_cell_length_c   9.44020845
_cell_angle_alpha   94.14545224
_cell_angle_beta   94.14545056
_cell_angle_gamma   148.81962423
_symmetry_Int_Tables_number   1
_chemical_formula_structural   Zr7Co8Si14Mo
_chemical_formula_sum   'Zr7 Co8 Si14 Mo1'
_cell_volume   420.20322701
_cell_formula_units_Z   1
loop_
 _symmetry_equiv_pos_site_id
 _symmetry_equiv_pos_as_xyz
  1  'x, y, z'
loop_
 _atom_site_type_symbol
 _atom_site_label
 _atom_site_symmetry_multiplicity
 _atom_site_fract_x
 _atom_site_fract_y
 _atom_site_fract_z
 _atom_site_occupancy
  Zr  Zr0  1  0.864114  0.864114  0.728228  1
  Zr  Zr1  1  0.862999  0.137135  0.000134  1
  Zr  Zr2  1  0.137135  0.862999  0.000134  1
  Zr  Zr3  1  0.499621  0.304486  0.804108  1
  Zr  Zr4  1  0.502821  0.695850  0.198671  1
  Zr  Zr5  1  0.695850  0.502821  0.198671  1
  Zr  Zr6  1  0.304486  0.499621  0.804108  1
  Co  Co7  1  0.397604  0.897604  0.795209  1
  Co  Co8  1  0.102832  0.602832  0.205664  1
  Co  Co9  1  0.102029  0.897221  0.498443  1
  Co  Co10  1  0.396414  0.601222  0.498443  1
  Co  Co11  1  0.601222  0.396414  0.498443  1
  Co  Co12  1  0.897221  0.102029  0.498443  1
  Co  Co13  1  0.897604  0.397604  0.795209  1
  Co  Co14  1  0.602832  0.102832  0.205664  1
  Si  Si15  1  0.500002  0.091524  0.591526  1
  Si  Si16  1  0.500181  0.908490  0.408671  1
  Si  Si17  1  0.908490  0.500181  0.408671  1
  Si  Si18  1  0.091524  0.500002  0.591526  1
  Si  Si19  1  0.756134  0.756134  0.005860  1
  Si  Si20  1  0.249726  0.249726  0.005860  1
  Si  Si21  1  0.284334  0.284334  0.568667  1
  Si  Si22  1  0.711391  0.711391  0.422783  1
  Si  Si23  1  0.710445  0.290294  0.000739  1
  Si  Si24  1  0.290294  0.710445  0.000739  1
  Si  Si25  1  0.003095  0.299388  0.302483  1
  Si  Si26  1  0.999346  0.696882  0.696228  1
  Si  Si27  1  0.696882  0.999346  0.696228  1
  Si  Si28  1  0.299388  0.003095  0.302483  1
  Mo  Mo29  1  0.133984  0.133984  0.267968  1
