# generated using pymatgen
data_Er2Si4P2Pd20Au
_symmetry_space_group_name_H-M   'P 1'
_cell_length_a   8.66019959
_cell_length_b   8.67113759
_cell_length_c   8.66019885
_cell_angle_alpha   59.95820829
_cell_angle_beta   60.01063850
_cell_angle_gamma   59.95820617
_symmetry_Int_Tables_number   1
_chemical_formula_structural   Er2Si4P2Pd20Au
_chemical_formula_sum   'Er2 Si4 P2 Pd20 Au1'
_cell_volume   459.59688280
_cell_formula_units_Z   1
loop_
 _symmetry_equiv_pos_site_id
 _symmetry_equiv_pos_as_xyz
  1  'x, y, z'
loop_
 _atom_site_type_symbol
 _atom_site_label
 _atom_site_symmetry_multiplicity
 _atom_site_fract_x
 _atom_site_fract_y
 _atom_site_fract_z
 _atom_site_occupancy
  Er  Er0  1  0.751247  0.750021  0.748712  1
  Er  Er1  1  0.251288  0.249979  0.248753  1
  Si  Si2  1  0.735491  0.265986  0.264509  1
  Si  Si3  1  0.735491  0.734014  0.264509  1
  Si  Si4  1  0.736974  0.264656  0.733714  1
  Si  Si5  1  0.266286  0.735344  0.263026  1
  P  P6  1  0.266993  0.735122  0.733007  1
  P  P7  1  0.266993  0.264878  0.733007  1
  Pd  Pd8  1  0.343004  0.003242  0.998801  1
  Pd  Pd9  1  0.999190  0.655023  0.346627  1
  Pd  Pd10  1  0.342147  0.000000  0.657853  1
  Pd  Pd11  1  0.002193  0.655646  0.997807  1
  Pd  Pd12  1  0.653373  0.344977  0.000810  1
  Pd  Pd13  1  0.616442  0.616669  0.150217  1
  Pd  Pd14  1  0.383138  0.848070  0.385117  1
  Pd  Pd15  1  0.153671  0.615065  0.616198  1
  Pd  Pd16  1  0.653761  0.000000  0.346239  1
  Pd  Pd17  1  0.001199  0.345047  0.656996  1
  Pd  Pd18  1  0.653373  0.000839  0.000810  1
  Pd  Pd19  1  0.999190  0.999161  0.346627  1
  Pd  Pd20  1  0.614883  0.151930  0.616862  1
  Pd  Pd21  1  0.343004  0.654953  0.998801  1
  Pd  Pd22  1  0.383138  0.383678  0.385117  1
  Pd  Pd23  1  0.614883  0.616322  0.616862  1
  Pd  Pd24  1  0.383802  0.384935  0.846329  1
  Pd  Pd25  1  0.001199  0.996758  0.656996  1
  Pd  Pd26  1  0.849783  0.383331  0.383558  1
  Pd  Pd27  1  0.002193  0.344354  0.997807  1
  Au  Au28  1  0.995671  0.000000  0.004329  1
