# generated using pymatgen
data_K7RbGa8(SnSe4)8
_symmetry_space_group_name_H-M   'P 1'
_cell_length_a   13.25800160
_cell_length_b   7.58610407
_cell_length_c   18.64560735
_cell_angle_alpha   81.13585250
_cell_angle_beta   90.13090373
_cell_angle_gamma   89.97383282
_symmetry_Int_Tables_number   1
_chemical_formula_structural   K7RbGa8(SnSe4)8
_chemical_formula_sum   'K7 Rb1 Ga8 Sn8 Se32'
_cell_volume   1852.90814394
_cell_formula_units_Z   1
loop_
 _symmetry_equiv_pos_site_id
 _symmetry_equiv_pos_as_xyz
  1  'x, y, z'
loop_
 _atom_site_type_symbol
 _atom_site_label
 _atom_site_symmetry_multiplicity
 _atom_site_fract_x
 _atom_site_fract_y
 _atom_site_fract_z
 _atom_site_occupancy
  K  K0  1  0.439756  0.773029  0.321644  1
  K  K1  1  0.560539  0.226399  0.679070  1
  K  K2  1  0.938565  0.227867  0.177139  1
  K  K3  1  0.060631  0.773315  0.821639  1
  K  K4  1  0.602478  0.242382  0.043446  1
  K  K5  1  0.397358  0.757546  0.956574  1
  K  K6  1  0.103087  0.758962  0.456277  1
  Rb  Rb7  1  0.900194  0.249530  0.546155  1
  Ga  Ga8  1  0.754973  0.988602  0.340493  1
  Ga  Ga9  1  0.245728  0.012515  0.659253  1
  Ga  Ga10  1  0.255618  0.012267  0.159015  1
  Ga  Ga11  1  0.743828  0.985397  0.841906  1
  Ga  Ga12  1  0.752812  0.470875  0.359794  1
  Ga  Ga13  1  0.246819  0.530060  0.639695  1
  Ga  Ga14  1  0.254622  0.529610  0.139412  1
  Ga  Ga15  1  0.745169  0.469151  0.860872  1
  Sn  Sn16  1  0.705290  0.747830  0.181890  1
  Sn  Sn17  1  0.294170  0.252273  0.817579  1
  Sn  Sn18  1  0.206802  0.252014  0.317181  1
  Sn  Sn19  1  0.793401  0.746113  0.682436  1
  Sn  Sn20  1  0.814177  0.711099  0.013732  1
  Sn  Sn21  1  0.186260  0.287994  0.986551  1
  Sn  Sn22  1  0.315283  0.287801  0.486193  1
  Sn  Sn23  1  0.684765  0.713292  0.512735  1
  Se  Se24  1  0.177129  0.943757  0.281920  1
  Se  Se25  1  0.823224  0.052321  0.719652  1
  Se  Se26  1  0.675558  0.055453  0.217581  1
  Se  Se27  1  0.324806  0.944335  0.782159  1
  Se  Se28  1  0.862628  0.728434  0.349516  1
  Se  Se29  1  0.137819  0.271721  0.652161  1
  Se  Se30  1  0.363956  0.271222  0.150887  1
  Se  Se31  1  0.635457  0.726852  0.849778  1
  Se  Se32  1  0.627615  0.758977  0.051641  1
  Se  Se33  1  0.372471  0.240409  0.947843  1
  Se  Se34  1  0.129096  0.240070  0.447146  1
  Se  Se35  1  0.871396  0.756391  0.552492  1
  Se  Se36  1  0.622099  0.492696  0.265536  1
  Se  Se37  1  0.377793  0.507363  0.733779  1
  Se  Se38  1  0.123386  0.506859  0.232956  1
  Se  Se39  1  0.876246  0.491241  0.767181  1
  Se  Se40  1  0.611467  0.971636  0.424107  1
  Se  Se41  1  0.389188  0.031744  0.575626  1
  Se  Se42  1  0.111703  0.032113  0.075362  1
  Se  Se43  1  0.888204  0.967531  0.925101  1
  Se  Se44  1  0.890254  0.703692  0.142964  1
  Se  Se45  1  0.109628  0.295551  0.857401  1
  Se  Se46  1  0.391538  0.296281  0.357211  1
  Se  Se47  1  0.608723  0.704420  0.641979  1
  Se  Se48  1  0.371370  0.774428  0.143731  1
  Se  Se49  1  0.628419  0.224326  0.856600  1
  Se  Se50  1  0.870330  0.227188  0.354931  1
  Se  Se51  1  0.129786  0.774969  0.643752  1
  Se  Se52  1  0.658462  0.406279  0.476131  1
  Se  Se53  1  0.337633  0.596652  0.522052  1
  Se  Se54  1  0.162704  0.597057  0.021847  1
  Se  Se55  1  0.837584  0.402109  0.978294  1
