# generated using pymatgen
data_CeAl2GaNi
_symmetry_space_group_name_H-M   'P 1'
_cell_length_a   4.16394473
_cell_length_b   4.16394462
_cell_length_c   6.00339299
_cell_angle_alpha   69.70832967
_cell_angle_beta   69.70833433
_cell_angle_gamma   90.00000593
_symmetry_Int_Tables_number   1
_chemical_formula_structural   CeAl2GaNi
_chemical_formula_sum   'Ce1 Al2 Ga1 Ni1'
_cell_volume   90.71085852
_cell_formula_units_Z   1
loop_
 _symmetry_equiv_pos_site_id
 _symmetry_equiv_pos_as_xyz
  1  'x, y, z'
loop_
 _atom_site_type_symbol
 _atom_site_label
 _atom_site_symmetry_multiplicity
 _atom_site_fract_x
 _atom_site_fract_y
 _atom_site_fract_z
 _atom_site_occupancy
  Ce  Ce0  1  0.004494  0.004494  0.991011  1
  Al  Al1  1  0.753964  0.253964  0.492070  1
  Al  Al2  1  0.253964  0.753964  0.492070  1
  Ga  Ga3  1  0.590460  0.590460  0.819079  1
  Ni  Ni4  1  0.366116  0.366116  0.267768  1
