# generated using pymatgen
data_Lu8Ti12Si15Pb
_symmetry_space_group_name_H-M   'P 1'
_cell_length_a   7.05717399
_cell_length_b   7.01290426
_cell_length_c   12.89580204
_cell_angle_alpha   89.98864955
_cell_angle_beta   89.68032628
_cell_angle_gamma   89.87422305
_symmetry_Int_Tables_number   1
_chemical_formula_structural   Lu8Ti12Si15Pb
_chemical_formula_sum   'Lu8 Ti12 Si15 Pb1'
_cell_volume   638.21833836
_cell_formula_units_Z   1
loop_
 _symmetry_equiv_pos_site_id
 _symmetry_equiv_pos_as_xyz
  1  'x, y, z'
loop_
 _atom_site_type_symbol
 _atom_site_label
 _atom_site_symmetry_multiplicity
 _atom_site_fract_x
 _atom_site_fract_y
 _atom_site_fract_z
 _atom_site_occupancy
  Lu  Lu0  1  0.345290  0.997533  0.459879  1
  Lu  Lu1  1  0.508255  0.834311  0.718707  1
  Lu  Lu2  1  0.501743  0.159557  0.216868  1
  Lu  Lu3  1  0.841378  0.497897  0.281901  1
  Lu  Lu4  1  0.158605  0.511276  0.786839  1
  Lu  Lu5  1  0.661113  0.996769  0.969381  1
  Lu  Lu6  1  0.989794  0.351075  0.525850  1
  Lu  Lu7  1  0.999450  0.658588  0.034147  1
  Ti  Ti8  1  0.326036  0.326861  0.001349  1
  Ti  Ti9  1  0.173971  0.826211  0.249712  1
  Ti  Ti10  1  0.813587  0.175057  0.752642  1
  Ti  Ti11  1  0.672642  0.672824  0.499412  1
  Ti  Ti12  1  0.151847  0.007188  0.884209  1
  Ti  Ti13  1  0.493057  0.649769  0.126403  1
  Ti  Ti14  1  0.517067  0.355797  0.626439  1
  Ti  Ti15  1  0.653650  0.493945  0.876158  1
  Ti  Ti16  1  0.348352  0.508888  0.372948  1
  Ti  Ti17  1  0.847501  0.993026  0.375284  1
  Ti  Ti18  1  0.008952  0.151276  0.123830  1
  Ti  Ti19  1  0.977691  0.832320  0.618349  1
  Si  Si20  1  0.369504  0.703636  0.934914  1
  Si  Si21  1  0.629350  0.296712  0.431111  1
  Si  Si22  1  0.704140  0.367757  0.068028  1
  Si  Si23  1  0.296735  0.632629  0.566814  1
  Si  Si24  1  0.796865  0.868324  0.182763  1
  Si  Si25  1  0.131427  0.203270  0.316430  1
  Si  Si26  1  0.869290  0.799544  0.817865  1
  Si  Si27  1  0.294377  0.952519  0.067283  1
  Si  Si28  1  0.549817  0.790563  0.313163  1
  Si  Si29  1  0.461121  0.209065  0.821851  1
  Si  Si30  1  0.795901  0.543694  0.687382  1
  Si  Si31  1  0.207948  0.453198  0.185094  1
  Si  Si32  1  0.705070  0.047940  0.564386  1
  Si  Si33  1  0.952830  0.293248  0.935352  1
  Si  Si34  1  0.047977  0.709893  0.432253  1
  Pb  Pb35  1  0.197671  0.127840  0.675006  1
