# generated using pymatgen
data_VRh6W
_symmetry_space_group_name_H-M   'P 1'
_cell_length_a   5.49783500
_cell_length_b   5.49783544
_cell_length_c   4.36056000
_cell_angle_alpha   90.00000000
_cell_angle_beta   90.00000000
_cell_angle_gamma   120.00000334
_symmetry_Int_Tables_number   1
_chemical_formula_structural   VRh6W
_chemical_formula_sum   'V1 Rh6 W1'
_cell_volume   114.14485014
_cell_formula_units_Z   1
loop_
 _symmetry_equiv_pos_site_id
 _symmetry_equiv_pos_as_xyz
  1  'x, y, z'
loop_
 _atom_site_type_symbol
 _atom_site_label
 _atom_site_symmetry_multiplicity
 _atom_site_fract_x
 _atom_site_fract_y
 _atom_site_fract_z
 _atom_site_occupancy
  V  V0  1  0.666667  0.333333  0.250000  1
  Rh  Rh1  1  0.166156  0.332312  0.250000  1
  Rh  Rh2  1  0.667688  0.833844  0.250000  1
  Rh  Rh3  1  0.166156  0.833844  0.250000  1
  Rh  Rh4  1  0.832148  0.664297  0.750000  1
  Rh  Rh5  1  0.335703  0.167852  0.750000  1
  Rh  Rh6  1  0.832148  0.167852  0.750000  1
  W  W7  1  0.333333  0.666667  0.750000  1
