# generated using pymatgen
data_TmTaB6Ru
_symmetry_space_group_name_H-M   'P 1'
_cell_length_a   3.46440900
_cell_length_b   8.96512900
_cell_length_c   11.22756600
_cell_angle_alpha   90.00000000
_cell_angle_beta   90.00000000
_cell_angle_gamma   90.00000000
_symmetry_Int_Tables_number   1
_chemical_formula_structural   TmTaB6Ru
_chemical_formula_sum   'Tm4 Ta4 B24 Ru4'
_cell_volume   348.71555316
_cell_formula_units_Z   4
loop_
 _symmetry_equiv_pos_site_id
 _symmetry_equiv_pos_as_xyz
  1  'x, y, z'
loop_
 _atom_site_type_symbol
 _atom_site_label
 _atom_site_symmetry_multiplicity
 _atom_site_fract_x
 _atom_site_fract_y
 _atom_site_fract_z
 _atom_site_occupancy
  Tm  Tm0  1  0.000000  0.323062  0.412810  1
  Tm  Tm1  1  0.000000  0.676938  0.587190  1
  Tm  Tm2  1  0.000000  0.823062  0.087190  1
  Tm  Tm3  1  0.000000  0.176938  0.912810  1
  Ta  Ta4  1  0.000000  0.945977  0.375191  1
  Ta  Ta5  1  0.000000  0.054023  0.624809  1
  Ta  Ta6  1  0.000000  0.445977  0.124809  1
  Ta  Ta7  1  0.000000  0.554023  0.875191  1
  B  B8  1  0.500000  0.553991  0.434881  1
  B  B9  1  0.500000  0.446009  0.565119  1
  B  B10  1  0.500000  0.053991  0.065119  1
  B  B11  1  0.500000  0.946009  0.934881  1
  B  B12  1  0.500000  0.754068  0.419680  1
  B  B13  1  0.500000  0.245932  0.580320  1
  B  B14  1  0.500000  0.254068  0.080320  1
  B  B15  1  0.500000  0.745932  0.919680  1
  B  B16  1  0.500000  0.798157  0.262777  1
  B  B17  1  0.500000  0.201843  0.737223  1
  B  B18  1  0.500000  0.298157  0.237223  1
  B  B19  1  0.500000  0.701843  0.762777  1
  B  B20  1  0.500000  0.629407  0.181267  1
  B  B21  1  0.500000  0.370593  0.818733  1
  B  B22  1  0.500000  0.129407  0.318733  1
  B  B23  1  0.500000  0.870593  0.681267  1
  B  B24  1  0.500000  0.979747  0.213597  1
  B  B25  1  0.500000  0.020253  0.786403  1
  B  B26  1  0.500000  0.479747  0.286403  1
  B  B27  1  0.500000  0.520253  0.713597  1
  B  B28  1  0.500000  0.600603  0.026851  1
  B  B29  1  0.500000  0.399397  0.973149  1
  B  B30  1  0.500000  0.100603  0.473149  1
  B  B31  1  0.500000  0.899397  0.526851  1
  Ru  Ru32  1  0.000000  0.643074  0.318150  1
  Ru  Ru33  1  0.000000  0.356926  0.681850  1
  Ru  Ru34  1  0.000000  0.143074  0.181850  1
  Ru  Ru35  1  0.000000  0.856926  0.818150  1
