# generated using pymatgen
data_Dy16Er4Co3Bi8Ru
_symmetry_space_group_name_H-M   'P 1'
_cell_length_a   8.00048749
_cell_length_b   8.91237537
_cell_length_c   12.43293174
_cell_angle_alpha   89.96873319
_cell_angle_beta   90.23931611
_cell_angle_gamma   89.98928689
_symmetry_Int_Tables_number   1
_chemical_formula_structural   Dy16Er4Co3Bi8Ru
_chemical_formula_sum   'Dy16 Er4 Co3 Bi8 Ru1'
_cell_volume   886.50177389
_cell_formula_units_Z   1
loop_
 _symmetry_equiv_pos_site_id
 _symmetry_equiv_pos_as_xyz
  1  'x, y, z'
loop_
 _atom_site_type_symbol
 _atom_site_label
 _atom_site_symmetry_multiplicity
 _atom_site_fract_x
 _atom_site_fract_y
 _atom_site_fract_z
 _atom_site_occupancy
  Dy  Dy0  1  0.847024  0.750247  0.800318  1
  Dy  Dy1  1  0.152537  0.249890  0.198411  1
  Dy  Dy2  1  0.347768  0.249689  0.698786  1
  Dy  Dy3  1  0.653433  0.750105  0.296486  1
  Dy  Dy4  1  0.378984  0.750216  0.692402  1
  Dy  Dy5  1  0.617639  0.249657  0.311143  1
  Dy  Dy6  1  0.881662  0.249759  0.811355  1
  Dy  Dy7  1  0.118133  0.750314  0.187051  1
  Dy  Dy8  1  0.949392  0.750294  0.503764  1
  Dy  Dy9  1  0.051265  0.249794  0.496790  1
  Dy  Dy10  1  0.450288  0.249748  0.997308  1
  Dy  Dy11  1  0.549151  0.750148  0.002464  1
  Dy  Dy12  1  0.824113  0.036385  0.063035  1
  Dy  Dy13  1  0.676581  0.458016  0.564511  1
  Dy  Dy14  1  0.823727  0.463675  0.063068  1
  Dy  Dy15  1  0.175284  0.534780  0.936898  1
  Er  Er16  1  0.675377  0.042368  0.564323  1
  Er  Er17  1  0.325762  0.965557  0.436624  1
  Er  Er18  1  0.173926  0.965074  0.937018  1
  Er  Er19  1  0.325524  0.534235  0.436502  1
  Co  Co20  1  0.433807  0.249680  0.491014  1
  Co  Co21  1  0.061664  0.249621  0.991989  1
  Co  Co22  1  0.937626  0.750428  0.007166  1
  Bi  Bi23  1  0.570859  0.491774  0.826925  1
  Bi  Bi24  1  0.428491  0.507935  0.173461  1
  Bi  Bi25  1  0.070996  0.507725  0.674213  1
  Bi  Bi26  1  0.428509  0.992010  0.173426  1
  Bi  Bi27  1  0.930817  0.492334  0.326223  1
  Bi  Bi28  1  0.570513  0.008169  0.826938  1
  Bi  Bi29  1  0.931010  0.007674  0.326215  1
  Bi  Bi30  1  0.070584  0.992252  0.674357  1
  Ru  Ru31  1  0.567556  0.750449  0.509814  1
