# generated using pymatgen
data_Tb7TmSc12Si15Bi
_symmetry_space_group_name_H-M   'P 1'
_cell_length_a   7.18831980
_cell_length_b   7.42654104
_cell_length_c   14.08745897
_cell_angle_alpha   90.05303752
_cell_angle_beta   88.79994687
_cell_angle_gamma   90.21375855
_symmetry_Int_Tables_number   1
_chemical_formula_structural   Tb7TmSc12Si15Bi
_chemical_formula_sum   'Tb7 Tm1 Sc12 Si15 Bi1'
_cell_volume   751.87941344
_cell_formula_units_Z   1
loop_
 _symmetry_equiv_pos_site_id
 _symmetry_equiv_pos_as_xyz
  1  'x, y, z'
loop_
 _atom_site_type_symbol
 _atom_site_label
 _atom_site_symmetry_multiplicity
 _atom_site_fract_x
 _atom_site_fract_y
 _atom_site_fract_z
 _atom_site_occupancy
  Tb  Tb0  1  0.011958  0.176600  0.096583  1
  Tb  Tb1  1  0.988448  0.824732  0.903682  1
  Tb  Tb2  1  0.489017  0.675306  0.904367  1
  Tb  Tb3  1  0.992896  0.830437  0.598529  1
  Tb  Tb4  1  0.511417  0.324622  0.097364  1
  Tb  Tb5  1  0.999743  0.170189  0.399415  1
  Tb  Tb6  1  0.511091  0.317327  0.397580  1
  Tm  Tm7  1  0.513218  0.687307  0.601726  1
  Sc  Sc8  1  0.164724  0.500902  0.755951  1
  Sc  Sc9  1  0.834708  0.499634  0.251469  1
  Sc  Sc10  1  0.334660  0.000942  0.250265  1
  Sc  Sc11  1  0.667198  0.999135  0.751022  1
  Sc  Sc12  1  0.348946  0.155852  0.631875  1
  Sc  Sc13  1  0.658282  0.826958  0.372493  1
  Sc  Sc14  1  0.153807  0.682723  0.369054  1
  Sc  Sc15  1  0.667130  0.822993  0.124004  1
  Sc  Sc16  1  0.826769  0.327095  0.625905  1
  Sc  Sc17  1  0.331034  0.175116  0.874871  1
  Sc  Sc18  1  0.831234  0.323871  0.875205  1
  Sc  Sc19  1  0.168359  0.676254  0.125008  1
  Si  Si20  1  0.036713  0.120427  0.750973  1
  Si  Si21  1  0.960318  0.884108  0.246102  1
  Si  Si22  1  0.460492  0.617057  0.247646  1
  Si  Si23  1  0.535982  0.384669  0.752549  1
  Si  Si24  1  0.290853  0.867174  0.752395  1
  Si  Si25  1  0.710538  0.124942  0.246378  1
  Si  Si26  1  0.209127  0.374706  0.248933  1
  Si  Si27  1  0.792598  0.627700  0.751094  1
  Si  Si28  1  0.811700  0.542338  0.457191  1
  Si  Si29  1  0.331605  0.961764  0.460385  1
  Si  Si30  1  0.844370  0.534752  0.039590  1
  Si  Si31  1  0.669375  0.037822  0.539009  1
  Si  Si32  1  0.154512  0.465074  0.961261  1
  Si  Si33  1  0.654697  0.034922  0.960205  1
  Si  Si34  1  0.343985  0.965931  0.040027  1
  Bi  Bi35  1  0.188491  0.458619  0.539895  1
