# generated using pymatgen
data_NaHg(CO3)2
_symmetry_space_group_name_H-M   'P 1'
_cell_length_a   6.45104187
_cell_length_b   6.45097163
_cell_length_c   6.45093567
_cell_angle_alpha   46.48346030
_cell_angle_beta   46.48403484
_cell_angle_gamma   46.48449385
_symmetry_Int_Tables_number   1
_chemical_formula_structural   NaHg(CO3)2
_chemical_formula_sum   'Na1 Hg1 C2 O6'
_cell_volume   128.90836245
_cell_formula_units_Z   1
loop_
 _symmetry_equiv_pos_site_id
 _symmetry_equiv_pos_as_xyz
  1  'x, y, z'
loop_
 _atom_site_type_symbol
 _atom_site_label
 _atom_site_symmetry_multiplicity
 _atom_site_fract_x
 _atom_site_fract_y
 _atom_site_fract_z
 _atom_site_occupancy
  Na  Na0  1  0.000000  0.000000  0.000000  1
  Hg  Hg1  1  0.500000  0.500000  0.500000  1
  C  C2  1  0.244048  0.244018  0.244031  1
  C  C3  1  0.755952  0.755982  0.755969  1
  O  O4  1  0.997018  0.233169  0.503958  1
  O  O5  1  0.503943  0.997021  0.233183  1
  O  O6  1  0.233174  0.503941  0.997036  1
  O  O7  1  0.002982  0.766831  0.496042  1
  O  O8  1  0.496057  0.002979  0.766817  1
  O  O9  1  0.766826  0.496059  0.002964  1
