# generated using pymatgen
data_Nd3Ho3Co16(P6W)2
_symmetry_space_group_name_H-M   'P 1'
_cell_length_a   3.77142400
_cell_length_b   10.65083320
_cell_length_c   12.38322895
_cell_angle_alpha   89.79417052
_cell_angle_beta   90.00000000
_cell_angle_gamma   90.00000000
_symmetry_Int_Tables_number   1
_chemical_formula_structural   Nd3Ho3Co16(P6W)2
_chemical_formula_sum   'Nd3 Ho3 Co16 P12 W2'
_cell_volume   497.41633601
_cell_formula_units_Z   1
loop_
 _symmetry_equiv_pos_site_id
 _symmetry_equiv_pos_as_xyz
  1  'x, y, z'
loop_
 _atom_site_type_symbol
 _atom_site_label
 _atom_site_symmetry_multiplicity
 _atom_site_fract_x
 _atom_site_fract_y
 _atom_site_fract_z
 _atom_site_occupancy
  Nd  Nd0  1  0.000000  0.500344  0.523945  1
  Nd  Nd1  1  0.500000  0.999815  0.475288  1
  Nd  Nd2  1  0.000000  0.319720  0.795236  1
  Ho  Ho3  1  0.500000  0.818644  0.204280  1
  Ho  Ho4  1  0.500000  0.180705  0.203443  1
  Ho  Ho5  1  0.000000  0.682371  0.796516  1
  Co  Co6  1  0.500000  0.503531  0.703786  1
  Co  Co7  1  0.000000  0.999451  0.295363  1
  Co  Co8  1  0.000000  0.501886  0.989053  1
  Co  Co9  1  0.500000  0.998597  0.013561  1
  Co  Co10  1  0.500000  0.332798  0.993101  1
  Co  Co11  1  0.500000  0.668483  0.991667  1
  Co  Co12  1  0.000000  0.166317  0.010903  1
  Co  Co13  1  0.000000  0.832476  0.010348  1
  Co  Co14  1  0.500000  0.294801  0.427972  1
  Co  Co15  1  0.500000  0.705321  0.429623  1
  Co  Co16  1  0.000000  0.204243  0.567261  1
  Co  Co17  1  0.000000  0.795143  0.569949  1
  Co  Co18  1  0.500000  0.878162  0.710686  1
  Co  Co19  1  0.500000  0.118821  0.708630  1
  Co  Co20  1  0.000000  0.621164  0.289923  1
  Co  Co21  1  0.000000  0.378417  0.288674  1
  P  P22  1  0.500000  0.503205  0.883982  1
  P  P23  1  0.000000  0.999203  0.118730  1
  P  P24  1  0.500000  0.499677  0.345643  1
  P  P25  1  0.000000  0.000200  0.654249  1
  P  P26  1  0.500000  0.306634  0.613121  1
  P  P27  1  0.500000  0.692884  0.617496  1
  P  P28  1  0.000000  0.191385  0.380931  1
  P  P29  1  0.000000  0.808009  0.382349  1
  P  P30  1  0.500000  0.844217  0.894041  1
  P  P31  1  0.500000  0.153213  0.895916  1
  P  P32  1  0.000000  0.656331  0.107428  1
  P  P33  1  0.000000  0.344281  0.106174  1
  W  W34  1  0.500000  0.500490  0.154606  1
  W  W35  1  0.000000  0.999064  0.846126  1
