# generated using pymatgen
data_Dy3Lu2Co16(TcP4)3
_symmetry_space_group_name_H-M   'P 1'
_cell_length_a   11.98715207
_cell_length_b   11.98945682
_cell_length_c   3.69038500
_cell_angle_alpha   90.00000000
_cell_angle_beta   90.00000000
_cell_angle_gamma   120.00635408
_symmetry_Int_Tables_number   1
_chemical_formula_structural   Dy3Lu2Co16(TcP4)3
_chemical_formula_sum   'Dy3 Lu2 Co16 Tc3 P12'
_cell_volume   459.29320520
_cell_formula_units_Z   1
loop_
 _symmetry_equiv_pos_site_id
 _symmetry_equiv_pos_as_xyz
  1  'x, y, z'
loop_
 _atom_site_type_symbol
 _atom_site_label
 _atom_site_symmetry_multiplicity
 _atom_site_fract_x
 _atom_site_fract_y
 _atom_site_fract_z
 _atom_site_occupancy
  Dy  Dy0  1  0.666996  0.333488  0.000000  1
  Dy  Dy1  1  0.333004  0.666493  0.000000  1
  Dy  Dy2  1  0.000000  0.815885  0.500000  1
  Lu  Lu3  1  0.184135  0.184412  0.500000  1
  Lu  Lu4  1  0.815865  0.000277  0.500000  1
  Co  Co5  1  0.821870  0.195240  0.000000  1
  Co  Co6  1  0.802937  0.625066  0.000000  1
  Co  Co7  1  0.374228  0.178804  0.000000  1
  Co  Co8  1  0.197063  0.822129  0.000000  1
  Co  Co9  1  0.625772  0.804575  0.000000  1
  Co  Co10  1  0.178130  0.373370  0.000000  1
  Co  Co11  1  0.644701  0.126008  0.500000  1
  Co  Co12  1  0.873904  0.517607  0.500000  1
  Co  Co13  1  0.481799  0.355888  0.500000  1
  Co  Co14  1  0.126096  0.643704  0.500000  1
  Co  Co15  1  0.518201  0.874090  0.500000  1
  Co  Co16  1  0.355299  0.481308  0.500000  1
  Co  Co17  1  0.717729  0.718735  0.500000  1
  Co  Co18  1  0.282271  0.001007  0.500000  1
  Co  Co19  1  0.000000  0.280921  0.500000  1
  Co  Co20  1  0.000000  0.000939  0.000000  1
  Tc  Tc21  1  0.553208  0.553865  0.000000  1
  Tc  Tc22  1  0.446792  0.000656  0.000000  1
  Tc  Tc23  1  0.000000  0.445135  0.000000  1
  P  P24  1  0.361210  0.361196  0.000000  1
  P  P25  1  0.638790  0.999986  0.000000  1
  P  P26  1  0.000000  0.637201  0.000000  1
  P  P27  1  0.835723  0.314133  0.500000  1
  P  P28  1  0.685630  0.521445  0.500000  1
  P  P29  1  0.479467  0.164767  0.500000  1
  P  P30  1  0.314370  0.835815  0.500000  1
  P  P31  1  0.520533  0.685300  0.500000  1
  P  P32  1  0.164277  0.478410  0.500000  1
  P  P33  1  0.821631  0.823255  0.000000  1
  P  P34  1  0.178369  0.001624  0.000000  1
  P  P35  1  0.000000  0.177266  0.000000  1
