# generated using pymatgen
data_Ho6Al24Ru7Au
_symmetry_space_group_name_H-M   'P 1'
_cell_length_a   8.84223502
_cell_length_b   8.84223552
_cell_length_c   9.55633520
_cell_angle_alpha   89.86231836
_cell_angle_beta   90.13767935
_cell_angle_gamma   119.89621459
_symmetry_Int_Tables_number   1
_chemical_formula_structural   Ho6Al24Ru7Au
_chemical_formula_sum   'Ho6 Al24 Ru7 Au1'
_cell_volume   647.73550867
_cell_formula_units_Z   1
loop_
 _symmetry_equiv_pos_site_id
 _symmetry_equiv_pos_as_xyz
  1  'x, y, z'
loop_
 _atom_site_type_symbol
 _atom_site_label
 _atom_site_symmetry_multiplicity
 _atom_site_fract_x
 _atom_site_fract_y
 _atom_site_fract_z
 _atom_site_occupancy
  Ho  Ho0  1  0.192344  0.386258  0.249804  1
  Ho  Ho1  1  0.807656  0.613742  0.750196  1
  Ho  Ho2  1  0.613742  0.807656  0.249804  1
  Ho  Ho3  1  0.386258  0.192344  0.750196  1
  Ho  Ho4  1  0.194482  0.805518  0.252854  1
  Ho  Ho5  1  0.805518  0.194482  0.747146  1
  Al  Al6  1  0.328180  0.671820  0.022625  1
  Al  Al7  1  0.671820  0.328180  0.977375  1
  Al  Al8  1  0.666665  0.333335  0.517142  1
  Al  Al9  1  0.333335  0.666665  0.482858  1
  Al  Al10  1  0.162375  0.324019  0.578311  1
  Al  Al11  1  0.837625  0.675981  0.421689  1
  Al  Al12  1  0.675981  0.837625  0.578311  1
  Al  Al13  1  0.849168  0.678305  0.080245  1
  Al  Al14  1  0.324019  0.162375  0.421689  1
  Al  Al15  1  0.150832  0.321695  0.919755  1
  Al  Al16  1  0.162590  0.837410  0.579022  1
  Al  Al17  1  0.321695  0.150832  0.080245  1
  Al  Al18  1  0.837410  0.162590  0.420978  1
  Al  Al19  1  0.678305  0.849168  0.919755  1
  Al  Al20  1  0.837418  0.162582  0.078232  1
  Al  Al21  1  0.162582  0.837418  0.921768  1
  Al  Al22  1  0.560612  0.120934  0.248431  1
  Al  Al23  1  0.439388  0.879066  0.751569  1
  Al  Al24  1  0.879066  0.439388  0.248431  1
  Al  Al25  1  0.120934  0.560612  0.751569  1
  Al  Al26  1  0.563529  0.436471  0.255606  1
  Al  Al27  1  0.436471  0.563529  0.744394  1
  Al  Al28  1  0.999366  0.000634  0.250146  1
  Al  Al29  1  0.000634  0.999366  0.749854  1
  Ru  Ru30  1  0.500000  0.000000  0.000000  1
  Ru  Ru31  1  0.000000  0.500000  0.000000  1
  Ru  Ru32  1  0.500000  0.000000  0.500000  1
  Ru  Ru33  1  0.000000  0.500000  0.500000  1
  Ru  Ru34  1  0.500000  0.500000  0.500000  1
  Ru  Ru35  1  0.000000  0.000000  0.000000  1
  Ru  Ru36  1  0.000000  0.000000  0.500000  1
  Au  Au37  1  0.500000  0.500000  0.000000  1
