# generated using pymatgen
data_Nd2Ga2PdRh
_symmetry_space_group_name_H-M   'P 1'
_cell_length_a   4.51525200
_cell_length_b   7.12085600
_cell_length_c   7.77541100
_cell_angle_alpha   90.00000000
_cell_angle_beta   90.00000000
_cell_angle_gamma   90.00000000
_symmetry_Int_Tables_number   1
_chemical_formula_structural   Nd2Ga2PdRh
_chemical_formula_sum   'Nd4 Ga4 Pd2 Rh2'
_cell_volume   249.99858568
_cell_formula_units_Z   2
loop_
 _symmetry_equiv_pos_site_id
 _symmetry_equiv_pos_as_xyz
  1  'x, y, z'
loop_
 _atom_site_type_symbol
 _atom_site_label
 _atom_site_symmetry_multiplicity
 _atom_site_fract_x
 _atom_site_fract_y
 _atom_site_fract_z
 _atom_site_occupancy
  Nd  Nd0  1  0.250000  0.030474  0.688210  1
  Nd  Nd1  1  0.250000  0.530474  0.811790  1
  Nd  Nd2  1  0.750000  0.978311  0.303098  1
  Nd  Nd3  1  0.750000  0.478311  0.196902  1
  Ga  Ga4  1  0.250000  0.162690  0.077048  1
  Ga  Ga5  1  0.250000  0.662690  0.422952  1
  Ga  Ga6  1  0.750000  0.832026  0.928270  1
  Ga  Ga7  1  0.750000  0.332026  0.571730  1
  Pd  Pd8  1  0.750000  0.714053  0.601560  1
  Pd  Pd9  1  0.750000  0.214053  0.898440  1
  Rh  Rh10  1  0.250000  0.282446  0.399066  1
  Rh  Rh11  1  0.250000  0.782446  0.100934  1
