# generated using pymatgen
data_HoEr2PaHg2Rh3
_symmetry_space_group_name_H-M   'P 1'
_cell_length_a   7.76812747
_cell_length_b   7.76939455
_cell_length_c   3.82311900
_cell_angle_alpha   90.00000000
_cell_angle_beta   90.00000000
_cell_angle_gamma   121.78511890
_symmetry_Int_Tables_number   1
_chemical_formula_structural   HoEr2PaHg2Rh3
_chemical_formula_sum   'Ho1 Er2 Pa1 Hg2 Rh3'
_cell_volume   196.13511204
_cell_formula_units_Z   1
loop_
 _symmetry_equiv_pos_site_id
 _symmetry_equiv_pos_as_xyz
  1  'x, y, z'
loop_
 _atom_site_type_symbol
 _atom_site_label
 _atom_site_symmetry_multiplicity
 _atom_site_fract_x
 _atom_site_fract_y
 _atom_site_fract_z
 _atom_site_occupancy
  Ho  Ho0  1  0.403890  0.961778  0.500000  1
  Er  Er1  1  0.961767  0.403898  0.500000  1
  Er  Er2  1  0.643159  0.643062  0.500000  1
  Pa  Pa3  1  0.267484  0.267546  0.000000  1
  Hg  Hg4  1  0.012793  0.736514  0.000000  1
  Hg  Hg5  1  0.737283  0.013418  0.000000  1
  Rh  Rh6  1  0.325034  0.620728  0.000000  1
  Rh  Rh7  1  0.027135  0.027346  0.500000  1
  Rh  Rh8  1  0.621458  0.325715  0.000000  1
