# generated using pymatgen
data_Ho3Si2Ni
_symmetry_space_group_name_H-M   'P 1'
_cell_length_a   4.11053900
_cell_length_b   11.14190400
_cell_length_c   11.21141000
_cell_angle_alpha   90.00000000
_cell_angle_beta   90.00000000
_cell_angle_gamma   90.00000000
_symmetry_Int_Tables_number   1
_chemical_formula_structural   Ho3Si2Ni
_chemical_formula_sum   'Ho12 Si8 Ni4'
_cell_volume   513.47395560
_cell_formula_units_Z   4
loop_
 _symmetry_equiv_pos_site_id
 _symmetry_equiv_pos_as_xyz
  1  'x, y, z'
loop_
 _atom_site_type_symbol
 _atom_site_label
 _atom_site_symmetry_multiplicity
 _atom_site_fract_x
 _atom_site_fract_y
 _atom_site_fract_z
 _atom_site_occupancy
  Ho  Ho0  1  0.250000  0.124282  0.557217  1
  Ho  Ho1  1  0.250000  0.375718  0.057217  1
  Ho  Ho2  1  0.750000  0.875718  0.442783  1
  Ho  Ho3  1  0.750000  0.624282  0.942783  1
  Ho  Ho4  1  0.250000  0.802944  0.715454  1
  Ho  Ho5  1  0.250000  0.697056  0.215454  1
  Ho  Ho6  1  0.750000  0.197056  0.284546  1
  Ho  Ho7  1  0.750000  0.302944  0.784546  1
  Ho  Ho8  1  0.250000  0.059227  0.882141  1
  Ho  Ho9  1  0.250000  0.440773  0.382141  1
  Ho  Ho10  1  0.750000  0.940773  0.117859  1
  Ho  Ho11  1  0.750000  0.559227  0.617859  1
  Si  Si12  1  0.250000  0.495202  0.803623  1
  Si  Si13  1  0.250000  0.004798  0.303623  1
  Si  Si14  1  0.750000  0.504798  0.196377  1
  Si  Si15  1  0.750000  0.995202  0.696377  1
  Si  Si16  1  0.250000  0.812843  0.976385  1
  Si  Si17  1  0.250000  0.687157  0.476385  1
  Si  Si18  1  0.750000  0.187157  0.023615  1
  Si  Si19  1  0.750000  0.312843  0.523615  1
  Ni  Ni20  1  0.250000  0.365536  0.629669  1
  Ni  Ni21  1  0.250000  0.134464  0.129669  1
  Ni  Ni22  1  0.750000  0.634464  0.370331  1
  Ni  Ni23  1  0.750000  0.865536  0.870331  1
