# generated using pymatgen
data_Dy7Er9Cd4Ni3Os
_symmetry_space_group_name_H-M   'P 1'
_cell_length_a   9.53689215
_cell_length_b   9.53689213
_cell_length_c   9.53560204
_cell_angle_alpha   59.54711064
_cell_angle_beta   59.54711455
_cell_angle_gamma   59.54160839
_symmetry_Int_Tables_number   1
_chemical_formula_structural   Dy7Er9Cd4Ni3Os
_chemical_formula_sum   'Dy7 Er9 Cd4 Ni3 Os1'
_cell_volume   606.92275717
_cell_formula_units_Z   1
loop_
 _symmetry_equiv_pos_site_id
 _symmetry_equiv_pos_as_xyz
  1  'x, y, z'
loop_
 _atom_site_type_symbol
 _atom_site_label
 _atom_site_symmetry_multiplicity
 _atom_site_fract_x
 _atom_site_fract_y
 _atom_site_fract_z
 _atom_site_occupancy
  Dy  Dy0  1  0.061561  0.061561  0.436257  1
  Dy  Dy1  1  0.186269  0.815464  0.815780  1
  Dy  Dy2  1  0.806041  0.189557  0.189375  1
  Dy  Dy3  1  0.815464  0.186269  0.815780  1
  Dy  Dy4  1  0.189557  0.806041  0.189375  1
  Dy  Dy5  1  0.815629  0.815629  0.186116  1
  Dy  Dy6  1  0.189460  0.189460  0.806160  1
  Er  Er7  1  0.597234  0.597234  0.597204  1
  Er  Er8  1  0.601253  0.601253  0.203607  1
  Er  Er9  1  0.600982  0.203672  0.601398  1
  Er  Er10  1  0.203672  0.600982  0.601398  1
  Er  Er11  1  0.060408  0.438371  0.438011  1
  Er  Er12  1  0.436480  0.061612  0.061356  1
  Er  Er13  1  0.438371  0.060408  0.438011  1
  Er  Er14  1  0.061612  0.436480  0.061356  1
  Er  Er15  1  0.438059  0.438059  0.060372  1
  Cd  Cd16  1  0.829963  0.829963  0.830239  1
  Cd  Cd17  1  0.829850  0.829850  0.505924  1
  Cd  Cd18  1  0.829928  0.505931  0.829937  1
  Cd  Cd19  1  0.505931  0.829928  0.829937  1
  Ni  Ni20  1  0.392158  0.392158  0.824876  1
  Ni  Ni21  1  0.392193  0.824834  0.392190  1
  Ni  Ni22  1  0.824834  0.392193  0.392190  1
  Os  Os23  1  0.393089  0.393089  0.393149  1
