# generated using pymatgen
data_Tm3Lu3TcOs
_symmetry_space_group_name_H-M   'P 1'
_cell_length_a   7.33740600
_cell_length_b   8.86892755
_cell_length_c   6.17916645
_cell_angle_alpha   90.10226511
_cell_angle_beta   90.00000000
_cell_angle_gamma   90.00000000
_symmetry_Int_Tables_number   1
_chemical_formula_structural   Tm3Lu3TcOs
_chemical_formula_sum   'Tm6 Lu6 Tc2 Os2'
_cell_volume   402.10813547
_cell_formula_units_Z   2
loop_
 _symmetry_equiv_pos_site_id
 _symmetry_equiv_pos_as_xyz
  1  'x, y, z'
loop_
 _atom_site_type_symbol
 _atom_site_label
 _atom_site_symmetry_multiplicity
 _atom_site_fract_x
 _atom_site_fract_y
 _atom_site_fract_z
 _atom_site_occupancy
  Tm  Tm0  1  0.674970  0.061733  0.337923  1
  Tm  Tm1  1  0.174970  0.438267  0.162077  1
  Tm  Tm2  1  0.538854  0.250033  0.875901  1
  Tm  Tm3  1  0.038854  0.249967  0.624099  1
  Tm  Tm4  1  0.460089  0.749964  0.127834  1
  Tm  Tm5  1  0.960089  0.750036  0.372166  1
  Lu  Lu6  1  0.325163  0.562862  0.663956  1
  Lu  Lu7  1  0.825163  0.937138  0.836044  1
  Lu  Lu8  1  0.324810  0.937199  0.664159  1
  Lu  Lu9  1  0.824810  0.562801  0.835841  1
  Lu  Lu10  1  0.674715  0.438568  0.338089  1
  Lu  Lu11  1  0.174715  0.061432  0.161911  1
  Tc  Tc12  1  0.883289  0.250125  0.039237  1
  Tc  Tc13  1  0.383289  0.249875  0.460763  1
  Os  Os14  1  0.118109  0.750606  0.958552  1
  Os  Os15  1  0.618109  0.749394  0.541448  1
