# generated using pymatgen
data_Zr10Sb7
_symmetry_space_group_name_H-M   'P 1'
_cell_length_a   5.91838304
_cell_length_b   8.64660419
_cell_length_c   8.64687402
_cell_angle_alpha   119.99897741
_cell_angle_beta   89.99933561
_cell_angle_gamma   90.00131729
_symmetry_Int_Tables_number   1
_chemical_formula_structural   Zr10Sb7
_chemical_formula_sum   'Zr10 Sb7'
_cell_volume   383.21534130
_cell_formula_units_Z   1
loop_
 _symmetry_equiv_pos_site_id
 _symmetry_equiv_pos_as_xyz
  1  'x, y, z'
loop_
 _atom_site_type_symbol
 _atom_site_label
 _atom_site_symmetry_multiplicity
 _atom_site_fract_x
 _atom_site_fract_y
 _atom_site_fract_z
 _atom_site_occupancy
  Zr  Zr0  1  0.499999  0.333329  0.666662  1
  Zr  Zr1  1  0.499999  0.666668  0.333338  1
  Zr  Zr2  1  0.000001  0.666672  0.333339  1
  Zr  Zr3  1  0.000001  0.333332  0.666661  1
  Zr  Zr4  1  0.773276  0.267220  0.000000  1
  Zr  Zr5  1  0.773277  0.732795  0.732795  1
  Zr  Zr6  1  0.773277  0.000000  0.267205  1
  Zr  Zr7  1  0.226725  0.732780  0.000000  1
  Zr  Zr8  1  0.226722  0.267205  0.267205  1
  Zr  Zr9  1  0.226722  0.000000  0.732795  1
  Sb  Sb10  1  0.747199  0.611975  0.000000  1
  Sb  Sb11  1  0.747203  0.388016  0.388019  1
  Sb  Sb12  1  0.747203  0.999998  0.611981  1
  Sb  Sb13  1  0.252800  0.388025  0.000000  1
  Sb  Sb14  1  0.252796  0.611984  0.611981  1
  Sb  Sb15  1  0.252796  0.000003  0.388019  1
  Sb  Sb16  1  0.500000  0.000000  0.000000  1
