# generated using pymatgen
data_NaNd6CoCl12
_symmetry_space_group_name_H-M   'P 1'
_cell_length_a   9.31326349
_cell_length_b   9.09629885
_cell_length_c   9.09479566
_cell_angle_alpha   106.51376002
_cell_angle_beta   107.27944457
_cell_angle_gamma   107.72489734
_symmetry_Int_Tables_number   1
_chemical_formula_structural   NaNd6CoCl12
_chemical_formula_sum   'Na1 Nd6 Co1 Cl12'
_cell_volume   638.55712659
_cell_formula_units_Z   1
loop_
 _symmetry_equiv_pos_site_id
 _symmetry_equiv_pos_as_xyz
  1  'x, y, z'
loop_
 _atom_site_type_symbol
 _atom_site_label
 _atom_site_symmetry_multiplicity
 _atom_site_fract_x
 _atom_site_fract_y
 _atom_site_fract_z
 _atom_site_occupancy
  Na  Na0  1  0.500000  0.500000  0.500000  1
  Nd  Nd1  1  0.331059  0.126372  0.027862  1
  Nd  Nd2  1  0.026731  0.317431  0.116435  1
  Nd  Nd3  1  0.115037  0.025293  0.317615  1
  Nd  Nd4  1  0.884962  0.974707  0.682385  1
  Nd  Nd5  1  0.973269  0.682569  0.883564  1
  Nd  Nd6  1  0.668941  0.873628  0.972137  1
  Co  Co7  1  0.000000  0.000000  0.000000  1
  Cl  Cl8  1  0.685913  0.207046  0.071235  1
  Cl  Cl9  1  0.363401  0.456377  0.159691  1
  Cl  Cl10  1  0.069971  0.681157  0.210792  1
  Cl  Cl11  1  0.791844  0.928430  0.318214  1
  Cl  Cl12  1  0.448321  0.159386  0.363910  1
  Cl  Cl13  1  0.163550  0.365856  0.453325  1
  Cl  Cl14  1  0.836451  0.634144  0.546676  1
  Cl  Cl15  1  0.551679  0.840615  0.636090  1
  Cl  Cl16  1  0.208155  0.071570  0.681786  1
  Cl  Cl17  1  0.930029  0.318843  0.789207  1
  Cl  Cl18  1  0.636600  0.543624  0.840309  1
  Cl  Cl19  1  0.314087  0.792953  0.928765  1
