# generated using pymatgen
data_Nd4Ho12Cd4IrPt3
_symmetry_space_group_name_H-M   'P 1'
_cell_length_a   9.70828881
_cell_length_b   9.67605665
_cell_length_c   9.67605538
_cell_angle_alpha   60.40124750
_cell_angle_beta   60.27128029
_cell_angle_gamma   60.27128632
_symmetry_Int_Tables_number   1
_chemical_formula_structural   Nd4Ho12Cd4IrPt3
_chemical_formula_sum   'Nd4 Ho12 Cd4 Ir1 Pt3'
_cell_volume   647.29696796
_cell_formula_units_Z   1
loop_
 _symmetry_equiv_pos_site_id
 _symmetry_equiv_pos_as_xyz
  1  'x, y, z'
loop_
 _atom_site_type_symbol
 _atom_site_label
 _atom_site_symmetry_multiplicity
 _atom_site_fract_x
 _atom_site_fract_y
 _atom_site_fract_z
 _atom_site_occupancy
  Nd  Nd0  1  0.565190  0.936181  0.564110  1
  Nd  Nd1  1  0.936715  0.562787  0.935179  1
  Nd  Nd2  1  0.565190  0.564110  0.936181  1
  Nd  Nd3  1  0.936715  0.935179  0.562787  1
  Ho  Ho4  1  0.353092  0.346779  0.346779  1
  Ho  Ho5  1  0.352762  0.350564  0.949421  1
  Ho  Ho6  1  0.352762  0.949421  0.350564  1
  Ho  Ho7  1  0.942990  0.352484  0.352484  1
  Ho  Ho8  1  0.808598  0.188000  0.188000  1
  Ho  Ho9  1  0.188938  0.811151  0.811151  1
  Ho  Ho10  1  0.190741  0.810541  0.189517  1
  Ho  Ho11  1  0.808600  0.186563  0.814620  1
  Ho  Ho12  1  0.190741  0.189517  0.810541  1
  Ho  Ho13  1  0.808600  0.814620  0.186563  1
  Ho  Ho14  1  0.943863  0.557258  0.557258  1
  Ho  Ho15  1  0.557946  0.943908  0.943908  1
  Cd  Cd16  1  0.583638  0.578170  0.578170  1
  Cd  Cd17  1  0.578331  0.583875  0.258794  1
  Cd  Cd18  1  0.578331  0.258794  0.583875  1
  Cd  Cd19  1  0.258736  0.579127  0.579127  1
  Ir  Ir20  1  0.572878  0.140285  0.140285  1
  Pt  Pt21  1  0.144388  0.142377  0.142377  1
  Pt  Pt22  1  0.140127  0.145592  0.572716  1
  Pt  Pt23  1  0.140127  0.572716  0.145592  1
