# generated using pymatgen
data_Tm8LuSc11Si15Ru
_symmetry_space_group_name_H-M   'P 1'
_cell_length_a   7.03877889
_cell_length_b   7.42851513
_cell_length_c   13.89136141
_cell_angle_alpha   89.94501967
_cell_angle_beta   90.03932589
_cell_angle_gamma   90.24409548
_symmetry_Int_Tables_number   1
_chemical_formula_structural   Tm8LuSc11Si15Ru
_chemical_formula_sum   'Tm8 Lu1 Sc11 Si15 Ru1'
_cell_volume   726.33990295
_cell_formula_units_Z   1
loop_
 _symmetry_equiv_pos_site_id
 _symmetry_equiv_pos_as_xyz
  1  'x, y, z'
loop_
 _atom_site_type_symbol
 _atom_site_label
 _atom_site_symmetry_multiplicity
 _atom_site_fract_x
 _atom_site_fract_y
 _atom_site_fract_z
 _atom_site_occupancy
  Tm  Tm0  1  0.011226  0.180037  0.095553  1
  Tm  Tm1  1  0.990879  0.826187  0.906841  1
  Tm  Tm2  1  0.490145  0.677931  0.906265  1
  Tm  Tm3  1  0.989946  0.824948  0.594608  1
  Tm  Tm4  1  0.511147  0.321643  0.095692  1
  Tm  Tm5  1  0.011221  0.179697  0.403958  1
  Tm  Tm6  1  0.511800  0.321464  0.402650  1
  Tm  Tm7  1  0.489855  0.678552  0.595146  1
  Lu  Lu8  1  0.315649  0.171838  0.627122  1
  Sc  Sc9  1  0.158535  0.507697  0.751327  1
  Sc  Sc10  1  0.838273  0.494551  0.249726  1
  Sc  Sc11  1  0.339424  0.006841  0.249229  1
  Sc  Sc12  1  0.670364  0.995226  0.750967  1
  Sc  Sc13  1  0.672828  0.825452  0.372784  1
  Sc  Sc14  1  0.171306  0.677586  0.372735  1
  Sc  Sc15  1  0.672428  0.825856  0.126002  1
  Sc  Sc16  1  0.836945  0.320527  0.628334  1
  Sc  Sc17  1  0.314758  0.171466  0.872411  1
  Sc  Sc18  1  0.838118  0.319666  0.872780  1
  Sc  Sc19  1  0.171565  0.678122  0.125920  1
  Si  Si20  1  0.969738  0.888201  0.249390  1
  Si  Si21  1  0.470595  0.611274  0.249377  1
  Si  Si22  1  0.530009  0.392992  0.751945  1
  Si  Si23  1  0.286054  0.861790  0.751771  1
  Si  Si24  1  0.713944  0.132427  0.249587  1
  Si  Si25  1  0.213964  0.368893  0.249538  1
  Si  Si26  1  0.780109  0.629250  0.750875  1
  Si  Si27  1  0.157261  0.473396  0.536482  1
  Si  Si28  1  0.841180  0.535559  0.461095  1
  Si  Si29  1  0.344429  0.964116  0.457162  1
  Si  Si30  1  0.842140  0.534812  0.038712  1
  Si  Si31  1  0.661991  0.034014  0.536911  1
  Si  Si32  1  0.161680  0.468392  0.963159  1
  Si  Si33  1  0.656554  0.034888  0.961616  1
  Si  Si34  1  0.342589  0.966775  0.039934  1
  Ru  Ru35  1  0.021347  0.097936  0.752394  1
