# generated using pymatgen
data_Y2Tc2Ni10P7
_symmetry_space_group_name_H-M   'P 1'
_cell_length_a   9.05898768
_cell_length_b   9.12490522
_cell_length_c   3.70740200
_cell_angle_alpha   90.00000000
_cell_angle_beta   90.00000000
_cell_angle_gamma   119.75906423
_symmetry_Int_Tables_number   1
_chemical_formula_structural   Y2Tc2Ni10P7
_chemical_formula_sum   'Y2 Tc2 Ni10 P7'
_cell_volume   266.04654506
_cell_formula_units_Z   1
loop_
 _symmetry_equiv_pos_site_id
 _symmetry_equiv_pos_as_xyz
  1  'x, y, z'
loop_
 _atom_site_type_symbol
 _atom_site_label
 _atom_site_symmetry_multiplicity
 _atom_site_fract_x
 _atom_site_fract_y
 _atom_site_fract_z
 _atom_site_occupancy
  Y  Y0  1  0.000457  0.002326  0.000000  1
  Y  Y1  1  0.330859  0.664910  0.500000  1
  Tc  Tc2  1  0.874867  0.449572  0.500000  1
  Tc  Tc3  1  0.550524  0.432492  0.500000  1
  Ni  Ni4  1  0.296077  0.396077  0.000000  1
  Ni  Ni5  1  0.099763  0.704464  0.000000  1
  Ni  Ni6  1  0.390343  0.177405  0.000000  1
  Ni  Ni7  1  0.793166  0.618595  0.000000  1
  Ni  Ni8  1  0.817795  0.205276  0.000000  1
  Ni  Ni9  1  0.235169  0.952442  0.500000  1
  Ni  Ni10  1  0.051856  0.279480  0.500000  1
  Ni  Ni11  1  0.721946  0.773797  0.500000  1
  Ni  Ni12  1  0.566907  0.107881  0.500000  1
  Ni  Ni13  1  0.602382  0.896843  0.000000  1
  P  P14  1  0.667998  0.335282  0.000000  1
  P  P15  1  0.072460  0.443758  0.000000  1
  P  P16  1  0.262176  0.218769  0.500000  1
  P  P17  1  0.778945  0.042914  0.500000  1
  P  P18  1  0.961033  0.741811  0.500000  1
  P  P19  1  0.555160  0.631409  0.000000  1
  P  P20  1  0.370117  0.924499  0.000000  1
