# generated using pymatgen
data_Tb2Er3IrRu
_symmetry_space_group_name_H-M   'P 1'
_cell_length_a   6.37197325
_cell_length_b   7.26715862
_cell_length_c   8.46344272
_cell_angle_alpha   96.97212788
_cell_angle_beta   112.11339390
_cell_angle_gamma   89.99999923
_symmetry_Int_Tables_number   1
_chemical_formula_structural   Tb2Er3IrRu
_chemical_formula_sum   'Tb4 Er6 Ir2 Ru2'
_cell_volume   359.95069478
_cell_formula_units_Z   2
loop_
 _symmetry_equiv_pos_site_id
 _symmetry_equiv_pos_as_xyz
  1  'x, y, z'
loop_
 _atom_site_type_symbol
 _atom_site_label
 _atom_site_symmetry_multiplicity
 _atom_site_fract_x
 _atom_site_fract_y
 _atom_site_fract_z
 _atom_site_occupancy
  Tb  Tb0  1  0.789890  0.582013  0.811865  1
  Tb  Tb1  1  0.978025  0.917987  0.188135  1
  Tb  Tb2  1  0.212183  0.415536  0.187303  1
  Tb  Tb3  1  0.024881  0.084464  0.812697  1
  Er  Er4  1  0.206123  0.683680  0.564808  1
  Er  Er5  1  0.641314  0.816320  0.435192  1
  Er  Er6  1  0.793720  0.314454  0.436359  1
  Er  Er7  1  0.357362  0.185546  0.563641  1
  Er  Er8  1  0.422536  0.750000  0.000000  1
  Er  Er9  1  0.576801  0.250000  0.000000  1
  Ir  Ir10  1  0.598619  0.923948  0.777890  1
  Ir  Ir11  1  0.820729  0.576052  0.222110  1
  Ru  Ru12  1  0.399586  0.074849  0.221355  1
  Ru  Ru13  1  0.178231  0.425151  0.778645  1
