# generated using pymatgen
data_Tb4Th(In2Ni)2
_symmetry_space_group_name_H-M   'P 1'
_cell_length_a   3.65113400
_cell_length_b   8.02963279
_cell_length_c   18.07948499
_cell_angle_alpha   90.34704373
_cell_angle_beta   90.00000000
_cell_angle_gamma   90.00000000
_symmetry_Int_Tables_number   1
_chemical_formula_structural   Tb4Th(In2Ni)2
_chemical_formula_sum   'Tb8 Th2 In8 Ni4'
_cell_volume   530.03133464
_cell_formula_units_Z   2
loop_
 _symmetry_equiv_pos_site_id
 _symmetry_equiv_pos_as_xyz
  1  'x, y, z'
loop_
 _atom_site_type_symbol
 _atom_site_label
 _atom_site_symmetry_multiplicity
 _atom_site_fract_x
 _atom_site_fract_y
 _atom_site_fract_z
 _atom_site_occupancy
  Tb  Tb0  1  0.000000  0.500000  0.500000  1
  Tb  Tb1  1  0.000000  0.000000  0.000000  1
  Tb  Tb2  1  0.000000  0.755797  0.778332  1
  Tb  Tb3  1  0.000000  0.244203  0.221668  1
  Tb  Tb4  1  0.000000  0.615957  0.086634  1
  Tb  Tb5  1  0.000000  0.384043  0.913366  1
  Tb  Tb6  1  0.000000  0.882846  0.587398  1
  Tb  Tb7  1  0.000000  0.117154  0.412602  1
  Th  Th8  1  0.000000  0.745514  0.276733  1
  Th  Th9  1  0.000000  0.254486  0.723267  1
  In  In10  1  0.500000  0.706491  0.930403  1
  In  In11  1  0.500000  0.293509  0.069597  1
  In  In12  1  0.500000  0.796006  0.434291  1
  In  In13  1  0.500000  0.203994  0.565709  1
  In  In14  1  0.500000  0.578510  0.650708  1
  In  In15  1  0.500000  0.421490  0.349292  1
  In  In16  1  0.500000  0.934659  0.147912  1
  In  In17  1  0.500000  0.065341  0.852088  1
  Ni  Ni18  1  0.500000  0.533022  0.198281  1
  Ni  Ni19  1  0.500000  0.466978  0.801719  1
  Ni  Ni20  1  0.500000  0.982729  0.696993  1
  Ni  Ni21  1  0.500000  0.017271  0.303007  1
