# generated using pymatgen
data_BaTlPRh2
_symmetry_space_group_name_H-M   'P 1'
_cell_length_a   7.38926184
_cell_length_b   7.38926223
_cell_length_c   7.38926200
_cell_angle_alpha   147.51998478
_cell_angle_beta   147.51998951
_cell_angle_gamma   46.59446796
_symmetry_Int_Tables_number   1
_chemical_formula_structural   BaTlPRh2
_chemical_formula_sum   'Ba1 Tl1 P1 Rh2'
_cell_volume   115.92886164
_cell_formula_units_Z   1
loop_
 _symmetry_equiv_pos_site_id
 _symmetry_equiv_pos_as_xyz
  1  'x, y, z'
loop_
 _atom_site_type_symbol
 _atom_site_label
 _atom_site_symmetry_multiplicity
 _atom_site_fract_x
 _atom_site_fract_y
 _atom_site_fract_z
 _atom_site_occupancy
  Ba  Ba0  1  0.976277  0.976277  0.000000  1
  Tl  Tl1  1  0.634241  0.634241  0.000000  1
  P  P2  1  0.345999  0.345999  0.000000  1
  Rh  Rh3  1  0.771743  0.271743  0.500000  1
  Rh  Rh4  1  0.271743  0.771743  0.500000  1
