# generated using pymatgen
data_Sm2HoSi2(PPd5)4
_symmetry_space_group_name_H-M   'P 1'
_cell_length_a   8.72182673
_cell_length_b   8.70728761
_cell_length_c   8.70728683
_cell_angle_alpha   60.11050153
_cell_angle_beta   59.94474381
_cell_angle_gamma   59.94474560
_symmetry_Int_Tables_number   1
_chemical_formula_structural   Sm2HoSi2(PPd5)4
_chemical_formula_sum   'Sm2 Ho1 Si2 P4 Pd20'
_cell_volume   467.57980125
_cell_formula_units_Z   1
loop_
 _symmetry_equiv_pos_site_id
 _symmetry_equiv_pos_as_xyz
  1  'x, y, z'
loop_
 _atom_site_type_symbol
 _atom_site_label
 _atom_site_symmetry_multiplicity
 _atom_site_fract_x
 _atom_site_fract_y
 _atom_site_fract_z
 _atom_site_occupancy
  Sm  Sm0  1  0.250000  0.250000  0.250000  1
  Sm  Sm1  1  0.750000  0.750000  0.750000  1
  Ho  Ho2  1  0.000000  0.000000  0.000000  1
  Si  Si3  1  0.734472  0.265528  0.265528  1
  Si  Si4  1  0.265528  0.734472  0.734472  1
  P  P5  1  0.264395  0.735605  0.264395  1
  P  P6  1  0.735605  0.264395  0.735605  1
  P  P7  1  0.264395  0.264395  0.735605  1
  P  P8  1  0.735605  0.735605  0.264395  1
  Pd  Pd9  1  0.383826  0.385568  0.385568  1
  Pd  Pd10  1  0.616174  0.614432  0.614432  1
  Pd  Pd11  1  0.385568  0.383826  0.845040  1
  Pd  Pd12  1  0.385568  0.845040  0.383826  1
  Pd  Pd13  1  0.614432  0.616174  0.154960  1
  Pd  Pd14  1  0.614432  0.154960  0.616174  1
  Pd  Pd15  1  0.845040  0.385568  0.385568  1
  Pd  Pd16  1  0.154960  0.614432  0.614432  1
  Pd  Pd17  1  0.343060  0.000000  0.000000  1
  Pd  Pd18  1  0.656940  0.000000  0.000000  1
  Pd  Pd19  1  0.000000  0.343060  0.656940  1
  Pd  Pd20  1  0.000000  0.656940  0.343060  1
  Pd  Pd21  1  0.000557  0.345737  0.999443  1
  Pd  Pd22  1  0.654263  0.999443  0.345737  1
  Pd  Pd23  1  0.999443  0.654263  0.000557  1
  Pd  Pd24  1  0.345737  0.000557  0.654263  1
  Pd  Pd25  1  0.000557  0.999443  0.345737  1
  Pd  Pd26  1  0.999443  0.000557  0.654263  1
  Pd  Pd27  1  0.654263  0.345737  0.999443  1
  Pd  Pd28  1  0.345737  0.654263  0.000557  1
