# generated using pymatgen
data_Er4Si2B8W
_symmetry_space_group_name_H-M   'P 1'
_cell_length_a   7.06439200
_cell_length_b   7.06439200
_cell_length_c   7.53612600
_cell_angle_alpha   90.00000000
_cell_angle_beta   90.00000000
_cell_angle_gamma   90.00000000
_symmetry_Int_Tables_number   1
_chemical_formula_structural   Er4Si2B8W
_chemical_formula_sum   'Er8 Si4 B16 W2'
_cell_volume   376.09514842
_cell_formula_units_Z   2
loop_
 _symmetry_equiv_pos_site_id
 _symmetry_equiv_pos_as_xyz
  1  'x, y, z'
loop_
 _atom_site_type_symbol
 _atom_site_label
 _atom_site_symmetry_multiplicity
 _atom_site_fract_x
 _atom_site_fract_y
 _atom_site_fract_z
 _atom_site_occupancy
  Er  Er0  1  0.679071  0.179071  0.237370  1
  Er  Er1  1  0.320929  0.820929  0.762630  1
  Er  Er2  1  0.320929  0.820929  0.237370  1
  Er  Er3  1  0.820929  0.679071  0.237370  1
  Er  Er4  1  0.820929  0.679071  0.762630  1
  Er  Er5  1  0.679071  0.179071  0.762630  1
  Er  Er6  1  0.179071  0.320929  0.762630  1
  Er  Er7  1  0.179071  0.320929  0.237370  1
  Si  Si8  1  0.124997  0.624997  0.500000  1
  Si  Si9  1  0.875003  0.375003  0.500000  1
  Si  Si10  1  0.375003  0.124997  0.500000  1
  Si  Si11  1  0.624997  0.875003  0.500000  1
  B  B12  1  0.172081  0.039475  0.000000  1
  B  B13  1  0.827919  0.960525  0.000000  1
  B  B14  1  0.960525  0.172081  0.000000  1
  B  B15  1  0.327919  0.539475  0.000000  1
  B  B16  1  0.039475  0.827919  0.000000  1
  B  B17  1  0.672081  0.460525  0.000000  1
  B  B18  1  0.539475  0.672081  0.000000  1
  B  B19  1  0.460525  0.327919  0.000000  1
  B  B20  1  0.089974  0.589974  0.000000  1
  B  B21  1  0.910026  0.410026  0.000000  1
  B  B22  1  0.410026  0.089974  0.000000  1
  B  B23  1  0.589974  0.910026  0.000000  1
  B  B24  1  0.000000  0.000000  0.178881  1
  B  B25  1  0.000000  0.000000  0.821119  1
  B  B26  1  0.500000  0.500000  0.821119  1
  B  B27  1  0.500000  0.500000  0.178881  1
  W  W28  1  0.000000  0.000000  0.500000  1
  W  W29  1  0.500000  0.500000  0.500000  1
