# generated using pymatgen
data_BiF18
_symmetry_space_group_name_H-M   'P 1'
_cell_length_a   7.71690182
_cell_length_b   10.55477752
_cell_length_c   10.39475200
_cell_angle_alpha   94.29390423
_cell_angle_beta   96.13707933
_cell_angle_gamma   68.66767370
_symmetry_Int_Tables_number   1
_chemical_formula_structural   BiF18
_chemical_formula_sum   'Bi2 F36'
_cell_volume   783.53509231
_cell_formula_units_Z   2
loop_
 _symmetry_equiv_pos_site_id
 _symmetry_equiv_pos_as_xyz
  1  'x, y, z'
loop_
 _atom_site_type_symbol
 _atom_site_label
 _atom_site_symmetry_multiplicity
 _atom_site_fract_x
 _atom_site_fract_y
 _atom_site_fract_z
 _atom_site_occupancy
  Bi  Bi0  1  0.717467  0.812041  0.846172  1
  Bi  Bi1  1  0.282533  0.187959  0.153828  1
  F  F2  1  0.298016  0.451328  0.871607  1
  F  F3  1  0.701984  0.548672  0.128393  1
  F  F4  1  0.311905  0.278654  0.557724  1
  F  F5  1  0.688095  0.721346  0.442276  1
  F  F6  1  0.917882  0.224112  0.811993  1
  F  F7  1  0.082118  0.775888  0.188007  1
  F  F8  1  0.587821  0.849349  0.010038  1
  F  F9  1  0.412179  0.150651  0.989962  1
  F  F10  1  0.931589  0.656520  0.928180  1
  F  F11  1  0.068411  0.343480  0.071820  1
  F  F12  1  0.478564  0.423532  0.829469  1
  F  F13  1  0.521436  0.576468  0.170531  1
  F  F14  1  0.683211  0.674600  0.709261  1
  F  F15  1  0.316789  0.325400  0.290739  1
  F  F16  1  0.765408  0.023483  0.495510  1
  F  F17  1  0.234592  0.976517  0.504490  1
  F  F18  1  0.256474  0.220344  0.658094  1
  F  F19  1  0.743526  0.779656  0.341906  1
  F  F20  1  0.807103  0.101714  0.604397  1
  F  F21  1  0.192897  0.898286  0.395603  1
  F  F22  1  0.880839  0.923242  0.847292  1
  F  F23  1  0.119161  0.076758  0.152708  1
  F  F24  1  0.859452  0.365250  0.787545  1
  F  F25  1  0.140548  0.634750  0.212455  1
  F  F26  1  0.271151  0.743753  0.918759  1
  F  F27  1  0.728849  0.256247  0.081241  1
  F  F28  1  0.512047  0.959214  0.746956  1
  F  F29  1  0.487953  0.040786  0.253044  1
  F  F30  1  0.048418  0.748888  0.572150  1
  F  F31  1  0.951582  0.251112  0.427850  1
  F  F32  1  0.122667  0.619979  0.630890  1
  F  F33  1  0.877333  0.380021  0.369110  1
  F  F34  1  0.285829  0.823886  0.818766  1
  F  F35  1  0.714171  0.176114  0.181234  1
  F  F36  1  0.524771  0.437875  0.532361  1
  F  F37  1  0.475229  0.562125  0.467639  1
