# generated using pymatgen
data_La2Cu17Si8Ni
_symmetry_space_group_name_H-M   'P 1'
_cell_length_a   8.19412819
_cell_length_b   8.19412848
_cell_length_c   8.15284877
_cell_angle_alpha   120.42391724
_cell_angle_beta   120.42391544
_cell_angle_gamma   89.55966498
_symmetry_Int_Tables_number   1
_chemical_formula_structural   La2Cu17Si8Ni
_chemical_formula_sum   'La2 Cu17 Si8 Ni1'
_cell_volume   383.58488880
_cell_formula_units_Z   1
loop_
 _symmetry_equiv_pos_site_id
 _symmetry_equiv_pos_as_xyz
  1  'x, y, z'
loop_
 _atom_site_type_symbol
 _atom_site_label
 _atom_site_symmetry_multiplicity
 _atom_site_fract_x
 _atom_site_fract_y
 _atom_site_fract_z
 _atom_site_occupancy
  La  La0  1  0.250000  0.250000  0.000000  1
  La  La1  1  0.750000  0.750000  0.000000  1
  Cu  Cu2  1  0.934503  0.202546  0.137049  1
  Cu  Cu3  1  0.201181  0.067036  0.268218  1
  Cu  Cu4  1  0.798819  0.932964  0.731782  1
  Cu  Cu5  1  0.432964  0.298819  0.731782  1
  Cu  Cu6  1  0.065497  0.797454  0.862951  1
  Cu  Cu7  1  0.806619  0.058028  0.500000  1
  Cu  Cu8  1  0.558028  0.306619  0.500000  1
  Cu  Cu9  1  0.193381  0.941972  0.500000  1
  Cu  Cu10  1  0.441972  0.693381  0.500000  1
  Cu  Cu11  1  0.944075  0.444075  0.753909  1
  Cu  Cu12  1  0.690165  0.190165  0.246091  1
  Cu  Cu13  1  0.055925  0.555925  0.246091  1
  Cu  Cu14  1  0.702546  0.434503  0.137049  1
  Cu  Cu15  1  0.567036  0.701181  0.268218  1
  Cu  Cu16  1  0.000000  0.500000  0.500000  1
  Cu  Cu17  1  0.309835  0.809835  0.753909  1
  Cu  Cu18  1  0.297454  0.565497  0.862951  1
  Si  Si19  1  0.785582  0.285582  0.841270  1
  Si  Si20  1  0.555689  0.055689  0.841270  1
  Si  Si21  1  0.055909  0.207346  0.500000  1
  Si  Si22  1  0.292654  0.444091  0.500000  1
  Si  Si23  1  0.944091  0.792654  0.500000  1
  Si  Si24  1  0.444311  0.944311  0.158730  1
  Si  Si25  1  0.214418  0.714418  0.158730  1
  Si  Si26  1  0.707346  0.555909  0.500000  1
  Ni  Ni27  1  0.500000  0.000000  0.500000  1
