# generated using pymatgen
data_YEr3Si4(NiRu)2
_symmetry_space_group_name_H-M   'P 1'
_cell_length_a   4.21236300
_cell_length_b   6.87906028
_cell_length_c   7.19671265
_cell_angle_alpha   91.48145128
_cell_angle_beta   90.00000000
_cell_angle_gamma   90.00000000
_symmetry_Int_Tables_number   1
_chemical_formula_structural   YEr3Si4(NiRu)2
_chemical_formula_sum   'Y1 Er3 Si4 Ni2 Ru2'
_cell_volume   208.47014999
_cell_formula_units_Z   1
loop_
 _symmetry_equiv_pos_site_id
 _symmetry_equiv_pos_as_xyz
  1  'x, y, z'
loop_
 _atom_site_type_symbol
 _atom_site_label
 _atom_site_symmetry_multiplicity
 _atom_site_fract_x
 _atom_site_fract_y
 _atom_site_fract_z
 _atom_site_occupancy
  Y  Y0  1  0.250000  0.992978  0.799078  1
  Er  Er1  1  0.750000  0.008205  0.202576  1
  Er  Er2  1  0.250000  0.491218  0.685432  1
  Er  Er3  1  0.750000  0.509241  0.314984  1
  Si  Si4  1  0.250000  0.299139  0.099776  1
  Si  Si5  1  0.750000  0.700154  0.903563  1
  Si  Si6  1  0.250000  0.803529  0.399433  1
  Si  Si7  1  0.750000  0.197793  0.598503  1
  Ni  Ni8  1  0.750000  0.829836  0.573184  1
  Ni  Ni9  1  0.250000  0.168861  0.421049  1
  Ru  Ru10  1  0.750000  0.343027  0.931028  1
  Ru  Ru11  1  0.250000  0.656019  0.071394  1
