# generated using pymatgen
data_K8CrGa3F20
_symmetry_space_group_name_H-M   'P 1'
_cell_length_a   5.73634500
_cell_length_b   7.48363824
_cell_length_c   11.67360749
_cell_angle_alpha   89.76610345
_cell_angle_beta   90.00000000
_cell_angle_gamma   90.00000000
_symmetry_Int_Tables_number   1
_chemical_formula_structural   K8CrGa3F20
_chemical_formula_sum   'K8 Cr1 Ga3 F20'
_cell_volume   501.12897794
_cell_formula_units_Z   1
loop_
 _symmetry_equiv_pos_site_id
 _symmetry_equiv_pos_as_xyz
  1  'x, y, z'
loop_
 _atom_site_type_symbol
 _atom_site_label
 _atom_site_symmetry_multiplicity
 _atom_site_fract_x
 _atom_site_fract_y
 _atom_site_fract_z
 _atom_site_occupancy
  K  K0  1  0.250000  0.157421  0.584361  1
  K  K1  1  0.250000  0.655702  0.914804  1
  K  K2  1  0.750000  0.842975  0.416165  1
  K  K3  1  0.750000  0.345115  0.084732  1
  K  K4  1  0.250000  0.484462  0.275171  1
  K  K5  1  0.250000  0.986263  0.227175  1
  K  K6  1  0.750000  0.514216  0.724671  1
  K  K7  1  0.750000  0.013283  0.773016  1
  Cr  Cr8  1  0.750000  0.834490  0.059722  1
  Ga  Ga9  1  0.250000  0.669710  0.561756  1
  Ga  Ga10  1  0.250000  0.171468  0.937585  1
  Ga  Ga11  1  0.750000  0.330259  0.438184  1
  F  F12  1  0.999796  0.500152  0.500060  1
  F  F13  1  0.498270  0.000617  0.000228  1
  F  F14  1  0.500204  0.500152  0.500060  1
  F  F15  1  0.001730  0.000617  0.000228  1
  F  F16  1  0.250000  0.527635  0.693991  1
  F  F17  1  0.250000  0.029806  0.805894  1
  F  F18  1  0.750000  0.471617  0.305743  1
  F  F19  1  0.750000  0.969648  0.198887  1
  F  F20  1  0.250000  0.772516  0.411812  1
  F  F21  1  0.250000  0.273023  0.087642  1
  F  F22  1  0.750000  0.226832  0.588137  1
  F  F23  1  0.750000  0.721526  0.908663  1
  F  F24  1  0.007974  0.820728  0.612380  1
  F  F25  1  0.493097  0.321184  0.887413  1
  F  F26  1  0.506958  0.180008  0.388090  1
  F  F27  1  0.991084  0.678327  0.112776  1
  F  F28  1  0.993042  0.180008  0.388090  1
  F  F29  1  0.508916  0.678327  0.112776  1
  F  F30  1  0.492026  0.820728  0.612380  1
  F  F31  1  0.006903  0.321184  0.887413  1
