# generated using pymatgen
data_Na2NbMo5S12
_symmetry_space_group_name_H-M   'P 1'
_cell_length_a   5.60795200
_cell_length_b   5.60795122
_cell_length_c   15.16641400
_cell_angle_alpha   90.00000000
_cell_angle_beta   90.00000000
_cell_angle_gamma   120.00000457
_symmetry_Int_Tables_number   1
_chemical_formula_structural   Na2NbMo5S12
_chemical_formula_sum   'Na2 Nb1 Mo5 S12'
_cell_volume   413.06845848
_cell_formula_units_Z   1
loop_
 _symmetry_equiv_pos_site_id
 _symmetry_equiv_pos_as_xyz
  1  'x, y, z'
loop_
 _atom_site_type_symbol
 _atom_site_label
 _atom_site_symmetry_multiplicity
 _atom_site_fract_x
 _atom_site_fract_y
 _atom_site_fract_z
 _atom_site_occupancy
  Na  Na0  1  0.333333  0.666667  0.252607  1
  Na  Na1  1  0.666667  0.333333  0.745376  1
  Nb  Nb2  1  0.666667  0.333333  0.500675  1
  Mo  Mo3  1  0.333333  0.666667  0.999582  1
  Mo  Mo4  1  0.000000  0.000000  0.999714  1
  Mo  Mo5  1  0.666667  0.333333  0.999962  1
  Mo  Mo6  1  0.333333  0.666667  0.500521  1
  Mo  Mo7  1  0.000000  0.000000  0.500265  1
  S  S8  1  0.668024  0.672261  0.396852  1
  S  S9  1  0.666575  0.675884  0.603981  1
  S  S10  1  0.001114  0.667573  0.897185  1
  S  S11  1  0.666459  0.998886  0.897185  1
  S  S12  1  0.667938  0.001388  0.102414  1
  S  S13  1  0.327739  0.995763  0.396852  1
  S  S14  1  0.009309  0.333425  0.603981  1
  S  S15  1  0.324116  0.990691  0.603981  1
  S  S16  1  0.998612  0.666550  0.102414  1
  S  S17  1  0.332427  0.333541  0.897185  1
  S  S18  1  0.004237  0.331976  0.396852  1
  S  S19  1  0.333450  0.332062  0.102414  1
