# generated using pymatgen
data_Na2LaNpTe4
_symmetry_space_group_name_H-M   'P 1'
_cell_length_a   9.21912687
_cell_length_b   9.21164711
_cell_length_c   9.21247597
_cell_angle_alpha   59.64664409
_cell_angle_beta   59.95332621
_cell_angle_gamma   59.97736921
_symmetry_Int_Tables_number   1
_chemical_formula_structural   Na2LaNpTe4
_chemical_formula_sum   'Na4 La2 Np2 Te8'
_cell_volume   551.42790636
_cell_formula_units_Z   2
loop_
 _symmetry_equiv_pos_site_id
 _symmetry_equiv_pos_as_xyz
  1  'x, y, z'
loop_
 _atom_site_type_symbol
 _atom_site_label
 _atom_site_symmetry_multiplicity
 _atom_site_fract_x
 _atom_site_fract_y
 _atom_site_fract_z
 _atom_site_occupancy
  Na  Na0  1  0.125000  0.625000  0.125000  1
  Na  Na1  1  0.125000  0.125000  0.625000  1
  Na  Na2  1  0.625000  0.125000  0.125000  1
  Na  Na3  1  0.125000  0.125000  0.125000  1
  La  La4  1  0.625000  0.625000  0.625000  1
  La  La5  1  0.125000  0.625000  0.625000  1
  Np  Np6  1  0.625000  0.125000  0.625000  1
  Np  Np7  1  0.625000  0.625000  0.125000  1
  Te  Te8  1  0.381711  0.863857  0.372874  1
  Te  Te9  1  0.868289  0.386143  0.877126  1
  Te  Te10  1  0.868348  0.877197  0.386232  1
  Te  Te11  1  0.866055  0.872248  0.872093  1
  Te  Te12  1  0.860395  0.377801  0.377817  1
  Te  Te13  1  0.381652  0.372803  0.863768  1
  Te  Te14  1  0.383945  0.377752  0.377907  1
  Te  Te15  1  0.389605  0.872199  0.872183  1
