# generated using pymatgen
data_TbTh5SBr15
_symmetry_space_group_name_H-M   'P 1'
_cell_length_a   10.01000673
_cell_length_b   10.01001677
_cell_length_c   10.01001729
_cell_angle_alpha   109.91104552
_cell_angle_beta   109.25177298
_cell_angle_gamma   109.25177178
_symmetry_Int_Tables_number   1
_chemical_formula_structural   TbTh5SBr15
_chemical_formula_sum   'Tb1 Th5 S1 Br15'
_cell_volume   772.08076742
_cell_formula_units_Z   1
loop_
 _symmetry_equiv_pos_site_id
 _symmetry_equiv_pos_as_xyz
  1  'x, y, z'
loop_
 _atom_site_type_symbol
 _atom_site_label
 _atom_site_symmetry_multiplicity
 _atom_site_fract_x
 _atom_site_fract_y
 _atom_site_fract_z
 _atom_site_occupancy
  Tb  Tb0  1  0.000000  0.235272  0.235272  1
  Th  Th1  1  0.999995  0.759543  0.759543  1
  Th  Th2  1  0.237708  0.000779  0.238484  1
  Th  Th3  1  0.762294  0.000775  0.763069  1
  Th  Th4  1  0.237708  0.238484  0.000779  1
  Th  Th5  1  0.762294  0.763069  0.000775  1
  S  S6  1  0.000000  0.003240  0.003240  1
  Br  Br7  1  0.502433  0.251093  0.251093  1
  Br  Br8  1  0.497567  0.748660  0.748660  1
  Br  Br9  1  0.000000  0.251093  0.748660  1
  Br  Br10  1  0.000000  0.748660  0.251093  1
  Br  Br11  1  0.245607  0.497756  0.252149  1
  Br  Br12  1  0.754394  0.006543  0.252150  1
  Br  Br13  1  0.747888  0.495644  0.747756  1
  Br  Br14  1  0.252112  0.999867  0.747756  1
  Br  Br15  1  0.245607  0.252149  0.497756  1
  Br  Br16  1  0.747888  0.747756  0.495644  1
  Br  Br17  1  0.754394  0.252150  0.006543  1
  Br  Br18  1  0.252112  0.747756  0.999867  1
  Br  Br19  1  0.000000  0.502256  0.502256  1
  Br  Br20  1  0.500000  0.998727  0.498727  1
  Br  Br21  1  0.500000  0.498727  0.998727  1
