# generated using pymatgen
data_La5Pr11MgHg3Ir4
_symmetry_space_group_name_H-M   'P 1'
_cell_length_a   9.99395838
_cell_length_b   10.08234384
_cell_length_c   10.08234429
_cell_angle_alpha   59.92644580
_cell_angle_beta   60.12066521
_cell_angle_gamma   60.12066532
_symmetry_Int_Tables_number   1
_chemical_formula_structural   La5Pr11MgHg3Ir4
_chemical_formula_sum   'La5 Pr11 Mg1 Hg3 Ir4'
_cell_volume   719.27071573
_cell_formula_units_Z   1
loop_
 _symmetry_equiv_pos_site_id
 _symmetry_equiv_pos_as_xyz
  1  'x, y, z'
loop_
 _atom_site_type_symbol
 _atom_site_label
 _atom_site_symmetry_multiplicity
 _atom_site_fract_x
 _atom_site_fract_y
 _atom_site_fract_z
 _atom_site_occupancy
  La  La0  1  0.346507  0.347362  0.347362  1
  La  La1  1  0.348175  0.346871  0.957940  1
  La  La2  1  0.348175  0.957940  0.346871  1
  La  La3  1  0.949042  0.351083  0.351083  1
  La  La4  1  0.809642  0.190078  0.190078  1
  Pr  Pr5  1  0.185580  0.811366  0.811366  1
  Pr  Pr6  1  0.188760  0.810137  0.188800  1
  Pr  Pr7  1  0.806380  0.191525  0.806387  1
  Pr  Pr8  1  0.188760  0.188800  0.810137  1
  Pr  Pr9  1  0.806380  0.806387  0.191525  1
  Pr  Pr10  1  0.939179  0.562920  0.562920  1
  Pr  Pr11  1  0.559648  0.938349  0.938349  1
  Pr  Pr12  1  0.559682  0.939461  0.562753  1
  Pr  Pr13  1  0.939338  0.561108  0.937415  1
  Pr  Pr14  1  0.559682  0.562753  0.939461  1
  Pr  Pr15  1  0.939338  0.937415  0.561108  1
  Mg  Mg16  1  0.287665  0.570478  0.570478  1
  Hg  Hg17  1  0.580600  0.586905  0.586905  1
  Hg  Hg18  1  0.580279  0.588645  0.245116  1
  Hg  Hg19  1  0.580279  0.245116  0.588645  1
  Ir  Ir20  1  0.136322  0.144313  0.144313  1
  Ir  Ir21  1  0.142650  0.143029  0.573579  1
  Ir  Ir22  1  0.142650  0.573579  0.143029  1
  Ir  Ir23  1  0.575288  0.144381  0.144381  1
