# generated using pymatgen
data_Tb3Ce6Y(SiB4)4
_symmetry_space_group_name_H-M   'P 1'
_cell_length_a   7.30089638
_cell_length_b   7.30103804
_cell_length_c   8.25567000
_cell_angle_alpha   90.00000000
_cell_angle_beta   90.00000000
_cell_angle_gamma   90.08990990
_symmetry_Int_Tables_number   1
_chemical_formula_structural   Tb3Ce6Y(SiB4)4
_chemical_formula_sum   'Tb3 Ce6 Y1 Si4 B16'
_cell_volume   440.06070055
_cell_formula_units_Z   1
loop_
 _symmetry_equiv_pos_site_id
 _symmetry_equiv_pos_as_xyz
  1  'x, y, z'
loop_
 _atom_site_type_symbol
 _atom_site_label
 _atom_site_symmetry_multiplicity
 _atom_site_fract_x
 _atom_site_fract_y
 _atom_site_fract_z
 _atom_site_occupancy
  Tb  Tb0  1  0.181021  0.318888  0.780216  1
  Tb  Tb1  1  0.181021  0.318888  0.219784  1
  Tb  Tb2  1  0.001569  0.000527  0.500000  1
  Ce  Ce3  1  0.682437  0.182500  0.226726  1
  Ce  Ce4  1  0.317262  0.817773  0.773283  1
  Ce  Ce5  1  0.317262  0.817773  0.226717  1
  Ce  Ce6  1  0.818441  0.681838  0.226799  1
  Ce  Ce7  1  0.818441  0.681838  0.773201  1
  Ce  Ce8  1  0.682437  0.182500  0.773274  1
  Y  Y9  1  0.499131  0.498361  0.500000  1
  Si  Si10  1  0.116032  0.613552  0.500000  1
  Si  Si11  1  0.885936  0.384473  0.500000  1
  Si  Si12  1  0.384040  0.116494  0.500000  1
  Si  Si13  1  0.613407  0.886089  0.500000  1
  B  B14  1  0.173184  0.038978  0.000000  1
  B  B15  1  0.828051  0.961982  0.000000  1
  B  B16  1  0.960469  0.172603  0.000000  1
  B  B17  1  0.327387  0.539500  0.000000  1
  B  B18  1  0.039870  0.828067  0.000000  1
  B  B19  1  0.671949  0.460196  0.000000  1
  B  B20  1  0.537921  0.671984  0.000000  1
  B  B21  1  0.461085  0.326809  0.000000  1
  B  B22  1  0.091811  0.591413  0.000000  1
  B  B23  1  0.908602  0.408191  0.000000  1
  B  B24  1  0.409284  0.090698  0.000000  1
  B  B25  1  0.591031  0.908955  0.000000  1
  B  B26  1  0.000500  0.000032  0.158577  1
  B  B27  1  0.000500  0.000032  0.841423  1
  B  B28  1  0.499959  0.499533  0.841351  1
  B  B29  1  0.499959  0.499533  0.158649  1
