# generated using pymatgen
data_Y11ThTc3Rh
_symmetry_space_group_name_H-M   'P 1'
_cell_length_a   6.37077752
_cell_length_b   7.42353416
_cell_length_c   9.32197600
_cell_angle_alpha   90.00000000
_cell_angle_beta   90.00000000
_cell_angle_gamma   89.55450642
_symmetry_Int_Tables_number   1
_chemical_formula_structural   Y11ThTc3Rh
_chemical_formula_sum   'Y11 Th1 Tc3 Rh1'
_cell_volume   440.85726614
_cell_formula_units_Z   1
loop_
 _symmetry_equiv_pos_site_id
 _symmetry_equiv_pos_as_xyz
  1  'x, y, z'
loop_
 _atom_site_type_symbol
 _atom_site_label
 _atom_site_symmetry_multiplicity
 _atom_site_fract_x
 _atom_site_fract_y
 _atom_site_fract_z
 _atom_site_occupancy
  Y  Y0  1  0.635653  0.042390  0.250000  1
  Y  Y1  1  0.128270  0.457767  0.750000  1
  Y  Y2  1  0.867112  0.543309  0.250000  1
  Y  Y3  1  0.165726  0.180739  0.064898  1
  Y  Y4  1  0.832815  0.823225  0.932791  1
  Y  Y5  1  0.663686  0.322922  0.936616  1
  Y  Y6  1  0.832815  0.823225  0.567209  1
  Y  Y7  1  0.335976  0.672145  0.064799  1
  Y  Y8  1  0.165726  0.180739  0.435102  1
  Y  Y9  1  0.335976  0.672145  0.435201  1
  Y  Y10  1  0.663686  0.322922  0.563384  1
  Th  Th11  1  0.358822  0.948833  0.750000  1
  Tc  Tc12  1  0.463866  0.383022  0.250000  1
  Tc  Tc13  1  0.522543  0.630370  0.750000  1
  Tc  Tc14  1  0.984545  0.111914  0.750000  1
  Rh  Rh15  1  0.042781  0.884331  0.250000  1
