# generated using pymatgen
data_LiYb10MgSb9
_symmetry_space_group_name_H-M   'P 1'
_cell_length_a   11.94792700
_cell_length_b   11.94792700
_cell_length_c   17.20552900
_cell_angle_alpha   90.00000000
_cell_angle_beta   90.00000000
_cell_angle_gamma   90.00000000
_symmetry_Int_Tables_number   1
_chemical_formula_structural   LiYb10MgSb9
_chemical_formula_sum   'Li4 Yb40 Mg4 Sb36'
_cell_volume   2456.14018619
_cell_formula_units_Z   4
loop_
 _symmetry_equiv_pos_site_id
 _symmetry_equiv_pos_as_xyz
  1  'x, y, z'
loop_
 _atom_site_type_symbol
 _atom_site_label
 _atom_site_symmetry_multiplicity
 _atom_site_fract_x
 _atom_site_fract_y
 _atom_site_fract_z
 _atom_site_occupancy
  Li  Li0  1  0.777766  0.222234  0.500000  1
  Li  Li1  1  0.222234  0.777766  0.500000  1
  Li  Li2  1  0.722234  0.722234  0.000000  1
  Li  Li3  1  0.277766  0.277766  0.000000  1
  Yb  Yb4  1  0.485079  0.838087  0.103162  1
  Yb  Yb5  1  0.514921  0.161913  0.896838  1
  Yb  Yb6  1  0.248374  0.511703  0.689967  1
  Yb  Yb7  1  0.000000  0.000000  0.643765  1
  Yb  Yb8  1  0.751626  0.488297  0.310033  1
  Yb  Yb9  1  0.488297  0.751626  0.689967  1
  Yb  Yb10  1  0.014921  0.338087  0.396838  1
  Yb  Yb11  1  0.161913  0.514921  0.896838  1
  Yb  Yb12  1  0.011703  0.251626  0.189967  1
  Yb  Yb13  1  0.338087  0.014921  0.603162  1
  Yb  Yb14  1  0.511703  0.248374  0.689967  1
  Yb  Yb15  1  0.748374  0.988297  0.810033  1
  Yb  Yb16  1  0.838087  0.485079  0.103162  1
  Yb  Yb17  1  0.988297  0.748374  0.810033  1
  Yb  Yb18  1  0.661913  0.985079  0.396838  1
  Yb  Yb19  1  0.338087  0.014921  0.396838  1
  Yb  Yb20  1  0.500000  0.500000  0.856235  1
  Yb  Yb21  1  0.751626  0.488297  0.689967  1
  Yb  Yb22  1  0.985079  0.661913  0.396838  1
  Yb  Yb23  1  0.014921  0.338087  0.603162  1
  Yb  Yb24  1  0.248374  0.511703  0.310033  1
  Yb  Yb25  1  0.818421  0.181579  0.000000  1
  Yb  Yb26  1  0.511703  0.248374  0.310033  1
  Yb  Yb27  1  0.838087  0.485079  0.896838  1
  Yb  Yb28  1  0.500000  0.500000  0.143765  1
  Yb  Yb29  1  0.985079  0.661913  0.603162  1
  Yb  Yb30  1  0.748374  0.988297  0.189967  1
  Yb  Yb31  1  0.488297  0.751626  0.310033  1
  Yb  Yb32  1  0.988297  0.748374  0.189967  1
  Yb  Yb33  1  0.681579  0.681579  0.500000  1
  Yb  Yb34  1  0.251626  0.011703  0.189967  1
  Yb  Yb35  1  0.661913  0.985079  0.603162  1
  Yb  Yb36  1  0.011703  0.251626  0.810033  1
  Yb  Yb37  1  0.318421  0.318421  0.500000  1
  Yb  Yb38  1  0.514921  0.161913  0.103162  1
  Yb  Yb39  1  0.000000  0.000000  0.356235  1
  Yb  Yb40  1  0.251626  0.011703  0.810033  1
  Yb  Yb41  1  0.485079  0.838087  0.896838  1
  Yb  Yb42  1  0.161913  0.514921  0.103162  1
  Yb  Yb43  1  0.181579  0.818421  0.000000  1
  Mg  Mg44  1  0.102131  0.102131  0.000000  1
  Mg  Mg45  1  0.397869  0.602131  0.500000  1
  Mg  Mg46  1  0.602131  0.397869  0.500000  1
  Mg  Mg47  1  0.897869  0.897869  0.000000  1
  Sb  Sb48  1  0.223724  0.223724  0.319259  1
  Sb  Sb49  1  0.371434  0.628566  0.000000  1
  Sb  Sb50  1  0.186039  0.813961  0.671038  1
  Sb  Sb51  1  0.628566  0.371434  0.000000  1
  Sb  Sb52  1  0.313961  0.313961  0.828962  1
  Sb  Sb53  1  0.333738  0.031454  0.000000  1
  Sb  Sb54  1  0.500000  0.000000  0.750000  1
  Sb  Sb55  1  0.833738  0.468546  0.500000  1
  Sb  Sb56  1  0.313961  0.313961  0.171038  1
  Sb  Sb57  1  0.686039  0.686039  0.171038  1
  Sb  Sb58  1  0.500000  0.000000  0.250000  1
  Sb  Sb59  1  0.723724  0.276276  0.819259  1
  Sb  Sb60  1  0.813961  0.186039  0.328962  1
  Sb  Sb61  1  0.186039  0.813961  0.328962  1
  Sb  Sb62  1  0.871434  0.871434  0.500000  1
  Sb  Sb63  1  0.166262  0.531454  0.500000  1
  Sb  Sb64  1  0.776276  0.776276  0.680741  1
  Sb  Sb65  1  0.813961  0.186039  0.671038  1
  Sb  Sb66  1  0.000000  0.000000  0.865230  1
  Sb  Sb67  1  0.776276  0.776276  0.319259  1
  Sb  Sb68  1  0.500000  0.500000  0.365230  1
  Sb  Sb69  1  0.968546  0.666262  0.000000  1
  Sb  Sb70  1  0.686039  0.686039  0.828962  1
  Sb  Sb71  1  0.500000  0.500000  0.634770  1
  Sb  Sb72  1  0.276276  0.723724  0.180741  1
  Sb  Sb73  1  0.031454  0.333738  0.000000  1
  Sb  Sb74  1  0.531454  0.166262  0.500000  1
  Sb  Sb75  1  0.276276  0.723724  0.819259  1
  Sb  Sb76  1  0.666262  0.968546  0.000000  1
  Sb  Sb77  1  0.468546  0.833738  0.500000  1
  Sb  Sb78  1  0.223724  0.223724  0.680741  1
  Sb  Sb79  1  0.128566  0.128566  0.500000  1
  Sb  Sb80  1  0.723724  0.276276  0.180741  1
  Sb  Sb81  1  0.000000  0.000000  0.134770  1
  Sb  Sb82  1  0.000000  0.500000  0.750000  1
  Sb  Sb83  1  0.000000  0.500000  0.250000  1
