# generated using pymatgen
data_TmFeCo4P3
_symmetry_space_group_name_H-M   'P 1'
_cell_length_a   3.64043200
_cell_length_b   10.21702400
_cell_length_c   11.72248800
_cell_angle_alpha   90.00000000
_cell_angle_beta   90.00000000
_cell_angle_gamma   90.00000000
_symmetry_Int_Tables_number   1
_chemical_formula_structural   TmFeCo4P3
_chemical_formula_sum   'Tm4 Fe4 Co16 P12'
_cell_volume   436.01068628
_cell_formula_units_Z   4
loop_
 _symmetry_equiv_pos_site_id
 _symmetry_equiv_pos_as_xyz
  1  'x, y, z'
loop_
 _atom_site_type_symbol
 _atom_site_label
 _atom_site_symmetry_multiplicity
 _atom_site_fract_x
 _atom_site_fract_y
 _atom_site_fract_z
 _atom_site_occupancy
  Tm  Tm0  1  0.250000  0.581132  0.703333  1
  Tm  Tm1  1  0.250000  0.918868  0.203333  1
  Tm  Tm2  1  0.750000  0.418868  0.296667  1
  Tm  Tm3  1  0.750000  0.081132  0.796667  1
  Fe  Fe4  1  0.250000  0.710404  0.987458  1
  Fe  Fe5  1  0.250000  0.789596  0.487458  1
  Fe  Fe6  1  0.750000  0.289596  0.012542  1
  Fe  Fe7  1  0.750000  0.210404  0.512542  1
  Co  Co8  1  0.250000  0.406230  0.486634  1
  Co  Co9  1  0.250000  0.093770  0.986634  1
  Co  Co10  1  0.750000  0.593770  0.513366  1
  Co  Co11  1  0.750000  0.906230  0.013366  1
  Co  Co12  1  0.250000  0.221508  0.176649  1
  Co  Co13  1  0.250000  0.278492  0.676649  1
  Co  Co14  1  0.750000  0.778492  0.823351  1
  Co  Co15  1  0.750000  0.721508  0.323351  1
  Co  Co16  1  0.250000  0.882304  0.698789  1
  Co  Co17  1  0.250000  0.617696  0.198789  1
  Co  Co18  1  0.750000  0.117696  0.301211  1
  Co  Co19  1  0.750000  0.382304  0.801211  1
  Co  Co20  1  0.250000  0.466247  0.932662  1
  Co  Co21  1  0.250000  0.033753  0.432662  1
  Co  Co22  1  0.750000  0.533753  0.067338  1
  Co  Co23  1  0.750000  0.966247  0.567338  1
  P  P24  1  0.250000  0.419103  0.113790  1
  P  P25  1  0.250000  0.080897  0.613790  1
  P  P26  1  0.750000  0.580897  0.886210  1
  P  P27  1  0.750000  0.919103  0.386210  1
  P  P28  1  0.250000  0.268296  0.868124  1
  P  P29  1  0.250000  0.231704  0.368124  1
  P  P30  1  0.750000  0.731704  0.131876  1
  P  P31  1  0.750000  0.768296  0.631876  1
  P  P32  1  0.250000  0.601321  0.391880  1
  P  P33  1  0.250000  0.898679  0.891880  1
  P  P34  1  0.750000  0.398679  0.608120  1
  P  P35  1  0.750000  0.101321  0.108120  1
