# generated using pymatgen
data_Er3Lu7RuRh3
_symmetry_space_group_name_H-M   'P 1'
_cell_length_a   6.31730160
_cell_length_b   7.11824858
_cell_length_c   8.36124800
_cell_angle_alpha   96.73059290
_cell_angle_beta   112.44470581
_cell_angle_gamma   89.94484119
_symmetry_Int_Tables_number   1
_chemical_formula_structural   Er3Lu7RuRh3
_chemical_formula_sum   'Er3 Lu7 Ru1 Rh3'
_cell_volume   344.72001497
_cell_formula_units_Z   1
loop_
 _symmetry_equiv_pos_site_id
 _symmetry_equiv_pos_as_xyz
  1  'x, y, z'
loop_
 _atom_site_type_symbol
 _atom_site_label
 _atom_site_symmetry_multiplicity
 _atom_site_fract_x
 _atom_site_fract_y
 _atom_site_fract_z
 _atom_site_occupancy
  Er  Er0  1  0.527493  0.081218  0.816505  1
  Er  Er1  1  0.477545  0.918507  0.188724  1
  Er  Er2  1  0.713511  0.417501  0.188442  1
  Lu  Lu3  1  0.289310  0.582650  0.812434  1
  Lu  Lu4  1  0.287064  0.312973  0.437790  1
  Lu  Lu5  1  0.709848  0.684933  0.562312  1
  Lu  Lu6  1  0.853549  0.185617  0.560337  1
  Lu  Lu7  1  0.145273  0.816812  0.436609  1
  Lu  Lu8  1  0.076841  0.249846  0.000153  1
  Lu  Lu9  1  0.924364  0.751026  0.000665  1
  Ru  Ru10  1  0.894145  0.073669  0.216648  1
  Rh  Rh11  1  0.322533  0.572910  0.221425  1
  Rh  Rh12  1  0.677068  0.427561  0.778384  1
  Rh  Rh13  1  0.101453  0.924778  0.779571  1
