# generated using pymatgen
data_TmZrTa3Si4
_symmetry_space_group_name_H-M   'P 1'
_cell_length_a   6.94131595
_cell_length_b   6.94183478
_cell_length_c   12.83506402
_cell_angle_alpha   89.97334994
_cell_angle_beta   90.03721490
_cell_angle_gamma   89.88348260
_symmetry_Int_Tables_number   1
_chemical_formula_structural   TmZrTa3Si4
_chemical_formula_sum   'Tm4 Zr4 Ta12 Si16'
_cell_volume   618.46209658
_cell_formula_units_Z   4
loop_
 _symmetry_equiv_pos_site_id
 _symmetry_equiv_pos_as_xyz
  1  'x, y, z'
loop_
 _atom_site_type_symbol
 _atom_site_label
 _atom_site_symmetry_multiplicity
 _atom_site_fract_x
 _atom_site_fract_y
 _atom_site_fract_z
 _atom_site_occupancy
  Tm  Tm0  1  0.998816  0.659463  0.031471  1
  Tm  Tm1  1  0.002249  0.338233  0.530666  1
  Tm  Tm2  1  0.660535  0.998643  0.969887  1
  Tm  Tm3  1  0.161478  0.502255  0.780639  1
  Zr  Zr4  1  0.841843  0.501975  0.282270  1
  Zr  Zr5  1  0.498139  0.159451  0.219135  1
  Zr  Zr6  1  0.503782  0.844378  0.717808  1
  Zr  Zr7  1  0.343604  0.996528  0.468389  1
  Ta  Ta8  1  0.347601  0.506265  0.375055  1
  Ta  Ta9  1  0.845426  0.996004  0.373493  1
  Ta  Ta10  1  0.005851  0.153376  0.128012  1
  Ta  Ta11  1  0.992945  0.847586  0.624186  1
  Ta  Ta12  1  0.651190  0.493220  0.875284  1
  Ta  Ta13  1  0.503829  0.345983  0.622291  1
  Ta  Ta14  1  0.494947  0.651709  0.126310  1
  Ta  Ta15  1  0.153798  0.004390  0.873223  1
  Ta  Ta16  1  0.667586  0.671577  0.499352  1
  Ta  Ta17  1  0.828536  0.167268  0.749169  1
  Ta  Ta18  1  0.169162  0.831014  0.250947  1
  Ta  Ta19  1  0.330686  0.330318  0.001021  1
  Si  Si20  1  0.043787  0.703630  0.436335  1
  Si  Si21  1  0.956234  0.296055  0.936849  1
  Si  Si22  1  0.700668  0.044573  0.562992  1
  Si  Si23  1  0.202242  0.455460  0.187099  1
  Si  Si24  1  0.795222  0.543220  0.686205  1
  Si  Si25  1  0.456224  0.201112  0.813468  1
  Si  Si26  1  0.543785  0.799083  0.313749  1
  Si  Si27  1  0.297765  0.957141  0.064159  1
  Si  Si28  1  0.863614  0.794366  0.818628  1
  Si  Si29  1  0.136063  0.206225  0.321543  1
  Si  Si30  1  0.792196  0.866331  0.180885  1
  Si  Si31  1  0.295917  0.637971  0.570677  1
  Si  Si32  1  0.705676  0.364456  0.073010  1
  Si  Si33  1  0.633146  0.293003  0.426977  1
  Si  Si34  1  0.366489  0.706446  0.929995  1
  Si  Si35  1  0.208968  0.131292  0.678819  1
