# generated using pymatgen
data_TmLu5Al24(RuRh3)2
_symmetry_space_group_name_H-M   'P 1'
_cell_length_a   8.77295746
_cell_length_b   8.77369729
_cell_length_c   9.47461800
_cell_angle_alpha   90.00000000
_cell_angle_beta   90.00000000
_cell_angle_gamma   120.03412886
_symmetry_Int_Tables_number   1
_chemical_formula_structural   TmLu5Al24(RuRh3)2
_chemical_formula_sum   'Tm1 Lu5 Al24 Ru2 Rh6'
_cell_volume   631.35198683
_cell_formula_units_Z   1
loop_
 _symmetry_equiv_pos_site_id
 _symmetry_equiv_pos_as_xyz
  1  'x, y, z'
loop_
 _atom_site_type_symbol
 _atom_site_label
 _atom_site_symmetry_multiplicity
 _atom_site_fract_x
 _atom_site_fract_y
 _atom_site_fract_z
 _atom_site_occupancy
  Tm  Tm0  1  0.192668  0.385307  0.250000  1
  Lu  Lu1  1  0.806038  0.193921  0.750000  1
  Lu  Lu2  1  0.193664  0.806686  0.250000  1
  Lu  Lu3  1  0.387877  0.193933  0.750000  1
  Lu  Lu4  1  0.612964  0.806630  0.250000  1
  Lu  Lu5  1  0.806119  0.612294  0.750000  1
  Al  Al6  1  0.666693  0.333453  0.970036  1
  Al  Al7  1  0.333486  0.666923  0.029816  1
  Al  Al8  1  0.333486  0.666923  0.470184  1
  Al  Al9  1  0.666693  0.333453  0.529964  1
  Al  Al10  1  0.836444  0.163163  0.421554  1
  Al  Al11  1  0.163208  0.836813  0.578701  1
  Al  Al12  1  0.326747  0.163184  0.421561  1
  Al  Al13  1  0.163208  0.836813  0.921299  1
  Al  Al14  1  0.673578  0.836804  0.578696  1
  Al  Al15  1  0.836444  0.163163  0.078446  1
  Al  Al16  1  0.836685  0.673376  0.421600  1
  Al  Al17  1  0.673578  0.836804  0.921304  1
  Al  Al18  1  0.163304  0.326610  0.578822  1
  Al  Al19  1  0.326747  0.163184  0.078439  1
  Al  Al20  1  0.163304  0.326610  0.921178  1
  Al  Al21  1  0.836685  0.673376  0.078400  1
  Al  Al22  1  0.438294  0.561717  0.750000  1
  Al  Al23  1  0.562024  0.438388  0.250000  1
  Al  Al24  1  0.123464  0.561733  0.750000  1
  Al  Al25  1  0.876376  0.438404  0.250000  1
  Al  Al26  1  0.438295  0.876569  0.750000  1
  Al  Al27  1  0.561604  0.123220  0.250000  1
  Al  Al28  1  0.999876  0.999744  0.750000  1
  Al  Al29  1  0.999569  0.999140  0.250000  1
  Ru  Ru30  1  0.000130  0.000269  0.999920  1
  Ru  Ru31  1  0.000130  0.000269  0.500080  1
  Rh  Rh32  1  0.500296  0.500266  0.999780  1
  Rh  Rh33  1  0.999969  0.500201  0.999754  1
  Rh  Rh34  1  0.500296  0.500266  0.500220  1
  Rh  Rh35  1  0.500044  0.000096  0.999943  1
  Rh  Rh36  1  0.999969  0.500201  0.500246  1
  Rh  Rh37  1  0.500044  0.000096  0.500057  1
