# generated using pymatgen
data_Lu4Ta(GeB4)2
_symmetry_space_group_name_H-M   'P 1'
_cell_length_a   7.08665400
_cell_length_b   7.08665400
_cell_length_c   7.60151400
_cell_angle_alpha   90.00000000
_cell_angle_beta   90.00000000
_cell_angle_gamma   90.00000000
_symmetry_Int_Tables_number   1
_chemical_formula_structural   Lu4Ta(GeB4)2
_chemical_formula_sum   'Lu8 Ta2 Ge4 B16'
_cell_volume   381.75308745
_cell_formula_units_Z   2
loop_
 _symmetry_equiv_pos_site_id
 _symmetry_equiv_pos_as_xyz
  1  'x, y, z'
loop_
 _atom_site_type_symbol
 _atom_site_label
 _atom_site_symmetry_multiplicity
 _atom_site_fract_x
 _atom_site_fract_y
 _atom_site_fract_z
 _atom_site_occupancy
  Lu  Lu0  1  0.679576  0.179576  0.229944  1
  Lu  Lu1  1  0.320424  0.820424  0.770056  1
  Lu  Lu2  1  0.320424  0.820424  0.229944  1
  Lu  Lu3  1  0.820424  0.679576  0.229944  1
  Lu  Lu4  1  0.820424  0.679576  0.770056  1
  Lu  Lu5  1  0.679576  0.179576  0.770056  1
  Lu  Lu6  1  0.179576  0.320424  0.770056  1
  Lu  Lu7  1  0.179576  0.320424  0.229944  1
  Ta  Ta8  1  0.000000  0.000000  0.500000  1
  Ta  Ta9  1  0.500000  0.500000  0.500000  1
  Ge  Ge10  1  0.130164  0.630164  0.500000  1
  Ge  Ge11  1  0.869836  0.369836  0.500000  1
  Ge  Ge12  1  0.369836  0.130164  0.500000  1
  Ge  Ge13  1  0.630164  0.869836  0.500000  1
  B  B14  1  0.172472  0.039201  0.000000  1
  B  B15  1  0.827528  0.960799  0.000000  1
  B  B16  1  0.960799  0.172472  0.000000  1
  B  B17  1  0.327528  0.539201  0.000000  1
  B  B18  1  0.039201  0.827528  0.000000  1
  B  B19  1  0.672472  0.460799  0.000000  1
  B  B20  1  0.539201  0.672472  0.000000  1
  B  B21  1  0.460799  0.327528  0.000000  1
  B  B22  1  0.090021  0.590021  0.000000  1
  B  B23  1  0.909979  0.409979  0.000000  1
  B  B24  1  0.409979  0.090021  0.000000  1
  B  B25  1  0.590021  0.909979  0.000000  1
  B  B26  1  0.000000  0.000000  0.177412  1
  B  B27  1  0.000000  0.000000  0.822588  1
  B  B28  1  0.500000  0.500000  0.822588  1
  B  B29  1  0.500000  0.500000  0.177412  1
