# generated using pymatgen
data_CaMg2Sc4V6O24
_symmetry_space_group_name_H-M   'P 1'
_cell_length_a   6.90337353
_cell_length_b   8.49395785
_cell_length_c   10.11193610
_cell_angle_alpha   104.88512342
_cell_angle_beta   106.88779676
_cell_angle_gamma   101.14946231
_symmetry_Int_Tables_number   1
_chemical_formula_structural   CaMg2Sc4V6O24
_chemical_formula_sum   'Ca1 Mg2 Sc4 V6 O24'
_cell_volume   524.79480028
_cell_formula_units_Z   1
loop_
 _symmetry_equiv_pos_site_id
 _symmetry_equiv_pos_as_xyz
  1  'x, y, z'
loop_
 _atom_site_type_symbol
 _atom_site_label
 _atom_site_symmetry_multiplicity
 _atom_site_fract_x
 _atom_site_fract_y
 _atom_site_fract_z
 _atom_site_occupancy
  Ca  Ca0  1  0.000000  0.500000  0.500000  1
  Mg  Mg1  1  0.277253  0.295216  0.790230  1
  Mg  Mg2  1  0.722747  0.704784  0.209770  1
  Sc  Sc3  1  0.384628  0.956486  0.616178  1
  Sc  Sc4  1  0.615372  0.043514  0.383822  1
  Sc  Sc5  1  0.053374  0.218303  0.021373  1
  Sc  Sc6  1  0.946626  0.781697  0.978627  1
  V  V7  1  0.766557  0.340364  0.726891  1
  V  V8  1  0.233443  0.659636  0.273109  1
  V  V9  1  0.907777  0.924872  0.674212  1
  V  V10  1  0.395325  0.715104  0.872704  1
  V  V11  1  0.092223  0.075128  0.325788  1
  V  V12  1  0.604675  0.284896  0.127296  1
  O  O13  1  0.885416  0.722101  0.593614  1
  O  O14  1  0.114584  0.277899  0.406386  1
  O  O15  1  0.269250  0.511721  0.743114  1
  O  O16  1  0.730750  0.488279  0.256886  1
  O  O17  1  0.763681  0.293669  0.545603  1
  O  O18  1  0.236319  0.706331  0.454397  1
  O  O19  1  0.674343  0.971282  0.582377  1
  O  O20  1  0.325657  0.028718  0.417623  1
  O  O21  1  0.638504  0.722996  0.002713  1
  O  O22  1  0.361496  0.277004  0.997287  1
  O  O23  1  0.475527  0.768173  0.270059  1
  O  O24  1  0.524473  0.231827  0.729941  1
  O  O25  1  0.135395  0.045545  0.659669  1
  O  O26  1  0.061578  0.043734  0.140388  1
  O  O27  1  0.938422  0.956266  0.859612  1
  O  O28  1  0.564193  0.143840  0.220530  1
  O  O29  1  0.435807  0.856160  0.779470  1
  O  O30  1  0.193539  0.447454  0.197447  1
  O  O31  1  0.806461  0.552546  0.802553  1
  O  O32  1  0.983289  0.285376  0.829624  1
  O  O33  1  0.016711  0.714624  0.170376  1
  O  O34  1  0.230924  0.764895  0.965141  1
  O  O35  1  0.769076  0.235105  0.034859  1
  O  O36  1  0.864605  0.954455  0.340331  1
