# generated using pymatgen
data_Ho3Er7IrRu3
_symmetry_space_group_name_H-M   'P 1'
_cell_length_a   6.29865375
_cell_length_b   7.28279826
_cell_length_c   8.39554421
_cell_angle_alpha   96.80553944
_cell_angle_beta   111.93195454
_cell_angle_gamma   90.13426134
_symmetry_Int_Tables_number   1
_chemical_formula_structural   Ho3Er7IrRu3
_chemical_formula_sum   'Ho3 Er7 Ir1 Ru3'
_cell_volume   354.27565596
_cell_formula_units_Z   1
loop_
 _symmetry_equiv_pos_site_id
 _symmetry_equiv_pos_as_xyz
  1  'x, y, z'
loop_
 _atom_site_type_symbol
 _atom_site_label
 _atom_site_symmetry_multiplicity
 _atom_site_fract_x
 _atom_site_fract_y
 _atom_site_fract_z
 _atom_site_occupancy
  Ho  Ho0  1  0.792533  0.582346  0.814418  1
  Ho  Ho1  1  0.978486  0.915007  0.187129  1
  Ho  Ho2  1  0.208325  0.415394  0.186120  1
  Er  Er3  1  0.024091  0.085641  0.814599  1
  Er  Er4  1  0.204702  0.683993  0.564416  1
  Er  Er5  1  0.642180  0.815860  0.434485  1
  Er  Er6  1  0.793823  0.314884  0.434851  1
  Er  Er7  1  0.356883  0.185651  0.563817  1
  Er  Er8  1  0.419736  0.749842  0.000365  1
  Er  Er9  1  0.580178  0.251273  0.000706  1
  Ir  Ir10  1  0.601268  0.923433  0.778705  1
  Ru  Ru11  1  0.823725  0.576739  0.220331  1
  Ru  Ru12  1  0.396400  0.075924  0.220707  1
  Ru  Ru13  1  0.177668  0.424010  0.779349  1
