# generated using pymatgen
data_Tb2YCdSn3Ir2
_symmetry_space_group_name_H-M   'P 1'
_cell_length_a   7.63157618
_cell_length_b   7.63796845
_cell_length_c   4.04923400
_cell_angle_alpha   90.00000000
_cell_angle_beta   90.00000000
_cell_angle_gamma   120.03595397
_symmetry_Int_Tables_number   1
_chemical_formula_structural   Tb2YCdSn3Ir2
_chemical_formula_sum   'Tb2 Y1 Cd1 Sn3 Ir2'
_cell_volume   204.33283147
_cell_formula_units_Z   1
loop_
 _symmetry_equiv_pos_site_id
 _symmetry_equiv_pos_as_xyz
  1  'x, y, z'
loop_
 _atom_site_type_symbol
 _atom_site_label
 _atom_site_symmetry_multiplicity
 _atom_site_fract_x
 _atom_site_fract_y
 _atom_site_fract_z
 _atom_site_occupancy
  Tb  Tb0  1  0.975669  0.587884  0.000000  1
  Tb  Tb1  1  0.412134  0.387447  0.000000  1
  Y  Y2  1  0.612497  0.024263  0.000000  1
  Cd  Cd3  1  0.333303  0.666783  0.500000  1
  Sn  Sn4  1  0.253001  0.004027  0.500000  1
  Sn  Sn5  1  0.995689  0.248791  0.500000  1
  Sn  Sn6  1  0.751296  0.747058  0.500000  1
  Ir  Ir7  1  0.666477  0.333730  0.500000  1
  Ir  Ir8  1  0.999934  0.000016  0.000000  1
