# generated using pymatgen
data_Hf2TaFe4P4W
_symmetry_space_group_name_H-M   'P 1'
_cell_length_a   3.64166900
_cell_length_b   6.15378090
_cell_length_c   6.95222622
_cell_angle_alpha   90.72690548
_cell_angle_beta   90.00000000
_cell_angle_gamma   90.00000000
_symmetry_Int_Tables_number   1
_chemical_formula_structural   Hf2TaFe4P4W
_chemical_formula_sum   'Hf2 Ta1 Fe4 P4 W1'
_cell_volume   155.78708162
_cell_formula_units_Z   1
loop_
 _symmetry_equiv_pos_site_id
 _symmetry_equiv_pos_as_xyz
  1  'x, y, z'
loop_
 _atom_site_type_symbol
 _atom_site_label
 _atom_site_symmetry_multiplicity
 _atom_site_fract_x
 _atom_site_fract_y
 _atom_site_fract_z
 _atom_site_occupancy
  Hf  Hf0  1  0.250000  0.021798  0.817714  1
  Hf  Hf1  1  0.750000  0.980188  0.184126  1
  Ta  Ta2  1  0.250000  0.520361  0.675095  1
  Fe  Fe3  1  0.750000  0.851880  0.561885  1
  Fe  Fe4  1  0.250000  0.144905  0.437391  1
  Fe  Fe5  1  0.750000  0.360051  0.939264  1
  Fe  Fe6  1  0.250000  0.640666  0.062125  1
  P  P7  1  0.250000  0.284104  0.121996  1
  P  P8  1  0.750000  0.719864  0.881007  1
  P  P9  1  0.250000  0.772196  0.381806  1
  P  P10  1  0.750000  0.225144  0.611967  1
  W  W11  1  0.750000  0.478843  0.325624  1
