# generated using pymatgen
data_Dy4Fe3Tc3Os2
_symmetry_space_group_name_H-M   'P 1'
_cell_length_a   5.25138000
_cell_length_b   5.25138095
_cell_length_c   8.81692500
_cell_angle_alpha   90.00000000
_cell_angle_beta   90.00000000
_cell_angle_gamma   120.00000664
_symmetry_Int_Tables_number   1
_chemical_formula_structural   Dy4Fe3Tc3Os2
_chemical_formula_sum   'Dy4 Fe3 Tc3 Os2'
_cell_volume   210.56913789
_cell_formula_units_Z   1
loop_
 _symmetry_equiv_pos_site_id
 _symmetry_equiv_pos_as_xyz
  1  'x, y, z'
loop_
 _atom_site_type_symbol
 _atom_site_label
 _atom_site_symmetry_multiplicity
 _atom_site_fract_x
 _atom_site_fract_y
 _atom_site_fract_z
 _atom_site_occupancy
  Dy  Dy0  1  0.666667  0.333334  0.057251  1
  Dy  Dy1  1  0.666667  0.333334  0.442749  1
  Dy  Dy2  1  0.333334  0.666667  0.565892  1
  Dy  Dy3  1  0.333334  0.666667  0.934107  1
  Fe  Fe4  1  0.338912  0.169455  0.750000  1
  Fe  Fe5  1  0.830545  0.169455  0.750000  1
  Fe  Fe6  1  0.830545  0.661089  0.750000  1
  Tc  Tc7  1  0.168795  0.337592  0.250001  1
  Tc  Tc8  1  0.168795  0.831206  0.250001  1
  Tc  Tc9  1  0.662409  0.831206  0.250001  1
  Os  Os10  1  0.000000  0.000000  0.985977  1
  Os  Os11  1  0.000000  0.000000  0.514023  1
