# generated using pymatgen
data_Y4Al18Ir3Rh2Au
_symmetry_space_group_name_H-M   'P 1'
_cell_length_a   7.59210010
_cell_length_b   7.59209928
_cell_length_c   9.49337058
_cell_angle_alpha   89.90820253
_cell_angle_beta   89.90820699
_cell_angle_gamma   119.48804927
_symmetry_Int_Tables_number   1
_chemical_formula_structural   Y4Al18Ir3Rh2Au
_chemical_formula_sum   'Y4 Al18 Ir3 Rh2 Au1'
_cell_volume   476.31039132
_cell_formula_units_Z   1
loop_
 _symmetry_equiv_pos_site_id
 _symmetry_equiv_pos_as_xyz
  1  'x, y, z'
loop_
 _atom_site_type_symbol
 _atom_site_label
 _atom_site_symmetry_multiplicity
 _atom_site_fract_x
 _atom_site_fract_y
 _atom_site_fract_z
 _atom_site_occupancy
  Y  Y0  1  0.995619  0.673677  0.251562  1
  Y  Y1  1  0.004381  0.326323  0.748438  1
  Y  Y2  1  0.673677  0.995619  0.251562  1
  Y  Y3  1  0.326323  0.004381  0.748438  1
  Al  Al4  1  0.135759  0.135759  0.256165  1
  Al  Al5  1  0.864241  0.864241  0.743835  1
  Al  Al6  1  0.001485  0.344470  0.078546  1
  Al  Al7  1  0.998515  0.655530  0.921454  1
  Al  Al8  1  0.000206  0.664126  0.573384  1
  Al  Al9  1  0.335874  0.999794  0.426616  1
  Al  Al10  1  0.999794  0.335874  0.426616  1
  Al  Al11  1  0.664126  0.000206  0.573384  1
  Al  Al12  1  0.655530  0.998515  0.921454  1
  Al  Al13  1  0.344470  0.001485  0.078546  1
  Al  Al14  1  0.333526  0.333526  0.551290  1
  Al  Al15  1  0.666474  0.666474  0.448710  1
  Al  Al16  1  0.657554  0.657554  0.058334  1
  Al  Al17  1  0.342446  0.342446  0.941666  1
  Al  Al18  1  0.339323  0.550897  0.250347  1
  Al  Al19  1  0.660677  0.449103  0.749653  1
  Al  Al20  1  0.550897  0.339323  0.250347  1
  Al  Al21  1  0.449103  0.660677  0.749653  1
  Ir  Ir22  1  0.328126  0.671874  0.500000  1
  Ir  Ir23  1  0.671874  0.328126  0.500000  1
  Ir  Ir24  1  0.000000  0.000000  0.500000  1
  Rh  Rh25  1  0.671584  0.328416  0.000000  1
  Rh  Rh26  1  0.328416  0.671584  0.000000  1
  Au  Au27  1  0.000000  0.000000  0.000000  1
