# generated using pymatgen
data_Ba4Si3SnPd4
_symmetry_space_group_name_H-M   'P 1'
_cell_length_a   6.87603236
_cell_length_b   6.87603236
_cell_length_c   6.87603236
_cell_angle_alpha   89.87369631
_cell_angle_beta   89.87369631
_cell_angle_gamma   90.12630369
_symmetry_Int_Tables_number   1
_chemical_formula_structural   Ba4Si3SnPd4
_chemical_formula_sum   'Ba4 Si3 Sn1 Pd4'
_cell_volume   325.09520648
_cell_formula_units_Z   1
loop_
 _symmetry_equiv_pos_site_id
 _symmetry_equiv_pos_as_xyz
  1  'x, y, z'
loop_
 _atom_site_type_symbol
 _atom_site_label
 _atom_site_symmetry_multiplicity
 _atom_site_fract_x
 _atom_site_fract_y
 _atom_site_fract_z
 _atom_site_occupancy
  Ba  Ba0  1  0.361858  0.861858  0.638142  1
  Ba  Ba1  1  0.870187  0.639243  0.366027  1
  Ba  Ba2  1  0.633973  0.370187  0.860757  1
  Ba  Ba3  1  0.139243  0.133973  0.129813  1
  Si  Si4  1  0.155163  0.349193  0.663117  1
  Si  Si5  1  0.336883  0.655163  0.150807  1
  Si  Si6  1  0.849193  0.836883  0.844837  1
  Sn  Sn7  1  0.660992  0.160992  0.339008  1
  Pd  Pd8  1  0.093826  0.593826  0.906174  1
  Pd  Pd9  1  0.589855  0.882536  0.073708  1
  Pd  Pd10  1  0.926292  0.089855  0.617464  1
  Pd  Pd11  1  0.382536  0.426292  0.410145  1
