# generated using pymatgen
data_Pr6Sc2HgAu9
_symmetry_space_group_name_H-M   'P 1'
_cell_length_a   8.17464453
_cell_length_b   8.17464469
_cell_length_c   8.17464400
_cell_angle_alpha   65.75734642
_cell_angle_beta   65.75734590
_cell_angle_gamma   65.75733625
_symmetry_Int_Tables_number   1
_chemical_formula_structural   Pr6Sc2HgAu9
_chemical_formula_sum   'Pr6 Sc2 Hg1 Au9'
_cell_volume   434.50478704
_cell_formula_units_Z   1
loop_
 _symmetry_equiv_pos_site_id
 _symmetry_equiv_pos_as_xyz
  1  'x, y, z'
loop_
 _atom_site_type_symbol
 _atom_site_label
 _atom_site_symmetry_multiplicity
 _atom_site_fract_x
 _atom_site_fract_y
 _atom_site_fract_z
 _atom_site_occupancy
  Pr  Pr0  1  0.895955  0.186520  0.620583  1
  Pr  Pr1  1  0.620583  0.895955  0.186520  1
  Pr  Pr2  1  0.186520  0.620583  0.895955  1
  Pr  Pr3  1  0.104045  0.813480  0.379417  1
  Pr  Pr4  1  0.379417  0.104045  0.813480  1
  Pr  Pr5  1  0.813480  0.379417  0.104045  1
  Sc  Sc6  1  0.660976  0.660976  0.660976  1
  Sc  Sc7  1  0.339024  0.339024  0.339024  1
  Hg  Hg8  1  0.500000  0.500000  0.500000  1
  Au  Au9  1  0.000000  0.000000  0.000000  1
  Au  Au10  1  0.802756  0.802756  0.802756  1
  Au  Au11  1  0.197244  0.197244  0.197244  1
  Au  Au12  1  0.937294  0.548029  0.326911  1
  Au  Au13  1  0.326911  0.937294  0.548029  1
  Au  Au14  1  0.548029  0.326911  0.937294  1
  Au  Au15  1  0.062706  0.451971  0.673089  1
  Au  Au16  1  0.673089  0.062706  0.451971  1
  Au  Au17  1  0.451971  0.673089  0.062706  1
