# generated using pymatgen
data_Y7Er3(GePb3)2
_symmetry_space_group_name_H-M   'P 1'
_cell_length_a   9.33978500
_cell_length_b   9.33978482
_cell_length_c   6.58170000
_cell_angle_alpha   90.00000000
_cell_angle_beta   90.00000000
_cell_angle_gamma   120.00001127
_symmetry_Int_Tables_number   1
_chemical_formula_structural   Y7Er3(GePb3)2
_chemical_formula_sum   'Y7 Er3 Ge2 Pb6'
_cell_volume   497.21293093
_cell_formula_units_Z   1
loop_
 _symmetry_equiv_pos_site_id
 _symmetry_equiv_pos_as_xyz
  1  'x, y, z'
loop_
 _atom_site_type_symbol
 _atom_site_label
 _atom_site_symmetry_multiplicity
 _atom_site_fract_x
 _atom_site_fract_y
 _atom_site_fract_z
 _atom_site_occupancy
  Y  Y0  1  0.252092  0.000217  0.249700  1
  Y  Y1  1  0.748124  0.000217  0.750300  1
  Y  Y2  1  0.999783  0.251876  0.249700  1
  Y  Y3  1  0.999783  0.747908  0.750300  1
  Y  Y4  1  0.748124  0.747908  0.249700  1
  Y  Y5  1  0.252092  0.251876  0.750300  1
  Y  Y6  1  0.333333  0.666667  0.000000  1
  Er  Er7  1  0.666667  0.333333  0.000000  1
  Er  Er8  1  0.666667  0.333333  0.500000  1
  Er  Er9  1  0.333333  0.666667  0.500000  1
  Ge  Ge10  1  0.000000  0.000000  0.000000  1
  Ge  Ge11  1  0.000000  0.000000  0.500000  1
  Pb  Pb12  1  0.606557  0.000563  0.250253  1
  Pb  Pb13  1  0.394007  0.000563  0.749747  1
  Pb  Pb14  1  0.999437  0.605993  0.250253  1
  Pb  Pb15  1  0.999437  0.393443  0.749747  1
  Pb  Pb16  1  0.394007  0.393443  0.250253  1
  Pb  Pb17  1  0.606557  0.605993  0.749747  1
