# generated using pymatgen
data_Pr3Si3Cl2
_symmetry_space_group_name_H-M   'P 1'
_cell_length_a   9.23907775
_cell_length_b   9.23907813
_cell_length_c   10.57576239
_cell_angle_alpha   82.10973963
_cell_angle_beta   82.10973886
_cell_angle_gamma   26.24188603
_symmetry_Int_Tables_number   1
_chemical_formula_structural   Pr3Si3Cl2
_chemical_formula_sum   'Pr6 Si6 Cl4'
_cell_volume   395.17748112
_cell_formula_units_Z   2
loop_
 _symmetry_equiv_pos_site_id
 _symmetry_equiv_pos_as_xyz
  1  'x, y, z'
loop_
 _atom_site_type_symbol
 _atom_site_label
 _atom_site_symmetry_multiplicity
 _atom_site_fract_x
 _atom_site_fract_y
 _atom_site_fract_z
 _atom_site_occupancy
  Pr  Pr0  1  0.680229  0.680229  0.851320  1
  Pr  Pr1  1  0.319771  0.319771  0.148680  1
  Pr  Pr2  1  0.385218  0.385218  0.488762  1
  Pr  Pr3  1  0.614782  0.614782  0.511238  1
  Pr  Pr4  1  0.465524  0.465524  0.830800  1
  Pr  Pr5  1  0.534476  0.534476  0.169200  1
  Si  Si6  1  0.935151  0.935151  0.050177  1
  Si  Si7  1  0.064849  0.064849  0.949823  1
  Si  Si8  1  0.089520  0.089520  0.721559  1
  Si  Si9  1  0.910480  0.910480  0.278441  1
  Si  Si10  1  0.980207  0.980207  0.612212  1
  Si  Si11  1  0.019793  0.019793  0.387788  1
  Cl  Cl12  1  0.226126  0.226126  0.390848  1
  Cl  Cl13  1  0.773874  0.773874  0.609152  1
  Cl  Cl14  1  0.297351  0.297351  0.874407  1
  Cl  Cl15  1  0.702649  0.702649  0.125593  1
