# generated using pymatgen
data_K3Mo3(PO4)4
_symmetry_space_group_name_H-M   'P 1'
_cell_length_a   9.98510400
_cell_length_b   9.84603768
_cell_length_c   18.79062800
_cell_angle_alpha   58.76547761
_cell_angle_beta   90.00000000
_cell_angle_gamma   90.00000000
_symmetry_Int_Tables_number   1
_chemical_formula_structural   K3Mo3(PO4)4
_chemical_formula_sum   'K12 Mo12 P16 O64'
_cell_volume   1579.60280856
_cell_formula_units_Z   4
loop_
 _symmetry_equiv_pos_site_id
 _symmetry_equiv_pos_as_xyz
  1  'x, y, z'
loop_
 _atom_site_type_symbol
 _atom_site_label
 _atom_site_symmetry_multiplicity
 _atom_site_fract_x
 _atom_site_fract_y
 _atom_site_fract_z
 _atom_site_occupancy
  K  K0  1  0.284834  0.768354  0.218445  1
  K  K1  1  0.215166  0.768354  0.718445  1
  K  K2  1  0.118647  0.955981  0.366861  1
  K  K3  1  0.618647  0.044019  0.133139  1
  K  K4  1  0.528995  0.456582  0.885876  1
  K  K5  1  0.971005  0.456582  0.385876  1
  K  K6  1  0.471005  0.543418  0.114124  1
  K  K7  1  0.715166  0.231646  0.781555  1
  K  K8  1  0.881353  0.044019  0.633139  1
  K  K9  1  0.028995  0.543418  0.614124  1
  K  K10  1  0.381353  0.955981  0.866861  1
  K  K11  1  0.784834  0.231646  0.281555  1
  Mo  Mo12  1  0.426437  0.762895  0.489063  1
  Mo  Mo13  1  0.723903  0.812178  0.365577  1
  Mo  Mo14  1  0.073563  0.762895  0.989063  1
  Mo  Mo15  1  0.926437  0.237105  0.010937  1
  Mo  Mo16  1  0.848983  0.653527  0.165162  1
  Mo  Mo17  1  0.276097  0.187822  0.634423  1
  Mo  Mo18  1  0.151017  0.346473  0.834838  1
  Mo  Mo19  1  0.651017  0.653527  0.665162  1
  Mo  Mo20  1  0.776097  0.812178  0.865577  1
  Mo  Mo21  1  0.573563  0.237105  0.510937  1
  Mo  Mo22  1  0.223903  0.187822  0.134423  1
  Mo  Mo23  1  0.348983  0.346473  0.334838  1
  P  P24  1  0.723219  0.934463  0.508468  1
  P  P25  1  0.890270  0.561430  0.803195  1
  P  P26  1  0.963977  0.923480  0.215672  1
  P  P27  1  0.463977  0.076520  0.284328  1
  P  P28  1  0.109730  0.438570  0.196805  1
  P  P29  1  0.223219  0.065537  0.991532  1
  P  P30  1  0.218620  0.470531  0.974362  1
  P  P31  1  0.536023  0.923480  0.715672  1
  P  P32  1  0.609730  0.561430  0.303195  1
  P  P33  1  0.776781  0.934463  0.008468  1
  P  P34  1  0.718620  0.529469  0.525638  1
  P  P35  1  0.036023  0.076520  0.784328  1
  P  P36  1  0.781380  0.529469  0.025638  1
  P  P37  1  0.390270  0.438570  0.696805  1
  P  P38  1  0.276781  0.065537  0.491532  1
  P  P39  1  0.281380  0.470531  0.474362  1
  O  O40  1  0.204811  0.645961  0.947967  1
  O  O41  1  0.097860  0.356581  0.028760  1
  O  O42  1  0.893069  0.927095  0.288601  1
  O  O43  1  0.397243  0.956359  0.366801  1
  O  O44  1  0.196925  0.166504  0.408656  1
  O  O45  1  0.112520  0.970290  0.216881  1
  O  O46  1  0.234446  0.490771  0.226755  1
  O  O47  1  0.134954  0.270920  0.210853  1
  O  O48  1  0.836092  0.606649  0.461062  1
  O  O49  1  0.163908  0.393351  0.538938  1
  O  O50  1  0.086429  0.561466  0.105214  1
  O  O51  1  0.696925  0.833496  0.091344  1
  O  O52  1  0.080015  0.148656  0.963047  1
  O  O53  1  0.919985  0.851344  0.036953  1
  O  O54  1  0.543027  0.753961  0.729050  1
  O  O55  1  0.612520  0.029710  0.283119  1
  O  O56  1  0.704811  0.354039  0.552033  1
  O  O57  1  0.718418  0.924655  0.935166  1
  O  O58  1  0.102757  0.956359  0.866801  1
  O  O59  1  0.265554  0.490771  0.726755  1
  O  O60  1  0.602757  0.043641  0.633199  1
  O  O61  1  0.456973  0.246039  0.270950  1
  O  O62  1  0.281582  0.075345  0.064834  1
  O  O63  1  0.277732  0.888179  0.517890  1
  O  O64  1  0.781582  0.924655  0.435166  1
  O  O65  1  0.865046  0.729080  0.789147  1
  O  O66  1  0.734446  0.509229  0.273245  1
  O  O67  1  0.663908  0.606649  0.961062  1
  O  O68  1  0.897243  0.043641  0.133199  1
  O  O69  1  0.902140  0.643419  0.971240  1
  O  O70  1  0.981751  0.442162  0.243193  1
  O  O71  1  0.303075  0.166504  0.908656  1
  O  O72  1  0.365046  0.270920  0.710853  1
  O  O73  1  0.597860  0.643419  0.471240  1
  O  O74  1  0.258138  0.465061  0.394572  1
  O  O75  1  0.606931  0.927095  0.788601  1
  O  O76  1  0.241862  0.465061  0.894572  1
  O  O77  1  0.222268  0.888179  0.017890  1
  O  O78  1  0.481751  0.557838  0.256807  1
  O  O79  1  0.393069  0.072905  0.211399  1
  O  O80  1  0.387480  0.970290  0.716881  1
  O  O81  1  0.218418  0.075345  0.564834  1
  O  O82  1  0.413571  0.561466  0.605214  1
  O  O83  1  0.043027  0.246039  0.770950  1
  O  O84  1  0.765554  0.509229  0.773245  1
  O  O85  1  0.402140  0.356581  0.528760  1
  O  O86  1  0.913571  0.438534  0.894786  1
  O  O87  1  0.106931  0.072905  0.711399  1
  O  O88  1  0.295189  0.645961  0.447967  1
  O  O89  1  0.758138  0.534939  0.105428  1
  O  O90  1  0.887480  0.029710  0.783119  1
  O  O91  1  0.634954  0.729080  0.289147  1
  O  O92  1  0.777732  0.111821  0.982110  1
  O  O93  1  0.419985  0.148656  0.463047  1
  O  O94  1  0.795189  0.354039  0.052033  1
  O  O95  1  0.518249  0.442162  0.743193  1
  O  O96  1  0.741862  0.534939  0.605428  1
  O  O97  1  0.722268  0.111821  0.482110  1
  O  O98  1  0.956973  0.753961  0.229050  1
  O  O99  1  0.586429  0.438534  0.394786  1
  O  O100  1  0.580015  0.851344  0.536953  1
  O  O101  1  0.018249  0.557838  0.756807  1
  O  O102  1  0.336092  0.393351  0.038938  1
  O  O103  1  0.803075  0.833496  0.591344  1
