# generated using pymatgen
data_Sm4Ga18(IrPd)3
_symmetry_space_group_name_H-M   'P 1'
_cell_length_a   7.67835293
_cell_length_b   7.67835269
_cell_length_c   9.59149810
_cell_angle_alpha   90.00838091
_cell_angle_beta   90.00837952
_cell_angle_gamma   119.75108857
_symmetry_Int_Tables_number   1
_chemical_formula_structural   Sm4Ga18(IrPd)3
_chemical_formula_sum   'Sm4 Ga18 Ir3 Pd3'
_cell_volume   490.94973014
_cell_formula_units_Z   1
loop_
 _symmetry_equiv_pos_site_id
 _symmetry_equiv_pos_as_xyz
  1  'x, y, z'
loop_
 _atom_site_type_symbol
 _atom_site_label
 _atom_site_symmetry_multiplicity
 _atom_site_fract_x
 _atom_site_fract_y
 _atom_site_fract_z
 _atom_site_occupancy
  Sm  Sm0  1  0.996206  0.668928  0.249636  1
  Sm  Sm1  1  0.003006  0.330298  0.750284  1
  Sm  Sm2  1  0.669702  0.996994  0.249716  1
  Sm  Sm3  1  0.331072  0.003794  0.750364  1
  Ga  Ga4  1  0.130717  0.129385  0.250791  1
  Ga  Ga5  1  0.870615  0.869283  0.749209  1
  Ga  Ga6  1  0.002962  0.336799  0.080193  1
  Ga  Ga7  1  0.002572  0.665860  0.920348  1
  Ga  Ga8  1  0.000154  0.662424  0.577460  1
  Ga  Ga9  1  0.337576  0.999846  0.422540  1
  Ga  Ga10  1  0.999385  0.337768  0.422201  1
  Ga  Ga11  1  0.662232  0.000615  0.577799  1
  Ga  Ga12  1  0.663201  0.997038  0.919807  1
  Ga  Ga13  1  0.334140  0.997428  0.079652  1
  Ga  Ga14  1  0.335407  0.335687  0.563632  1
  Ga  Ga15  1  0.664313  0.664593  0.436368  1
  Ga  Ga16  1  0.663599  0.666014  0.066361  1
  Ga  Ga17  1  0.333986  0.336401  0.933639  1
  Ga  Ga18  1  0.338723  0.545408  0.250387  1
  Ga  Ga19  1  0.662335  0.456649  0.747411  1
  Ga  Ga20  1  0.543351  0.337665  0.252589  1
  Ga  Ga21  1  0.454592  0.661277  0.749613  1
  Ir  Ir22  1  0.329768  0.670232  0.000000  1
  Ir  Ir23  1  0.328874  0.671126  0.500000  1
  Ir  Ir24  1  0.671067  0.328933  0.500000  1
  Pd  Pd25  1  0.670659  0.329341  0.000000  1
  Pd  Pd26  1  0.000188  0.999812  0.000000  1
  Pd  Pd27  1  0.999599  0.000401  0.500000  1
