# generated using pymatgen
data_Dy2Mn3Re14C3
_symmetry_space_group_name_H-M   'P 1'
_cell_length_a   6.94187597
_cell_length_b   6.94187636
_cell_length_c   6.94187571
_cell_angle_alpha   82.39547650
_cell_angle_beta   82.39548533
_cell_angle_gamma   82.39547360
_symmetry_Int_Tables_number   1
_chemical_formula_structural   Dy2Mn3Re14C3
_chemical_formula_sum   'Dy2 Mn3 Re14 C3'
_cell_volume   326.41590029
_cell_formula_units_Z   1
loop_
 _symmetry_equiv_pos_site_id
 _symmetry_equiv_pos_as_xyz
  1  'x, y, z'
loop_
 _atom_site_type_symbol
 _atom_site_label
 _atom_site_symmetry_multiplicity
 _atom_site_fract_x
 _atom_site_fract_y
 _atom_site_fract_z
 _atom_site_occupancy
  Dy  Dy0  1  0.648717  0.648717  0.648717  1
  Dy  Dy1  1  0.351283  0.351283  0.351283  1
  Mn  Mn2  1  0.000000  0.000000  0.500000  1
  Mn  Mn3  1  0.500000  0.000000  0.000000  1
  Mn  Mn4  1  0.000000  0.500000  0.000000  1
  Re  Re5  1  0.721714  0.278286  0.000000  1
  Re  Re6  1  0.000000  0.721714  0.278286  1
  Re  Re7  1  0.278286  0.000000  0.721714  1
  Re  Re8  1  0.000000  0.278286  0.721714  1
  Re  Re9  1  0.721714  0.000000  0.278286  1
  Re  Re10  1  0.278286  0.721714  0.000000  1
  Re  Re11  1  0.346386  0.346386  0.860315  1
  Re  Re12  1  0.860315  0.346386  0.346386  1
  Re  Re13  1  0.346386  0.860315  0.346386  1
  Re  Re14  1  0.653614  0.653614  0.139685  1
  Re  Re15  1  0.139685  0.653614  0.653614  1
  Re  Re16  1  0.653614  0.139685  0.653614  1
  Re  Re17  1  0.898578  0.898578  0.898578  1
  Re  Re18  1  0.101422  0.101422  0.101422  1
  C  C19  1  0.500000  0.500000  0.000000  1
  C  C20  1  0.000000  0.500000  0.500000  1
  C  C21  1  0.500000  0.000000  0.500000  1
