# generated using pymatgen
data_TlMo2Br11
_symmetry_space_group_name_H-M   'P 1'
_cell_length_a   7.41746285
_cell_length_b   7.49484408
_cell_length_c   18.53009735
_cell_angle_alpha   79.11668655
_cell_angle_beta   78.80074820
_cell_angle_gamma   87.51310212
_symmetry_Int_Tables_number   1
_chemical_formula_structural   TlMo2Br11
_chemical_formula_sum   'Tl2 Mo4 Br22'
_cell_volume   992.32277132
_cell_formula_units_Z   2
loop_
 _symmetry_equiv_pos_site_id
 _symmetry_equiv_pos_as_xyz
  1  'x, y, z'
loop_
 _atom_site_type_symbol
 _atom_site_label
 _atom_site_symmetry_multiplicity
 _atom_site_fract_x
 _atom_site_fract_y
 _atom_site_fract_z
 _atom_site_occupancy
  Tl  Tl0  1  0.747194  0.746577  0.504554  1
  Tl  Tl1  1  0.252806  0.253423  0.495446  1
  Mo  Mo2  1  0.324177  0.821559  0.341581  1
  Mo  Mo3  1  0.675823  0.178441  0.658419  1
  Mo  Mo4  1  0.835388  0.332005  0.086014  1
  Mo  Mo5  1  0.164612  0.667995  0.913986  1
  Br  Br6  1  0.253174  0.775221  0.488949  1
  Br  Br7  1  0.746826  0.224779  0.511051  1
  Br  Br8  1  0.577439  0.026353  0.345832  1
  Br  Br9  1  0.422561  0.973647  0.654168  1
  Br  Br10  1  0.539445  0.552506  0.354695  1
  Br  Br11  1  0.460555  0.447494  0.645305  1
  Br  Br12  1  0.389844  0.862394  0.205733  1
  Br  Br13  1  0.610156  0.137606  0.794267  1
  Br  Br14  1  0.061689  0.604296  0.356671  1
  Br  Br15  1  0.938311  0.395704  0.643329  1
  Br  Br16  1  0.101448  0.081917  0.341443  1
  Br  Br17  1  0.898552  0.918083  0.658557  1
  Br  Br18  1  0.886012  0.029704  0.152413  1
  Br  Br19  1  0.113988  0.970296  0.847587  1
  Br  Br20  1  0.526777  0.369527  0.153836  1
  Br  Br21  1  0.473223  0.630473  0.846164  1
  Br  Br22  1  0.729955  0.224767  0.983930  1
  Br  Br23  1  0.270045  0.775233  0.016070  1
  Br  Br24  1  0.979338  0.484003  0.166288  1
  Br  Br25  1  0.020662  0.515997  0.833712  1
  Br  Br26  1  0.174160  0.333445  0.999606  1
  Br  Br27  1  0.825840  0.666555  0.000394  1
