# generated using pymatgen
data_YHo9In8PdAu3
_symmetry_space_group_name_H-M   'P 1'
_cell_length_a   3.64647608
_cell_length_b   8.18820338
_cell_length_c   18.36016404
_cell_angle_alpha   89.93183224
_cell_angle_beta   89.98013042
_cell_angle_gamma   90.01470028
_symmetry_Int_Tables_number   1
_chemical_formula_structural   YHo9In8PdAu3
_chemical_formula_sum   'Y1 Ho9 In8 Pd1 Au3'
_cell_volume   548.19895086
_cell_formula_units_Z   1
loop_
 _symmetry_equiv_pos_site_id
 _symmetry_equiv_pos_as_xyz
  1  'x, y, z'
loop_
 _atom_site_type_symbol
 _atom_site_label
 _atom_site_symmetry_multiplicity
 _atom_site_fract_x
 _atom_site_fract_y
 _atom_site_fract_z
 _atom_site_occupancy
  Y  Y0  1  0.999990  0.500665  0.499213  1
  Ho  Ho1  1  0.999989  0.000110  0.000659  1
  Ho  Ho2  1  0.000022  0.746184  0.282572  1
  Ho  Ho3  1  0.000004  0.263388  0.717634  1
  Ho  Ho4  1  0.000000  0.763241  0.782043  1
  Ho  Ho5  1  0.000016  0.231516  0.219805  1
  Ho  Ho6  1  0.999995  0.619382  0.080669  1
  Ho  Ho7  1  0.000001  0.380655  0.920670  1
  Ho  Ho8  1  0.000011  0.880515  0.579152  1
  Ho  Ho9  1  0.000014  0.115494  0.416812  1
  In  In10  1  0.500158  0.711564  0.933172  1
  In  In11  1  0.499939  0.288512  0.067667  1
  In  In12  1  0.499989  0.791652  0.431565  1
  In  In13  1  0.499886  0.210057  0.566021  1
  In  In14  1  0.499779  0.580894  0.646974  1
  In  In15  1  0.500158  0.416402  0.351765  1
  In  In16  1  0.500218  0.921744  0.148969  1
  In  In17  1  0.499948  0.080626  0.853319  1
  Pd  Pd18  1  0.499983  0.025568  0.303923  1
  Au  Au19  1  0.499786  0.526544  0.197427  1
  Au  Au20  1  0.500049  0.472578  0.803697  1
  Au  Au21  1  0.500064  0.972706  0.696270  1
