# generated using pymatgen
data_SrY2Lu(Al8Pt3)3
_symmetry_space_group_name_H-M   'P 1'
_cell_length_a   7.54159689
_cell_length_b   7.56161026
_cell_length_c   13.24689308
_cell_angle_alpha   84.60576096
_cell_angle_beta   79.12223484
_cell_angle_gamma   59.95514710
_symmetry_Int_Tables_number   1
_chemical_formula_structural   SrY2Lu(Al8Pt3)3
_chemical_formula_sum   'Sr1 Y2 Lu1 Al24 Pt9'
_cell_volume   642.17202564
_cell_formula_units_Z   1
loop_
 _symmetry_equiv_pos_site_id
 _symmetry_equiv_pos_as_xyz
  1  'x, y, z'
loop_
 _atom_site_type_symbol
 _atom_site_label
 _atom_site_symmetry_multiplicity
 _atom_site_fract_x
 _atom_site_fract_y
 _atom_site_fract_z
 _atom_site_occupancy
  Sr  Sr0  1  0.392934  0.167787  0.810122  1
  Y  Y1  1  0.604877  0.832175  0.192979  1
  Y  Y2  1  0.733367  0.498629  0.807869  1
  Lu  Lu3  1  0.266113  0.501073  0.194279  1
  Al  Al4  1  0.686151  0.831754  0.948494  1
  Al  Al5  1  0.314905  0.167434  0.059111  1
  Al  Al6  1  0.147273  0.832339  0.559098  1
  Al  Al7  1  0.854195  0.167758  0.436766  1
  Al  Al8  1  0.480584  0.166597  0.556942  1
  Al  Al9  1  0.520393  0.833509  0.439894  1
  Al  Al10  1  0.217866  0.166122  0.327378  1
  Al  Al11  1  0.784241  0.834906  0.666533  1
  Al  Al12  1  0.438000  0.506426  0.666078  1
  Al  Al13  1  0.563422  0.492771  0.327863  1
  Al  Al14  1  0.111028  0.159662  0.664847  1
  Al  Al15  1  0.891607  0.839877  0.329106  1
  Al  Al16  1  0.350190  0.502060  0.949298  1
  Al  Al17  1  0.644363  0.501596  0.058239  1
  Al  Al18  1  0.012000  0.167012  0.959339  1
  Al  Al19  1  0.983969  0.830437  0.050714  1
  Al  Al20  1  0.187126  0.499302  0.439715  1
  Al  Al21  1  0.813977  0.500437  0.556865  1
  Al  Al22  1  0.732854  0.165861  0.183912  1
  Al  Al23  1  0.268688  0.825830  0.816511  1
  Al  Al24  1  0.052921  0.637207  0.815700  1
  Al  Al25  1  0.938721  0.369756  0.185040  1
  Al  Al26  1  0.862209  0.043854  0.816441  1
  Al  Al27  1  0.144494  0.957531  0.184395  1
  Pt  Pt28  1  0.119081  0.494759  0.635944  1
  Pt  Pt29  1  0.881349  0.508337  0.360340  1
  Pt  Pt30  1  0.657078  0.171082  0.002306  1
  Pt  Pt31  1  0.341205  0.828681  0.002674  1
  Pt  Pt32  1  0.537558  0.167432  0.360558  1
  Pt  Pt33  1  0.461967  0.831302  0.635820  1
  Pt  Pt34  1  0.782106  0.173805  0.634534  1
  Pt  Pt35  1  0.221955  0.824060  0.361350  1
  Pt  Pt36  1  0.999232  0.500839  0.002944  1
