# generated using pymatgen
data_TbYbY2(B4Os)4
_symmetry_space_group_name_H-M   'P 1'
_cell_length_a   3.56333300
_cell_length_b   5.98039681
_cell_length_c   11.55744339
_cell_angle_alpha   89.94163835
_cell_angle_beta   90.00000000
_cell_angle_gamma   90.00000000
_symmetry_Int_Tables_number   1
_chemical_formula_structural   TbYbY2(B4Os)4
_chemical_formula_sum   'Tb1 Yb1 Y2 B16 Os4'
_cell_volume   246.29067007
_cell_formula_units_Z   1
loop_
 _symmetry_equiv_pos_site_id
 _symmetry_equiv_pos_as_xyz
  1  'x, y, z'
loop_
 _atom_site_type_symbol
 _atom_site_label
 _atom_site_symmetry_multiplicity
 _atom_site_fract_x
 _atom_site_fract_y
 _atom_site_fract_z
 _atom_site_occupancy
  Tb  Tb0  1  0.000000  0.627755  0.850999  1
  Yb  Yb1  1  0.000000  0.370525  0.149108  1
  Y  Y2  1  0.000000  0.127857  0.650169  1
  Y  Y3  1  0.000000  0.871643  0.348588  1
  B  B4  1  0.500000  0.475284  0.691498  1
  B  B5  1  0.500000  0.525072  0.308092  1
  B  B6  1  0.500000  0.974641  0.809274  1
  B  B7  1  0.500000  0.025600  0.190627  1
  B  B8  1  0.500000  0.288484  0.815297  1
  B  B9  1  0.500000  0.710924  0.184799  1
  B  B10  1  0.500000  0.788314  0.686013  1
  B  B11  1  0.500000  0.212877  0.313570  1
  B  B12  1  0.500000  0.363266  0.970456  1
  B  B13  1  0.500000  0.636279  0.030541  1
  B  B14  1  0.500000  0.863191  0.530194  1
  B  B15  1  0.500000  0.136751  0.469928  1
  B  B16  1  0.500000  0.387549  0.546826  1
  B  B17  1  0.500000  0.611664  0.452856  1
  B  B18  1  0.500000  0.888255  0.954344  1
  B  B19  1  0.500000  0.114190  0.047229  1
  Os  Os20  1  0.000000  0.140315  0.907239  1
  Os  Os21  1  0.000000  0.860093  0.091821  1
  Os  Os22  1  0.000000  0.640716  0.592776  1
  Os  Os23  1  0.000000  0.358755  0.407755  1
