# generated using pymatgen
data_Ho6Tm10Cd4Ni3Os
_symmetry_space_group_name_H-M   'P 1'
_cell_length_a   9.51249259
_cell_length_b   9.51249277
_cell_length_c   9.51249330
_cell_angle_alpha   59.34457026
_cell_angle_beta   59.34457275
_cell_angle_gamma   59.34457036
_symmetry_Int_Tables_number   1
_chemical_formula_structural   Ho6Tm10Cd4Ni3Os
_chemical_formula_sum   'Ho6 Tm10 Cd4 Ni3 Os1'
_cell_volume   599.56939288
_cell_formula_units_Z   1
loop_
 _symmetry_equiv_pos_site_id
 _symmetry_equiv_pos_as_xyz
  1  'x, y, z'
loop_
 _atom_site_type_symbol
 _atom_site_label
 _atom_site_symmetry_multiplicity
 _atom_site_fract_x
 _atom_site_fract_y
 _atom_site_fract_z
 _atom_site_occupancy
  Ho  Ho0  1  0.935341  0.565836  0.565836  1
  Ho  Ho1  1  0.556426  0.940358  0.940358  1
  Ho  Ho2  1  0.565836  0.935341  0.565836  1
  Ho  Ho3  1  0.940358  0.556426  0.940358  1
  Ho  Ho4  1  0.565836  0.565836  0.935341  1
  Ho  Ho5  1  0.940358  0.940358  0.556426  1
  Tm  Tm6  1  0.346906  0.346906  0.346906  1
  Tm  Tm7  1  0.351681  0.351681  0.954450  1
  Tm  Tm8  1  0.351681  0.954450  0.351681  1
  Tm  Tm9  1  0.954450  0.351681  0.351681  1
  Tm  Tm10  1  0.810761  0.187244  0.187244  1
  Tm  Tm11  1  0.185091  0.811892  0.811892  1
  Tm  Tm12  1  0.187244  0.810761  0.187244  1
  Tm  Tm13  1  0.811892  0.185091  0.811892  1
  Tm  Tm14  1  0.187244  0.187244  0.810761  1
  Tm  Tm15  1  0.811892  0.811892  0.185091  1
  Cd  Cd16  1  0.579686  0.579686  0.579686  1
  Cd  Cd17  1  0.579310  0.579310  0.256037  1
  Cd  Cd18  1  0.579310  0.256037  0.579310  1
  Cd  Cd19  1  0.256037  0.579310  0.579310  1
  Ni  Ni20  1  0.141457  0.141457  0.576214  1
  Ni  Ni21  1  0.141457  0.576214  0.141457  1
  Ni  Ni22  1  0.576214  0.141457  0.141457  1
  Os  Os23  1  0.143530  0.143530  0.143530  1
