# generated using pymatgen
data_Tm5ZnTe4
_symmetry_space_group_name_H-M   'P 1'
_cell_length_a   7.51561144
_cell_length_b   7.51561138
_cell_length_c   10.63760500
_cell_angle_alpha   61.25331793
_cell_angle_beta   61.25331696
_cell_angle_gamma   32.24877002
_symmetry_Int_Tables_number   1
_chemical_formula_structural   Tm5ZnTe4
_chemical_formula_sum   'Tm5 Zn1 Te4'
_cell_volume   277.54455023
_cell_formula_units_Z   1
loop_
 _symmetry_equiv_pos_site_id
 _symmetry_equiv_pos_as_xyz
  1  'x, y, z'
loop_
 _atom_site_type_symbol
 _atom_site_label
 _atom_site_symmetry_multiplicity
 _atom_site_fract_x
 _atom_site_fract_y
 _atom_site_fract_z
 _atom_site_occupancy
  Tm  Tm0  1  0.000000  0.000000  0.500000  1
  Tm  Tm1  1  0.585827  0.585827  0.090957  1
  Tm  Tm2  1  0.185350  0.185350  0.728930  1
  Tm  Tm3  1  0.814650  0.814650  0.271070  1
  Tm  Tm4  1  0.414173  0.414173  0.909043  1
  Zn  Zn5  1  0.000000  0.000000  0.000000  1
  Te  Te6  1  0.610102  0.610102  0.585946  1
  Te  Te7  1  0.192563  0.192563  0.195275  1
  Te  Te8  1  0.807437  0.807437  0.804725  1
  Te  Te9  1  0.389898  0.389898  0.414054  1
