# generated using pymatgen
data_Tb5YbLuCoI12
_symmetry_space_group_name_H-M   'P 1'
_cell_length_a   9.69399860
_cell_length_b   9.78636087
_cell_length_c   9.77835546
_cell_angle_alpha   106.83824309
_cell_angle_beta   107.04553926
_cell_angle_gamma   106.88066125
_symmetry_Int_Tables_number   1
_chemical_formula_structural   Tb5YbLuCoI12
_chemical_formula_sum   'Tb5 Yb1 Lu1 Co1 I12'
_cell_volume   774.21281732
_cell_formula_units_Z   1
loop_
 _symmetry_equiv_pos_site_id
 _symmetry_equiv_pos_as_xyz
  1  'x, y, z'
loop_
 _atom_site_type_symbol
 _atom_site_label
 _atom_site_symmetry_multiplicity
 _atom_site_fract_x
 _atom_site_fract_y
 _atom_site_fract_z
 _atom_site_occupancy
  Tb  Tb0  1  0.096271  0.296826  0.024399  1
  Tb  Tb1  1  0.283622  0.023320  0.093216  1
  Tb  Tb2  1  0.976100  0.903436  0.702212  1
  Tb  Tb3  1  0.903796  0.703515  0.976322  1
  Tb  Tb4  1  0.716901  0.977404  0.909382  1
  Yb  Yb5  1  0.499864  0.499999  0.500321  1
  Lu  Lu6  1  0.023625  0.094018  0.288422  1
  Co  Co7  1  0.000359  0.000087  0.999912  1
  I  I8  1  0.147931  0.453249  0.380032  1
  I  I9  1  0.459015  0.378857  0.152076  1
  I  I10  1  0.375497  0.150529  0.456877  1
  I  I11  1  0.849652  0.541599  0.620875  1
  I  I12  1  0.541141  0.621250  0.848543  1
  I  I13  1  0.619641  0.849212  0.543615  1
  I  I14  1  0.683615  0.072834  0.225961  1
  I  I15  1  0.071772  0.223582  0.676257  1
  I  I16  1  0.226254  0.680124  0.073463  1
  I  I17  1  0.321732  0.928575  0.778248  1
  I  I18  1  0.929396  0.781649  0.322789  1
  I  I19  1  0.773815  0.319936  0.927078  1
