# generated using pymatgen
data_Ho8ErSi4TcB16
_symmetry_space_group_name_H-M   'P 1'
_cell_length_a   7.13064700
_cell_length_b   7.13064700
_cell_length_c   7.80785000
_cell_angle_alpha   90.00000000
_cell_angle_beta   90.00000000
_cell_angle_gamma   90.00000000
_symmetry_Int_Tables_number   1
_chemical_formula_structural   Ho8ErSi4TcB16
_chemical_formula_sum   'Ho8 Er1 Si4 Tc1 B16'
_cell_volume   396.99892988
_cell_formula_units_Z   1
loop_
 _symmetry_equiv_pos_site_id
 _symmetry_equiv_pos_as_xyz
  1  'x, y, z'
loop_
 _atom_site_type_symbol
 _atom_site_label
 _atom_site_symmetry_multiplicity
 _atom_site_fract_x
 _atom_site_fract_y
 _atom_site_fract_z
 _atom_site_occupancy
  Ho  Ho0  1  0.682408  0.178836  0.231831  1
  Ho  Ho1  1  0.317592  0.821164  0.768169  1
  Ho  Ho2  1  0.317592  0.821164  0.231831  1
  Ho  Ho3  1  0.821164  0.682408  0.231831  1
  Ho  Ho4  1  0.821164  0.682408  0.768169  1
  Ho  Ho5  1  0.682408  0.178836  0.768169  1
  Ho  Ho6  1  0.178836  0.317592  0.768169  1
  Ho  Ho7  1  0.178836  0.317592  0.231831  1
  Er  Er8  1  0.500000  0.500000  0.500000  1
  Si  Si9  1  0.107061  0.633908  0.500000  1
  Si  Si10  1  0.892939  0.366092  0.500000  1
  Si  Si11  1  0.366092  0.107061  0.500000  1
  Si  Si12  1  0.633908  0.892939  0.500000  1
  Tc  Tc13  1  0.000000  0.000000  0.500000  1
  B  B14  1  0.172891  0.039451  0.000000  1
  B  B15  1  0.827109  0.960549  0.000000  1
  B  B16  1  0.960549  0.172891  0.000000  1
  B  B17  1  0.327853  0.539686  0.000000  1
  B  B18  1  0.039451  0.827109  0.000000  1
  B  B19  1  0.672147  0.460314  0.000000  1
  B  B20  1  0.539686  0.672147  0.000000  1
  B  B21  1  0.460314  0.327853  0.000000  1
  B  B22  1  0.090133  0.589286  0.000000  1
  B  B23  1  0.909867  0.410714  0.000000  1
  B  B24  1  0.410714  0.090133  0.000000  1
  B  B25  1  0.589286  0.909867  0.000000  1
  B  B26  1  0.000000  0.000000  0.170867  1
  B  B27  1  0.000000  0.000000  0.829133  1
  B  B28  1  0.500000  0.500000  0.833388  1
  B  B29  1  0.500000  0.500000  0.166612  1
