# generated using pymatgen
data_CaHoOsC2
_symmetry_space_group_name_H-M   'P 1'
_cell_length_a   5.13563500
_cell_length_b   6.45360600
_cell_length_c   10.07147100
_cell_angle_alpha   90.00000000
_cell_angle_beta   90.00000000
_cell_angle_gamma   90.00000000
_symmetry_Int_Tables_number   1
_chemical_formula_structural   CaHoOsC2
_chemical_formula_sum   'Ca4 Ho4 Os4 C8'
_cell_volume   333.80243793
_cell_formula_units_Z   4
loop_
 _symmetry_equiv_pos_site_id
 _symmetry_equiv_pos_as_xyz
  1  'x, y, z'
loop_
 _atom_site_type_symbol
 _atom_site_label
 _atom_site_symmetry_multiplicity
 _atom_site_fract_x
 _atom_site_fract_y
 _atom_site_fract_z
 _atom_site_occupancy
  Ca  Ca0  1  0.250000  0.531303  0.218803  1
  Ca  Ca1  1  0.750000  0.468697  0.781197  1
  Ca  Ca2  1  0.750000  0.968697  0.718803  1
  Ca  Ca3  1  0.250000  0.031303  0.281197  1
  Ho  Ho4  1  0.250000  0.682374  0.559560  1
  Ho  Ho5  1  0.750000  0.317626  0.440440  1
  Ho  Ho6  1  0.750000  0.817626  0.059560  1
  Ho  Ho7  1  0.250000  0.182374  0.940440  1
  Os  Os8  1  0.250000  0.724621  0.860392  1
  Os  Os9  1  0.750000  0.275379  0.139608  1
  Os  Os10  1  0.750000  0.775379  0.360392  1
  Os  Os11  1  0.250000  0.224621  0.639608  1
  C  C12  1  0.250000  0.460805  0.758391  1
  C  C13  1  0.750000  0.539195  0.241609  1
  C  C14  1  0.750000  0.039195  0.258391  1
  C  C15  1  0.250000  0.960805  0.741609  1
  C  C16  1  0.250000  0.819429  0.037778  1
  C  C17  1  0.750000  0.180571  0.962222  1
  C  C18  1  0.750000  0.680571  0.537778  1
  C  C19  1  0.250000  0.319429  0.462222  1
