# generated using pymatgen
data_Nb3ZnAuN
_symmetry_space_group_name_H-M   'P 1'
_cell_length_a   7.09828500
_cell_length_b   7.09828500
_cell_length_c   7.09828500
_cell_angle_alpha   90.00000000
_cell_angle_beta   90.00000000
_cell_angle_gamma   90.00000000
_symmetry_Int_Tables_number   1
_chemical_formula_structural   Nb3ZnAuN
_chemical_formula_sum   'Nb12 Zn4 Au4 N4'
_cell_volume   357.65170319
_cell_formula_units_Z   4
loop_
 _symmetry_equiv_pos_site_id
 _symmetry_equiv_pos_as_xyz
  1  'x, y, z'
loop_
 _atom_site_type_symbol
 _atom_site_label
 _atom_site_symmetry_multiplicity
 _atom_site_fract_x
 _atom_site_fract_y
 _atom_site_fract_z
 _atom_site_occupancy
  Nb  Nb0  1  0.793355  0.961206  0.373905  1
  Nb  Nb1  1  0.706645  0.038794  0.873905  1
  Nb  Nb2  1  0.206645  0.461206  0.126095  1
  Nb  Nb3  1  0.293355  0.538794  0.626095  1
  Nb  Nb4  1  0.961206  0.373905  0.793355  1
  Nb  Nb5  1  0.038794  0.873905  0.706645  1
  Nb  Nb6  1  0.461206  0.126095  0.206645  1
  Nb  Nb7  1  0.538794  0.626095  0.293355  1
  Nb  Nb8  1  0.373905  0.793355  0.961206  1
  Nb  Nb9  1  0.873905  0.706645  0.038794  1
  Nb  Nb10  1  0.126095  0.206645  0.461206  1
  Nb  Nb11  1  0.626095  0.293355  0.538794  1
  Zn  Zn12  1  0.180651  0.819349  0.319349  1
  Zn  Zn13  1  0.319349  0.180651  0.819349  1
  Zn  Zn14  1  0.819349  0.319349  0.180651  1
  Zn  Zn15  1  0.680651  0.680651  0.680651  1
  Au  Au16  1  0.570814  0.429186  0.929186  1
  Au  Au17  1  0.429186  0.929186  0.570814  1
  Au  Au18  1  0.929186  0.570814  0.429186  1
  Au  Au19  1  0.070814  0.070814  0.070814  1
  N  N20  1  0.874746  0.125254  0.625254  1
  N  N21  1  0.625254  0.874746  0.125254  1
  N  N22  1  0.125254  0.625254  0.874746  1
  N  N23  1  0.374746  0.374746  0.374746  1
