# generated using pymatgen
data_La4TlBi3(TeO6)4
_symmetry_space_group_name_H-M   'P 1'
_cell_length_a   5.53620085
_cell_length_b   9.45177465
_cell_length_c   10.39613351
_cell_angle_alpha   90.03841055
_cell_angle_beta   89.65710706
_cell_angle_gamma   90.01262293
_symmetry_Int_Tables_number   1
_chemical_formula_structural   La4TlBi3(TeO6)4
_chemical_formula_sum   'La4 Tl1 Bi3 Te4 O24'
_cell_volume   543.98779927
_cell_formula_units_Z   1
loop_
 _symmetry_equiv_pos_site_id
 _symmetry_equiv_pos_as_xyz
  1  'x, y, z'
loop_
 _atom_site_type_symbol
 _atom_site_label
 _atom_site_symmetry_multiplicity
 _atom_site_fract_x
 _atom_site_fract_y
 _atom_site_fract_z
 _atom_site_occupancy
  La  La0  1  0.521010  0.219819  0.358325  1
  La  La1  1  0.021323  0.281258  0.642300  1
  La  La2  1  0.474541  0.717613  0.141465  1
  La  La3  1  0.980183  0.783718  0.855813  1
  Tl  Tl4  1  0.989626  0.889057  0.443838  1
  Bi  Bi5  1  0.515990  0.103171  0.952124  1
  Bi  Bi6  1  0.015827  0.395984  0.049442  1
  Bi  Bi7  1  0.482060  0.612859  0.552984  1
  Te  Te8  1  0.468253  0.993283  0.641586  1
  Te  Te9  1  0.958979  0.507502  0.358720  1
  Te  Te10  1  0.536959  0.494664  0.857882  1
  Te  Te11  1  0.032132  0.006279  0.143399  1
  O  O12  1  0.292993  0.140225  0.177241  1
  O  O13  1  0.795880  0.359746  0.822623  1
  O  O14  1  0.699131  0.639009  0.320557  1
  O  O15  1  0.244440  0.838263  0.674291  1
  O  O16  1  0.681563  0.136846  0.569288  1
  O  O17  1  0.206676  0.384372  0.435594  1
  O  O18  1  0.286277  0.617237  0.933286  1
  O  O19  1  0.783952  0.884550  0.064886  1
  O  O20  1  0.685979  0.635847  0.745656  1
  O  O21  1  0.180558  0.863493  0.253352  1
  O  O22  1  0.295787  0.121438  0.756722  1
  O  O23  1  0.817132  0.363932  0.246869  1
  O  O24  1  0.684276  0.961336  0.786277  1
  O  O25  1  0.166732  0.547339  0.211488  1
  O  O26  1  0.334203  0.452315  0.710418  1
  O  O27  1  0.826424  0.047986  0.289914  1
  O  O28  1  0.243518  0.062365  0.505265  1
  O  O29  1  0.751260  0.427247  0.495945  1
  O  O30  1  0.744910  0.580286  0.992199  1
  O  O31  1  0.242679  0.919867  0.007612  1
  O  O32  1  0.086453  0.656789  0.470534  1
  O  O33  1  0.634777  0.853554  0.531264  1
  O  O34  1  0.907585  0.152880  0.030018  1
  O  O35  1  0.409933  0.347873  0.970823  1
