# generated using pymatgen
data_Li2ThBr6
_symmetry_space_group_name_H-M   'P 1'
_cell_length_a   7.05529600
_cell_length_b   7.05529674
_cell_length_c   13.55885100
_cell_angle_alpha   90.00000000
_cell_angle_beta   90.00000000
_cell_angle_gamma   119.99998715
_symmetry_Int_Tables_number   1
_chemical_formula_structural   Li2ThBr6
_chemical_formula_sum   'Li4 Th2 Br12'
_cell_volume   584.49944048
_cell_formula_units_Z   2
loop_
 _symmetry_equiv_pos_site_id
 _symmetry_equiv_pos_as_xyz
  1  'x, y, z'
loop_
 _atom_site_type_symbol
 _atom_site_label
 _atom_site_symmetry_multiplicity
 _atom_site_fract_x
 _atom_site_fract_y
 _atom_site_fract_z
 _atom_site_occupancy
  Li  Li0  1  0.000000  0.000000  0.750000  1
  Li  Li1  1  0.666667  0.333333  0.750000  1
  Li  Li2  1  0.333333  0.666667  0.250000  1
  Li  Li3  1  0.000000  0.000000  0.250000  1
  Th  Th4  1  0.333333  0.666667  0.750000  1
  Th  Th5  1  0.666667  0.333333  0.250000  1
  Br  Br6  1  0.994727  0.327749  0.635098  1
  Br  Br7  1  0.333023  0.005273  0.635098  1
  Br  Br8  1  0.672251  0.666977  0.635098  1
  Br  Br9  1  0.672251  0.005273  0.864902  1
  Br  Br10  1  0.333023  0.327749  0.864902  1
  Br  Br11  1  0.994727  0.666977  0.864902  1
  Br  Br12  1  0.005273  0.333023  0.135098  1
  Br  Br13  1  0.327749  0.994727  0.135098  1
  Br  Br14  1  0.666977  0.672251  0.135098  1
  Br  Br15  1  0.666977  0.994727  0.364902  1
  Br  Br16  1  0.327749  0.333023  0.364902  1
  Br  Br17  1  0.005273  0.672251  0.364902  1
