# generated using pymatgen
data_Ti6AlGaO2
_symmetry_space_group_name_H-M   'P 1'
_cell_length_a   5.53974118
_cell_length_b   5.53974278
_cell_length_c   8.37473500
_cell_angle_alpha   90.00000000
_cell_angle_beta   90.00000000
_cell_angle_gamma   147.59030417
_symmetry_Int_Tables_number   1
_chemical_formula_structural   Ti6AlGaO2
_chemical_formula_sum   'Ti6 Al1 Ga1 O2'
_cell_volume   137.74960454
_cell_formula_units_Z   1
loop_
 _symmetry_equiv_pos_site_id
 _symmetry_equiv_pos_as_xyz
  1  'x, y, z'
loop_
 _atom_site_type_symbol
 _atom_site_label
 _atom_site_symmetry_multiplicity
 _atom_site_fract_x
 _atom_site_fract_y
 _atom_site_fract_z
 _atom_site_occupancy
  Ti  Ti0  1  0.130758  0.869245  0.037239  1
  Ti  Ti1  1  0.462026  0.537976  0.250000  1
  Ti  Ti2  1  0.130758  0.869245  0.462762  1
  Ti  Ti3  1  0.869700  0.130303  0.534419  1
  Ti  Ti4  1  0.535318  0.464684  0.750000  1
  Ti  Ti5  1  0.869700  0.130303  0.965580  1
  Al  Al6  1  0.246895  0.753107  0.750000  1
  Ga  Ga7  1  0.753770  0.246232  0.250000  1
  O  O8  1  0.500544  0.499458  0.001566  1
  O  O9  1  0.500544  0.499458  0.498433  1
