# generated using pymatgen
data_Hf2ZrTi2Sn3
_symmetry_space_group_name_H-M   'P 1'
_cell_length_a   8.31262671
_cell_length_b   8.32622307
_cell_length_c   5.56473800
_cell_angle_alpha   90.00000000
_cell_angle_beta   90.00000000
_cell_angle_gamma   120.05411663
_symmetry_Int_Tables_number   1
_chemical_formula_structural   Hf2ZrTi2Sn3
_chemical_formula_sum   'Hf4 Zr2 Ti4 Sn6'
_cell_volume   333.36852051
_cell_formula_units_Z   2
loop_
 _symmetry_equiv_pos_site_id
 _symmetry_equiv_pos_as_xyz
  1  'x, y, z'
loop_
 _atom_site_type_symbol
 _atom_site_label
 _atom_site_symmetry_multiplicity
 _atom_site_fract_x
 _atom_site_fract_y
 _atom_site_fract_z
 _atom_site_occupancy
  Hf  Hf0  1  0.000000  0.240441  0.750000  1
  Hf  Hf1  1  0.238229  0.238988  0.250000  1
  Hf  Hf2  1  0.761771  0.000758  0.250000  1
  Hf  Hf3  1  0.000000  0.759705  0.250000  1
  Zr  Zr4  1  0.760475  0.760610  0.750000  1
  Zr  Zr5  1  0.239525  0.000135  0.750000  1
  Ti  Ti6  1  0.666726  0.333357  0.000267  1
  Ti  Ti7  1  0.333274  0.666632  0.000267  1
  Ti  Ti8  1  0.333274  0.666632  0.499733  1
  Ti  Ti9  1  0.666726  0.333357  0.499733  1
  Sn  Sn10  1  0.399885  0.400341  0.750000  1
  Sn  Sn11  1  0.600115  0.000456  0.750000  1
  Sn  Sn12  1  0.000000  0.598727  0.750000  1
  Sn  Sn13  1  0.599481  0.599468  0.250000  1
  Sn  Sn14  1  0.400519  0.999987  0.250000  1
  Sn  Sn15  1  0.000000  0.400406  0.250000  1
