# generated using pymatgen
data_CeNdInPt2
_symmetry_space_group_name_H-M   'P 1'
_cell_length_a   7.88867700
_cell_length_b   7.91333100
_cell_length_c   3.81342700
_cell_angle_alpha   90.00000000
_cell_angle_beta   90.00000000
_cell_angle_gamma   90.00000000
_symmetry_Int_Tables_number   1
_chemical_formula_structural   CeNdInPt2
_chemical_formula_sum   'Ce2 Nd2 In2 Pt4'
_cell_volume   238.05589660
_cell_formula_units_Z   2
loop_
 _symmetry_equiv_pos_site_id
 _symmetry_equiv_pos_as_xyz
  1  'x, y, z'
loop_
 _atom_site_type_symbol
 _atom_site_label
 _atom_site_symmetry_multiplicity
 _atom_site_fract_x
 _atom_site_fract_y
 _atom_site_fract_z
 _atom_site_occupancy
  Ce  Ce0  1  0.329879  0.171716  0.500000  1
  Ce  Ce1  1  0.170121  0.671716  0.500000  1
  Nd  Nd2  1  0.672150  0.827948  0.500000  1
  Nd  Nd3  1  0.827850  0.327948  0.500000  1
  In  In4  1  0.499055  0.501047  0.000000  1
  In  In5  1  0.000945  0.001047  0.000000  1
  Pt  Pt6  1  0.617404  0.129690  0.000000  1
  Pt  Pt7  1  0.882596  0.629690  0.000000  1
  Pt  Pt8  1  0.141910  0.369599  0.000000  1
  Pt  Pt9  1  0.358090  0.869599  0.000000  1
