# generated using pymatgen
data_Ce3Ho(MoN2)4
_symmetry_space_group_name_H-M   'P 1'
_cell_length_a   3.25093800
_cell_length_b   5.71740208
_cell_length_c   10.84644857
_cell_angle_alpha   89.68965389
_cell_angle_beta   90.00000000
_cell_angle_gamma   90.00000000
_symmetry_Int_Tables_number   1
_chemical_formula_structural   Ce3Ho(MoN2)4
_chemical_formula_sum   'Ce3 Ho1 Mo4 N8'
_cell_volume   201.59911094
_cell_formula_units_Z   1
loop_
 _symmetry_equiv_pos_site_id
 _symmetry_equiv_pos_as_xyz
  1  'x, y, z'
loop_
 _atom_site_type_symbol
 _atom_site_label
 _atom_site_symmetry_multiplicity
 _atom_site_fract_x
 _atom_site_fract_y
 _atom_site_fract_z
 _atom_site_occupancy
  Ce  Ce0  1  0.250000  0.074044  0.855600  1
  Ce  Ce1  1  0.250000  0.573292  0.641792  1
  Ce  Ce2  1  0.750000  0.922705  0.148325  1
  Ho  Ho3  1  0.750000  0.424485  0.353470  1
  Mo  Mo4  1  0.250000  0.430309  0.100145  1
  Mo  Mo5  1  0.250000  0.936418  0.406486  1
  Mo  Mo6  1  0.750000  0.567367  0.901337  1
  Mo  Mo7  1  0.750000  0.068167  0.595095  1
  N  N8  1  0.250000  0.166604  0.249321  1
  N  N9  1  0.250000  0.665201  0.255836  1
  N  N10  1  0.750000  0.835133  0.751629  1
  N  N11  1  0.750000  0.333886  0.745023  1
  N  N12  1  0.250000  0.744694  0.994431  1
  N  N13  1  0.250000  0.255398  0.502925  1
  N  N14  1  0.750000  0.253039  0.007622  1
  N  N15  1  0.750000  0.749258  0.490961  1
