# generated using pymatgen
data_Ca2Ga2Ni3B2Rh3
_symmetry_space_group_name_H-M   'P 1'
_cell_length_a   5.26323180
_cell_length_b   5.39806846
_cell_length_c   6.82138400
_cell_angle_alpha   90.00000000
_cell_angle_beta   90.00000000
_cell_angle_gamma   117.21003430
_symmetry_Int_Tables_number   1
_chemical_formula_structural   Ca2Ga2Ni3B2Rh3
_chemical_formula_sum   'Ca2 Ga2 Ni3 B2 Rh3'
_cell_volume   172.35719084
_cell_formula_units_Z   1
loop_
 _symmetry_equiv_pos_site_id
 _symmetry_equiv_pos_as_xyz
  1  'x, y, z'
loop_
 _atom_site_type_symbol
 _atom_site_label
 _atom_site_symmetry_multiplicity
 _atom_site_fract_x
 _atom_site_fract_y
 _atom_site_fract_z
 _atom_site_occupancy
  Ca  Ca0  1  0.000000  0.000000  0.508271  1
  Ca  Ca1  1  0.000000  0.000000  0.003102  1
  Ga  Ga2  1  0.332510  0.649298  0.495253  1
  Ga  Ga3  1  0.667490  0.350702  0.495253  1
  Ni  Ni4  1  0.500000  0.500000  0.803835  1
  Ni  Ni5  1  0.000000  0.500000  0.200812  1
  Ni  Ni6  1  0.500000  0.500000  0.195768  1
  B  B7  1  0.664860  0.328268  0.001743  1
  B  B8  1  0.335140  0.671732  0.001743  1
  Rh  Rh9  1  0.000000  0.500000  0.794496  1
  Rh  Rh10  1  0.500000  0.000000  0.786777  1
  Rh  Rh11  1  0.500000  0.000000  0.212947  1
