# generated using pymatgen
data_Sb6IrPt
_symmetry_space_group_name_H-M   'P 1'
_cell_length_a   8.23564492
_cell_length_b   8.23564506
_cell_length_c   8.19801453
_cell_angle_alpha   109.34727942
_cell_angle_beta   109.37176580
_cell_angle_gamma   109.87930537
_symmetry_Int_Tables_number   1
_chemical_formula_structural   Sb6IrPt
_chemical_formula_sum   'Sb12 Ir2 Pt2'
_cell_volume   427.05048394
_cell_formula_units_Z   2
loop_
 _symmetry_equiv_pos_site_id
 _symmetry_equiv_pos_as_xyz
  1  'x, y, z'
loop_
 _atom_site_type_symbol
 _atom_site_label
 _atom_site_symmetry_multiplicity
 _atom_site_fract_x
 _atom_site_fract_y
 _atom_site_fract_z
 _atom_site_occupancy
  Sb  Sb0  1  0.846652  0.655885  0.502537  1
  Sb  Sb1  1  0.845543  0.339454  0.184999  1
  Sb  Sb2  1  0.154457  0.660546  0.815001  1
  Sb  Sb3  1  0.338160  0.495344  0.150712  1
  Sb  Sb4  1  0.153348  0.344115  0.497463  1
  Sb  Sb5  1  0.655369  0.812551  0.150712  1
  Sb  Sb6  1  0.187540  0.843475  0.339399  1
  Sb  Sb7  1  0.661840  0.504656  0.849288  1
  Sb  Sb8  1  0.812460  0.156525  0.660601  1
  Sb  Sb9  1  0.344631  0.187449  0.849288  1
  Sb  Sb10  1  0.504077  0.848140  0.660601  1
  Sb  Sb11  1  0.495923  0.151860  0.339399  1
  Ir  Ir12  1  0.000000  0.500000  0.000000  1
  Ir  Ir13  1  0.500000  0.000000  0.000000  1
  Pt  Pt14  1  0.000000  0.000000  0.500000  1
  Pt  Pt15  1  0.500000  0.500000  0.500000  1
