# generated using pymatgen
data_Tb3YGa18Ir5Pt
_symmetry_space_group_name_H-M   'P 1'
_cell_length_a   7.61235556
_cell_length_b   7.61234284
_cell_length_c   9.50419000
_cell_angle_alpha   89.97831779
_cell_angle_beta   89.97829334
_cell_angle_gamma   119.93636624
_symmetry_Int_Tables_number   1
_chemical_formula_structural   Tb3YGa18Ir5Pt
_chemical_formula_sum   'Tb3 Y1 Ga18 Ir5 Pt1'
_cell_volume   477.26670856
_cell_formula_units_Z   1
loop_
 _symmetry_equiv_pos_site_id
 _symmetry_equiv_pos_as_xyz
  1  'x, y, z'
loop_
 _atom_site_type_symbol
 _atom_site_label
 _atom_site_symmetry_multiplicity
 _atom_site_fract_x
 _atom_site_fract_y
 _atom_site_fract_z
 _atom_site_occupancy
  Tb  Tb0  1  0.996100  0.668449  0.250875  1
  Tb  Tb1  1  0.003356  0.331224  0.749176  1
  Tb  Tb2  1  0.668779  0.996647  0.250823  1
  Y  Y3  1  0.331547  0.003899  0.749123  1
  Ga  Ga4  1  0.127880  0.127027  0.250427  1
  Ga  Ga5  1  0.872975  0.872127  0.749573  1
  Ga  Ga6  1  0.002221  0.334187  0.081636  1
  Ga  Ga7  1  0.004158  0.668881  0.918543  1
  Ga  Ga8  1  0.001515  0.665830  0.579603  1
  Ga  Ga9  1  0.334174  0.998486  0.420392  1
  Ga  Ga10  1  0.998725  0.333957  0.419966  1
  Ga  Ga11  1  0.666040  0.001276  0.580028  1
  Ga  Ga12  1  0.665810  0.997777  0.918371  1
  Ga  Ga13  1  0.331124  0.995845  0.081461  1
  Ga  Ga14  1  0.331989  0.332048  0.564024  1
  Ga  Ga15  1  0.667949  0.668013  0.435972  1
  Ga  Ga16  1  0.667397  0.670484  0.066697  1
  Ga  Ga17  1  0.329516  0.332600  0.933309  1
  Ga  Ga18  1  0.340248  0.547105  0.250612  1
  Ga  Ga19  1  0.660140  0.455504  0.747598  1
  Ga  Ga20  1  0.544497  0.339869  0.252401  1
  Ga  Ga21  1  0.452889  0.659745  0.749387  1
  Ir  Ir22  1  0.329049  0.670947  0.999998  1
  Ir  Ir23  1  0.328629  0.671365  0.500001  1
  Ir  Ir24  1  0.671757  0.328244  0.500004  1
  Ir  Ir25  1  0.000177  0.999822  0.999996  1
  Ir  Ir26  1  0.999978  0.000020  0.500003  1
  Pt  Pt27  1  0.671377  0.328623  0.999998  1
