# generated using pymatgen
data_Sc2SnB2RuRh4
_symmetry_space_group_name_H-M   'P 1'
_cell_length_a   9.48692400
_cell_length_b   9.48692400
_cell_length_c   3.13332800
_cell_angle_alpha   90.00000000
_cell_angle_beta   90.00000000
_cell_angle_gamma   90.00000000
_symmetry_Int_Tables_number   1
_chemical_formula_structural   Sc2SnB2RuRh4
_chemical_formula_sum   'Sc4 Sn2 B4 Ru2 Rh8'
_cell_volume   282.00493120
_cell_formula_units_Z   2
loop_
 _symmetry_equiv_pos_site_id
 _symmetry_equiv_pos_as_xyz
  1  'x, y, z'
loop_
 _atom_site_type_symbol
 _atom_site_label
 _atom_site_symmetry_multiplicity
 _atom_site_fract_x
 _atom_site_fract_y
 _atom_site_fract_z
 _atom_site_occupancy
  Sc  Sc0  1  0.672583  0.172583  0.000000  1
  Sc  Sc1  1  0.327417  0.827417  0.000000  1
  Sc  Sc2  1  0.172583  0.327417  0.000000  1
  Sc  Sc3  1  0.827417  0.672583  0.000000  1
  Sn  Sn4  1  0.500000  0.500000  0.000000  1
  Sn  Sn5  1  0.000000  0.000000  0.000000  1
  B  B6  1  0.121073  0.621073  0.000000  1
  B  B7  1  0.878927  0.378927  0.000000  1
  B  B8  1  0.621073  0.878927  0.000000  1
  B  B9  1  0.378927  0.121073  0.000000  1
  Ru  Ru10  1  0.500000  0.000000  0.500000  1
  Ru  Ru11  1  0.000000  0.500000  0.500000  1
  Rh  Rh12  1  0.573872  0.721496  0.500000  1
  Rh  Rh13  1  0.426128  0.278504  0.500000  1
  Rh  Rh14  1  0.073872  0.778504  0.500000  1
  Rh  Rh15  1  0.926128  0.221496  0.500000  1
  Rh  Rh16  1  0.278504  0.573872  0.500000  1
  Rh  Rh17  1  0.721496  0.426128  0.500000  1
  Rh  Rh18  1  0.221496  0.073872  0.500000  1
  Rh  Rh19  1  0.778504  0.926128  0.500000  1
