# generated using pymatgen
data_ScVFe4P3
_symmetry_space_group_name_H-M   'P 1'
_cell_length_a   3.59227400
_cell_length_b   10.30171200
_cell_length_c   11.79258700
_cell_angle_alpha   90.00000000
_cell_angle_beta   90.00000000
_cell_angle_gamma   90.00000000
_symmetry_Int_Tables_number   1
_chemical_formula_structural   ScVFe4P3
_chemical_formula_sum   'Sc4 V4 Fe16 P12'
_cell_volume   436.40322192
_cell_formula_units_Z   4
loop_
 _symmetry_equiv_pos_site_id
 _symmetry_equiv_pos_as_xyz
  1  'x, y, z'
loop_
 _atom_site_type_symbol
 _atom_site_label
 _atom_site_symmetry_multiplicity
 _atom_site_fract_x
 _atom_site_fract_y
 _atom_site_fract_z
 _atom_site_occupancy
  Sc  Sc0  1  0.250000  0.579678  0.705470  1
  Sc  Sc1  1  0.250000  0.920322  0.205470  1
  Sc  Sc2  1  0.750000  0.420322  0.294530  1
  Sc  Sc3  1  0.750000  0.079678  0.794530  1
  V  V4  1  0.250000  0.700955  0.989526  1
  V  V5  1  0.250000  0.799045  0.489526  1
  V  V6  1  0.750000  0.299045  0.010474  1
  V  V7  1  0.750000  0.200955  0.510474  1
  Fe  Fe8  1  0.250000  0.406097  0.490146  1
  Fe  Fe9  1  0.250000  0.093903  0.990146  1
  Fe  Fe10  1  0.750000  0.593903  0.509854  1
  Fe  Fe11  1  0.750000  0.906097  0.009854  1
  Fe  Fe12  1  0.250000  0.218442  0.177356  1
  Fe  Fe13  1  0.250000  0.281559  0.677356  1
  Fe  Fe14  1  0.750000  0.781559  0.822644  1
  Fe  Fe15  1  0.750000  0.718441  0.322644  1
  Fe  Fe16  1  0.250000  0.875218  0.702042  1
  Fe  Fe17  1  0.250000  0.624782  0.202042  1
  Fe  Fe18  1  0.750000  0.124782  0.297958  1
  Fe  Fe19  1  0.750000  0.375218  0.797958  1
  Fe  Fe20  1  0.250000  0.462196  0.931638  1
  Fe  Fe21  1  0.250000  0.037804  0.431638  1
  Fe  Fe22  1  0.750000  0.537804  0.068362  1
  Fe  Fe23  1  0.750000  0.962196  0.568362  1
  P  P24  1  0.250000  0.424807  0.116878  1
  P  P25  1  0.250000  0.075193  0.616878  1
  P  P26  1  0.750000  0.575193  0.883122  1
  P  P27  1  0.750000  0.924807  0.383122  1
  P  P28  1  0.250000  0.258829  0.868934  1
  P  P29  1  0.250000  0.241171  0.368934  1
  P  P30  1  0.750000  0.741171  0.131066  1
  P  P31  1  0.750000  0.758829  0.631066  1
  P  P32  1  0.250000  0.590904  0.392431  1
  P  P33  1  0.250000  0.909096  0.892431  1
  P  P34  1  0.750000  0.409096  0.607569  1
  P  P35  1  0.750000  0.090904  0.107569  1
