# generated using pymatgen
data_Dy16Cd3Co4Ag
_symmetry_space_group_name_H-M   'P 1'
_cell_length_a   9.47079469
_cell_length_b   9.49035849
_cell_length_c   9.47079600
_cell_angle_alpha   60.06817088
_cell_angle_beta   60.00000243
_cell_angle_gamma   60.06817008
_symmetry_Int_Tables_number   1
_chemical_formula_structural   Dy16Cd3Co4Ag
_chemical_formula_sum   'Dy16 Cd3 Co4 Ag1'
_cell_volume   602.54191049
_cell_formula_units_Z   1
loop_
 _symmetry_equiv_pos_site_id
 _symmetry_equiv_pos_as_xyz
  1  'x, y, z'
loop_
 _atom_site_type_symbol
 _atom_site_label
 _atom_site_symmetry_multiplicity
 _atom_site_fract_x
 _atom_site_fract_y
 _atom_site_fract_z
 _atom_site_occupancy
  Dy  Dy0  1  0.153391  0.539826  0.153391  1
  Dy  Dy1  1  0.687499  0.312521  0.687499  1
  Dy  Dy2  1  0.687499  0.312521  0.312480  1
  Dy  Dy3  1  0.937515  0.559758  0.565212  1
  Dy  Dy4  1  0.540501  0.152756  0.153371  1
  Dy  Dy5  1  0.153371  0.152756  0.540501  1
  Dy  Dy6  1  0.937526  0.936020  0.563227  1
  Dy  Dy7  1  0.312075  0.688087  0.312075  1
  Dy  Dy8  1  0.563227  0.936020  0.937526  1
  Dy  Dy9  1  0.563227  0.936020  0.563227  1
  Dy  Dy10  1  0.687762  0.688087  0.312075  1
  Dy  Dy11  1  0.565212  0.559758  0.937515  1
  Dy  Dy12  1  0.937515  0.559758  0.937515  1
  Dy  Dy13  1  0.312075  0.688087  0.687762  1
  Dy  Dy14  1  0.153371  0.152756  0.153371  1
  Dy  Dy15  1  0.312480  0.312521  0.687499  1
  Cd  Cd16  1  0.919453  0.921911  0.919453  1
  Cd  Cd17  1  0.919453  0.921911  0.239183  1
  Cd  Cd18  1  0.239183  0.921911  0.919453  1
  Co  Co19  1  0.358788  0.359205  0.923220  1
  Co  Co20  1  0.359125  0.922626  0.359125  1
  Co  Co21  1  0.923220  0.359205  0.358788  1
  Co  Co22  1  0.358788  0.359205  0.358788  1
  Ag  Ag23  1  0.917742  0.246774  0.917742  1
