# generated using pymatgen
data_TbDy3ScBi3
_symmetry_space_group_name_H-M   'P 1'
_cell_length_a   8.12891900
_cell_length_b   9.45781400
_cell_length_c   11.98780700
_cell_angle_alpha   90.00000000
_cell_angle_beta   90.00000000
_cell_angle_gamma   90.00000000
_symmetry_Int_Tables_number   1
_chemical_formula_structural   TbDy3ScBi3
_chemical_formula_sum   'Tb4 Dy12 Sc4 Bi12'
_cell_volume   921.64422724
_cell_formula_units_Z   4
loop_
 _symmetry_equiv_pos_site_id
 _symmetry_equiv_pos_as_xyz
  1  'x, y, z'
loop_
 _atom_site_type_symbol
 _atom_site_label
 _atom_site_symmetry_multiplicity
 _atom_site_fract_x
 _atom_site_fract_y
 _atom_site_fract_z
 _atom_site_occupancy
  Tb  Tb0  1  0.316504  0.250000  0.219320  1
  Tb  Tb1  1  0.816504  0.250000  0.280680  1
  Tb  Tb2  1  0.683496  0.750000  0.780680  1
  Tb  Tb3  1  0.183496  0.750000  0.719320  1
  Dy  Dy4  1  0.352827  0.750000  0.216594  1
  Dy  Dy5  1  0.852827  0.750000  0.283406  1
  Dy  Dy6  1  0.647173  0.250000  0.783406  1
  Dy  Dy7  1  0.147173  0.250000  0.716594  1
  Dy  Dy8  1  0.694287  0.564421  0.059112  1
  Dy  Dy9  1  0.194287  0.935579  0.440888  1
  Dy  Dy10  1  0.305713  0.064421  0.940888  1
  Dy  Dy11  1  0.805713  0.435579  0.559112  1
  Dy  Dy12  1  0.305713  0.435579  0.940888  1
  Dy  Dy13  1  0.805713  0.064421  0.559112  1
  Dy  Dy14  1  0.694287  0.935579  0.059112  1
  Dy  Dy15  1  0.194287  0.564421  0.440888  1
  Sc  Sc16  1  0.477268  0.250000  0.487189  1
  Sc  Sc17  1  0.977268  0.250000  0.012811  1
  Sc  Sc18  1  0.522732  0.750000  0.512811  1
  Sc  Sc19  1  0.022732  0.750000  0.987189  1
  Bi  Bi20  1  0.400582  0.750000  0.958570  1
  Bi  Bi21  1  0.900582  0.750000  0.541430  1
  Bi  Bi22  1  0.599418  0.250000  0.041430  1
  Bi  Bi23  1  0.099418  0.250000  0.458570  1
  Bi  Bi24  1  0.565216  0.995871  0.331843  1
  Bi  Bi25  1  0.065216  0.504129  0.168157  1
  Bi  Bi26  1  0.434784  0.495871  0.668157  1
  Bi  Bi27  1  0.934784  0.004129  0.831843  1
  Bi  Bi28  1  0.434784  0.004129  0.668157  1
  Bi  Bi29  1  0.934784  0.495871  0.831843  1
  Bi  Bi30  1  0.565216  0.504129  0.331843  1
  Bi  Bi31  1  0.065216  0.995871  0.168157  1
