# generated using pymatgen
data_TbFe8Tc3Mo
_symmetry_space_group_name_H-M   'P 1'
_cell_length_a   4.75686220
_cell_length_b   6.54106390
_cell_length_c   6.54106275
_cell_angle_alpha   82.12811113
_cell_angle_beta   68.67760359
_cell_angle_gamma   68.67760686
_symmetry_Int_Tables_number   1
_chemical_formula_structural   TbFe8Tc3Mo
_chemical_formula_sum   'Tb1 Fe8 Tc3 Mo1'
_cell_volume   176.61287626
_cell_formula_units_Z   1
loop_
 _symmetry_equiv_pos_site_id
 _symmetry_equiv_pos_as_xyz
  1  'x, y, z'
loop_
 _atom_site_type_symbol
 _atom_site_label
 _atom_site_symmetry_multiplicity
 _atom_site_fract_x
 _atom_site_fract_y
 _atom_site_fract_z
 _atom_site_occupancy
  Tb  Tb0  1  0.000000  0.997512  0.002488  1
  Fe  Fe1  1  0.000266  0.999579  0.499947  1
  Fe  Fe2  1  0.500208  0.999579  0.499947  1
  Fe  Fe3  1  0.499792  0.500053  0.000421  1
  Fe  Fe4  1  0.999734  0.500053  0.000421  1
  Fe  Fe5  1  0.500000  0.782496  0.217504  1
  Fe  Fe6  1  0.500000  0.215592  0.784408  1
  Fe  Fe7  1  0.716677  0.783464  0.783181  1
  Fe  Fe8  1  0.283323  0.216819  0.216536  1
  Tc  Tc9  1  0.000000  0.642583  0.357417  1
  Tc  Tc10  1  0.639667  0.360958  0.359708  1
  Tc  Tc11  1  0.360333  0.640292  0.639042  1
  Mo  Mo12  1  0.000000  0.361020  0.638980  1
