# generated using pymatgen
data_Eu2I5
_symmetry_space_group_name_H-M   'P 1'
_cell_length_a   4.43458800
_cell_length_b   9.28242505
_cell_length_c   14.87287800
_cell_angle_alpha   85.96708293
_cell_angle_beta   90.00000000
_cell_angle_gamma   90.00000000
_symmetry_Int_Tables_number   1
_chemical_formula_structural   Eu2I5
_chemical_formula_sum   'Eu4 I10'
_cell_volume   610.70716433
_cell_formula_units_Z   2
loop_
 _symmetry_equiv_pos_site_id
 _symmetry_equiv_pos_as_xyz
  1  'x, y, z'
loop_
 _atom_site_type_symbol
 _atom_site_label
 _atom_site_symmetry_multiplicity
 _atom_site_fract_x
 _atom_site_fract_y
 _atom_site_fract_z
 _atom_site_occupancy
  Eu  Eu0  1  0.750000  0.089841  0.855801  1
  Eu  Eu1  1  0.250000  0.910159  0.144199  1
  Eu  Eu2  1  0.750000  0.570968  0.352502  1
  Eu  Eu3  1  0.250000  0.429032  0.647498  1
  I  I4  1  0.750000  0.635045  0.715779  1
  I  I5  1  0.250000  0.364955  0.284221  1
  I  I6  1  0.750000  0.145995  0.071869  1
  I  I7  1  0.250000  0.854005  0.928131  1
  I  I8  1  0.250000  0.690205  0.485207  1
  I  I9  1  0.750000  0.309795  0.514793  1
  I  I10  1  0.250000  0.071386  0.690699  1
  I  I11  1  0.750000  0.928614  0.309301  1
  I  I12  1  0.250000  0.346170  0.871220  1
  I  I13  1  0.750000  0.653830  0.128780  1
