# generated using pymatgen
data_Yb3Er2Lu3(B6Ru)4
_symmetry_space_group_name_H-M   'P 1'
_cell_length_a   3.61734800
_cell_length_b   9.08111643
_cell_length_c   11.46678701
_cell_angle_alpha   89.94833930
_cell_angle_beta   90.00000000
_cell_angle_gamma   90.00000000
_symmetry_Int_Tables_number   1
_chemical_formula_structural   Yb3Er2Lu3(B6Ru)4
_chemical_formula_sum   'Yb3 Er2 Lu3 B24 Ru4'
_cell_volume   376.67873573
_cell_formula_units_Z   1
loop_
 _symmetry_equiv_pos_site_id
 _symmetry_equiv_pos_as_xyz
  1  'x, y, z'
loop_
 _atom_site_type_symbol
 _atom_site_label
 _atom_site_symmetry_multiplicity
 _atom_site_fract_x
 _atom_site_fract_y
 _atom_site_fract_z
 _atom_site_occupancy
  Yb  Yb0  1  0.000000  0.324677  0.414815  1
  Yb  Yb1  1  0.000000  0.675189  0.584834  1
  Yb  Yb2  1  0.000000  0.823055  0.085579  1
  Er  Er3  1  0.000000  0.176095  0.915168  1
  Er  Er4  1  0.000000  0.941435  0.367229  1
  Lu  Lu5  1  0.000000  0.058193  0.632159  1
  Lu  Lu6  1  0.000000  0.443084  0.132218  1
  Lu  Lu7  1  0.000000  0.558526  0.868213  1
  B  B8  1  0.500000  0.553078  0.432726  1
  B  B9  1  0.500000  0.445471  0.568238  1
  B  B10  1  0.500000  0.054554  0.066373  1
  B  B11  1  0.500000  0.945856  0.933012  1
  B  B12  1  0.500000  0.748317  0.417215  1
  B  B13  1  0.500000  0.250243  0.583067  1
  B  B14  1  0.500000  0.250492  0.081483  1
  B  B15  1  0.500000  0.750498  0.917741  1
  B  B16  1  0.500000  0.790420  0.263618  1
  B  B17  1  0.500000  0.208095  0.736773  1
  B  B18  1  0.500000  0.292027  0.234837  1
  B  B19  1  0.500000  0.709288  0.764626  1
  B  B20  1  0.500000  0.629890  0.184795  1
  B  B21  1  0.500000  0.369564  0.816182  1
  B  B22  1  0.500000  0.131363  0.313655  1
  B  B23  1  0.500000  0.869967  0.684802  1
  B  B24  1  0.500000  0.983374  0.210247  1
  B  B25  1  0.500000  0.017490  0.788574  1
  B  B26  1  0.500000  0.482771  0.288415  1
  B  B27  1  0.500000  0.516698  0.712218  1
  B  B28  1  0.500000  0.597559  0.026698  1
  B  B29  1  0.500000  0.401807  0.973005  1
  B  B30  1  0.500000  0.097017  0.474134  1
  B  B31  1  0.500000  0.903837  0.527120  1
  Ru  Ru32  1  0.000000  0.638272  0.319497  1
  Ru  Ru33  1  0.000000  0.359420  0.682150  1
  Ru  Ru34  1  0.000000  0.140070  0.178759  1
  Ru  Ru35  1  0.000000  0.862312  0.819824  1
