# generated using pymatgen
data_TbDy3Cd2Si3Ge
_symmetry_space_group_name_H-M   'P 1'
_cell_length_a   7.20524663
_cell_length_b   7.20528072
_cell_length_c   4.22023500
_cell_angle_alpha   90.00000000
_cell_angle_beta   90.00000000
_cell_angle_gamma   90.05437501
_symmetry_Int_Tables_number   1
_chemical_formula_structural   TbDy3Cd2Si3Ge
_chemical_formula_sum   'Tb1 Dy3 Cd2 Si3 Ge1'
_cell_volume   219.09688137
_cell_formula_units_Z   1
loop_
 _symmetry_equiv_pos_site_id
 _symmetry_equiv_pos_as_xyz
  1  'x, y, z'
loop_
 _atom_site_type_symbol
 _atom_site_label
 _atom_site_symmetry_multiplicity
 _atom_site_fract_x
 _atom_site_fract_y
 _atom_site_fract_z
 _atom_site_occupancy
  Tb  Tb0  1  0.680022  0.177693  0.500000  1
  Dy  Dy1  1  0.322166  0.819810  0.500000  1
  Dy  Dy2  1  0.176063  0.324015  0.500000  1
  Dy  Dy3  1  0.822698  0.677368  0.500000  1
  Cd  Cd4  1  0.501082  0.502973  0.000000  1
  Cd  Cd5  1  0.997350  0.998756  0.000000  1
  Si  Si6  1  0.117152  0.617270  0.000000  1
  Si  Si7  1  0.883125  0.383238  0.000000  1
  Si  Si8  1  0.619975  0.879638  0.000000  1
  Ge  Ge9  1  0.380371  0.119235  0.000000  1
