# generated using pymatgen
data_Al5V12Ga(CuN2)2
_symmetry_space_group_name_H-M   'P 1'
_cell_length_a   6.58837716
_cell_length_b   6.58504101
_cell_length_c   6.59714109
_cell_angle_alpha   90.10830067
_cell_angle_beta   90.06740130
_cell_angle_gamma   90.18834949
_symmetry_Int_Tables_number   1
_chemical_formula_structural   Al5V12Ga(CuN2)2
_chemical_formula_sum   'Al5 V12 Ga1 Cu2 N4'
_cell_volume   286.21295196
_cell_formula_units_Z   1
loop_
 _symmetry_equiv_pos_site_id
 _symmetry_equiv_pos_as_xyz
  1  'x, y, z'
loop_
 _atom_site_type_symbol
 _atom_site_label
 _atom_site_symmetry_multiplicity
 _atom_site_fract_x
 _atom_site_fract_y
 _atom_site_fract_z
 _atom_site_occupancy
  Al  Al0  1  0.823593  0.319670  0.176481  1
  Al  Al1  1  0.676582  0.679624  0.677066  1
  Al  Al2  1  0.560165  0.418512  0.924916  1
  Al  Al3  1  0.416542  0.935006  0.570440  1
  Al  Al4  1  0.939828  0.581103  0.424772  1
  V  V5  1  0.788444  0.959235  0.376916  1
  V  V6  1  0.711362  0.040604  0.874589  1
  V  V7  1  0.206047  0.459112  0.126679  1
  V  V8  1  0.294074  0.541297  0.627230  1
  V  V9  1  0.958628  0.379087  0.789608  1
  V  V10  1  0.039561  0.869708  0.710941  1
  V  V11  1  0.461124  0.129581  0.209815  1
  V  V12  1  0.540712  0.621974  0.289492  1
  V  V13  1  0.378432  0.789731  0.958157  1
  V  V14  1  0.871215  0.708385  0.041427  1
  V  V15  1  0.121479  0.210747  0.458303  1
  V  V16  1  0.628380  0.290935  0.539914  1
  Ga  Ga17  1  0.082058  0.064894  0.070707  1
  Cu  Cu18  1  0.182725  0.822837  0.320476  1
  Cu  Cu19  1  0.317820  0.176521  0.817763  1
  N  N20  1  0.878825  0.123633  0.627966  1
  N  N21  1  0.622648  0.877327  0.127318  1
  N  N22  1  0.126640  0.625375  0.880100  1
  N  N23  1  0.373114  0.375100  0.378922  1
