# generated using pymatgen
data_Pr2ThIn2GaRh3
_symmetry_space_group_name_H-M   'P 1'
_cell_length_a   7.62595414
_cell_length_b   7.73725805
_cell_length_c   3.99656300
_cell_angle_alpha   90.00000000
_cell_angle_beta   90.00000000
_cell_angle_gamma   120.80418467
_symmetry_Int_Tables_number   1
_chemical_formula_structural   Pr2ThIn2GaRh3
_chemical_formula_sum   'Pr2 Th1 In2 Ga1 Rh3'
_cell_volume   202.54517953
_cell_formula_units_Z   1
loop_
 _symmetry_equiv_pos_site_id
 _symmetry_equiv_pos_as_xyz
  1  'x, y, z'
loop_
 _atom_site_type_symbol
 _atom_site_label
 _atom_site_symmetry_multiplicity
 _atom_site_fract_x
 _atom_site_fract_y
 _atom_site_fract_z
 _atom_site_occupancy
  Pr  Pr0  1  0.426833  0.431934  0.500000  1
  Pr  Pr1  1  0.591048  0.992252  0.500000  1
  Th  Th2  1  0.995055  0.587649  0.500000  1
  In  In3  1  0.007195  0.239082  0.000000  1
  In  In4  1  0.259982  0.017500  0.000000  1
  Ga  Ga5  1  0.745109  0.746395  0.000000  1
  Rh  Rh6  1  0.308599  0.668248  0.000000  1
  Rh  Rh7  1  0.969973  0.954684  0.500000  1
  Rh  Rh8  1  0.696204  0.362258  0.000000  1
