# generated using pymatgen
data_Tm2Si2PtRh3
_symmetry_space_group_name_H-M   'P 1'
_cell_length_a   9.05440264
_cell_length_b   9.05440263
_cell_length_c   4.08948900
_cell_angle_alpha   90.00000000
_cell_angle_beta   90.00000000
_cell_angle_gamma   154.88379751
_symmetry_Int_Tables_number   1
_chemical_formula_structural   Tm2Si2PtRh3
_chemical_formula_sum   'Tm2 Si2 Pt1 Rh3'
_cell_volume   142.30521117
_cell_formula_units_Z   1
loop_
 _symmetry_equiv_pos_site_id
 _symmetry_equiv_pos_as_xyz
  1  'x, y, z'
loop_
 _atom_site_type_symbol
 _atom_site_label
 _atom_site_symmetry_multiplicity
 _atom_site_fract_x
 _atom_site_fract_y
 _atom_site_fract_z
 _atom_site_occupancy
  Tm  Tm0  1  0.099511  0.900489  0.750000  1
  Tm  Tm1  1  0.902245  0.097755  0.250000  1
  Si  Si2  1  0.323015  0.676985  0.750000  1
  Si  Si3  1  0.677833  0.322167  0.250000  1
  Pt  Pt4  1  0.546003  0.453997  0.250000  1
  Rh  Rh5  1  0.452462  0.547538  0.750000  1
  Rh  Rh6  1  0.250547  0.749453  0.250000  1
  Rh  Rh7  1  0.748384  0.251616  0.750000  1
