# generated using pymatgen
data_Er2Ta3Si4
_symmetry_space_group_name_H-M   'P 1'
_cell_length_a   7.01621519
_cell_length_b   7.01615673
_cell_length_c   12.93832088
_cell_angle_alpha   89.99797029
_cell_angle_beta   90.00503284
_cell_angle_gamma   90.02363577
_symmetry_Int_Tables_number   1
_chemical_formula_structural   Er2Ta3Si4
_chemical_formula_sum   'Er8 Ta12 Si16'
_cell_volume   636.91292368
_cell_formula_units_Z   4
loop_
 _symmetry_equiv_pos_site_id
 _symmetry_equiv_pos_as_xyz
  1  'x, y, z'
loop_
 _atom_site_type_symbol
 _atom_site_label
 _atom_site_symmetry_multiplicity
 _atom_site_fract_x
 _atom_site_fract_y
 _atom_site_fract_z
 _atom_site_occupancy
  Er  Er0  1  0.342593  0.002090  0.468361  1
  Er  Er1  1  0.497985  0.842089  0.718111  1
  Er  Er2  1  0.501953  0.158089  0.218304  1
  Er  Er3  1  0.842053  0.498033  0.281910  1
  Er  Er4  1  0.157794  0.501826  0.781736  1
  Er  Er5  1  0.658055  0.998029  0.968141  1
  Er  Er6  1  0.002419  0.341891  0.531838  1
  Er  Er7  1  0.997967  0.658261  0.031521  1
  Ta  Ta8  1  0.328661  0.328598  0.999936  1
  Ta  Ta9  1  0.171409  0.828540  0.250074  1
  Ta  Ta10  1  0.828046  0.171990  0.750045  1
  Ta  Ta11  1  0.671258  0.671313  0.499944  1
  Ta  Ta12  1  0.152264  0.006673  0.873732  1
  Ta  Ta13  1  0.493292  0.652594  0.123765  1
  Ta  Ta14  1  0.506644  0.347264  0.623781  1
  Ta  Ta15  1  0.652597  0.493114  0.876098  1
  Ta  Ta16  1  0.347344  0.506774  0.376283  1
  Ta  Ta17  1  0.847193  0.993005  0.373738  1
  Ta  Ta18  1  0.007046  0.152647  0.126228  1
  Ta  Ta19  1  0.993489  0.847029  0.626448  1
  Si  Si20  1  0.203847  0.134327  0.681125  1
  Si  Si21  1  0.365296  0.704336  0.930897  1
  Si  Si22  1  0.635051  0.295698  0.431337  1
  Si  Si23  1  0.704312  0.365094  0.068974  1
  Si  Si24  1  0.295779  0.634937  0.569016  1
  Si  Si25  1  0.795956  0.865145  0.181050  1
  Si  Si26  1  0.134763  0.204018  0.319065  1
  Si  Si27  1  0.864680  0.796104  0.818604  1
  Si  Si28  1  0.295164  0.954524  0.063784  1
  Si  Si29  1  0.545350  0.794893  0.313767  1
  Si  Si30  1  0.453980  0.205090  0.813741  1
  Si  Si31  1  0.794851  0.545673  0.685877  1
  Si  Si32  1  0.205008  0.454659  0.186168  1
  Si  Si33  1  0.705893  0.045417  0.564020  1
  Si  Si34  1  0.954474  0.295021  0.936155  1
  Si  Si35  1  0.045532  0.705220  0.436427  1
