# generated using pymatgen
data_Tb4Gd2InRhO12
_symmetry_space_group_name_H-M   'P 1'
_cell_length_a   6.65462862
_cell_length_b   6.65683783
_cell_length_c   6.66052738
_cell_angle_alpha   94.20078898
_cell_angle_beta   94.18718467
_cell_angle_gamma   94.22798036
_symmetry_Int_Tables_number   1
_chemical_formula_structural   Tb4Gd2InRhO12
_chemical_formula_sum   'Tb4 Gd2 In1 Rh1 O12'
_cell_volume   292.54629735
_cell_formula_units_Z   1
loop_
 _symmetry_equiv_pos_site_id
 _symmetry_equiv_pos_as_xyz
  1  'x, y, z'
loop_
 _atom_site_type_symbol
 _atom_site_label
 _atom_site_symmetry_multiplicity
 _atom_site_fract_x
 _atom_site_fract_y
 _atom_site_fract_z
 _atom_site_occupancy
  Tb  Tb0  1  0.569560  0.083173  0.262289  1
  Tb  Tb1  1  0.082287  0.262413  0.570203  1
  Tb  Tb2  1  0.738352  0.430586  0.918044  1
  Tb  Tb3  1  0.262870  0.569247  0.082517  1
  Gd  Gd4  1  0.917068  0.736986  0.430182  1
  Gd  Gd5  1  0.431038  0.917328  0.737676  1
  In  In6  1  0.000867  0.001323  0.001332  1
  Rh  Rh7  1  0.500314  0.499628  0.499646  1
  O  O8  1  0.686916  0.086511  0.934687  1
  O  O9  1  0.914919  0.069391  0.314236  1
  O  O10  1  0.412477  0.197823  0.541136  1
  O  O11  1  0.067696  0.314854  0.915348  1
  O  O12  1  0.542835  0.413084  0.196879  1
  O  O13  1  0.802351  0.454352  0.588014  1
  O  O14  1  0.197820  0.540858  0.412221  1
  O  O15  1  0.456853  0.584188  0.803226  1
  O  O16  1  0.933496  0.686218  0.082265  1
  O  O17  1  0.584859  0.802554  0.453556  1
  O  O18  1  0.083417  0.934900  0.687156  1
  O  O19  1  0.314005  0.914584  0.069386  1
