# generated using pymatgen
data_Tb2ThTi(Co4P3)2
_symmetry_space_group_name_H-M   'P 1'
_cell_length_a   3.73745800
_cell_length_b   10.66351300
_cell_length_c   12.31900800
_cell_angle_alpha   90.00000000
_cell_angle_beta   90.00000000
_cell_angle_gamma   90.00000000
_symmetry_Int_Tables_number   1
_chemical_formula_structural   Tb2ThTi(Co4P3)2
_chemical_formula_sum   'Tb4 Th2 Ti2 Co16 P12'
_cell_volume   490.96706627
_cell_formula_units_Z   2
loop_
 _symmetry_equiv_pos_site_id
 _symmetry_equiv_pos_as_xyz
  1  'x, y, z'
loop_
 _atom_site_type_symbol
 _atom_site_label
 _atom_site_symmetry_multiplicity
 _atom_site_fract_x
 _atom_site_fract_y
 _atom_site_fract_z
 _atom_site_occupancy
  Tb  Tb0  1  0.500000  0.818343  0.202311  1
  Tb  Tb1  1  0.500000  0.181657  0.202311  1
  Tb  Tb2  1  0.000000  0.681657  0.797689  1
  Tb  Tb3  1  0.000000  0.318343  0.797689  1
  Th  Th4  1  0.000000  0.500000  0.528558  1
  Th  Th5  1  0.500000  0.000000  0.471442  1
  Ti  Ti6  1  0.500000  0.500000  0.149482  1
  Ti  Ti7  1  0.000000  0.000000  0.850518  1
  Co  Co8  1  0.500000  0.500000  0.701277  1
  Co  Co9  1  0.000000  0.000000  0.298723  1
  Co  Co10  1  0.000000  0.500000  0.986453  1
  Co  Co11  1  0.500000  0.000000  0.013547  1
  Co  Co12  1  0.500000  0.332626  0.993851  1
  Co  Co13  1  0.500000  0.667374  0.993851  1
  Co  Co14  1  0.000000  0.167374  0.006149  1
  Co  Co15  1  0.000000  0.832626  0.006149  1
  Co  Co16  1  0.500000  0.297433  0.431272  1
  Co  Co17  1  0.500000  0.702567  0.431272  1
  Co  Co18  1  0.000000  0.202567  0.568728  1
  Co  Co19  1  0.000000  0.797433  0.568728  1
  Co  Co20  1  0.500000  0.879635  0.708954  1
  Co  Co21  1  0.500000  0.120365  0.708954  1
  Co  Co22  1  0.000000  0.620365  0.291046  1
  Co  Co23  1  0.000000  0.379635  0.291046  1
  P  P24  1  0.500000  0.500000  0.882345  1
  P  P25  1  0.000000  0.000000  0.117655  1
  P  P26  1  0.500000  0.500000  0.347667  1
  P  P27  1  0.000000  0.000000  0.652333  1
  P  P28  1  0.500000  0.305615  0.618111  1
  P  P29  1  0.500000  0.694385  0.618111  1
  P  P30  1  0.000000  0.194385  0.381889  1
  P  P31  1  0.000000  0.805615  0.381889  1
  P  P32  1  0.500000  0.843130  0.894263  1
  P  P33  1  0.500000  0.156870  0.894263  1
  P  P34  1  0.000000  0.656870  0.105737  1
  P  P35  1  0.000000  0.343130  0.105737  1
