# generated using pymatgen
data_Tb2Al9Co2Au
_symmetry_space_group_name_H-M   'P 1'
_cell_length_a   7.52819038
_cell_length_b   7.52819056
_cell_length_c   9.40122900
_cell_angle_alpha   90.00000000
_cell_angle_beta   90.00000000
_cell_angle_gamma   119.59467690
_symmetry_Int_Tables_number   1
_chemical_formula_structural   Tb2Al9Co2Au
_chemical_formula_sum   'Tb4 Al18 Co4 Au2'
_cell_volume   463.29306694
_cell_formula_units_Z   2
loop_
 _symmetry_equiv_pos_site_id
 _symmetry_equiv_pos_as_xyz
  1  'x, y, z'
loop_
 _atom_site_type_symbol
 _atom_site_label
 _atom_site_symmetry_multiplicity
 _atom_site_fract_x
 _atom_site_fract_y
 _atom_site_fract_z
 _atom_site_occupancy
  Tb  Tb0  1  0.992333  0.665633  0.250280  1
  Tb  Tb1  1  0.007667  0.334367  0.750280  1
  Tb  Tb2  1  0.665633  0.992333  0.249720  1
  Tb  Tb3  1  0.334367  0.007667  0.749720  1
  Al  Al4  1  0.118709  0.118709  0.250000  1
  Al  Al5  1  0.881291  0.881291  0.750000  1
  Al  Al6  1  0.330181  0.321428  0.549613  1
  Al  Al7  1  0.669819  0.678572  0.049613  1
  Al  Al8  1  0.321428  0.330181  0.950387  1
  Al  Al9  1  0.678572  0.669819  0.450387  1
  Al  Al10  1  0.341146  0.546884  0.237161  1
  Al  Al11  1  0.658854  0.453116  0.737161  1
  Al  Al12  1  0.546884  0.341146  0.262839  1
  Al  Al13  1  0.453116  0.658854  0.762839  1
  Al  Al14  1  0.010105  0.332939  0.073031  1
  Al  Al15  1  0.989895  0.667061  0.573031  1
  Al  Al16  1  0.332938  0.010105  0.426969  1
  Al  Al17  1  0.667062  0.989895  0.926969  1
  Al  Al18  1  0.014397  0.679106  0.926038  1
  Al  Al19  1  0.985603  0.320894  0.426038  1
  Al  Al20  1  0.679106  0.014397  0.573962  1
  Al  Al21  1  0.320894  0.985603  0.073962  1
  Co  Co22  1  0.000101  0.999899  0.000000  1
  Co  Co23  1  0.999899  0.000101  0.500000  1
  Co  Co24  1  0.329549  0.670451  0.000000  1
  Co  Co25  1  0.670451  0.329549  0.500000  1
  Au  Au26  1  0.672396  0.327604  0.000000  1
  Au  Au27  1  0.327604  0.672396  0.500000  1
