# generated using pymatgen
data_Dy2Co4Ni3P4
_symmetry_space_group_name_H-M   'P 1'
_cell_length_a   3.65835400
_cell_length_b   9.09502100
_cell_length_c   10.26761500
_cell_angle_alpha   90.00000000
_cell_angle_beta   90.00000000
_cell_angle_gamma   90.00000000
_symmetry_Int_Tables_number   1
_chemical_formula_structural   Dy2Co4Ni3P4
_chemical_formula_sum   'Dy4 Co8 Ni6 P8'
_cell_volume   341.63236665
_cell_formula_units_Z   2
loop_
 _symmetry_equiv_pos_site_id
 _symmetry_equiv_pos_as_xyz
  1  'x, y, z'
loop_
 _atom_site_type_symbol
 _atom_site_label
 _atom_site_symmetry_multiplicity
 _atom_site_fract_x
 _atom_site_fract_y
 _atom_site_fract_z
 _atom_site_occupancy
  Dy  Dy0  1  0.000000  0.058433  0.394811  1
  Dy  Dy1  1  0.500000  0.941567  0.894811  1
  Dy  Dy2  1  0.000000  0.439721  0.178109  1
  Dy  Dy3  1  0.500000  0.560279  0.678109  1
  Co  Co4  1  0.000000  0.063458  0.701053  1
  Co  Co5  1  0.500000  0.936542  0.201053  1
  Co  Co6  1  0.000000  0.727508  0.509607  1
  Co  Co7  1  0.500000  0.272492  0.009607  1
  Co  Co8  1  0.000000  0.097526  0.098143  1
  Co  Co9  1  0.500000  0.902474  0.598143  1
  Co  Co10  1  0.000000  0.750842  0.272966  1
  Co  Co11  1  0.500000  0.249158  0.772966  1
  Ni  Ni12  1  0.000000  0.309417  0.601887  1
  Ni  Ni13  1  0.500000  0.690583  0.101887  1
  Ni  Ni14  1  0.000000  0.688127  0.910246  1
  Ni  Ni15  1  0.500000  0.311873  0.410246  1
  Ni  Ni16  1  0.000000  0.416533  0.868356  1
  Ni  Ni17  1  0.500000  0.583467  0.368356  1
  P  P18  1  0.000000  0.180831  0.893802  1
  P  P19  1  0.500000  0.819169  0.393802  1
  P  P20  1  0.000000  0.850144  0.086677  1
  P  P21  1  0.500000  0.149856  0.586677  1
  P  P22  1  0.000000  0.816077  0.709078  1
  P  P23  1  0.500000  0.183923  0.209078  1
  P  P24  1  0.000000  0.483262  0.459362  1
  P  P25  1  0.500000  0.516738  0.959362  1
