# generated using pymatgen
data_Nd3YRu4F28
_symmetry_space_group_name_H-M   'P 1'
_cell_length_a   5.60597701
_cell_length_b   9.04089331
_cell_length_c   12.10316100
_cell_angle_alpha   63.17826994
_cell_angle_beta   90.00349540
_cell_angle_gamma   90.07615576
_symmetry_Int_Tables_number   1
_chemical_formula_structural   Nd3YRu4F28
_chemical_formula_sum   'Nd3 Y1 Ru4 F28'
_cell_volume   547.42893172
_cell_formula_units_Z   1
loop_
 _symmetry_equiv_pos_site_id
 _symmetry_equiv_pos_as_xyz
  1  'x, y, z'
loop_
 _atom_site_type_symbol
 _atom_site_label
 _atom_site_symmetry_multiplicity
 _atom_site_fract_x
 _atom_site_fract_y
 _atom_site_fract_z
 _atom_site_occupancy
  Nd  Nd0  1  0.259123  0.187153  0.732246  1
  Nd  Nd1  1  0.240670  0.191329  0.231929  1
  Nd  Nd2  1  0.740260  0.807547  0.268378  1
  Y  Y3  1  0.759961  0.806499  0.769137  1
  Ru  Ru4  1  0.753851  0.276835  0.954417  1
  Ru  Ru5  1  0.255087  0.727356  0.547958  1
  Ru  Ru6  1  0.246478  0.727089  0.040158  1
  Ru  Ru7  1  0.747931  0.271098  0.457403  1
  F  F8  1  0.444987  0.704688  0.915208  1
  F  F9  1  0.938133  0.295195  0.584018  1
  F  F10  1  0.562264  0.297522  0.081899  1
  F  F11  1  0.057899  0.705332  0.422280  1
  F  F12  1  0.451209  0.282776  0.540566  1
  F  F13  1  0.951571  0.717661  0.953437  1
  F  F14  1  0.545727  0.715984  0.460703  1
  F  F15  1  0.049156  0.286515  0.038925  1
  F  F16  1  0.763802  0.513747  0.858084  1
  F  F17  1  0.266048  0.491577  0.642956  1
  F  F18  1  0.233325  0.491502  0.136270  1
  F  F19  1  0.736424  0.507425  0.362151  1
  F  F20  1  0.756679  0.040816  0.047319  1
  F  F21  1  0.257336  0.962696  0.454153  1
  F  F22  1  0.244544  0.963214  0.950176  1
  F  F23  1  0.744893  0.036075  0.548232  1
  F  F24  1  0.967071  0.730502  0.640094  1
  F  F25  1  0.463653  0.271698  0.865987  1
  F  F26  1  0.040590  0.271253  0.368877  1
  F  F27  1  0.534672  0.728463  0.131329  1
  F  F28  1  0.054066  0.746421  0.168937  1
  F  F29  1  0.561046  0.252490  0.327022  1
  F  F30  1  0.942069  0.255700  0.825552  1
  F  F31  1  0.453389  0.750720  0.674047  1
  F  F32  1  0.402781  0.964395  0.229284  1
  F  F33  1  0.903208  0.034390  0.271032  1
  F  F34  1  0.591483  0.022848  0.768758  1
  F  F35  1  0.078616  0.963490  0.731078  1
