# generated using pymatgen
data_Cs12ScTi(FeSe6)2
_symmetry_space_group_name_H-M   'P 1'
_cell_length_a   11.04770327
_cell_length_b   11.04770363
_cell_length_c   14.26929111
_cell_angle_alpha   89.84633430
_cell_angle_beta   89.84633569
_cell_angle_gamma   138.94445085
_symmetry_Int_Tables_number   1
_chemical_formula_structural   Cs12ScTi(FeSe6)2
_chemical_formula_sum   'Cs12 Sc1 Ti1 Fe2 Se12'
_cell_volume   1143.82747228
_cell_formula_units_Z   1
loop_
 _symmetry_equiv_pos_site_id
 _symmetry_equiv_pos_as_xyz
  1  'x, y, z'
loop_
 _atom_site_type_symbol
 _atom_site_label
 _atom_site_symmetry_multiplicity
 _atom_site_fract_x
 _atom_site_fract_y
 _atom_site_fract_z
 _atom_site_occupancy
  Cs  Cs0  1  0.871004  0.865979  0.682324  1
  Cs  Cs1  1  0.134021  0.128996  0.317676  1
  Cs  Cs2  1  0.632481  0.628681  0.183882  1
  Cs  Cs3  1  0.371319  0.367519  0.816118  1
  Cs  Cs4  1  0.175005  0.534297  0.128818  1
  Cs  Cs5  1  0.465703  0.824995  0.871182  1
  Cs  Cs6  1  0.970656  0.329910  0.625802  1
  Cs  Cs7  1  0.670090  0.029344  0.374198  1
  Cs  Cs8  1  0.829628  0.477948  0.872942  1
  Cs  Cs9  1  0.522052  0.170372  0.127058  1
  Cs  Cs10  1  0.011581  0.662113  0.378083  1
  Cs  Cs11  1  0.337887  0.988419  0.621917  1
  Sc  Sc12  1  0.920581  0.079419  0.000000  1
  Ti  Ti13  1  0.426984  0.573016  0.500000  1
  Fe  Fe14  1  0.080823  0.919177  0.000000  1
  Fe  Fe15  1  0.576483  0.423517  0.500000  1
  Se  Se16  1  0.282387  0.284238  0.565524  1
  Se  Se17  1  0.715762  0.717613  0.434476  1
  Se  Se18  1  0.221854  0.212040  0.065471  1
  Se  Se19  1  0.787960  0.778146  0.934529  1
  Se  Se20  1  0.704999  0.002366  0.125541  1
  Se  Se21  1  0.997634  0.295001  0.874459  1
  Se  Se22  1  0.488431  0.771902  0.617957  1
  Se  Se23  1  0.228098  0.511569  0.382043  1
  Se  Se24  1  0.277497  0.987259  0.880342  1
  Se  Se25  1  0.012741  0.722503  0.119658  1
  Se  Se26  1  0.507850  0.221509  0.381703  1
  Se  Se27  1  0.778491  0.492150  0.618297  1
