# generated using pymatgen
data_Nd5Dy10Y(CdIr)4
_symmetry_space_group_name_H-M   'P 1'
_cell_length_a   9.73511980
_cell_length_b   9.73092713
_cell_length_c   9.73092710
_cell_angle_alpha   59.94675529
_cell_angle_beta   59.98574128
_cell_angle_gamma   59.98574458
_symmetry_Int_Tables_number   1
_chemical_formula_structural   Nd5Dy10Y(CdIr)4
_chemical_formula_sum   'Nd5 Dy10 Y1 Cd4 Ir4'
_cell_volume   651.42756450
_cell_formula_units_Z   1
loop_
 _symmetry_equiv_pos_site_id
 _symmetry_equiv_pos_as_xyz
  1  'x, y, z'
loop_
 _atom_site_type_symbol
 _atom_site_label
 _atom_site_symmetry_multiplicity
 _atom_site_fract_x
 _atom_site_fract_y
 _atom_site_fract_z
 _atom_site_occupancy
  Nd  Nd0  1  0.558008  0.941992  0.941992  1
  Nd  Nd1  1  0.561497  0.939144  0.558469  1
  Nd  Nd2  1  0.940889  0.558469  0.939144  1
  Nd  Nd3  1  0.561497  0.558469  0.939144  1
  Nd  Nd4  1  0.940889  0.939144  0.558469  1
  Dy  Dy5  1  0.347721  0.348360  0.348360  1
  Dy  Dy6  1  0.346619  0.350328  0.956432  1
  Dy  Dy7  1  0.346619  0.956432  0.350328  1
  Dy  Dy8  1  0.955557  0.348360  0.348360  1
  Dy  Dy9  1  0.812131  0.187869  0.187869  1
  Dy  Dy10  1  0.187683  0.812317  0.812317  1
  Dy  Dy11  1  0.188737  0.811005  0.188219  1
  Dy  Dy12  1  0.812039  0.188219  0.811005  1
  Dy  Dy13  1  0.188737  0.188219  0.811005  1
  Dy  Dy14  1  0.812039  0.811005  0.188219  1
  Y  Y15  1  0.943158  0.556842  0.556842  1
  Cd  Cd16  1  0.582239  0.579238  0.579238  1
  Cd  Cd17  1  0.579812  0.580128  0.260246  1
  Cd  Cd18  1  0.579812  0.260246  0.580128  1
  Cd  Cd19  1  0.259285  0.579238  0.579238  1
  Ir  Ir20  1  0.140836  0.141902  0.141902  1
  Ir  Ir21  1  0.139417  0.145345  0.575821  1
  Ir  Ir22  1  0.139417  0.575821  0.145345  1
  Ir  Ir23  1  0.575360  0.141902  0.141902  1
