# generated using pymatgen
data_Mo12Pt7RhN4
_symmetry_space_group_name_H-M   'P 1'
_cell_length_a   6.89683270
_cell_length_b   6.89683270
_cell_length_c   6.89683270
_cell_angle_alpha   90.07165511
_cell_angle_beta   90.07165511
_cell_angle_gamma   90.07165511
_symmetry_Int_Tables_number   1
_chemical_formula_structural   Mo12Pt7RhN4
_chemical_formula_sum   'Mo12 Pt7 Rh1 N4'
_cell_volume   328.05605166
_cell_formula_units_Z   1
loop_
 _symmetry_equiv_pos_site_id
 _symmetry_equiv_pos_as_xyz
  1  'x, y, z'
loop_
 _atom_site_type_symbol
 _atom_site_label
 _atom_site_symmetry_multiplicity
 _atom_site_fract_x
 _atom_site_fract_y
 _atom_site_fract_z
 _atom_site_occupancy
  Mo  Mo0  1  0.624285  0.700737  0.949545  1
  Mo  Mo1  1  0.449536  0.875477  0.299948  1
  Mo  Mo2  1  0.700737  0.949545  0.624285  1
  Mo  Mo3  1  0.547340  0.373506  0.198626  1
  Mo  Mo4  1  0.373506  0.198626  0.547340  1
  Mo  Mo5  1  0.198626  0.547340  0.373506  1
  Mo  Mo6  1  0.875477  0.299948  0.449536  1
  Mo  Mo7  1  0.051064  0.125415  0.802075  1
  Mo  Mo8  1  0.299948  0.449536  0.875477  1
  Mo  Mo9  1  0.125415  0.802075  0.051064  1
  Mo  Mo10  1  0.802075  0.051064  0.125415  1
  Mo  Mo11  1  0.949545  0.624285  0.700737  1
  Pt  Pt12  1  0.306426  0.806892  0.693634  1
  Pt  Pt13  1  0.441709  0.057996  0.946114  1
  Pt  Pt14  1  0.806892  0.693634  0.306426  1
  Pt  Pt15  1  0.693634  0.306426  0.806892  1
  Pt  Pt16  1  0.556316  0.556316  0.556316  1
  Pt  Pt17  1  0.057996  0.946114  0.441709  1
  Pt  Pt18  1  0.946114  0.441709  0.057996  1
  Rh  Rh19  1  0.193769  0.193769  0.193769  1
  N  N20  1  0.374745  0.624857  0.124946  1
  N  N21  1  0.875042  0.875042  0.875042  1
  N  N22  1  0.124946  0.374745  0.624857  1
  N  N23  1  0.624857  0.124946  0.374745  1
