# generated using pymatgen
data_Zr6Al24Fe7Rh
_symmetry_space_group_name_H-M   'P 1'
_cell_length_a   8.52534821
_cell_length_b   8.52534761
_cell_length_c   9.12255853
_cell_angle_alpha   89.90104164
_cell_angle_beta   90.09896095
_cell_angle_gamma   120.00923640
_symmetry_Int_Tables_number   1
_chemical_formula_structural   Zr6Al24Fe7Rh
_chemical_formula_sum   'Zr6 Al24 Fe7 Rh1'
_cell_volume   574.15641394
_cell_formula_units_Z   1
loop_
 _symmetry_equiv_pos_site_id
 _symmetry_equiv_pos_as_xyz
  1  'x, y, z'
loop_
 _atom_site_type_symbol
 _atom_site_label
 _atom_site_symmetry_multiplicity
 _atom_site_fract_x
 _atom_site_fract_y
 _atom_site_fract_z
 _atom_site_occupancy
  Zr  Zr0  1  0.804937  0.195063  0.748253  1
  Zr  Zr1  1  0.195063  0.804937  0.251747  1
  Zr  Zr2  1  0.389452  0.192861  0.748698  1
  Zr  Zr3  1  0.610548  0.807139  0.251302  1
  Zr  Zr4  1  0.807139  0.610548  0.748698  1
  Zr  Zr5  1  0.192861  0.389452  0.251302  1
  Al  Al6  1  0.670231  0.329769  0.972955  1
  Al  Al7  1  0.329769  0.670231  0.027045  1
  Al  Al8  1  0.333483  0.666517  0.474402  1
  Al  Al9  1  0.666517  0.333483  0.525598  1
  Al  Al10  1  0.838000  0.162000  0.426074  1
  Al  Al11  1  0.162000  0.838000  0.573926  1
  Al  Al12  1  0.323258  0.161636  0.426101  1
  Al  Al13  1  0.161553  0.838447  0.924832  1
  Al  Al14  1  0.676742  0.838364  0.573899  1
  Al  Al15  1  0.838447  0.161553  0.075168  1
  Al  Al16  1  0.838364  0.676742  0.426101  1
  Al  Al17  1  0.678483  0.843770  0.924337  1
  Al  Al18  1  0.161636  0.323258  0.573899  1
  Al  Al19  1  0.321517  0.156230  0.075663  1
  Al  Al20  1  0.156230  0.321517  0.924337  1
  Al  Al21  1  0.843770  0.678483  0.075663  1
  Al  Al22  1  0.442864  0.557136  0.744092  1
  Al  Al23  1  0.557136  0.442864  0.255908  1
  Al  Al24  1  0.112008  0.555861  0.749999  1
  Al  Al25  1  0.887992  0.444139  0.250001  1
  Al  Al26  1  0.444139  0.887992  0.749999  1
  Al  Al27  1  0.555861  0.112008  0.250001  1
  Al  Al28  1  0.000007  0.999993  0.749714  1
  Al  Al29  1  0.999993  0.000007  0.250286  1
  Fe  Fe30  1  0.000000  0.500000  0.000000  1
  Fe  Fe31  1  0.500000  0.500000  0.500000  1
  Fe  Fe32  1  0.500000  0.000000  0.000000  1
  Fe  Fe33  1  0.000000  0.500000  0.500000  1
  Fe  Fe34  1  0.500000  0.000000  0.500000  1
  Fe  Fe35  1  0.000000  0.000000  0.000000  1
  Fe  Fe36  1  0.000000  0.000000  0.500000  1
  Rh  Rh37  1  0.500000  0.500000  0.000000  1
