# generated using pymatgen
data_Nd4Ga20Pt11
_symmetry_space_group_name_H-M   'P 1'
_cell_length_a   4.24730631
_cell_length_b   11.05222853
_cell_length_c   13.71479609
_cell_angle_alpha   81.90095981
_cell_angle_beta   81.09226230
_cell_angle_gamma   78.92189072
_symmetry_Int_Tables_number   1
_chemical_formula_structural   Nd4Ga20Pt11
_chemical_formula_sum   'Nd4 Ga20 Pt11'
_cell_volume   620.07186228
_cell_formula_units_Z   1
loop_
 _symmetry_equiv_pos_site_id
 _symmetry_equiv_pos_as_xyz
  1  'x, y, z'
loop_
 _atom_site_type_symbol
 _atom_site_label
 _atom_site_symmetry_multiplicity
 _atom_site_fract_x
 _atom_site_fract_y
 _atom_site_fract_z
 _atom_site_occupancy
  Nd  Nd0  1  0.123093  0.089067  0.664747  1
  Nd  Nd1  1  0.876907  0.910933  0.335253  1
  Nd  Nd2  1  0.775178  0.630539  0.819103  1
  Nd  Nd3  1  0.224822  0.369461  0.180897  1
  Ga  Ga4  1  0.006979  0.073040  0.913002  1
  Ga  Ga5  1  0.993021  0.926960  0.086998  1
  Ga  Ga6  1  0.066661  0.672858  0.193821  1
  Ga  Ga7  1  0.933339  0.327142  0.806179  1
  Ga  Ga8  1  0.101601  0.342861  0.453936  1
  Ga  Ga9  1  0.898399  0.657139  0.546064  1
  Ga  Ga10  1  0.202578  0.603640  0.991204  1
  Ga  Ga11  1  0.797422  0.396360  0.008796  1
  Ga  Ga12  1  0.257442  0.783893  0.701223  1
  Ga  Ga13  1  0.742558  0.216107  0.298777  1
  Ga  Ga14  1  0.302116  0.898602  0.497166  1
  Ga  Ga15  1  0.697884  0.101398  0.502834  1
  Ga  Ga16  1  0.388907  0.523040  0.699145  1
  Ga  Ga17  1  0.611093  0.476960  0.300855  1
  Ga  Ga18  1  0.396658  0.203237  0.003447  1
  Ga  Ga19  1  0.603342  0.796763  0.996553  1
  Ga  Ga20  1  0.542771  0.286164  0.628295  1
  Ga  Ga21  1  0.457229  0.713836  0.371705  1
  Ga  Ga22  1  0.635010  0.935451  0.794531  1
  Ga  Ga23  1  0.364990  0.064549  0.205469  1
  Pt  Pt24  1  0.500000  0.500000  0.500000  1
  Pt  Pt25  1  0.027124  0.575058  0.370694  1
  Pt  Pt26  1  0.972876  0.424942  0.629306  1
  Pt  Pt27  1  0.135898  0.838245  0.889959  1
  Pt  Pt28  1  0.864102  0.161755  0.110041  1
  Pt  Pt29  1  0.239121  0.129712  0.392046  1
  Pt  Pt30  1  0.760879  0.870288  0.607954  1
  Pt  Pt31  1  0.345611  0.414601  0.894178  1
  Pt  Pt32  1  0.654389  0.585399  0.105822  1
  Pt  Pt33  1  0.504261  0.170333  0.821146  1
  Pt  Pt34  1  0.495739  0.829667  0.178854  1
