# generated using pymatgen
data_Hf4Al6PdAu
_symmetry_space_group_name_H-M   'P 1'
_cell_length_a   5.35063400
_cell_length_b   5.35063403
_cell_length_c   8.39205600
_cell_angle_alpha   90.00000000
_cell_angle_beta   90.00000000
_cell_angle_gamma   119.99999984
_symmetry_Int_Tables_number   1
_chemical_formula_structural   Hf4Al6PdAu
_chemical_formula_sum   'Hf4 Al6 Pd1 Au1'
_cell_volume   208.07001453
_cell_formula_units_Z   1
loop_
 _symmetry_equiv_pos_site_id
 _symmetry_equiv_pos_as_xyz
  1  'x, y, z'
loop_
 _atom_site_type_symbol
 _atom_site_label
 _atom_site_symmetry_multiplicity
 _atom_site_fract_x
 _atom_site_fract_y
 _atom_site_fract_z
 _atom_site_occupancy
  Hf  Hf0  1  0.333333  0.666667  0.932267  1
  Hf  Hf1  1  0.666667  0.333333  0.067733  1
  Hf  Hf2  1  0.666667  0.333333  0.430828  1
  Hf  Hf3  1  0.333333  0.666667  0.569172  1
  Al  Al4  1  0.828769  0.171231  0.745345  1
  Al  Al5  1  0.828769  0.657539  0.745345  1
  Al  Al6  1  0.342461  0.171231  0.745345  1
  Al  Al7  1  0.171231  0.828769  0.254655  1
  Al  Al8  1  0.171231  0.342461  0.254655  1
  Al  Al9  1  0.657539  0.828769  0.254655  1
  Pd  Pd10  1  0.000000  0.000000  0.500000  1
  Au  Au11  1  0.000000  0.000000  0.000000  1
