# generated using pymatgen
data_Gd4MgCdGe4
_symmetry_space_group_name_H-M   'P 1'
_cell_length_a   7.35051651
_cell_length_b   7.35074351
_cell_length_c   4.28699700
_cell_angle_alpha   90.00000000
_cell_angle_beta   90.00000000
_cell_angle_gamma   89.95750343
_symmetry_Int_Tables_number   1
_chemical_formula_structural   Gd4MgCdGe4
_chemical_formula_sum   'Gd4 Mg1 Cd1 Ge4'
_cell_volume   231.63393559
_cell_formula_units_Z   1
loop_
 _symmetry_equiv_pos_site_id
 _symmetry_equiv_pos_as_xyz
  1  'x, y, z'
loop_
 _atom_site_type_symbol
 _atom_site_label
 _atom_site_symmetry_multiplicity
 _atom_site_fract_x
 _atom_site_fract_y
 _atom_site_fract_z
 _atom_site_occupancy
  Gd  Gd0  1  0.820574  0.323735  0.000000  1
  Gd  Gd1  1  0.324247  0.178946  0.000000  1
  Gd  Gd2  1  0.179426  0.676265  0.000000  1
  Gd  Gd3  1  0.675753  0.821054  0.000000  1
  Mg  Mg4  1  0.000000  0.000000  0.500000  1
  Cd  Cd5  1  0.500000  0.500000  0.500000  1
  Ge  Ge6  1  0.627098  0.117223  0.500000  1
  Ge  Ge7  1  0.372902  0.882777  0.500000  1
  Ge  Ge8  1  0.882775  0.627023  0.500000  1
  Ge  Ge9  1  0.117225  0.372977  0.500000  1
