# generated using pymatgen
data_Li2Dy16In2Ir3Pt
_symmetry_space_group_name_H-M   'P 1'
_cell_length_a   9.64527950
_cell_length_b   9.64527955
_cell_length_c   9.65809175
_cell_angle_alpha   60.23087583
_cell_angle_beta   60.23087665
_cell_angle_gamma   60.12074300
_symmetry_Int_Tables_number   1
_chemical_formula_structural   Li2Dy16In2Ir3Pt
_chemical_formula_sum   'Li2 Dy16 In2 Ir3 Pt1'
_cell_volume   638.13155202
_cell_formula_units_Z   1
loop_
 _symmetry_equiv_pos_site_id
 _symmetry_equiv_pos_as_xyz
  1  'x, y, z'
loop_
 _atom_site_type_symbol
 _atom_site_label
 _atom_site_symmetry_multiplicity
 _atom_site_fract_x
 _atom_site_fract_y
 _atom_site_fract_z
 _atom_site_occupancy
  Li  Li0  1  0.822217  0.822217  0.825613  1
  Li  Li1  1  0.822454  0.822454  0.529086  1
  Dy  Dy2  1  0.598389  0.598389  0.599709  1
  Dy  Dy3  1  0.601545  0.601545  0.198902  1
  Dy  Dy4  1  0.599219  0.206305  0.599922  1
  Dy  Dy5  1  0.206305  0.599219  0.599922  1
  Dy  Dy6  1  0.057549  0.439378  0.441486  1
  Dy  Dy7  1  0.437897  0.061897  0.059403  1
  Dy  Dy8  1  0.439378  0.057549  0.441486  1
  Dy  Dy9  1  0.061897  0.437897  0.059403  1
  Dy  Dy10  1  0.443303  0.443303  0.053016  1
  Dy  Dy11  1  0.065934  0.065934  0.432232  1
  Dy  Dy12  1  0.187754  0.812037  0.812917  1
  Dy  Dy13  1  0.813116  0.187259  0.187904  1
  Dy  Dy14  1  0.812037  0.187754  0.812917  1
  Dy  Dy15  1  0.187259  0.813116  0.187904  1
  Dy  Dy16  1  0.811023  0.811023  0.189985  1
  Dy  Dy17  1  0.186514  0.186514  0.814737  1
  In  In18  1  0.834681  0.505559  0.829575  1
  In  In19  1  0.505559  0.834681  0.829575  1
  Ir  Ir20  1  0.393028  0.393028  0.824591  1
  Ir  Ir21  1  0.394427  0.824753  0.390119  1
  Ir  Ir22  1  0.824753  0.394427  0.390119  1
  Pt  Pt23  1  0.393762  0.393762  0.389480  1
