# generated using pymatgen
data_Lu2InB2Rh5
_symmetry_space_group_name_H-M   'P 1'
_cell_length_a   9.57797300
_cell_length_b   9.57797300
_cell_length_c   3.21600600
_cell_angle_alpha   90.00000000
_cell_angle_beta   90.00000000
_cell_angle_gamma   90.00000000
_symmetry_Int_Tables_number   1
_chemical_formula_structural   Lu2InB2Rh5
_chemical_formula_sum   'Lu4 In2 B4 Rh10'
_cell_volume   295.02856522
_cell_formula_units_Z   2
loop_
 _symmetry_equiv_pos_site_id
 _symmetry_equiv_pos_as_xyz
  1  'x, y, z'
loop_
 _atom_site_type_symbol
 _atom_site_label
 _atom_site_symmetry_multiplicity
 _atom_site_fract_x
 _atom_site_fract_y
 _atom_site_fract_z
 _atom_site_occupancy
  Lu  Lu0  1  0.825861  0.325861  0.000000  1
  Lu  Lu1  1  0.325861  0.174139  0.000000  1
  Lu  Lu2  1  0.674139  0.825861  0.000000  1
  Lu  Lu3  1  0.174139  0.674139  0.000000  1
  In  In4  1  0.000000  0.000000  0.000000  1
  In  In5  1  0.500000  0.500000  0.000000  1
  B  B6  1  0.622461  0.122461  0.000000  1
  B  B7  1  0.122461  0.377539  0.000000  1
  B  B8  1  0.877539  0.622461  0.000000  1
  B  B9  1  0.377539  0.877539  0.000000  1
  Rh  Rh10  1  0.071991  0.224966  0.500000  1
  Rh  Rh11  1  0.224966  0.928009  0.500000  1
  Rh  Rh12  1  0.775034  0.071991  0.500000  1
  Rh  Rh13  1  0.928009  0.775034  0.500000  1
  Rh  Rh14  1  0.428009  0.724966  0.500000  1
  Rh  Rh15  1  0.571991  0.275034  0.500000  1
  Rh  Rh16  1  0.724966  0.571991  0.500000  1
  Rh  Rh17  1  0.275034  0.428009  0.500000  1
  Rh  Rh18  1  0.500000  0.000000  0.500000  1
  Rh  Rh19  1  0.000000  0.500000  0.500000  1
