# generated using pymatgen
data_Tb5NdZn4Pd12Rh
_symmetry_space_group_name_H-M   'P 1'
_cell_length_a   8.27782967
_cell_length_b   8.27783006
_cell_length_c   8.27783009
_cell_angle_alpha   109.48851286
_cell_angle_beta   109.46256735
_cell_angle_gamma   109.46258235
_symmetry_Int_Tables_number   1
_chemical_formula_structural   Tb5NdZn4Pd12Rh
_chemical_formula_sum   'Tb5 Nd1 Zn4 Pd12 Rh1'
_cell_volume   436.64408757
_cell_formula_units_Z   1
loop_
 _symmetry_equiv_pos_site_id
 _symmetry_equiv_pos_as_xyz
  1  'x, y, z'
loop_
 _atom_site_type_symbol
 _atom_site_label
 _atom_site_symmetry_multiplicity
 _atom_site_fract_x
 _atom_site_fract_y
 _atom_site_fract_z
 _atom_site_occupancy
  Tb  Tb0  1  0.702808  0.703321  0.000513  1
  Tb  Tb1  1  0.297192  0.000513  0.297705  1
  Tb  Tb2  1  0.000000  0.297637  0.297637  1
  Tb  Tb3  1  0.297192  0.297705  0.000513  1
  Tb  Tb4  1  0.702808  0.000513  0.703321  1
  Nd  Nd5  1  0.000000  0.706505  0.706505  1
  Zn  Zn6  1  0.000000  0.999970  0.497823  1
  Zn  Zn7  1  0.000000  0.497823  0.999970  1
  Zn  Zn8  1  0.502147  0.999970  0.999970  1
  Zn  Zn9  1  0.497853  0.497823  0.497823  1
  Pd  Pd10  1  0.334030  0.333843  0.667872  1
  Pd  Pd11  1  0.665970  0.999814  0.333843  1
  Pd  Pd12  1  0.000000  0.667090  0.330733  1
  Pd  Pd13  1  0.665970  0.333843  0.999814  1
  Pd  Pd14  1  0.334030  0.667872  0.333843  1
  Pd  Pd15  1  0.000000  0.330733  0.667090  1
  Pd  Pd16  1  0.335668  0.665343  0.001011  1
  Pd  Pd17  1  0.335668  0.001011  0.665343  1
  Pd  Pd18  1  0.663642  0.330733  0.330733  1
  Pd  Pd19  1  0.664332  0.665343  0.329676  1
  Pd  Pd20  1  0.664332  0.329676  0.665343  1
  Pd  Pd21  1  0.336358  0.667090  0.667090  1
  Rh  Rh22  1  0.000000  0.005826  0.005826  1
