# generated using pymatgen
data_Sc12Co4SiOs
_symmetry_space_group_name_H-M   'P 1'
_cell_length_a   7.65497223
_cell_length_b   7.65480911
_cell_length_c   7.65497151
_cell_angle_alpha   111.17395093
_cell_angle_beta   110.42172617
_cell_angle_gamma   106.85112108
_symmetry_Int_Tables_number   1
_chemical_formula_structural   Sc12Co4SiOs
_chemical_formula_sum   'Sc12 Co4 Si1 Os1'
_cell_volume   344.74468362
_cell_formula_units_Z   1
loop_
 _symmetry_equiv_pos_site_id
 _symmetry_equiv_pos_as_xyz
  1  'x, y, z'
loop_
 _atom_site_type_symbol
 _atom_site_label
 _atom_site_symmetry_multiplicity
 _atom_site_fract_x
 _atom_site_fract_y
 _atom_site_fract_z
 _atom_site_occupancy
  Sc  Sc0  1  0.428089  0.231483  0.196621  1
  Sc  Sc1  1  0.571911  0.768517  0.803379  1
  Sc  Sc2  1  0.034861  0.231483  0.803394  1
  Sc  Sc3  1  0.965139  0.768517  0.196606  1
  Sc  Sc4  1  0.316279  0.614584  0.298305  1
  Sc  Sc5  1  0.683721  0.385416  0.701695  1
  Sc  Sc6  1  0.316278  0.017970  0.701692  1
  Sc  Sc7  1  0.683722  0.982030  0.298308  1
  Sc  Sc8  1  0.183634  0.274426  0.458049  1
  Sc  Sc9  1  0.816366  0.725573  0.541951  1
  Sc  Sc10  1  0.183623  0.725573  0.909208  1
  Sc  Sc11  1  0.816377  0.274426  0.090792  1
  Co  Co12  1  0.364760  0.000000  0.364760  1
  Co  Co13  1  0.635240  0.000000  0.635240  1
  Co  Co14  1  0.119957  0.619955  0.499998  1
  Co  Co15  1  0.880043  0.380045  0.500002  1
  Si  Si16  1  0.500000  0.500000  0.000000  1
  Os  Os17  1  0.000000  0.000000  0.000000  1
