# generated using pymatgen
data_Ce3Er5(ReB6)4
_symmetry_space_group_name_H-M   'P 1'
_cell_length_a   3.70320900
_cell_length_b   9.16749466
_cell_length_c   11.55582809
_cell_angle_alpha   90.06892978
_cell_angle_beta   90.00000000
_cell_angle_gamma   90.00000000
_symmetry_Int_Tables_number   1
_chemical_formula_structural   Ce3Er5(ReB6)4
_chemical_formula_sum   'Ce3 Er5 Re4 B24'
_cell_volume   392.31024261
_cell_formula_units_Z   1
loop_
 _symmetry_equiv_pos_site_id
 _symmetry_equiv_pos_as_xyz
  1  'x, y, z'
loop_
 _atom_site_type_symbol
 _atom_site_label
 _atom_site_symmetry_multiplicity
 _atom_site_fract_x
 _atom_site_fract_y
 _atom_site_fract_z
 _atom_site_occupancy
  Ce  Ce0  1  0.000000  0.321547  0.414443  1
  Ce  Ce1  1  0.000000  0.678228  0.586330  1
  Ce  Ce2  1  0.000000  0.823522  0.085495  1
  Er  Er3  1  0.000000  0.177559  0.913908  1
  Er  Er4  1  0.000000  0.944558  0.372378  1
  Er  Er5  1  0.000000  0.056353  0.628497  1
  Er  Er6  1  0.000000  0.442814  0.127633  1
  Er  Er7  1  0.000000  0.555916  0.871819  1
  Re  Re8  1  0.000000  0.638740  0.320584  1
  Re  Re9  1  0.000000  0.361954  0.678914  1
  Re  Re10  1  0.000000  0.138757  0.179319  1
  Re  Re11  1  0.000000  0.861124  0.820883  1
  B  B12  1  0.500000  0.554570  0.431485  1
  B  B13  1  0.500000  0.445292  0.568669  1
  B  B14  1  0.500000  0.054471  0.067056  1
  B  B15  1  0.500000  0.946464  0.932306  1
  B  B16  1  0.500000  0.749617  0.418178  1
  B  B17  1  0.500000  0.250029  0.582440  1
  B  B18  1  0.500000  0.249178  0.080302  1
  B  B19  1  0.500000  0.751161  0.918135  1
  B  B20  1  0.500000  0.791747  0.265676  1
  B  B21  1  0.500000  0.207374  0.735116  1
  B  B22  1  0.500000  0.291472  0.233246  1
  B  B23  1  0.500000  0.708524  0.766147  1
  B  B24  1  0.500000  0.630852  0.185382  1
  B  B25  1  0.500000  0.368212  0.815359  1
  B  B26  1  0.500000  0.131167  0.314060  1
  B  B27  1  0.500000  0.869629  0.686185  1
  B  B28  1  0.500000  0.983779  0.212269  1
  B  B29  1  0.500000  0.018219  0.787684  1
  B  B30  1  0.500000  0.483206  0.286702  1
  B  B31  1  0.500000  0.516290  0.713546  1
  B  B32  1  0.500000  0.601617  0.028178  1
  B  B33  1  0.500000  0.395921  0.970910  1
  B  B34  1  0.500000  0.104206  0.471505  1
  B  B35  1  0.500000  0.895929  0.529261  1
