# generated using pymatgen
data_YCd3P7N12
_symmetry_space_group_name_H-M   'P 1'
_cell_length_a   7.44155363
_cell_length_b   7.46219056
_cell_length_c   7.46219057
_cell_angle_alpha   109.52717003
_cell_angle_beta   109.41520957
_cell_angle_gamma   109.41521329
_symmetry_Int_Tables_number   1
_chemical_formula_structural   YCd3P7N12
_chemical_formula_sum   'Y1 Cd3 P7 N12'
_cell_volume   319.20827042
_cell_formula_units_Z   1
loop_
 _symmetry_equiv_pos_site_id
 _symmetry_equiv_pos_as_xyz
  1  'x, y, z'
loop_
 _atom_site_type_symbol
 _atom_site_label
 _atom_site_symmetry_multiplicity
 _atom_site_fract_x
 _atom_site_fract_y
 _atom_site_fract_z
 _atom_site_occupancy
  Y  Y0  1  0.644049  0.000000  0.000000  1
  Cd  Cd1  1  0.999193  0.000000  0.669879  1
  Cd  Cd2  1  0.999193  0.669879  0.000000  1
  Cd  Cd3  1  0.329314  0.330121  0.330121  1
  P  P4  1  0.248514  0.749122  0.497012  1
  P  P5  1  0.751502  0.252110  0.502988  1
  P  P6  1  0.751502  0.502988  0.252110  1
  P  P7  1  0.248514  0.497012  0.749122  1
  P  P8  1  0.499392  0.747890  0.250878  1
  P  P9  1  0.499392  0.250878  0.747890  1
  P  P10  1  0.004168  0.000000  0.000000  1
  N  N11  1  0.714441  0.294079  0.294079  1
  N  N12  1  0.287719  0.707693  0.287221  1
  N  N13  1  0.307230  0.594035  0.594035  1
  N  N14  1  0.580025  0.579528  0.292307  1
  N  N15  1  0.420362  0.705921  0.000000  1
  N  N16  1  0.000498  0.712779  0.420472  1
  N  N17  1  0.580025  0.292307  0.579528  1
  N  N18  1  0.713195  0.000000  0.405965  1
  N  N19  1  0.420362  0.000000  0.705921  1
  N  N20  1  0.713195  0.405965  0.000000  1
  N  N21  1  0.287719  0.287221  0.707693  1
  N  N22  1  0.000498  0.420472  0.712779  1
