# generated using pymatgen
data_Al11In(SnSe10)2
_symmetry_space_group_name_H-M   'P 1'
_cell_length_a   9.89910392
_cell_length_b   9.81641166
_cell_length_c   9.71730813
_cell_angle_alpha   90.30079857
_cell_angle_beta   90.67067758
_cell_angle_gamma   90.06909369
_symmetry_Int_Tables_number   1
_chemical_formula_structural   Al11In(SnSe10)2
_chemical_formula_sum   'Al11 In1 Sn2 Se20'
_cell_volume   944.18812118
_cell_formula_units_Z   1
loop_
 _symmetry_equiv_pos_site_id
 _symmetry_equiv_pos_as_xyz
  1  'x, y, z'
loop_
 _atom_site_type_symbol
 _atom_site_label
 _atom_site_symmetry_multiplicity
 _atom_site_fract_x
 _atom_site_fract_y
 _atom_site_fract_z
 _atom_site_occupancy
  Al  Al0  1  0.881635  0.564941  0.833241  1
  Al  Al1  1  0.257640  0.647341  0.830640  1
  Al  Al2  1  0.162724  0.346877  0.740129  1
  Al  Al3  1  0.833378  0.261276  0.658283  1
  Al  Al4  1  0.844149  0.882873  0.575269  1
  Al  Al5  1  0.116021  0.163720  0.423504  1
  Al  Al6  1  0.738366  0.166194  0.341605  1
  Al  Al7  1  0.650544  0.835044  0.264085  1
  Al  Al8  1  0.353589  0.736513  0.169631  1
  Al  Al9  1  0.430374  0.126696  0.166384  1
  Al  Al10  1  0.160909  0.424627  0.115584  1
  In  In11  1  0.579080  0.842923  0.882562  1
  Sn  Sn12  1  0.254868  0.005975  0.753190  1
  Sn  Sn13  1  0.994701  0.739569  0.243017  1
  Se  Se14  1  0.191117  0.812333  0.000665  1
  Se  Se15  1  0.321053  0.424835  0.924190  1
  Se  Se16  1  0.493084  0.092080  0.926316  1
  Se  Se17  1  0.841435  0.817094  0.822119  1
  Se  Se18  1  0.999878  0.192577  0.825789  1
  Se  Se19  1  0.698288  0.440865  0.739513  1
  Se  Se20  1  0.420298  0.750752  0.683806  1
  Se  Se21  1  0.075373  0.571236  0.675440  1
  Se  Se22  1  0.686618  0.072709  0.574961  1
  Se  Se23  1  0.301302  0.245126  0.566518  1
  Se  Se24  1  0.072991  0.929597  0.496120  1
  Se  Se25  1  0.757359  0.697227  0.436768  1
  Se  Se26  1  0.923628  0.316735  0.425770  1
  Se  Se27  1  0.425568  0.925212  0.320327  1
  Se  Se28  1  0.241953  0.566524  0.304339  1
  Se  Se29  1  0.558596  0.304369  0.267379  1
  Se  Se30  1  0.802642  0.998623  0.173934  1
  Se  Se31  1  0.181394  0.179208  0.177884  1
  Se  Se32  1  0.930148  0.496000  0.071256  1
  Se  Se33  1  0.575794  0.665831  0.089784  1
