# generated using pymatgen
data_Dy4TcRu7
_symmetry_space_group_name_H-M   'P 1'
_cell_length_a   5.41736291
_cell_length_b   5.24701278
_cell_length_c   8.93222600
_cell_angle_alpha   90.00000000
_cell_angle_beta   90.00000000
_cell_angle_gamma   121.09225245
_symmetry_Int_Tables_number   1
_chemical_formula_structural   Dy4TcRu7
_chemical_formula_sum   'Dy4 Tc1 Ru7'
_cell_volume   217.42246970
_cell_formula_units_Z   1
loop_
 _symmetry_equiv_pos_site_id
 _symmetry_equiv_pos_as_xyz
  1  'x, y, z'
loop_
 _atom_site_type_symbol
 _atom_site_label
 _atom_site_symmetry_multiplicity
 _atom_site_fract_x
 _atom_site_fract_y
 _atom_site_fract_z
 _atom_site_occupancy
  Dy  Dy0  1  0.673998  0.348024  0.565769  1
  Dy  Dy1  1  0.337128  0.674754  0.432293  1
  Dy  Dy2  1  0.337128  0.674754  0.067707  1
  Dy  Dy3  1  0.673998  0.348024  0.934231  1
  Tc  Tc4  1  0.153849  0.307678  0.750000  1
  Ru  Ru5  1  0.013811  0.027522  0.500599  1
  Ru  Ru6  1  0.013811  0.027522  0.999401  1
  Ru  Ru7  1  0.176980  0.818247  0.750000  1
  Ru  Ru8  1  0.640578  0.818044  0.750000  1
  Ru  Ru9  1  0.816581  0.633397  0.250000  1
  Ru  Ru10  1  0.834928  0.160533  0.250000  1
  Ru  Ru11  1  0.327213  0.161501  0.250000  1
