# generated using pymatgen
data_Tm2HfZr(Al3Rh)6
_symmetry_space_group_name_H-M   'P 1'
_cell_length_a   7.49527406
_cell_length_b   7.48274223
_cell_length_c   9.31959900
_cell_angle_alpha   90.00000000
_cell_angle_beta   90.00000000
_cell_angle_gamma   119.66552088
_symmetry_Int_Tables_number   1
_chemical_formula_structural   Tm2HfZr(Al3Rh)6
_chemical_formula_sum   'Tm2 Hf1 Zr1 Al18 Rh6'
_cell_volume   454.18216391
_cell_formula_units_Z   1
loop_
 _symmetry_equiv_pos_site_id
 _symmetry_equiv_pos_as_xyz
  1  'x, y, z'
loop_
 _atom_site_type_symbol
 _atom_site_label
 _atom_site_symmetry_multiplicity
 _atom_site_fract_x
 _atom_site_fract_y
 _atom_site_fract_z
 _atom_site_occupancy
  Tm  Tm0  1  0.670702  0.993702  0.250000  1
  Tm  Tm1  1  0.329243  0.006362  0.750000  1
  Hf  Hf2  1  0.004931  0.327916  0.750000  1
  Zr  Zr3  1  0.994688  0.671285  0.250000  1
  Al  Al4  1  0.124849  0.123469  0.250000  1
  Al  Al5  1  0.874862  0.876498  0.750000  1
  Al  Al6  1  0.998951  0.336945  0.075675  1
  Al  Al7  1  0.001111  0.662817  0.924229  1
  Al  Al8  1  0.001111  0.662817  0.575771  1
  Al  Al9  1  0.332632  0.997909  0.421387  1
  Al  Al10  1  0.998951  0.336945  0.424325  1
  Al  Al11  1  0.667610  0.002291  0.578844  1
  Al  Al12  1  0.667610  0.002291  0.921156  1
  Al  Al13  1  0.332632  0.997909  0.078613  1
  Al  Al14  1  0.330757  0.333271  0.556692  1
  Al  Al15  1  0.669048  0.666776  0.443712  1
  Al  Al16  1  0.669048  0.666776  0.056288  1
  Al  Al17  1  0.330757  0.333271  0.943308  1
  Al  Al18  1  0.334693  0.549095  0.250000  1
  Al  Al19  1  0.665523  0.451069  0.750000  1
  Al  Al20  1  0.555689  0.343134  0.250000  1
  Al  Al21  1  0.444003  0.656490  0.750000  1
  Rh  Rh22  1  0.672628  0.327013  0.998887  1
  Rh  Rh23  1  0.327464  0.672698  0.000222  1
  Rh  Rh24  1  0.327464  0.672698  0.499778  1
  Rh  Rh25  1  0.672628  0.327013  0.501113  1
  Rh  Rh26  1  0.000207  0.000770  0.999336  1
  Rh  Rh27  1  0.000207  0.000770  0.500664  1
