# generated using pymatgen
data_Sr5Th2As12Pd17
_symmetry_space_group_name_H-M   'P 1'
_cell_length_a   12.97390367
_cell_length_b   12.97390449
_cell_length_c   14.16839018
_cell_angle_alpha   68.93860693
_cell_angle_beta   68.93860571
_cell_angle_gamma   18.56040071
_symmetry_Int_Tables_number   1
_chemical_formula_structural   Sr5Th2As12Pd17
_chemical_formula_sum   'Sr5 Th2 As12 Pd17'
_cell_volume   706.99369806
_cell_formula_units_Z   1
loop_
 _symmetry_equiv_pos_site_id
 _symmetry_equiv_pos_as_xyz
  1  'x, y, z'
loop_
 _atom_site_type_symbol
 _atom_site_label
 _atom_site_symmetry_multiplicity
 _atom_site_fract_x
 _atom_site_fract_y
 _atom_site_fract_z
 _atom_site_occupancy
  Sr  Sr0  1  0.633532  0.633532  0.998648  1
  Sr  Sr1  1  0.233261  0.233261  0.311398  1
  Sr  Sr2  1  0.767101  0.767101  0.687952  1
  Sr  Sr3  1  0.419951  0.419951  0.260699  1
  Sr  Sr4  1  0.581506  0.581506  0.738087  1
  Th  Th5  1  0.499838  0.499838  0.499151  1
  Th  Th6  1  0.366492  0.366492  0.000037  1
  As  As7  1  0.058924  0.058924  0.927543  1
  As  As8  1  0.939405  0.939405  0.072643  1
  As  As9  1  0.883908  0.883908  0.829551  1
  As  As10  1  0.115144  0.115144  0.173687  1
  As  As11  1  0.187997  0.187997  0.616803  1
  As  As12  1  0.812181  0.812181  0.382050  1
  As  As13  1  0.368565  0.368565  0.578010  1
  As  As14  1  0.631816  0.631816  0.422490  1
  As  As15  1  0.008897  0.008897  0.664413  1
  As  As16  1  0.990480  0.990480  0.337110  1
  As  As17  1  0.234958  0.234958  0.882958  1
  As  As18  1  0.766665  0.766665  0.113827  1
  Pd  Pd19  1  0.838943  0.838943  0.190751  1
  Pd  Pd20  1  0.160672  0.160672  0.808262  1
  Pd  Pd21  1  0.026116  0.026116  0.127847  1
  Pd  Pd22  1  0.972633  0.972633  0.873247  1
  Pd  Pd23  1  0.888202  0.888202  0.461222  1
  Pd  Pd24  1  0.110641  0.110641  0.540010  1
  Pd  Pd25  1  0.497716  0.497716  0.997131  1
  Pd  Pd26  1  0.550248  0.550248  0.259157  1
  Pd  Pd27  1  0.451024  0.451024  0.745416  1
  Pd  Pd28  1  0.294753  0.294753  0.488214  1
  Pd  Pd29  1  0.706197  0.706197  0.510449  1
  Pd  Pd30  1  0.664342  0.664342  0.223307  1
  Pd  Pd31  1  0.337413  0.337413  0.777333  1
  Pd  Pd32  1  0.909291  0.909291  0.638738  1
  Pd  Pd33  1  0.091384  0.091384  0.361344  1
  Pd  Pd34  1  0.220922  0.220922  0.071127  1
  Pd  Pd35  1  0.778882  0.778882  0.929387  1
