# generated using pymatgen
data_Dy8Er2IrRu3
_symmetry_space_group_name_H-M   'P 1'
_cell_length_a   6.35956714
_cell_length_b   7.30224492
_cell_length_c   8.47484081
_cell_angle_alpha   96.75416751
_cell_angle_beta   111.90300871
_cell_angle_gamma   90.15668141
_symmetry_Int_Tables_number   1
_chemical_formula_structural   Dy8Er2IrRu3
_chemical_formula_sum   'Dy8 Er2 Ir1 Ru3'
_cell_volume   362.15690899
_cell_formula_units_Z   1
loop_
 _symmetry_equiv_pos_site_id
 _symmetry_equiv_pos_as_xyz
  1  'x, y, z'
loop_
 _atom_site_type_symbol
 _atom_site_label
 _atom_site_symmetry_multiplicity
 _atom_site_fract_x
 _atom_site_fract_y
 _atom_site_fract_z
 _atom_site_occupancy
  Dy  Dy0  1  0.793408  0.582694  0.814902  1
  Dy  Dy1  1  0.978801  0.915039  0.186425  1
  Dy  Dy2  1  0.207448  0.415443  0.185548  1
  Dy  Dy3  1  0.023523  0.085405  0.814948  1
  Dy  Dy4  1  0.205981  0.684523  0.565908  1
  Dy  Dy5  1  0.641299  0.815093  0.432819  1
  Dy  Dy6  1  0.792852  0.314634  0.433399  1
  Dy  Dy7  1  0.357610  0.186107  0.565145  1
  Er  Er8  1  0.421911  0.749888  0.000217  1
  Er  Er9  1  0.578191  0.250946  0.000668  1
  Ir  Ir10  1  0.601826  0.924061  0.780373  1
  Ru  Ru11  1  0.823193  0.576095  0.219277  1
  Ru  Ru12  1  0.396019  0.075407  0.219757  1
  Ru  Ru13  1  0.177940  0.424665  0.780614  1
