# generated using pymatgen
data_Cs3Er2Cl9
_symmetry_space_group_name_H-M   'P 1'
_cell_length_a   9.96042475
_cell_length_b   9.96042464
_cell_length_c   9.96042520
_cell_angle_alpha   83.04863296
_cell_angle_beta   83.04863147
_cell_angle_gamma   83.04863396
_symmetry_Int_Tables_number   1
_chemical_formula_structural   Cs3Er2Cl9
_chemical_formula_sum   'Cs6 Er4 Cl18'
_cell_volume   968.00898938
_cell_formula_units_Z   2
loop_
 _symmetry_equiv_pos_site_id
 _symmetry_equiv_pos_as_xyz
  1  'x, y, z'
loop_
 _atom_site_type_symbol
 _atom_site_label
 _atom_site_symmetry_multiplicity
 _atom_site_fract_x
 _atom_site_fract_y
 _atom_site_fract_z
 _atom_site_occupancy
  Cs  Cs0  1  0.750000  0.089603  0.410397  1
  Cs  Cs1  1  0.410397  0.750000  0.089603  1
  Cs  Cs2  1  0.089603  0.410397  0.750000  1
  Cs  Cs3  1  0.250000  0.910397  0.589603  1
  Cs  Cs4  1  0.589603  0.250000  0.910397  1
  Cs  Cs5  1  0.910397  0.589603  0.250000  1
  Er  Er6  1  0.653517  0.653517  0.653517  1
  Er  Er7  1  0.846483  0.846483  0.846483  1
  Er  Er8  1  0.346483  0.346483  0.346483  1
  Er  Er9  1  0.153517  0.153517  0.153517  1
  Cl  Cl10  1  0.089631  0.923855  0.264462  1
  Cl  Cl11  1  0.264462  0.089631  0.923855  1
  Cl  Cl12  1  0.923855  0.264462  0.089631  1
  Cl  Cl13  1  0.410369  0.235538  0.576145  1
  Cl  Cl14  1  0.576145  0.410369  0.235538  1
  Cl  Cl15  1  0.235538  0.576145  0.410369  1
  Cl  Cl16  1  0.910369  0.076145  0.735538  1
  Cl  Cl17  1  0.735538  0.910369  0.076145  1
  Cl  Cl18  1  0.076145  0.735538  0.910369  1
  Cl  Cl19  1  0.589631  0.764462  0.423855  1
  Cl  Cl20  1  0.901984  0.750000  0.598016  1
  Cl  Cl21  1  0.750000  0.598016  0.901984  1
  Cl  Cl22  1  0.598016  0.901984  0.750000  1
  Cl  Cl23  1  0.098016  0.250000  0.401984  1
  Cl  Cl24  1  0.250000  0.401984  0.098016  1
  Cl  Cl25  1  0.401984  0.098016  0.250000  1
  Cl  Cl26  1  0.764462  0.423855  0.589631  1
  Cl  Cl27  1  0.423855  0.589631  0.764462  1
