# generated using pymatgen
data_Hf10ZnSiSn6
_symmetry_space_group_name_H-M   'P 1'
_cell_length_a   8.62407500
_cell_length_b   8.62407559
_cell_length_c   5.81691900
_cell_angle_alpha   90.00000000
_cell_angle_beta   90.00000000
_cell_angle_gamma   119.99999391
_symmetry_Int_Tables_number   1
_chemical_formula_structural   Hf10ZnSiSn6
_chemical_formula_sum   'Hf10 Zn1 Si1 Sn6'
_cell_volume   374.66985622
_cell_formula_units_Z   1
loop_
 _symmetry_equiv_pos_site_id
 _symmetry_equiv_pos_as_xyz
  1  'x, y, z'
loop_
 _atom_site_type_symbol
 _atom_site_label
 _atom_site_symmetry_multiplicity
 _atom_site_fract_x
 _atom_site_fract_y
 _atom_site_fract_z
 _atom_site_occupancy
  Hf  Hf0  1  0.333333  0.666667  0.000000  1
  Hf  Hf1  1  0.666667  0.333333  0.500000  1
  Hf  Hf2  1  0.666667  0.333333  0.000000  1
  Hf  Hf3  1  0.333333  0.666667  0.500000  1
  Hf  Hf4  1  0.263663  0.000000  0.243128  1
  Hf  Hf5  1  0.263663  0.263663  0.756872  1
  Hf  Hf6  1  0.000000  0.736337  0.756872  1
  Hf  Hf7  1  0.000000  0.263663  0.243128  1
  Hf  Hf8  1  0.736337  0.736337  0.243128  1
  Hf  Hf9  1  0.736337  0.000000  0.756872  1
  Zn  Zn10  1  0.000000  0.000000  0.500000  1
  Si  Si11  1  0.000000  0.000000  0.000000  1
  Sn  Sn12  1  0.610273  0.000000  0.253428  1
  Sn  Sn13  1  0.610273  0.610273  0.746572  1
  Sn  Sn14  1  0.000000  0.389727  0.746572  1
  Sn  Sn15  1  0.000000  0.610273  0.253428  1
  Sn  Sn16  1  0.389727  0.389727  0.253428  1
  Sn  Sn17  1  0.389727  0.000000  0.746572  1
