# generated using pymatgen
data_Nd6Y10MgHg3Pt4
_symmetry_space_group_name_H-M   'P 1'
_cell_length_a   9.80951749
_cell_length_b   9.82137864
_cell_length_c   9.82137900
_cell_angle_alpha   59.99999542
_cell_angle_beta   59.95998909
_cell_angle_gamma   59.95999776
_symmetry_Int_Tables_number   1
_chemical_formula_structural   Nd6Y10MgHg3Pt4
_chemical_formula_sum   'Nd6 Y10 Mg1 Hg3 Pt4'
_cell_volume   668.67436782
_cell_formula_units_Z   1
loop_
 _symmetry_equiv_pos_site_id
 _symmetry_equiv_pos_as_xyz
  1  'x, y, z'
loop_
 _atom_site_type_symbol
 _atom_site_label
 _atom_site_symmetry_multiplicity
 _atom_site_fract_x
 _atom_site_fract_y
 _atom_site_fract_z
 _atom_site_occupancy
  Nd  Nd0  1  0.937000  0.562669  0.562669  1
  Nd  Nd1  1  0.561215  0.938016  0.938016  1
  Nd  Nd2  1  0.561215  0.938016  0.562751  1
  Nd  Nd3  1  0.937000  0.562669  0.937662  1
  Nd  Nd4  1  0.561215  0.562751  0.938016  1
  Nd  Nd5  1  0.937000  0.937662  0.562669  1
  Y  Y6  1  0.351371  0.349651  0.349651  1
  Y  Y7  1  0.351371  0.349651  0.949329  1
  Y  Y8  1  0.351371  0.949329  0.349651  1
  Y  Y9  1  0.940069  0.353311  0.353311  1
  Y  Y10  1  0.810077  0.189075  0.189075  1
  Y  Y11  1  0.185106  0.813803  0.813803  1
  Y  Y12  1  0.185106  0.813803  0.187288  1
  Y  Y13  1  0.810077  0.189075  0.811771  1
  Y  Y14  1  0.185106  0.187288  0.813803  1
  Y  Y15  1  0.810077  0.811771  0.189075  1
  Mg  Mg16  1  0.286160  0.571280  0.571280  1
  Hg  Hg17  1  0.581390  0.585192  0.585192  1
  Hg  Hg18  1  0.581390  0.585192  0.248227  1
  Hg  Hg19  1  0.581390  0.248227  0.585192  1
  Pt  Pt20  1  0.141139  0.143707  0.143707  1
  Pt  Pt21  1  0.141139  0.143707  0.571447  1
  Pt  Pt22  1  0.141139  0.571447  0.143707  1
  Pt  Pt23  1  0.571876  0.142708  0.142708  1
