# generated using pymatgen
data_TbYb3Y2(CoSn6)2
_symmetry_space_group_name_H-M   'P 1'
_cell_length_a   8.43169004
_cell_length_b   8.43168914
_cell_length_c   13.21976744
_cell_angle_alpha   90.00897118
_cell_angle_beta   89.99103511
_cell_angle_gamma   148.09094640
_symmetry_Int_Tables_number   1
_chemical_formula_structural   TbYb3Y2(CoSn6)2
_chemical_formula_sum   'Tb1 Yb3 Y2 Co2 Sn12'
_cell_volume   496.77253303
_cell_formula_units_Z   1
loop_
 _symmetry_equiv_pos_site_id
 _symmetry_equiv_pos_as_xyz
  1  'x, y, z'
loop_
 _atom_site_type_symbol
 _atom_site_label
 _atom_site_symmetry_multiplicity
 _atom_site_fract_x
 _atom_site_fract_y
 _atom_site_fract_z
 _atom_site_occupancy
  Tb  Tb0  1  0.098892  0.901108  0.248130  1
  Yb  Yb1  1  0.100662  0.899338  0.596924  1
  Yb  Yb2  1  0.100980  0.899020  0.903771  1
  Yb  Yb3  1  0.899674  0.100326  0.402950  1
  Y  Y4  1  0.898009  0.101991  0.094005  1
  Y  Y5  1  0.901194  0.098806  0.754133  1
  Co  Co6  1  0.299339  0.700661  0.249684  1
  Co  Co7  1  0.702621  0.297379  0.749988  1
  Sn  Sn8  1  0.758174  0.241826  0.572192  1
  Sn  Sn9  1  0.426426  0.573574  0.578630  1
  Sn  Sn10  1  0.572925  0.427075  0.422836  1
  Sn  Sn11  1  0.733799  0.266201  0.248651  1
  Sn  Sn12  1  0.266714  0.733286  0.750127  1
  Sn  Sn13  1  0.241083  0.758917  0.072224  1
  Sn  Sn14  1  0.242778  0.757222  0.427570  1
  Sn  Sn15  1  0.572031  0.427969  0.075619  1
  Sn  Sn16  1  0.454888  0.545112  0.248844  1
  Sn  Sn17  1  0.545902  0.454098  0.750145  1
  Sn  Sn18  1  0.756870  0.243130  0.928891  1
  Sn  Sn19  1  0.427039  0.572961  0.924689  1
