# generated using pymatgen
data_DyEr6Lu5Co4
_symmetry_space_group_name_H-M   'P 1'
_cell_length_a   6.14405023
_cell_length_b   6.87913887
_cell_length_c   9.18299807
_cell_angle_alpha   89.99990164
_cell_angle_beta   90.24520782
_cell_angle_gamma   89.96231638
_symmetry_Int_Tables_number   1
_chemical_formula_structural   DyEr6Lu5Co4
_chemical_formula_sum   'Dy1 Er6 Lu5 Co4'
_cell_volume   388.12288979
_cell_formula_units_Z   1
loop_
 _symmetry_equiv_pos_site_id
 _symmetry_equiv_pos_as_xyz
  1  'x, y, z'
loop_
 _atom_site_type_symbol
 _atom_site_label
 _atom_site_symmetry_multiplicity
 _atom_site_fract_x
 _atom_site_fract_y
 _atom_site_fract_z
 _atom_site_occupancy
  Dy  Dy0  1  0.634868  0.040763  0.249361  1
  Er  Er1  1  0.137271  0.459279  0.749918  1
  Er  Er2  1  0.677067  0.324947  0.932609  1
  Er  Er3  1  0.362325  0.958792  0.751079  1
  Er  Er4  1  0.865110  0.540772  0.249887  1
  Er  Er5  1  0.176248  0.176253  0.433788  1
  Er  Er6  1  0.823016  0.823084  0.567772  1
  Lu  Lu7  1  0.175176  0.175578  0.066165  1
  Lu  Lu8  1  0.824442  0.824248  0.933774  1
  Lu  Lu9  1  0.675437  0.324939  0.566784  1
  Lu  Lu10  1  0.323471  0.676134  0.067325  1
  Lu  Lu11  1  0.324773  0.675214  0.432664  1
  Co  Co12  1  0.544944  0.612485  0.749270  1
  Co  Co13  1  0.954281  0.112480  0.751014  1
  Co  Co14  1  0.048420  0.886393  0.248508  1
  Co  Co15  1  0.453152  0.388640  0.250082  1
