# generated using pymatgen
data_Er16Zr3InRh12
_symmetry_space_group_name_H-M   'P 1'
_cell_length_a   10.77927800
_cell_length_b   10.77927800
_cell_length_c   6.20112800
_cell_angle_alpha   90.00000000
_cell_angle_beta   90.00000000
_cell_angle_gamma   90.00000000
_symmetry_Int_Tables_number   1
_chemical_formula_structural   Er16Zr3InRh12
_chemical_formula_sum   'Er16 Zr3 In1 Rh12'
_cell_volume   720.52663756
_cell_formula_units_Z   1
loop_
 _symmetry_equiv_pos_site_id
 _symmetry_equiv_pos_as_xyz
  1  'x, y, z'
loop_
 _atom_site_type_symbol
 _atom_site_label
 _atom_site_symmetry_multiplicity
 _atom_site_fract_x
 _atom_site_fract_y
 _atom_site_fract_z
 _atom_site_occupancy
  Er  Er0  1  0.283243  0.082275  0.372853  1
  Er  Er1  1  0.290062  0.911398  0.873575  1
  Er  Er2  1  0.709938  0.088602  0.873575  1
  Er  Er3  1  0.716757  0.917725  0.372853  1
  Er  Er4  1  0.588024  0.789223  0.875381  1
  Er  Er5  1  0.585075  0.210284  0.370510  1
  Er  Er6  1  0.414925  0.789716  0.370510  1
  Er  Er7  1  0.411976  0.210777  0.875381  1
  Er  Er8  1  0.210284  0.414925  0.629490  1
  Er  Er9  1  0.210777  0.588024  0.124619  1
  Er  Er10  1  0.789223  0.411976  0.124619  1
  Er  Er11  1  0.789716  0.585075  0.629490  1
  Er  Er12  1  0.911398  0.709938  0.126425  1
  Er  Er13  1  0.917725  0.283243  0.627147  1
  Er  Er14  1  0.082275  0.716757  0.627147  1
  Er  Er15  1  0.088602  0.290062  0.126425  1
  Zr  Zr16  1  0.000000  0.000000  0.000000  1
  Zr  Zr17  1  0.500000  0.500000  0.000000  1
  Zr  Zr18  1  0.500000  0.500000  0.500000  1
  In  In19  1  0.000000  0.000000  0.500000  1
  Rh  Rh20  1  0.851248  0.156640  0.234946  1
  Rh  Rh21  1  0.843360  0.851248  0.765054  1
  Rh  Rh22  1  0.156640  0.148752  0.765054  1
  Rh  Rh23  1  0.148752  0.843360  0.234946  1
  Rh  Rh24  1  0.647446  0.353999  0.744934  1
  Rh  Rh25  1  0.646001  0.647446  0.255066  1
  Rh  Rh26  1  0.353999  0.352554  0.255066  1
  Rh  Rh27  1  0.352554  0.646001  0.744934  1
  Rh  Rh28  1  0.500000  0.000000  0.121328  1
  Rh  Rh29  1  0.500000  0.000000  0.618139  1
  Rh  Rh30  1  0.000000  0.500000  0.878672  1
  Rh  Rh31  1  0.000000  0.500000  0.381861  1
