# generated using pymatgen
data_LiLu19(Cd3Ru)2
_symmetry_space_group_name_H-M   'P 1'
_cell_length_a   9.33277700
_cell_length_b   9.33277591
_cell_length_c   9.59508300
_cell_angle_alpha   90.00000000
_cell_angle_beta   90.00000000
_cell_angle_gamma   120.00000032
_symmetry_Int_Tables_number   1
_chemical_formula_structural   LiLu19(Cd3Ru)2
_chemical_formula_sum   'Li1 Lu19 Cd6 Ru2'
_cell_volume   723.77085865
_cell_formula_units_Z   1
loop_
 _symmetry_equiv_pos_site_id
 _symmetry_equiv_pos_as_xyz
  1  'x, y, z'
loop_
 _atom_site_type_symbol
 _atom_site_label
 _atom_site_symmetry_multiplicity
 _atom_site_fract_x
 _atom_site_fract_y
 _atom_site_fract_z
 _atom_site_occupancy
  Li  Li0  1  0.000000  0.000000  0.500000  1
  Lu  Lu1  1  0.000000  0.000000  0.000000  1
  Lu  Lu2  1  0.208356  0.791644  0.441175  1
  Lu  Lu3  1  0.208356  0.416712  0.441175  1
  Lu  Lu4  1  0.583288  0.791644  0.441175  1
  Lu  Lu5  1  0.791644  0.208356  0.558825  1
  Lu  Lu6  1  0.791644  0.583288  0.558825  1
  Lu  Lu7  1  0.416712  0.208356  0.558825  1
  Lu  Lu8  1  0.789530  0.210470  0.942344  1
  Lu  Lu9  1  0.789530  0.579059  0.942344  1
  Lu  Lu10  1  0.420941  0.210470  0.942344  1
  Lu  Lu11  1  0.210470  0.789530  0.057656  1
  Lu  Lu12  1  0.210470  0.420941  0.057656  1
  Lu  Lu13  1  0.579059  0.789530  0.057656  1
  Lu  Lu14  1  0.541747  0.458253  0.251728  1
  Lu  Lu15  1  0.541747  0.083494  0.251728  1
  Lu  Lu16  1  0.916506  0.458253  0.251728  1
  Lu  Lu17  1  0.458253  0.541747  0.748272  1
  Lu  Lu18  1  0.458253  0.916506  0.748272  1
  Lu  Lu19  1  0.083494  0.541747  0.748272  1
  Cd  Cd20  1  0.888523  0.111477  0.258014  1
  Cd  Cd21  1  0.888523  0.777047  0.258014  1
  Cd  Cd22  1  0.222953  0.111477  0.258014  1
  Cd  Cd23  1  0.111477  0.888523  0.741986  1
  Cd  Cd24  1  0.111477  0.222953  0.741986  1
  Cd  Cd25  1  0.777047  0.888523  0.741986  1
  Ru  Ru26  1  0.333333  0.666667  0.250770  1
  Ru  Ru27  1  0.666667  0.333333  0.749230  1
