# generated using pymatgen
data_LaNd11(IrBr3)4
_symmetry_space_group_name_H-M   'P 1'
_cell_length_a   10.50378213
_cell_length_b   10.50416133
_cell_length_c   10.55217002
_cell_angle_alpha   109.30292394
_cell_angle_beta   109.69518781
_cell_angle_gamma   109.51023669
_symmetry_Int_Tables_number   1
_chemical_formula_structural   LaNd11(IrBr3)4
_chemical_formula_sum   'La1 Nd11 Ir4 Br12'
_cell_volume   895.18875881
_cell_formula_units_Z   1
loop_
 _symmetry_equiv_pos_site_id
 _symmetry_equiv_pos_as_xyz
  1  'x, y, z'
loop_
 _atom_site_type_symbol
 _atom_site_label
 _atom_site_symmetry_multiplicity
 _atom_site_fract_x
 _atom_site_fract_y
 _atom_site_fract_z
 _atom_site_occupancy
  La  La0  1  0.034884  0.267442  0.017442  1
  Nd  Nd1  1  0.266688  0.753003  0.235440  1
  Nd  Nd2  1  0.480973  0.746114  0.015475  1
  Nd  Nd3  1  0.234844  0.469232  0.486245  1
  Nd  Nd4  1  0.013732  0.031107  0.267058  1
  Nd  Nd5  1  0.234844  0.265612  0.748599  1
  Nd  Nd6  1  0.013732  0.482625  0.746674  1
  Nd  Nd7  1  0.480973  0.234859  0.465498  1
  Nd  Nd8  1  0.266688  0.013685  0.031247  1
  Nd  Nd9  1  0.749032  0.233239  0.265542  1
  Nd  Nd10  1  0.749032  0.015793  0.483490  1
  Nd  Nd11  1  0.470923  0.485461  0.235461  1
  Ir  Ir12  1  0.499517  0.999759  0.249759  1
  Ir  Ir13  1  0.249050  0.498935  0.000381  1
  Ir  Ir14  1  0.000126  0.250063  0.500063  1
  Ir  Ir15  1  0.249050  0.250115  0.248669  1
  Br  Br16  1  0.249838  0.995904  0.504302  1
  Br  Br17  1  0.509436  0.504718  0.754718  1
  Br  Br18  1  0.249838  0.753934  0.745536  1
  Br  Br19  1  0.991326  0.745663  0.995663  1
  Br  Br20  1  0.999375  0.509274  0.255704  1
  Br  Br21  1  0.744071  0.993809  0.993557  1
  Br  Br22  1  0.754650  0.745691  0.250554  1
  Br  Br23  1  0.504640  0.754342  0.508002  1
  Br  Br24  1  0.504640  0.250298  0.996638  1
  Br  Br25  1  0.754650  0.508960  0.504097  1
  Br  Br26  1  0.744071  0.250262  0.750514  1
  Br  Br27  1  0.999375  0.990102  0.743671  1
