# generated using pymatgen
data_Tb4Re4OsRu3
_symmetry_space_group_name_H-M   'P 1'
_cell_length_a   5.37199161
_cell_length_b   5.15425894
_cell_length_c   9.20295400
_cell_angle_alpha   90.00000000
_cell_angle_beta   90.00000000
_cell_angle_gamma   118.66808574
_symmetry_Int_Tables_number   1
_chemical_formula_structural   Tb4Re4OsRu3
_chemical_formula_sum   'Tb4 Re4 Os1 Ru3'
_cell_volume   223.58009213
_cell_formula_units_Z   1
loop_
 _symmetry_equiv_pos_site_id
 _symmetry_equiv_pos_as_xyz
  1  'x, y, z'
loop_
 _atom_site_type_symbol
 _atom_site_label
 _atom_site_symmetry_multiplicity
 _atom_site_fract_x
 _atom_site_fract_y
 _atom_site_fract_z
 _atom_site_occupancy
  Tb  Tb0  1  0.328324  0.664162  0.435549  1
  Tb  Tb1  1  0.671905  0.335952  0.564243  1
  Tb  Tb2  1  0.671905  0.335952  0.935757  1
  Tb  Tb3  1  0.328324  0.664162  0.064451  1
  Re  Re4  1  0.833845  0.169368  0.250000  1
  Re  Re5  1  0.833845  0.664477  0.250000  1
  Re  Re6  1  0.162314  0.827644  0.750000  1
  Re  Re7  1  0.162314  0.334669  0.750000  1
  Os  Os8  1  0.349229  0.174615  0.250000  1
  Ru  Ru9  1  0.005432  0.002717  0.501190  1
  Ru  Ru10  1  0.005432  0.002717  0.998810  1
  Ru  Ru11  1  0.647132  0.823566  0.750000  1
