# generated using pymatgen
data_Pr7Bi(WO6)4
_symmetry_space_group_name_H-M   'P 1'
_cell_length_a   5.47705919
_cell_length_b   9.47727424
_cell_length_c   10.35303581
_cell_angle_alpha   90.05452995
_cell_angle_beta   89.89929252
_cell_angle_gamma   89.99490125
_symmetry_Int_Tables_number   1
_chemical_formula_structural   Pr7Bi(WO6)4
_chemical_formula_sum   'Pr7 Bi1 W4 O24'
_cell_volume   537.40008293
_cell_formula_units_Z   1
loop_
 _symmetry_equiv_pos_site_id
 _symmetry_equiv_pos_as_xyz
  1  'x, y, z'
loop_
 _atom_site_type_symbol
 _atom_site_label
 _atom_site_symmetry_multiplicity
 _atom_site_fract_x
 _atom_site_fract_y
 _atom_site_fract_z
 _atom_site_occupancy
  Pr  Pr0  1  0.476989  0.603233  0.537754  1
  Pr  Pr1  1  0.976183  0.896375  0.461986  1
  Pr  Pr2  1  0.523456  0.104519  0.962303  1
  Pr  Pr3  1  0.022970  0.395797  0.037859  1
  Pr  Pr4  1  0.966477  0.781301  0.867843  1
  Pr  Pr5  1  0.466388  0.718371  0.132502  1
  Pr  Pr6  1  0.035474  0.281408  0.630917  1
  Bi  Bi7  1  0.532307  0.217897  0.366662  1
  W  W8  1  0.459722  0.996487  0.647533  1
  W  W9  1  0.958192  0.503002  0.352391  1
  W  W10  1  0.541405  0.496474  0.852160  1
  W  W11  1  0.040189  0.003779  0.148153  1
  O  O12  1  0.253903  0.088692  0.508107  1
  O  O13  1  0.752614  0.411945  0.491260  1
  O  O14  1  0.748518  0.588357  0.990480  1
  O  O15  1  0.248827  0.912451  0.010095  1
  O  O16  1  0.722600  0.111925  0.565717  1
  O  O17  1  0.223657  0.388157  0.434770  1
  O  O18  1  0.278339  0.612013  0.934674  1
  O  O19  1  0.778255  0.888544  0.065660  1
  O  O20  1  0.573828  0.848757  0.528003  1
  O  O21  1  0.072715  0.649629  0.472741  1
  O  O22  1  0.426144  0.349270  0.972062  1
  O  O23  1  0.928054  0.150510  0.027669  1
  O  O24  1  0.180643  0.862623  0.258804  1
  O  O25  1  0.682955  0.637577  0.741106  1
  O  O26  1  0.815208  0.361133  0.241861  1
  O  O27  1  0.316780  0.137187  0.758788  1
  O  O28  1  0.829419  0.050233  0.288321  1
  O  O29  1  0.331076  0.450613  0.712640  1
  O  O30  1  0.166793  0.549069  0.212121  1
  O  O31  1  0.670014  0.950950  0.787118  1
  O  O32  1  0.308807  0.135019  0.179322  1
  O  O33  1  0.808502  0.365808  0.821302  1
  O  O34  1  0.691970  0.634180  0.321275  1
  O  O35  1  0.190624  0.866715  0.678043  1
