# generated using pymatgen
data_Tb12Ho8CoBi8Os3
_symmetry_space_group_name_H-M   'P 1'
_cell_length_a   7.97045101
_cell_length_b   9.00929200
_cell_length_c   12.46290299
_cell_angle_alpha   90.00000000
_cell_angle_beta   89.78159162
_cell_angle_gamma   90.00000000
_symmetry_Int_Tables_number   1
_chemical_formula_structural   Tb12Ho8CoBi8Os3
_chemical_formula_sum   'Tb12 Ho8 Co1 Bi8 Os3'
_cell_volume   894.93113783
_cell_formula_units_Z   1
loop_
 _symmetry_equiv_pos_site_id
 _symmetry_equiv_pos_as_xyz
  1  'x, y, z'
loop_
 _atom_site_type_symbol
 _atom_site_label
 _atom_site_symmetry_multiplicity
 _atom_site_fract_x
 _atom_site_fract_y
 _atom_site_fract_z
 _atom_site_occupancy
  Tb  Tb0  1  0.344931  0.750000  0.701513  1
  Tb  Tb1  1  0.657703  0.250000  0.292475  1
  Tb  Tb2  1  0.842903  0.250000  0.791405  1
  Tb  Tb3  1  0.155943  0.750000  0.206677  1
  Tb  Tb4  1  0.879363  0.750000  0.805963  1
  Tb  Tb5  1  0.119914  0.250000  0.193650  1
  Tb  Tb6  1  0.378718  0.250000  0.693033  1
  Tb  Tb7  1  0.616621  0.750000  0.312404  1
  Tb  Tb8  1  0.055047  0.750000  0.496806  1
  Tb  Tb9  1  0.945323  0.250000  0.503169  1
  Tb  Tb10  1  0.557538  0.250000  0.003599  1
  Tb  Tb11  1  0.442791  0.750000  0.995792  1
  Ho  Ho12  1  0.675139  0.542025  0.563662  1
  Ho  Ho13  1  0.325441  0.460518  0.436969  1
  Ho  Ho14  1  0.174635  0.457831  0.936041  1
  Ho  Ho15  1  0.325441  0.039482  0.436969  1
  Ho  Ho16  1  0.824786  0.542945  0.064200  1
  Ho  Ho17  1  0.675139  0.957975  0.563662  1
  Ho  Ho18  1  0.824786  0.957055  0.064200  1
  Ho  Ho19  1  0.174635  0.042169  0.936041  1
  Co  Co20  1  0.429943  0.750000  0.491270  1
  Bi  Bi21  1  0.570225  0.508754  0.827094  1
  Bi  Bi22  1  0.429500  0.492286  0.173164  1
  Bi  Bi23  1  0.071572  0.492070  0.671984  1
  Bi  Bi24  1  0.429500  0.007714  0.173164  1
  Bi  Bi25  1  0.929211  0.508941  0.328361  1
  Bi  Bi26  1  0.570225  0.991246  0.827094  1
  Bi  Bi27  1  0.929211  0.991059  0.328361  1
  Bi  Bi28  1  0.071572  0.007930  0.671984  1
  Os  Os29  1  0.074836  0.750000  0.989293  1
  Os  Os30  1  0.924433  0.250000  0.010158  1
  Os  Os31  1  0.572976  0.250000  0.509844  1
