# generated using pymatgen
data_Ho7Pu3(SiB4)4
_symmetry_space_group_name_H-M   'P 1'
_cell_length_a   7.20067611
_cell_length_b   7.20067611
_cell_length_c   8.05697188
_cell_angle_alpha   89.91580617
_cell_angle_beta   89.91580617
_cell_angle_gamma   89.82968583
_symmetry_Int_Tables_number   1
_chemical_formula_structural   Ho7Pu3(SiB4)4
_chemical_formula_sum   'Ho7 Pu3 Si4 B16'
_cell_volume   417.74912342
_cell_formula_units_Z   1
loop_
 _symmetry_equiv_pos_site_id
 _symmetry_equiv_pos_as_xyz
  1  'x, y, z'
loop_
 _atom_site_type_symbol
 _atom_site_label
 _atom_site_symmetry_multiplicity
 _atom_site_fract_x
 _atom_site_fract_y
 _atom_site_fract_z
 _atom_site_occupancy
  Ho  Ho0  1  0.817292  0.680991  0.222626  1
  Ho  Ho1  1  0.818316  0.681470  0.778016  1
  Ho  Ho2  1  0.681262  0.181262  0.775607  1
  Ho  Ho3  1  0.181470  0.318316  0.778016  1
  Ho  Ho4  1  0.180991  0.317292  0.222626  1
  Ho  Ho5  1  0.008446  0.995542  0.499773  1
  Ho  Ho6  1  0.495542  0.508446  0.499773  1
  Pu  Pu7  1  0.683950  0.183950  0.229216  1
  Pu  Pu8  1  0.316041  0.816041  0.770874  1
  Pu  Pu9  1  0.317903  0.817903  0.230138  1
  Si  Si10  1  0.110453  0.610453  0.502052  1
  Si  Si11  1  0.878370  0.378370  0.493370  1
  Si  Si12  1  0.390238  0.119989  0.495141  1
  Si  Si13  1  0.619989  0.890238  0.495141  1
  B  B14  1  0.173352  0.038253  0.000087  1
  B  B15  1  0.825841  0.962373  0.000629  1
  B  B16  1  0.958602  0.173289  0.999941  1
  B  B17  1  0.327221  0.540770  0.000058  1
  B  B18  1  0.040770  0.827221  0.000058  1
  B  B19  1  0.673289  0.458602  0.999941  1
  B  B20  1  0.538253  0.673352  0.000087  1
  B  B21  1  0.462373  0.325841  0.000629  1
  B  B22  1  0.090435  0.590435  0.000273  1
  B  B23  1  0.909365  0.409365  0.002069  1
  B  B24  1  0.411310  0.089332  0.001700  1
  B  B25  1  0.589332  0.911310  0.001700  1
  B  B26  1  0.996534  0.001367  0.162613  1
  B  B27  1  0.001530  0.000162  0.837619  1
  B  B28  1  0.500162  0.501530  0.837619  1
  B  B29  1  0.501367  0.496534  0.162613  1
