# generated using pymatgen
data_Tm5LuAl24Os5Pt3
_symmetry_space_group_name_H-M   'P 1'
_cell_length_a   8.78167658
_cell_length_b   8.83024469
_cell_length_c   9.50547947
_cell_angle_alpha   89.97397685
_cell_angle_beta   89.79441919
_cell_angle_gamma   119.74951636
_symmetry_Int_Tables_number   1
_chemical_formula_structural   Tm5LuAl24Os5Pt3
_chemical_formula_sum   'Tm5 Lu1 Al24 Os5 Pt3'
_cell_volume   639.94294314
_cell_formula_units_Z   1
loop_
 _symmetry_equiv_pos_site_id
 _symmetry_equiv_pos_as_xyz
  1  'x, y, z'
loop_
 _atom_site_type_symbol
 _atom_site_label
 _atom_site_symmetry_multiplicity
 _atom_site_fract_x
 _atom_site_fract_y
 _atom_site_fract_z
 _atom_site_occupancy
  Tm  Tm0  1  0.811513  0.614800  0.748542  1
  Tm  Tm1  1  0.612021  0.813404  0.252102  1
  Tm  Tm2  1  0.387996  0.186461  0.747869  1
  Tm  Tm3  1  0.197382  0.809167  0.251714  1
  Tm  Tm4  1  0.802518  0.190600  0.748277  1
  Lu  Lu5  1  0.188853  0.386971  0.251922  1
  Al  Al6  1  0.335822  0.670634  0.032604  1
  Al  Al7  1  0.664004  0.328981  0.967738  1
  Al  Al8  1  0.668996  0.331261  0.528852  1
  Al  Al9  1  0.331089  0.668528  0.470907  1
  Al  Al10  1  0.157831  0.324627  0.576791  1
  Al  Al11  1  0.842140  0.675201  0.422816  1
  Al  Al12  1  0.673724  0.840117  0.576637  1
  Al  Al13  1  0.837210  0.676485  0.079456  1
  Al  Al14  1  0.326148  0.159937  0.423174  1
  Al  Al15  1  0.162703  0.323414  0.920950  1
  Al  Al16  1  0.163684  0.834659  0.576301  1
  Al  Al17  1  0.325868  0.159606  0.077243  1
  Al  Al18  1  0.836542  0.165314  0.423453  1
  Al  Al19  1  0.673926  0.840432  0.922950  1
  Al  Al20  1  0.832249  0.159787  0.077769  1
  Al  Al21  1  0.167926  0.840194  0.922412  1
  Al  Al22  1  0.561383  0.125323  0.249502  1
  Al  Al23  1  0.438585  0.874597  0.750459  1
  Al  Al24  1  0.874428  0.438043  0.252463  1
  Al  Al25  1  0.125644  0.561748  0.747381  1
  Al  Al26  1  0.561945  0.437524  0.249594  1
  Al  Al27  1  0.437642  0.562327  0.750402  1
  Al  Al28  1  0.999765  0.003377  0.250176  1
  Al  Al29  1  0.000753  0.997566  0.749792  1
  Os  Os30  1  0.499908  0.999828  0.000071  1
  Os  Os31  1  0.499938  0.999875  0.499886  1
  Os  Os32  1  0.000214  0.499855  0.499684  1
  Os  Os33  1  0.999962  0.999904  0.000036  1
  Os  Os34  1  0.999976  0.999886  0.499952  1
  Pt  Pt35  1  0.000048  0.499847  0.000128  1
  Pt  Pt36  1  0.499805  0.499856  0.000096  1
  Pt  Pt37  1  0.499859  0.499865  0.499897  1
