# generated using pymatgen
data_TbYbTcB8Os
_symmetry_space_group_name_H-M   'P 1'
_cell_length_a   5.97238017
_cell_length_b   11.56124324
_cell_length_c   3.57768000
_cell_angle_alpha   90.00000000
_cell_angle_beta   90.00000000
_cell_angle_gamma   90.07557976
_symmetry_Int_Tables_number   1
_chemical_formula_structural   TbYbTcB8Os
_chemical_formula_sum   'Tb2 Yb2 Tc2 B16 Os2'
_cell_volume   247.03193389
_cell_formula_units_Z   2
loop_
 _symmetry_equiv_pos_site_id
 _symmetry_equiv_pos_as_xyz
  1  'x, y, z'
loop_
 _atom_site_type_symbol
 _atom_site_label
 _atom_site_symmetry_multiplicity
 _atom_site_fract_x
 _atom_site_fract_y
 _atom_site_fract_z
 _atom_site_occupancy
  Tb  Tb0  1  0.127552  0.153033  0.000000  1
  Tb  Tb1  1  0.872448  0.846967  0.000000  1
  Yb  Yb2  1  0.628560  0.352451  0.000000  1
  Yb  Yb3  1  0.371440  0.647549  0.000000  1
  Tc  Tc4  1  0.630312  0.086026  0.000000  1
  Tc  Tc5  1  0.369688  0.913974  0.000000  1
  B  B6  1  0.785172  0.186067  0.500000  1
  B  B7  1  0.214828  0.813933  0.500000  1
  B  B8  1  0.287535  0.316175  0.500000  1
  B  B9  1  0.712465  0.683825  0.500000  1
  B  B10  1  0.864253  0.031843  0.500000  1
  B  B11  1  0.135747  0.968157  0.500000  1
  B  B12  1  0.363755  0.469856  0.500000  1
  B  B13  1  0.636245  0.530144  0.500000  1
  B  B14  1  0.886025  0.453430  0.500000  1
  B  B15  1  0.113975  0.546570  0.500000  1
  B  B16  1  0.387203  0.047643  0.500000  1
  B  B17  1  0.612797  0.952357  0.500000  1
  B  B18  1  0.974083  0.309590  0.500000  1
  B  B19  1  0.025917  0.690410  0.500000  1
  B  B20  1  0.478033  0.193445  0.500000  1
  B  B21  1  0.521967  0.806555  0.500000  1
  Os  Os22  1  0.137973  0.410070  0.000000  1
  Os  Os23  1  0.862027  0.589930  0.000000  1
