# generated using pymatgen
data_CsTl3V4P12(HO10)4
_symmetry_space_group_name_H-M   'P 1'
_cell_length_a   8.84975305
_cell_length_b   9.19477312
_cell_length_c   12.28562700
_cell_angle_alpha   69.04856361
_cell_angle_beta   89.99397892
_cell_angle_gamma   90.00321219
_symmetry_Int_Tables_number   1
_chemical_formula_structural   CsTl3V4P12(HO10)4
_chemical_formula_sum   'Cs1 Tl3 V4 P12 H4 O40'
_cell_volume   933.60324319
_cell_formula_units_Z   1
loop_
 _symmetry_equiv_pos_site_id
 _symmetry_equiv_pos_as_xyz
  1  'x, y, z'
loop_
 _atom_site_type_symbol
 _atom_site_label
 _atom_site_symmetry_multiplicity
 _atom_site_fract_x
 _atom_site_fract_y
 _atom_site_fract_z
 _atom_site_occupancy
  Cs  Cs0  1  0.939560  0.749978  0.000025  1
  Tl  Tl1  1  0.566090  0.249987  0.500026  1
  Tl  Tl2  1  0.065619  0.249967  0.999966  1
  Tl  Tl3  1  0.435465  0.750033  0.499980  1
  V  V4  1  0.750570  0.499560  0.749711  1
  V  V5  1  0.750745  0.000581  0.250216  1
  V  V6  1  0.249630  0.499109  0.250535  1
  V  V7  1  0.249422  0.000520  0.749531  1
  P  P8  1  0.125470  0.249937  0.500041  1
  P  P9  1  0.625217  0.250096  0.999958  1
  P  P10  1  0.875162  0.750098  0.499966  1
  P  P11  1  0.377027  0.749976  0.000034  1
  P  P12  1  0.936980  0.201016  0.705822  1
  P  P13  1  0.437578  0.200717  0.206853  1
  P  P14  1  0.937009  0.299080  0.294185  1
  P  P15  1  0.437450  0.299155  0.793093  1
  P  P16  1  0.063450  0.799348  0.293898  1
  P  P17  1  0.560364  0.800186  0.791039  1
  P  P18  1  0.063393  0.700491  0.706054  1
  P  P19  1  0.560374  0.699948  0.208987  1
  H  H20  1  0.249215  0.999025  0.251535  1
  H  H21  1  0.743965  0.998655  0.749741  1
  H  H22  1  0.743747  0.501725  0.250107  1
  H  H23  1  0.249525  0.500575  0.748688  1
  O  O24  1  0.015515  0.195361  0.417838  1
  O  O25  1  0.514260  0.196685  0.917580  1
  O  O26  1  0.015484  0.304627  0.582203  1
  O  O27  1  0.514320  0.303411  0.082386  1
  O  O28  1  0.986552  0.803506  0.582037  1
  O  O29  1  0.487883  0.802537  0.083062  1
  O  O30  1  0.986562  0.696516  0.417929  1
  O  O31  1  0.487840  0.697425  0.916985  1
  O  O32  1  0.811492  0.109165  0.673204  1
  O  O33  1  0.310952  0.107806  0.175846  1
  O  O34  1  0.811553  0.390816  0.326859  1
  O  O35  1  0.310815  0.392222  0.824078  1
  O  O36  1  0.189563  0.892985  0.325401  1
  O  O37  1  0.683464  0.897985  0.821150  1
  O  O38  1  0.189545  0.607037  0.674546  1
  O  O39  1  0.683555  0.602122  0.178894  1
  O  O40  1  0.878687  0.315931  0.759243  1
  O  O41  1  0.379872  0.316593  0.259445  1
  O  O42  1  0.878845  0.184219  0.240643  1
  O  O43  1  0.379677  0.183132  0.740698  1
  O  O44  1  0.122307  0.683837  0.241734  1
  O  O45  1  0.622628  0.684909  0.740013  1
  O  O46  1  0.122079  0.815877  0.758428  1
  O  O47  1  0.622643  0.815284  0.259930  1
  O  O48  1  0.214453  0.391931  0.428593  1
  O  O49  1  0.714183  0.392264  0.928649  1
  O  O50  1  0.214263  0.107865  0.571519  1
  O  O51  1  0.714228  0.107975  0.071235  1
  O  O52  1  0.786249  0.607929  0.571113  1
  O  O53  1  0.288379  0.607770  0.071366  1
  O  O54  1  0.786395  0.892326  0.428798  1
  O  O55  1  0.288298  0.892100  0.928749  1
  O  O56  1  0.060968  0.400646  0.214784  1
  O  O57  1  0.561282  0.400875  0.714360  1
  O  O58  1  0.060844  0.099486  0.785263  1
  O  O59  1  0.561534  0.099158  0.285509  1
  O  O60  1  0.939727  0.598934  0.784915  1
  O  O61  1  0.435136  0.601791  0.287653  1
  O  O62  1  0.939908  0.900955  0.214970  1
  O  O63  1  0.435033  0.898245  0.712404  1
