# generated using pymatgen
data_Ho(TlCl2)3
_symmetry_space_group_name_H-M   'P 1'
_cell_length_a   7.82783900
_cell_length_b   12.70739780
_cell_length_c   13.25931300
_cell_angle_alpha   71.28935986
_cell_angle_beta   90.00000000
_cell_angle_gamma   90.00000000
_symmetry_Int_Tables_number   1
_chemical_formula_structural   Ho(TlCl2)3
_chemical_formula_sum   'Ho4 Tl12 Cl24'
_cell_volume   1249.21913388
_cell_formula_units_Z   4
loop_
 _symmetry_equiv_pos_site_id
 _symmetry_equiv_pos_as_xyz
  1  'x, y, z'
loop_
 _atom_site_type_symbol
 _atom_site_label
 _atom_site_symmetry_multiplicity
 _atom_site_fract_x
 _atom_site_fract_y
 _atom_site_fract_z
 _atom_site_occupancy
  Ho  Ho0  1  0.000000  0.500000  0.500000  1
  Ho  Ho1  1  0.500000  0.000000  0.500000  1
  Ho  Ho2  1  0.000000  0.000000  0.000000  1
  Ho  Ho3  1  0.500000  0.500000  0.000000  1
  Tl  Tl4  1  0.434586  0.734864  0.315306  1
  Tl  Tl5  1  0.565414  0.265136  0.684694  1
  Tl  Tl6  1  0.934586  0.765136  0.684694  1
  Tl  Tl7  1  0.065414  0.234864  0.315306  1
  Tl  Tl8  1  0.967864  0.639759  0.099058  1
  Tl  Tl9  1  0.032136  0.360241  0.900942  1
  Tl  Tl10  1  0.467864  0.860241  0.900942  1
  Tl  Tl11  1  0.532136  0.139759  0.099058  1
  Tl  Tl12  1  0.934420  0.887317  0.320827  1
  Tl  Tl13  1  0.065580  0.112683  0.679173  1
  Tl  Tl14  1  0.434420  0.612683  0.679173  1
  Tl  Tl15  1  0.565580  0.387317  0.320827  1
  Cl  Cl16  1  0.497875  0.629024  0.118369  1
  Cl  Cl17  1  0.502125  0.370976  0.881631  1
  Cl  Cl18  1  0.997875  0.870976  0.881631  1
  Cl  Cl19  1  0.002125  0.129024  0.118369  1
  Cl  Cl20  1  0.292057  0.995312  0.345719  1
  Cl  Cl21  1  0.707943  0.004688  0.654281  1
  Cl  Cl22  1  0.792057  0.504688  0.654281  1
  Cl  Cl23  1  0.207943  0.495312  0.345719  1
  Cl  Cl24  1  0.786552  0.607069  0.348003  1
  Cl  Cl25  1  0.213448  0.392931  0.651997  1
  Cl  Cl26  1  0.286552  0.892931  0.651997  1
  Cl  Cl27  1  0.713448  0.107069  0.348003  1
  Cl  Cl28  1  0.640609  0.809763  0.500780  1
  Cl  Cl29  1  0.359391  0.190237  0.499220  1
  Cl  Cl30  1  0.140609  0.690237  0.499220  1
  Cl  Cl31  1  0.859391  0.309763  0.500780  1
  Cl  Cl32  1  0.181548  0.846620  0.136987  1
  Cl  Cl33  1  0.818452  0.153380  0.863013  1
  Cl  Cl34  1  0.681548  0.653380  0.863013  1
  Cl  Cl35  1  0.318452  0.346620  0.136987  1
  Cl  Cl36  1  0.717976  0.903405  0.100180  1
  Cl  Cl37  1  0.282024  0.096595  0.899820  1
  Cl  Cl38  1  0.217976  0.596595  0.899820  1
  Cl  Cl39  1  0.782024  0.403405  0.100180  1
