# generated using pymatgen
data_Gd17(MgRh4)3
_symmetry_space_group_name_H-M   'P 1'
_cell_length_a   10.80272100
_cell_length_b   10.80272100
_cell_length_c   6.31962200
_cell_angle_alpha   90.00000000
_cell_angle_beta   90.00000000
_cell_angle_gamma   90.00000000
_symmetry_Int_Tables_number   1
_chemical_formula_structural   Gd17(MgRh4)3
_chemical_formula_sum   'Gd17 Mg3 Rh12'
_cell_volume   737.49218381
_cell_formula_units_Z   1
loop_
 _symmetry_equiv_pos_site_id
 _symmetry_equiv_pos_as_xyz
  1  'x, y, z'
loop_
 _atom_site_type_symbol
 _atom_site_label
 _atom_site_symmetry_multiplicity
 _atom_site_fract_x
 _atom_site_fract_y
 _atom_site_fract_z
 _atom_site_occupancy
  Gd  Gd0  1  0.282614  0.087119  0.382443  1
  Gd  Gd1  1  0.282751  0.914986  0.880316  1
  Gd  Gd2  1  0.717249  0.085014  0.880316  1
  Gd  Gd3  1  0.717386  0.912881  0.382443  1
  Gd  Gd4  1  0.586319  0.784167  0.879651  1
  Gd  Gd5  1  0.590211  0.208000  0.379287  1
  Gd  Gd6  1  0.409789  0.792000  0.379287  1
  Gd  Gd7  1  0.413681  0.215833  0.879651  1
  Gd  Gd8  1  0.208000  0.409789  0.620713  1
  Gd  Gd9  1  0.215833  0.586319  0.120349  1
  Gd  Gd10  1  0.784167  0.413681  0.120349  1
  Gd  Gd11  1  0.792000  0.590211  0.620713  1
  Gd  Gd12  1  0.914986  0.717249  0.119684  1
  Gd  Gd13  1  0.912881  0.282614  0.617557  1
  Gd  Gd14  1  0.087119  0.717386  0.617557  1
  Gd  Gd15  1  0.085014  0.282751  0.119684  1
  Gd  Gd16  1  0.500000  0.500000  0.500000  1
  Mg  Mg17  1  0.000000  0.000000  0.500000  1
  Mg  Mg18  1  0.000000  0.000000  0.000000  1
  Mg  Mg19  1  0.500000  0.500000  0.000000  1
  Rh  Rh20  1  0.847470  0.153122  0.246956  1
  Rh  Rh21  1  0.846878  0.847470  0.753044  1
  Rh  Rh22  1  0.153122  0.152530  0.753044  1
  Rh  Rh23  1  0.152530  0.846878  0.246956  1
  Rh  Rh24  1  0.656290  0.345754  0.746598  1
  Rh  Rh25  1  0.654246  0.656290  0.253402  1
  Rh  Rh26  1  0.345754  0.343710  0.253402  1
  Rh  Rh27  1  0.343710  0.654246  0.746598  1
  Rh  Rh28  1  0.500000  0.000000  0.120221  1
  Rh  Rh29  1  0.500000  0.000000  0.624988  1
  Rh  Rh30  1  0.000000  0.500000  0.879779  1
  Rh  Rh31  1  0.000000  0.500000  0.375012  1
