# generated using pymatgen
data_Ca20In3Ga8Bi
_symmetry_space_group_name_H-M   'P 1'
_cell_length_a   8.15907900
_cell_length_b   8.15907900
_cell_length_c   14.65815900
_cell_angle_alpha   90.00000000
_cell_angle_beta   90.00000000
_cell_angle_gamma   90.00000000
_symmetry_Int_Tables_number   1
_chemical_formula_structural   Ca20In3Ga8Bi
_chemical_formula_sum   'Ca20 In3 Ga8 Bi1'
_cell_volume   975.80200166
_cell_formula_units_Z   1
loop_
 _symmetry_equiv_pos_site_id
 _symmetry_equiv_pos_as_xyz
  1  'x, y, z'
loop_
 _atom_site_type_symbol
 _atom_site_label
 _atom_site_symmetry_multiplicity
 _atom_site_fract_x
 _atom_site_fract_y
 _atom_site_fract_z
 _atom_site_occupancy
  Ca  Ca0  1  0.673715  0.175409  0.109943  1
  Ca  Ca1  1  0.176153  0.674105  0.610041  1
  Ca  Ca2  1  0.326285  0.824591  0.109943  1
  Ca  Ca3  1  0.823847  0.325895  0.610041  1
  Ca  Ca4  1  0.824591  0.673715  0.109943  1
  Ca  Ca5  1  0.325895  0.176153  0.610041  1
  Ca  Ca6  1  0.175409  0.326285  0.109943  1
  Ca  Ca7  1  0.674105  0.823847  0.610041  1
  Ca  Ca8  1  0.824591  0.326285  0.890057  1
  Ca  Ca9  1  0.325895  0.823847  0.389959  1
  Ca  Ca10  1  0.175409  0.673715  0.890057  1
  Ca  Ca11  1  0.674105  0.176153  0.389959  1
  Ca  Ca12  1  0.673715  0.824591  0.890057  1
  Ca  Ca13  1  0.176153  0.325895  0.389959  1
  Ca  Ca14  1  0.326285  0.175409  0.890057  1
  Ca  Ca15  1  0.823847  0.674105  0.389959  1
  Ca  Ca16  1  0.500000  0.500000  0.750189  1
  Ca  Ca17  1  0.000000  0.000000  0.252123  1
  Ca  Ca18  1  0.000000  0.000000  0.747877  1
  Ca  Ca19  1  0.500000  0.500000  0.249811  1
  In  In20  1  0.500000  0.500000  0.500000  1
  In  In21  1  0.500000  0.500000  0.000000  1
  In  In22  1  0.000000  0.000000  0.500000  1
  Ga  Ga23  1  0.612244  0.112560  0.751923  1
  Ga  Ga24  1  0.112560  0.612244  0.248077  1
  Ga  Ga25  1  0.887440  0.387756  0.248077  1
  Ga  Ga26  1  0.387756  0.887440  0.751923  1
  Ga  Ga27  1  0.887440  0.612244  0.751923  1
  Ga  Ga28  1  0.387756  0.112560  0.248077  1
  Ga  Ga29  1  0.112560  0.387756  0.751923  1
  Ga  Ga30  1  0.612244  0.887440  0.248077  1
  Bi  Bi31  1  0.000000  0.000000  0.000000  1
