# generated using pymatgen
data_Ti10AlSn4Ge
_symmetry_space_group_name_H-M   'P 1'
_cell_length_a   7.90072273
_cell_length_b   7.90072202
_cell_length_c   7.90072200
_cell_angle_alpha   96.16091436
_cell_angle_beta   96.16090838
_cell_angle_gamma   141.75377374
_symmetry_Int_Tables_number   1
_chemical_formula_structural   Ti10AlSn4Ge
_chemical_formula_sum   'Ti10 Al1 Sn4 Ge1'
_cell_volume   288.44851292
_cell_formula_units_Z   1
loop_
 _symmetry_equiv_pos_site_id
 _symmetry_equiv_pos_as_xyz
  1  'x, y, z'
loop_
 _atom_site_type_symbol
 _atom_site_label
 _atom_site_symmetry_multiplicity
 _atom_site_fract_x
 _atom_site_fract_y
 _atom_site_fract_z
 _atom_site_occupancy
  Ti  Ti0  1  0.215874  0.925530  0.141780  1
  Ti  Ti1  1  0.425907  0.716251  0.141780  1
  Ti  Ti2  1  0.074093  0.215874  0.290344  1
  Ti  Ti3  1  0.716251  0.574470  0.290344  1
  Ti  Ti4  1  0.749999  0.249999  0.500000  1
  Ti  Ti5  1  0.249999  0.749999  0.500000  1
  Ti  Ti6  1  0.284126  0.425907  0.709656  1
  Ti  Ti7  1  0.925530  0.783749  0.709656  1
  Ti  Ti8  1  0.783749  0.074093  0.858220  1
  Ti  Ti9  1  0.574469  0.284126  0.858219  1
  Al  Al10  1  0.749999  0.749999  0.000000  1
  Sn  Sn11  1  0.834670  0.334670  0.169340  1
  Sn  Sn12  1  0.334670  0.165330  0.499999  1
  Sn  Sn13  1  0.665330  0.834670  0.499999  1
  Sn  Sn14  1  0.165330  0.665330  0.830660  1
  Ge  Ge15  1  0.249999  0.249999  0.000000  1
