# generated using pymatgen
data_Dy8Y4Co2Ni3Bi
_symmetry_space_group_name_H-M   'P 1'
_cell_length_a   8.37524726
_cell_length_b   8.37527498
_cell_length_c   8.37524664
_cell_angle_alpha   111.03527848
_cell_angle_beta   109.46621863
_cell_angle_gamma   107.92694058
_symmetry_Int_Tables_number   1
_chemical_formula_structural   Dy8Y4Co2Ni3Bi
_chemical_formula_sum   'Dy8 Y4 Co2 Ni3 Bi1'
_cell_volume   451.91155920
_cell_formula_units_Z   1
loop_
 _symmetry_equiv_pos_site_id
 _symmetry_equiv_pos_as_xyz
  1  'x, y, z'
loop_
 _atom_site_type_symbol
 _atom_site_label
 _atom_site_symmetry_multiplicity
 _atom_site_fract_x
 _atom_site_fract_y
 _atom_site_fract_z
 _atom_site_occupancy
  Dy  Dy0  1  0.685248  0.374801  0.689553  1
  Dy  Dy1  1  0.314752  0.625199  0.310447  1
  Dy  Dy2  1  0.685248  0.995694  0.310446  1
  Dy  Dy3  1  0.314752  0.004306  0.689554  1
  Dy  Dy4  1  0.599163  0.792861  0.806302  1
  Dy  Dy5  1  0.400837  0.207139  0.193698  1
  Dy  Dy6  1  0.986559  0.792861  0.193698  1
  Dy  Dy7  1  0.013441  0.207139  0.806302  1
  Y  Y8  1  0.817410  0.708273  0.525684  1
  Y  Y9  1  0.182590  0.291727  0.474316  1
  Y  Y10  1  0.182589  0.708273  0.890862  1
  Y  Y11  1  0.817411  0.291727  0.109138  1
  Co  Co12  1  0.113297  0.613296  0.499999  1
  Co  Co13  1  0.886703  0.386704  0.500001  1
  Ni  Ni14  1  0.631215  0.000000  0.631215  1
  Ni  Ni15  1  0.368785  0.000000  0.368785  1
  Ni  Ni16  1  0.000000  0.000000  0.000000  1
  Bi  Bi17  1  0.500000  0.500000  0.000000  1
