# generated using pymatgen
data_LaNd4Bi3O14
_symmetry_space_group_name_H-M   'P 1'
_cell_length_a   6.76828058
_cell_length_b   6.83681867
_cell_length_c   7.98013547
_cell_angle_alpha   106.72279758
_cell_angle_beta   89.66491966
_cell_angle_gamma   97.96489823
_symmetry_Int_Tables_number   1
_chemical_formula_structural   LaNd4Bi3O14
_chemical_formula_sum   'La1 Nd4 Bi3 O14'
_cell_volume   350.01472718
_cell_formula_units_Z   1
loop_
 _symmetry_equiv_pos_site_id
 _symmetry_equiv_pos_as_xyz
  1  'x, y, z'
loop_
 _atom_site_type_symbol
 _atom_site_label
 _atom_site_symmetry_multiplicity
 _atom_site_fract_x
 _atom_site_fract_y
 _atom_site_fract_z
 _atom_site_occupancy
  La  La0  1  0.754307  0.487663  0.619793  1
  Nd  Nd1  1  0.456775  0.007224  0.254685  1
  Nd  Nd2  1  0.537780  0.002483  0.750405  1
  Nd  Nd3  1  0.267909  0.531900  0.882700  1
  Nd  Nd4  1  0.743441  0.461556  0.114998  1
  Bi  Bi5  1  0.993570  0.998719  0.499444  1
  Bi  Bi6  1  0.998621  0.995796  0.997673  1
  Bi  Bi7  1  0.290002  0.537782  0.389238  1
  O  O8  1  0.444254  0.647436  0.172417  1
  O  O9  1  0.559371  0.360123  0.838866  1
  O  O10  1  0.296060  0.920558  0.953095  1
  O  O11  1  0.702644  0.072853  0.048699  1
  O  O12  1  0.290469  0.926263  0.512936  1
  O  O13  1  0.702759  0.083015  0.492518  1
  O  O14  1  0.546037  0.364676  0.342462  1
  O  O15  1  0.455161  0.639725  0.651537  1
  O  O16  1  0.926379  0.668706  0.948967  1
  O  O17  1  0.069198  0.315267  0.026661  1
  O  O18  1  0.074372  0.325167  0.625343  1
  O  O19  1  0.903246  0.675326  0.383339  1
  O  O20  1  0.881703  0.910061  0.727979  1
  O  O21  1  0.105941  0.067701  0.266244  1
