# generated using pymatgen
data_Yb3C3BrCl
_symmetry_space_group_name_H-M   'P 1'
_cell_length_a   7.04803303
_cell_length_b   7.04803312
_cell_length_c   11.49518300
_cell_angle_alpha   90.00000000
_cell_angle_beta   90.00000000
_cell_angle_gamma   148.31171569
_symmetry_Int_Tables_number   1
_chemical_formula_structural   Yb3C3BrCl
_chemical_formula_sum   'Yb6 C6 Br2 Cl2'
_cell_volume   299.95577637
_cell_formula_units_Z   2
loop_
 _symmetry_equiv_pos_site_id
 _symmetry_equiv_pos_as_xyz
  1  'x, y, z'
loop_
 _atom_site_type_symbol
 _atom_site_label
 _atom_site_symmetry_multiplicity
 _atom_site_fract_x
 _atom_site_fract_y
 _atom_site_fract_z
 _atom_site_occupancy
  Yb  Yb0  1  0.661320  0.338680  0.565322  1
  Yb  Yb1  1  0.338680  0.661320  0.434678  1
  Yb  Yb2  1  0.338680  0.661320  0.065322  1
  Yb  Yb3  1  0.661320  0.338680  0.934678  1
  Yb  Yb4  1  0.118264  0.881736  0.250000  1
  Yb  Yb5  1  0.881736  0.118264  0.750000  1
  C  C6  1  0.270233  0.729767  0.634493  1
  C  C7  1  0.729767  0.270233  0.365507  1
  C  C8  1  0.729767  0.270233  0.134493  1
  C  C9  1  0.270233  0.729767  0.865507  1
  C  C10  1  0.739763  0.260237  0.250000  1
  C  C11  1  0.260237  0.739763  0.750000  1
  Br  Br12  1  0.000000  0.000000  0.000000  1
  Br  Br13  1  0.000000  0.000000  0.500000  1
  Cl  Cl14  1  0.530351  0.469649  0.750000  1
  Cl  Cl15  1  0.469649  0.530351  0.250000  1
