# generated using pymatgen
data_Ca7La(Ge3Rh4)2
_symmetry_space_group_name_H-M   'P 1'
_cell_length_a   10.99481799
_cell_length_b   10.97091584
_cell_length_c   7.76725880
_cell_angle_alpha   72.15732201
_cell_angle_beta   71.97492559
_cell_angle_gamma   30.44762051
_symmetry_Int_Tables_number   1
_chemical_formula_structural   Ca7La(Ge3Rh4)2
_chemical_formula_sum   'Ca7 La1 Ge6 Rh8'
_cell_volume   449.94832993
_cell_formula_units_Z   1
loop_
 _symmetry_equiv_pos_site_id
 _symmetry_equiv_pos_as_xyz
  1  'x, y, z'
loop_
 _atom_site_type_symbol
 _atom_site_label
 _atom_site_symmetry_multiplicity
 _atom_site_fract_x
 _atom_site_fract_y
 _atom_site_fract_z
 _atom_site_occupancy
  Ca  Ca0  1  0.214764  0.445658  0.404392  1
  Ca  Ca1  1  0.552155  0.789782  0.093452  1
  Ca  Ca2  1  0.448023  0.206900  0.906618  1
  Ca  Ca3  1  0.925115  0.208017  0.331789  1
  Ca  Ca4  1  0.788635  0.075896  0.166433  1
  Ca  Ca5  1  0.074742  0.790191  0.665822  1
  Ca  Ca6  1  0.205699  0.926941  0.836104  1
  La  La7  1  0.783903  0.561747  0.595549  1
  Ge  Ge8  1  0.613195  0.385218  0.749439  1
  Ge  Ge9  1  0.386261  0.614103  0.249290  1
  Ge  Ge10  1  0.296542  0.044922  0.436499  1
  Ge  Ge11  1  0.964524  0.696627  0.056909  1
  Ge  Ge12  1  0.696163  0.961927  0.559537  1
  Ge  Ge13  1  0.045248  0.298426  0.946414  1
  Rh  Rh14  1  0.300886  0.577723  0.023028  1
  Rh  Rh15  1  0.578680  0.299379  0.522308  1
  Rh  Rh16  1  0.703288  0.419983  0.974014  1
  Rh  Rh17  1  0.071047  0.374681  0.190433  1
  Rh  Rh18  1  0.642622  0.910259  0.314187  1
  Rh  Rh19  1  0.424035  0.698544  0.477146  1
  Rh  Rh20  1  0.919498  0.635468  0.813956  1
  Rh  Rh21  1  0.364975  0.077609  0.686681  1
