# generated using pymatgen
data_Eu4Sc2SbWO14
_symmetry_space_group_name_H-M   'P 1'
_cell_length_a   6.44655866
_cell_length_b   6.44655859
_cell_length_c   7.61037782
_cell_angle_alpha   90.24062462
_cell_angle_beta   89.75937607
_cell_angle_gamma   108.99280769
_symmetry_Int_Tables_number   1
_chemical_formula_structural   Eu4Sc2SbWO14
_chemical_formula_sum   'Eu4 Sc2 Sb1 W1 O14'
_cell_volume   299.05092158
_cell_formula_units_Z   1
loop_
 _symmetry_equiv_pos_site_id
 _symmetry_equiv_pos_as_xyz
  1  'x, y, z'
loop_
 _atom_site_type_symbol
 _atom_site_label
 _atom_site_symmetry_multiplicity
 _atom_site_fract_x
 _atom_site_fract_y
 _atom_site_fract_z
 _atom_site_occupancy
  Eu  Eu0  1  0.521565  0.521565  0.500000  1
  Eu  Eu1  1  0.507738  0.507738  0.000000  1
  Eu  Eu2  1  0.471798  0.006596  0.250622  1
  Eu  Eu3  1  0.006596  0.471798  0.749378  1
  Sc  Sc4  1  0.520969  0.004232  0.761033  1
  Sc  Sc5  1  0.004232  0.520969  0.238967  1
  Sb  Sb6  1  0.998132  0.998132  0.000000  1
  W  W7  1  0.999006  0.999006  0.500000  1
  O  O8  1  0.680694  0.930721  0.483813  1
  O  O9  1  0.930721  0.680694  0.516187  1
  O  O10  1  0.674315  0.931418  0.013706  1
  O  O11  1  0.931418  0.674315  0.986294  1
  O  O12  1  0.301238  0.051523  0.555240  1
  O  O13  1  0.051523  0.301238  0.444760  1
  O  O14  1  0.318072  0.064465  0.959561  1
  O  O15  1  0.064465  0.318072  0.040439  1
  O  O16  1  0.939754  0.060758  0.746688  1
  O  O17  1  0.060758  0.939754  0.253312  1
  O  O18  1  0.381006  0.655931  0.748837  1
  O  O19  1  0.655931  0.381006  0.251163  1
  O  O20  1  0.638492  0.341578  0.747448  1
  O  O21  1  0.341578  0.638492  0.252552  1
