# generated using pymatgen
data_Zn4CdCo(AsO4)4
_symmetry_space_group_name_H-M   'P 1'
_cell_length_a   8.87607778
_cell_length_b   5.34071763
_cell_length_c   9.08872457
_cell_angle_alpha   60.58244969
_cell_angle_beta   90.33733599
_cell_angle_gamma   90.29395338
_symmetry_Int_Tables_number   1
_chemical_formula_structural   Zn4CdCo(AsO4)4
_chemical_formula_sum   'Zn4 Cd1 Co1 As4 O16'
_cell_volume   375.28781469
_cell_formula_units_Z   1
loop_
 _symmetry_equiv_pos_site_id
 _symmetry_equiv_pos_as_xyz
  1  'x, y, z'
loop_
 _atom_site_type_symbol
 _atom_site_label
 _atom_site_symmetry_multiplicity
 _atom_site_fract_x
 _atom_site_fract_y
 _atom_site_fract_z
 _atom_site_occupancy
  Zn  Zn0  1  0.138283  0.458226  0.114108  1
  Zn  Zn1  1  0.633974  0.511074  0.389649  1
  Zn  Zn2  1  0.861717  0.541774  0.885892  1
  Zn  Zn3  1  0.366026  0.488926  0.610351  1
  Cd  Cd4  1  0.000000  0.500000  0.500000  1
  Co  Co5  1  0.500000  0.500000  0.000000  1
  As  As6  1  0.313451  0.845798  0.188811  1
  As  As7  1  0.795425  0.156221  0.294588  1
  As  As8  1  0.686549  0.154202  0.811189  1
  As  As9  1  0.204575  0.843779  0.705412  1
  O  O10  1  0.074111  0.689804  0.867157  1
  O  O11  1  0.568851  0.307367  0.636394  1
  O  O12  1  0.925889  0.310196  0.132843  1
  O  O13  1  0.431149  0.692633  0.363606  1
  O  O14  1  0.207867  0.204091  0.641802  1
  O  O15  1  0.694220  0.790475  0.878465  1
  O  O16  1  0.792133  0.795909  0.358198  1
  O  O17  1  0.305780  0.209525  0.121535  1
  O  O18  1  0.157344  0.797121  0.536994  1
  O  O19  1  0.629977  0.212592  0.970750  1
  O  O20  1  0.139472  0.670762  0.244442  1
  O  O21  1  0.624185  0.337268  0.234517  1
  O  O22  1  0.860528  0.329238  0.755558  1
  O  O23  1  0.375815  0.662732  0.765483  1
  O  O24  1  0.370023  0.787408  0.029250  1
  O  O25  1  0.842656  0.202879  0.463006  1
