# generated using pymatgen
data_Tb6PrNd(CdPt)2
_symmetry_space_group_name_H-M   'P 1'
_cell_length_a   9.81511028
_cell_length_b   9.78558950
_cell_length_c   9.79042020
_cell_angle_alpha   60.18328800
_cell_angle_beta   59.88396549
_cell_angle_gamma   59.93274518
_symmetry_Int_Tables_number   1
_chemical_formula_structural   Tb6PrNd(CdPt)2
_chemical_formula_sum   'Tb12 Pr2 Nd2 Cd4 Pt4'
_cell_volume   664.90817286
_cell_formula_units_Z   2
loop_
 _symmetry_equiv_pos_site_id
 _symmetry_equiv_pos_as_xyz
  1  'x, y, z'
loop_
 _atom_site_type_symbol
 _atom_site_label
 _atom_site_symmetry_multiplicity
 _atom_site_fract_x
 _atom_site_fract_y
 _atom_site_fract_z
 _atom_site_occupancy
  Tb  Tb0  1  0.351478  0.350414  0.350272  1
  Tb  Tb1  1  0.350414  0.351478  0.947834  1
  Tb  Tb2  1  0.350272  0.947834  0.351478  1
  Tb  Tb3  1  0.947834  0.350272  0.350414  1
  Tb  Tb4  1  0.810718  0.189282  0.189282  1
  Tb  Tb5  1  0.189282  0.810718  0.810718  1
  Tb  Tb6  1  0.189611  0.810389  0.189611  1
  Tb  Tb7  1  0.810389  0.189611  0.810389  1
  Tb  Tb8  1  0.189671  0.189671  0.810329  1
  Tb  Tb9  1  0.810329  0.810329  0.189671  1
  Tb  Tb10  1  0.941286  0.558714  0.558714  1
  Tb  Tb11  1  0.558714  0.941286  0.941286  1
  Pr  Pr12  1  0.565560  0.934440  0.565560  1
  Pr  Pr13  1  0.934440  0.565560  0.934440  1
  Nd  Nd14  1  0.564399  0.564399  0.935601  1
  Nd  Nd15  1  0.935601  0.935601  0.564399  1
  Cd  Cd16  1  0.582946  0.578677  0.579494  1
  Cd  Cd17  1  0.578677  0.582946  0.258884  1
  Cd  Cd18  1  0.579494  0.258884  0.582946  1
  Cd  Cd19  1  0.258884  0.579494  0.578677  1
  Pt  Pt20  1  0.145282  0.141275  0.142007  1
  Pt  Pt21  1  0.141275  0.145282  0.571437  1
  Pt  Pt22  1  0.142007  0.571437  0.145282  1
  Pt  Pt23  1  0.571437  0.142007  0.141275  1
