# generated using pymatgen
data_Nd6DyIrBr12
_symmetry_space_group_name_H-M   'P 1'
_cell_length_a   9.59842829
_cell_length_b   9.59842847
_cell_length_c   9.59842942
_cell_angle_alpha   107.29774510
_cell_angle_beta   107.29774706
_cell_angle_gamma   107.29772887
_symmetry_Int_Tables_number   1
_chemical_formula_structural   Nd6DyIrBr12
_chemical_formula_sum   'Nd6 Dy1 Ir1 Br12'
_cell_volume   730.39082150
_cell_formula_units_Z   1
loop_
 _symmetry_equiv_pos_site_id
 _symmetry_equiv_pos_as_xyz
  1  'x, y, z'
loop_
 _atom_site_type_symbol
 _atom_site_label
 _atom_site_symmetry_multiplicity
 _atom_site_fract_x
 _atom_site_fract_y
 _atom_site_fract_z
 _atom_site_occupancy
  Nd  Nd0  1  0.103849  0.314248  0.025387  1
  Nd  Nd1  1  0.314248  0.025388  0.103848  1
  Nd  Nd2  1  0.025388  0.103848  0.314249  1
  Nd  Nd3  1  0.974613  0.896152  0.685752  1
  Nd  Nd4  1  0.685752  0.974613  0.896152  1
  Nd  Nd5  1  0.896151  0.685752  0.974613  1
  Dy  Dy6  1  0.500000  0.500000  0.500000  1
  Ir  Ir7  1  0.000000  0.000000  0.000000  1
  Br  Br8  1  0.222246  0.685245  0.074610  1
  Br  Br9  1  0.466552  0.390865  0.180213  1
  Br  Br10  1  0.685246  0.074610  0.222246  1
  Br  Br11  1  0.925391  0.777754  0.314755  1
  Br  Br12  1  0.180213  0.466552  0.390865  1
  Br  Br13  1  0.390865  0.180213  0.466552  1
  Br  Br14  1  0.609135  0.819787  0.533449  1
  Br  Br15  1  0.819788  0.533448  0.609135  1
  Br  Br16  1  0.074610  0.222246  0.685246  1
  Br  Br17  1  0.314755  0.925391  0.777754  1
  Br  Br18  1  0.533448  0.609135  0.819788  1
  Br  Br19  1  0.777754  0.314755  0.925390  1
