# generated using pymatgen
data_Ho8Er3Tm9Pt16
_symmetry_space_group_name_H-M   'P 1'
_cell_length_a   7.42254003
_cell_length_b   7.51909203
_cell_length_c   14.62547907
_cell_angle_alpha   89.99230509
_cell_angle_beta   90.00761316
_cell_angle_gamma   89.99312859
_symmetry_Int_Tables_number   1
_chemical_formula_structural   Ho8Er3Tm9Pt16
_chemical_formula_sum   'Ho8 Er3 Tm9 Pt16'
_cell_volume   816.25910471
_cell_formula_units_Z   1
loop_
 _symmetry_equiv_pos_site_id
 _symmetry_equiv_pos_as_xyz
  1  'x, y, z'
loop_
 _atom_site_type_symbol
 _atom_site_label
 _atom_site_symmetry_multiplicity
 _atom_site_fract_x
 _atom_site_fract_y
 _atom_site_fract_z
 _atom_site_occupancy
  Ho  Ho0  1  0.501103  0.679462  0.592596  1
  Ho  Ho1  1  0.001039  0.820496  0.907400  1
  Ho  Ho2  1  0.498948  0.320501  0.092627  1
  Ho  Ho3  1  0.998870  0.179515  0.407398  1
  Ho  Ho4  1  0.498787  0.320555  0.407343  1
  Ho  Ho5  1  0.998732  0.179547  0.092664  1
  Ho  Ho6  1  0.501295  0.679556  0.907368  1
  Ho  Ho7  1  0.001209  0.820390  0.592567  1
  Er  Er8  1  0.656908  0.167714  0.622556  1
  Er  Er9  1  0.156847  0.332295  0.877413  1
  Er  Er10  1  0.343132  0.832248  0.122577  1
  Tm  Tm11  1  0.843155  0.667723  0.377374  1
  Tm  Tm12  1  0.343123  0.832234  0.377389  1
  Tm  Tm13  1  0.843122  0.667727  0.122646  1
  Tm  Tm14  1  0.656880  0.167708  0.877400  1
  Tm  Tm15  1  0.156848  0.332296  0.622594  1
  Tm  Tm16  1  0.819265  0.511008  0.750000  1
  Tm  Tm17  1  0.319280  0.989012  0.749999  1
  Tm  Tm18  1  0.180605  0.489099  0.250055  1
  Tm  Tm19  1  0.680791  0.010869  0.250050  1
  Pt  Pt20  1  0.683311  0.966627  0.458200  1
  Pt  Pt21  1  0.183216  0.533146  0.041735  1
  Pt  Pt22  1  0.316805  0.033143  0.958269  1
  Pt  Pt23  1  0.816807  0.467007  0.541624  1
  Pt  Pt24  1  0.316524  0.033171  0.541650  1
  Pt  Pt25  1  0.816493  0.466847  0.958352  1
  Pt  Pt26  1  0.683514  0.966850  0.041655  1
  Pt  Pt27  1  0.183351  0.533231  0.458307  1
  Pt  Pt28  1  0.454249  0.386574  0.750007  1
  Pt  Pt29  1  0.954260  0.113425  0.750001  1
  Pt  Pt30  1  0.545909  0.613460  0.250070  1
  Pt  Pt31  1  0.045638  0.886460  0.250062  1
  Pt  Pt32  1  0.682710  0.856603  0.750059  1
  Pt  Pt33  1  0.182712  0.643414  0.749950  1
  Pt  Pt34  1  0.317266  0.143369  0.250042  1
  Pt  Pt35  1  0.817296  0.356719  0.249997  1
