# generated using pymatgen
data_CePr3(Cu5Sn)4
_symmetry_space_group_name_H-M   'P 1'
_cell_length_a   5.09304000
_cell_length_b   8.33713458
_cell_length_c   10.61364706
_cell_angle_alpha   90.07252634
_cell_angle_beta   90.00000000
_cell_angle_gamma   90.00000000
_symmetry_Int_Tables_number   1
_chemical_formula_structural   CePr3(Cu5Sn)4
_chemical_formula_sum   'Ce1 Pr3 Cu20 Sn4'
_cell_volume   450.66952698
_cell_formula_units_Z   1
loop_
 _symmetry_equiv_pos_site_id
 _symmetry_equiv_pos_as_xyz
  1  'x, y, z'
loop_
 _atom_site_type_symbol
 _atom_site_label
 _atom_site_symmetry_multiplicity
 _atom_site_fract_x
 _atom_site_fract_y
 _atom_site_fract_z
 _atom_site_occupancy
  Ce  Ce0  1  0.250000  0.754077  0.058810  1
  Pr  Pr1  1  0.750000  0.245985  0.940808  1
  Pr  Pr2  1  0.750000  0.745325  0.559105  1
  Pr  Pr3  1  0.250000  0.254260  0.441342  1
  Cu  Cu4  1  0.250000  0.817059  0.746198  1
  Cu  Cu5  1  0.750000  0.182843  0.254914  1
  Cu  Cu6  1  0.750000  0.683642  0.243750  1
  Cu  Cu7  1  0.250000  0.317044  0.754797  1
  Cu  Cu8  1  0.500023  0.567100  0.812520  1
  Cu  Cu9  1  0.499379  0.433314  0.187743  1
  Cu  Cu10  1  0.499907  0.933221  0.311549  1
  Cu  Cu11  1  0.000621  0.433314  0.187743  1
  Cu  Cu12  1  0.500126  0.066656  0.688286  1
  Cu  Cu13  1  0.999977  0.567100  0.812520  1
  Cu  Cu14  1  0.999874  0.066656  0.688286  1
  Cu  Cu15  1  0.000093  0.933221  0.311549  1
  Cu  Cu16  1  0.250000  0.916253  0.516925  1
  Cu  Cu17  1  0.750000  0.082798  0.483433  1
  Cu  Cu18  1  0.750000  0.584736  0.017549  1
  Cu  Cu19  1  0.250000  0.420152  0.983610  1
  Cu  Cu20  1  0.250000  0.561693  0.604743  1
  Cu  Cu21  1  0.750000  0.438337  0.394771  1
  Cu  Cu22  1  0.750000  0.935696  0.104376  1
  Cu  Cu23  1  0.250000  0.060411  0.895760  1
  Sn  Sn24  1  0.250000  0.641811  0.358345  1
  Sn  Sn25  1  0.750000  0.359191  0.640084  1
  Sn  Sn26  1  0.750000  0.859022  0.860657  1
  Sn  Sn27  1  0.250000  0.139083  0.139826  1
