# generated using pymatgen
data_Ba6In2Co4O15
_symmetry_space_group_name_H-M   'P 1'
_cell_length_a   6.06106300
_cell_length_b   8.08409529
_cell_length_c   18.51297300
_cell_angle_alpha   89.18976891
_cell_angle_beta   90.00000000
_cell_angle_gamma   90.00000000
_symmetry_Int_Tables_number   1
_chemical_formula_structural   Ba6In2Co4O15
_chemical_formula_sum   'Ba12 In4 Co8 O30'
_cell_volume   907.01185768
_cell_formula_units_Z   2
loop_
 _symmetry_equiv_pos_site_id
 _symmetry_equiv_pos_as_xyz
  1  'x, y, z'
loop_
 _atom_site_type_symbol
 _atom_site_label
 _atom_site_symmetry_multiplicity
 _atom_site_fract_x
 _atom_site_fract_y
 _atom_site_fract_z
 _atom_site_occupancy
  Ba  Ba0  1  0.273778  0.000000  0.250000  1
  Ba  Ba1  1  0.726222  0.000000  0.750000  1
  Ba  Ba2  1  0.326715  0.500000  0.250000  1
  Ba  Ba3  1  0.673285  0.500000  0.750000  1
  Ba  Ba4  1  0.749441  0.982026  0.085867  1
  Ba  Ba5  1  0.749441  0.017974  0.414133  1
  Ba  Ba6  1  0.250559  0.017974  0.914133  1
  Ba  Ba7  1  0.250559  0.982026  0.585867  1
  Ba  Ba8  1  0.247301  0.495964  0.577535  1
  Ba  Ba9  1  0.247301  0.504036  0.922465  1
  Ba  Ba10  1  0.752699  0.504036  0.422465  1
  Ba  Ba11  1  0.752699  0.495964  0.077535  1
  In  In12  1  0.251629  0.753743  0.410733  1
  In  In13  1  0.251629  0.246257  0.089267  1
  In  In14  1  0.748371  0.246257  0.589267  1
  In  In15  1  0.748371  0.753743  0.910733  1
  Co  Co16  1  0.253325  0.752873  0.059923  1
  Co  Co17  1  0.253325  0.247127  0.440077  1
  Co  Co18  1  0.746675  0.247127  0.940077  1
  Co  Co19  1  0.746675  0.752873  0.559923  1
  Co  Co20  1  0.773094  0.770840  0.267043  1
  Co  Co21  1  0.773094  0.229160  0.232957  1
  Co  Co22  1  0.226906  0.229160  0.732957  1
  Co  Co23  1  0.226906  0.770840  0.767043  1
  O  O24  1  0.825358  0.000000  0.250000  1
  O  O25  1  0.174642  0.000000  0.750000  1
  O  O26  1  0.763887  0.955323  0.604728  1
  O  O27  1  0.763887  0.044677  0.895272  1
  O  O28  1  0.236113  0.044677  0.395272  1
  O  O29  1  0.236113  0.955323  0.104728  1
  O  O30  1  0.244573  0.535107  0.088740  1
  O  O31  1  0.244573  0.464893  0.411260  1
  O  O32  1  0.755427  0.464893  0.911260  1
  O  O33  1  0.755427  0.535107  0.588740  1
  O  O34  1  0.037009  0.719027  0.315040  1
  O  O35  1  0.037009  0.280973  0.184960  1
  O  O36  1  0.962991  0.280973  0.684960  1
  O  O37  1  0.962991  0.719027  0.815040  1
  O  O38  1  0.535653  0.751603  0.337754  1
  O  O39  1  0.535653  0.248397  0.162246  1
  O  O40  1  0.464347  0.248397  0.662246  1
  O  O41  1  0.464347  0.751603  0.837754  1
  O  O42  1  0.481205  0.763626  0.501526  1
  O  O43  1  0.481205  0.236374  0.998474  1
  O  O44  1  0.518795  0.236374  0.498474  1
  O  O45  1  0.518795  0.763626  0.001526  1
  O  O46  1  0.011170  0.765800  0.989850  1
  O  O47  1  0.011170  0.234200  0.510150  1
  O  O48  1  0.988830  0.234200  0.010150  1
  O  O49  1  0.988830  0.765800  0.489850  1
  O  O50  1  0.342348  0.694057  0.685533  1
  O  O51  1  0.342348  0.305943  0.814467  1
  O  O52  1  0.657652  0.305943  0.314467  1
  O  O53  1  0.657652  0.694057  0.185533  1
