# generated using pymatgen
data_CeEr3As6Ru7
_symmetry_space_group_name_H-M   'P 1'
_cell_length_a   7.25019252
_cell_length_b   7.22980730
_cell_length_c   7.22980759
_cell_angle_alpha   109.41403996
_cell_angle_beta   109.52834495
_cell_angle_gamma   109.52834349
_symmetry_Int_Tables_number   1
_chemical_formula_structural   CeEr3As6Ru7
_chemical_formula_sum   'Ce1 Er3 As6 Ru7'
_cell_volume   291.52408186
_cell_formula_units_Z   1
loop_
 _symmetry_equiv_pos_site_id
 _symmetry_equiv_pos_as_xyz
  1  'x, y, z'
loop_
 _atom_site_type_symbol
 _atom_site_label
 _atom_site_symmetry_multiplicity
 _atom_site_fract_x
 _atom_site_fract_y
 _atom_site_fract_z
 _atom_site_occupancy
  Ce  Ce0  1  0.500000  0.000000  0.000000  1
  Er  Er1  1  0.000000  0.000000  0.500000  1
  Er  Er2  1  0.000000  0.500000  0.000000  1
  Er  Er3  1  0.500000  0.500000  0.500000  1
  As  As4  1  0.314577  0.000000  0.318453  1
  As  As5  1  0.003876  0.318453  0.318453  1
  As  As6  1  0.996124  0.681547  0.681547  1
  As  As7  1  0.314577  0.318453  0.000000  1
  As  As8  1  0.685423  0.681547  0.000000  1
  As  As9  1  0.685423  0.000000  0.681547  1
  Ru  Ru10  1  0.749948  0.499896  0.249948  1
  Ru  Ru11  1  0.500000  0.750052  0.249948  1
  Ru  Ru12  1  0.500000  0.249948  0.750052  1
  Ru  Ru13  1  0.749948  0.249948  0.499896  1
  Ru  Ru14  1  0.250052  0.750052  0.500104  1
  Ru  Ru15  1  0.250052  0.500104  0.750052  1
  Ru  Ru16  1  0.000000  0.000000  0.000000  1
