# generated using pymatgen
data_Ho8Mg2Sc10Si15Pb
_symmetry_space_group_name_H-M   'P 1'
_cell_length_a   7.06417997
_cell_length_b   7.42400792
_cell_length_c   14.05573312
_cell_angle_alpha   89.98270288
_cell_angle_beta   89.49763572
_cell_angle_gamma   89.86207286
_symmetry_Int_Tables_number   1
_chemical_formula_structural   Ho8Mg2Sc10Si15Pb
_chemical_formula_sum   'Ho8 Mg2 Sc10 Si15 Pb1'
_cell_volume   737.11579046
_cell_formula_units_Z   1
loop_
 _symmetry_equiv_pos_site_id
 _symmetry_equiv_pos_as_xyz
  1  'x, y, z'
loop_
 _atom_site_type_symbol
 _atom_site_label
 _atom_site_symmetry_multiplicity
 _atom_site_fract_x
 _atom_site_fract_y
 _atom_site_fract_z
 _atom_site_occupancy
  Ho  Ho0  1  0.011094  0.179934  0.096899  1
  Ho  Ho1  1  0.989109  0.820952  0.904050  1
  Ho  Ho2  1  0.487268  0.674979  0.904416  1
  Ho  Ho3  1  0.988775  0.830166  0.598116  1
  Ho  Ho4  1  0.512422  0.324766  0.096395  1
  Ho  Ho5  1  0.003990  0.171202  0.398340  1
  Ho  Ho6  1  0.517020  0.319546  0.397973  1
  Ho  Ho7  1  0.501853  0.686798  0.599809  1
  Mg  Mg8  1  0.159290  0.504598  0.756357  1
  Mg  Mg9  1  0.840163  0.495420  0.249165  1
  Sc  Sc10  1  0.338863  0.002985  0.249488  1
  Sc  Sc11  1  0.662691  0.996642  0.751674  1
  Sc  Sc12  1  0.341703  0.162558  0.630601  1
  Sc  Sc13  1  0.666404  0.822758  0.372641  1
  Sc  Sc14  1  0.161055  0.684963  0.368855  1
  Sc  Sc15  1  0.670975  0.819869  0.123684  1
  Sc  Sc16  1  0.822590  0.322009  0.626147  1
  Sc  Sc17  1  0.327978  0.178675  0.876351  1
  Sc  Sc18  1  0.832230  0.322305  0.875955  1
  Sc  Sc19  1  0.167189  0.677377  0.124713  1
  Si  Si20  1  0.033266  0.104929  0.752293  1
  Si  Si21  1  0.965745  0.897668  0.246033  1
  Si  Si22  1  0.460556  0.616112  0.248415  1
  Si  Si23  1  0.536786  0.384776  0.752302  1
  Si  Si24  1  0.289666  0.878199  0.753081  1
  Si  Si25  1  0.708638  0.117652  0.247102  1
  Si  Si26  1  0.220114  0.372435  0.249140  1
  Si  Si27  1  0.781419  0.628186  0.751786  1
  Si  Si28  1  0.824700  0.542804  0.463162  1
  Si  Si29  1  0.336842  0.965921  0.459483  1
  Si  Si30  1  0.840796  0.537438  0.034131  1
  Si  Si31  1  0.663571  0.036686  0.537235  1
  Si  Si32  1  0.159730  0.461413  0.967147  1
  Si  Si33  1  0.656596  0.033021  0.960528  1
  Si  Si34  1  0.342918  0.967227  0.040257  1
  Pb  Pb35  1  0.175994  0.457034  0.536277  1
