# generated using pymatgen
data_HoLu11Os4
_symmetry_space_group_name_H-M   'P 1'
_cell_length_a   6.16254543
_cell_length_b   7.33105676
_cell_length_c   8.80289200
_cell_angle_alpha   90.00000000
_cell_angle_beta   90.00000000
_cell_angle_gamma   90.10064412
_symmetry_Int_Tables_number   1
_chemical_formula_structural   HoLu11Os4
_chemical_formula_sum   'Ho1 Lu11 Os4'
_cell_volume   397.69618035
_cell_formula_units_Z   1
loop_
 _symmetry_equiv_pos_site_id
 _symmetry_equiv_pos_as_xyz
  1  'x, y, z'
loop_
 _atom_site_type_symbol
 _atom_site_label
 _atom_site_symmetry_multiplicity
 _atom_site_fract_x
 _atom_site_fract_y
 _atom_site_fract_z
 _atom_site_occupancy
  Ho  Ho0  1  0.373083  0.960736  0.750000  1
  Lu  Lu1  1  0.334610  0.672921  0.062321  1
  Lu  Lu2  1  0.164034  0.175671  0.437388  1
  Lu  Lu3  1  0.665929  0.326533  0.561540  1
  Lu  Lu4  1  0.836369  0.825336  0.938557  1
  Lu  Lu5  1  0.665929  0.326533  0.938460  1
  Lu  Lu6  1  0.836369  0.825336  0.561443  1
  Lu  Lu7  1  0.334610  0.672921  0.437679  1
  Lu  Lu8  1  0.164034  0.175671  0.062612  1
  Lu  Lu9  1  0.872737  0.540233  0.250000  1
  Lu  Lu10  1  0.626440  0.039014  0.250000  1
  Lu  Lu11  1  0.126818  0.460539  0.750000  1
  Os  Os12  1  0.038132  0.881866  0.250000  1
  Os  Os13  1  0.462681  0.381536  0.250000  1
  Os  Os14  1  0.958838  0.118645  0.750000  1
  Os  Os15  1  0.539386  0.616508  0.750000  1
