# generated using pymatgen
data_Tb3YCr3SiO16
_symmetry_space_group_name_H-M   'P 1'
_cell_length_a   5.98180059
_cell_length_b   5.97976479
_cell_length_c   10.15320601
_cell_angle_alpha   89.99892306
_cell_angle_beta   90.00139924
_cell_angle_gamma   116.69335216
_symmetry_Int_Tables_number   1
_chemical_formula_structural   Tb3YCr3SiO16
_chemical_formula_sum   'Tb3 Y1 Cr3 Si1 O16'
_cell_volume   324.47153998
_cell_formula_units_Z   1
loop_
 _symmetry_equiv_pos_site_id
 _symmetry_equiv_pos_as_xyz
  1  'x, y, z'
loop_
 _atom_site_type_symbol
 _atom_site_label
 _atom_site_symmetry_multiplicity
 _atom_site_fract_x
 _atom_site_fract_y
 _atom_site_fract_z
 _atom_site_occupancy
  Tb  Tb0  1  0.999990  0.750012  0.140227  1
  Tb  Tb1  1  0.500162  0.250153  0.608459  1
  Tb  Tb2  1  0.500002  0.749952  0.366674  1
  Y  Y3  1  0.999886  0.249946  0.884632  1
  Cr  Cr4  1  0.499933  0.749920  0.873072  1
  Cr  Cr5  1  0.000290  0.750230  0.626678  1
  Cr  Cr6  1  0.499974  0.250028  0.123346  1
  Si  Si7  1  0.999929  0.249941  0.375898  1
  O  O8  1  0.587616  0.511955  0.219594  1
  O  O9  1  0.074197  0.004404  0.717465  1
  O  O10  1  0.083057  0.508173  0.287826  1
  O  O11  1  0.585761  0.015893  0.777632  1
  O  O12  1  0.258078  0.328649  0.465322  1
  O  O13  1  0.763261  0.837478  0.969479  1
  O  O14  1  0.762963  0.340539  0.027699  1
  O  O15  1  0.254690  0.822202  0.535472  1
  O  O16  1  0.412312  0.988042  0.219561  1
  O  O17  1  0.925964  0.495898  0.717387  1
  O  O18  1  0.916787  0.991701  0.287830  1
  O  O19  1  0.414065  0.483967  0.777646  1
  O  O20  1  0.741786  0.171211  0.465305  1
  O  O21  1  0.236620  0.662382  0.969472  1
  O  O22  1  0.236969  0.159384  0.027700  1
  O  O23  1  0.745709  0.677940  0.535625  1
