# generated using pymatgen
data_Yb2Y2VOs7
_symmetry_space_group_name_H-M   'P 1'
_cell_length_a   5.38931300
_cell_length_b   5.38931191
_cell_length_c   8.55773200
_cell_angle_alpha   90.00000000
_cell_angle_beta   90.00000000
_cell_angle_gamma   120.00000054
_symmetry_Int_Tables_number   1
_chemical_formula_structural   Yb2Y2VOs7
_chemical_formula_sum   'Yb2 Y2 V1 Os7'
_cell_volume   215.25638272
_cell_formula_units_Z   1
loop_
 _symmetry_equiv_pos_site_id
 _symmetry_equiv_pos_as_xyz
  1  'x, y, z'
loop_
 _atom_site_type_symbol
 _atom_site_label
 _atom_site_symmetry_multiplicity
 _atom_site_fract_x
 _atom_site_fract_y
 _atom_site_fract_z
 _atom_site_occupancy
  Yb  Yb0  1  0.666667  0.333333  0.942156  1
  Yb  Yb1  1  0.333333  0.666667  0.057844  1
  Y  Y2  1  0.333333  0.666667  0.424363  1
  Y  Y3  1  0.666667  0.333333  0.575637  1
  V  V4  1  0.000000  0.000000  0.500000  1
  Os  Os5  1  0.000000  0.000000  0.000000  1
  Os  Os6  1  0.828630  0.171370  0.254148  1
  Os  Os7  1  0.828630  0.657259  0.254148  1
  Os  Os8  1  0.342741  0.171370  0.254148  1
  Os  Os9  1  0.171370  0.828630  0.745852  1
  Os  Os10  1  0.171370  0.342741  0.745852  1
  Os  Os11  1  0.657259  0.828630  0.745852  1
