# generated using pymatgen
data_Er11Tm5(HfIr3)4
_symmetry_space_group_name_H-M   'P 1'
_cell_length_a   10.75213402
_cell_length_b   10.74678802
_cell_length_c   6.21250900
_cell_angle_alpha   90.00116226
_cell_angle_beta   90.00391622
_cell_angle_gamma   89.99376909
_symmetry_Int_Tables_number   1
_chemical_formula_structural   Er11Tm5(HfIr3)4
_chemical_formula_sum   'Er11 Tm5 Hf4 Ir12'
_cell_volume   717.86103203
_cell_formula_units_Z   1
loop_
 _symmetry_equiv_pos_site_id
 _symmetry_equiv_pos_as_xyz
  1  'x, y, z'
loop_
 _atom_site_type_symbol
 _atom_site_label
 _atom_site_symmetry_multiplicity
 _atom_site_fract_x
 _atom_site_fract_y
 _atom_site_fract_z
 _atom_site_occupancy
  Er  Er0  1  0.289566  0.086221  0.373705  1
  Er  Er1  1  0.289535  0.913749  0.873727  1
  Er  Er2  1  0.710465  0.086251  0.873705  1
  Er  Er3  1  0.710456  0.913716  0.373818  1
  Er  Er4  1  0.586317  0.789546  0.873778  1
  Er  Er5  1  0.586168  0.210384  0.373858  1
  Er  Er6  1  0.413866  0.789604  0.373840  1
  Er  Er7  1  0.413850  0.210366  0.873857  1
  Er  Er8  1  0.210107  0.413938  0.626124  1
  Er  Er9  1  0.210142  0.586070  0.126153  1
  Er  Er10  1  0.789838  0.414027  0.126102  1
  Tm  Tm11  1  0.790005  0.585964  0.625933  1
  Tm  Tm12  1  0.914035  0.710146  0.125917  1
  Tm  Tm13  1  0.914086  0.289893  0.625959  1
  Tm  Tm14  1  0.085730  0.710174  0.625928  1
  Tm  Tm15  1  0.085852  0.289817  0.125929  1
  Hf  Hf16  1  0.999988  0.999999  0.500339  1
  Hf  Hf17  1  0.999974  0.999979  0.000246  1
  Hf  Hf18  1  0.500034  0.500023  0.000108  1
  Hf  Hf19  1  0.500175  0.500071  0.500215  1
  Ir  Ir20  1  0.855726  0.144850  0.250227  1
  Ir  Ir21  1  0.855692  0.854950  0.750180  1
  Ir  Ir22  1  0.144265  0.144863  0.750275  1
  Ir  Ir23  1  0.144248  0.855143  0.250230  1
  Ir  Ir24  1  0.644911  0.355590  0.749801  1
  Ir  Ir25  1  0.644936  0.644479  0.250236  1
  Ir  Ir26  1  0.355238  0.355402  0.249871  1
  Ir  Ir27  1  0.355218  0.644594  0.749893  1
  Ir  Ir28  1  0.499996  0.000026  0.122062  1
  Ir  Ir29  1  0.499989  0.999990  0.622064  1
  Ir  Ir30  1  0.999796  0.500079  0.877757  1
  Ir  Ir31  1  0.999796  0.500095  0.378163  1
