# generated using pymatgen
data_Th2Si5RuPt2
_symmetry_space_group_name_H-M   'P 1'
_cell_length_a   8.26259744
_cell_length_b   8.26259713
_cell_length_c   6.07037630
_cell_angle_alpha   68.41797188
_cell_angle_beta   68.41797407
_cell_angle_gamma   89.76087943
_symmetry_Int_Tables_number   1
_chemical_formula_structural   Th2Si5RuPt2
_chemical_formula_sum   'Th4 Si10 Ru2 Pt4'
_cell_volume   354.21082577
_cell_formula_units_Z   2
loop_
 _symmetry_equiv_pos_site_id
 _symmetry_equiv_pos_as_xyz
  1  'x, y, z'
loop_
 _atom_site_type_symbol
 _atom_site_label
 _atom_site_symmetry_multiplicity
 _atom_site_fract_x
 _atom_site_fract_y
 _atom_site_fract_z
 _atom_site_occupancy
  Th  Th0  1  0.862734  0.602599  0.767340  1
  Th  Th1  1  0.397401  0.137266  0.732660  1
  Th  Th2  1  0.137266  0.397401  0.232660  1
  Th  Th3  1  0.602599  0.862734  0.267340  1
  Si  Si4  1  0.039135  0.255571  0.852702  1
  Si  Si5  1  0.744429  0.960865  0.647298  1
  Si  Si6  1  0.960865  0.744429  0.147298  1
  Si  Si7  1  0.255571  0.039135  0.352702  1
  Si  Si8  1  0.221532  0.778468  0.750000  1
  Si  Si9  1  0.778468  0.221532  0.250000  1
  Si  Si10  1  0.500222  0.499778  0.750000  1
  Si  Si11  1  0.499778  0.500222  0.250000  1
  Si  Si12  1  0.778406  0.221594  0.750000  1
  Si  Si13  1  0.221594  0.778406  0.250000  1
  Ru  Ru14  1  0.999907  0.000093  0.750000  1
  Ru  Ru15  1  0.000093  0.999907  0.250000  1
  Pt  Pt16  1  0.252209  0.529586  0.609419  1
  Pt  Pt17  1  0.470414  0.747791  0.890581  1
  Pt  Pt18  1  0.747791  0.470414  0.390581  1
  Pt  Pt19  1  0.529586  0.252209  0.109419  1
