# generated using pymatgen
data_DyY19Cd6RuPt
_symmetry_space_group_name_H-M   'P 1'
_cell_length_a   9.69184300
_cell_length_b   9.69184390
_cell_length_c   9.87801100
_cell_angle_alpha   90.00000000
_cell_angle_beta   90.00000000
_cell_angle_gamma   120.00000034
_symmetry_Int_Tables_number   1
_chemical_formula_structural   DyY19Cd6RuPt
_chemical_formula_sum   'Dy1 Y19 Cd6 Ru1 Pt1'
_cell_volume   803.55002084
_cell_formula_units_Z   1
loop_
 _symmetry_equiv_pos_site_id
 _symmetry_equiv_pos_as_xyz
  1  'x, y, z'
loop_
 _atom_site_type_symbol
 _atom_site_label
 _atom_site_symmetry_multiplicity
 _atom_site_fract_x
 _atom_site_fract_y
 _atom_site_fract_z
 _atom_site_occupancy
  Dy  Dy0  1  0.000000  0.000000  0.499450  1
  Y  Y1  1  0.000000  0.000000  0.000581  1
  Y  Y2  1  0.208207  0.791793  0.442259  1
  Y  Y3  1  0.208207  0.416414  0.442259  1
  Y  Y4  1  0.583586  0.791793  0.442259  1
  Y  Y5  1  0.790310  0.209690  0.560349  1
  Y  Y6  1  0.790310  0.580619  0.560349  1
  Y  Y7  1  0.419381  0.209690  0.560349  1
  Y  Y8  1  0.790219  0.209781  0.939522  1
  Y  Y9  1  0.790219  0.580436  0.939522  1
  Y  Y10  1  0.419564  0.209781  0.939522  1
  Y  Y11  1  0.208313  0.791687  0.057861  1
  Y  Y12  1  0.208313  0.416627  0.057861  1
  Y  Y13  1  0.583373  0.791687  0.057861  1
  Y  Y14  1  0.542521  0.457479  0.249992  1
  Y  Y15  1  0.542521  0.085040  0.249992  1
  Y  Y16  1  0.914960  0.457479  0.249992  1
  Y  Y17  1  0.458655  0.541345  0.750013  1
  Y  Y18  1  0.458655  0.917312  0.750013  1
  Y  Y19  1  0.082688  0.541345  0.750013  1
  Cd  Cd20  1  0.885182  0.114818  0.250060  1
  Cd  Cd21  1  0.885182  0.770364  0.250060  1
  Cd  Cd22  1  0.229636  0.114818  0.250060  1
  Cd  Cd23  1  0.114736  0.885264  0.749936  1
  Cd  Cd24  1  0.114736  0.229470  0.749936  1
  Cd  Cd25  1  0.770530  0.885264  0.749936  1
  Ru  Ru26  1  0.666667  0.333333  0.750054  1
  Pt  Pt27  1  0.333333  0.666667  0.249937  1
