# generated using pymatgen
data_SrYb3P2O
_symmetry_space_group_name_H-M   'P 1'
_cell_length_a   8.35987837
_cell_length_b   8.35987846
_cell_length_c   8.35987854
_cell_angle_alpha   148.78567899
_cell_angle_beta   148.78567566
_cell_angle_gamma   44.72687296
_symmetry_Int_Tables_number   1
_chemical_formula_structural   SrYb3P2O
_chemical_formula_sum   'Sr1 Yb3 P2 O1'
_cell_volume   156.43607606
_cell_formula_units_Z   1
loop_
 _symmetry_equiv_pos_site_id
 _symmetry_equiv_pos_as_xyz
  1  'x, y, z'
loop_
 _atom_site_type_symbol
 _atom_site_label
 _atom_site_symmetry_multiplicity
 _atom_site_fract_x
 _atom_site_fract_y
 _atom_site_fract_z
 _atom_site_occupancy
  Sr  Sr0  1  0.321417  0.321417  0.000000  1
  Yb  Yb1  1  0.665701  0.665701  0.000000  1
  Yb  Yb2  1  0.501050  0.001050  0.500000  1
  Yb  Yb3  1  0.001050  0.501050  0.500000  1
  P  P4  1  0.865842  0.865842  0.000000  1
  P  P5  1  0.130183  0.130183  0.000000  1
  O  O6  1  0.514757  0.514757  0.000000  1
