# generated using pymatgen
data_LiMn(FeRh2)2
_symmetry_space_group_name_H-M   'P 1'
_cell_length_a   4.24871200
_cell_length_b   6.00812300
_cell_length_c   12.65399500
_cell_angle_alpha   90.00000000
_cell_angle_beta   89.99870472
_cell_angle_gamma   90.00000000
_symmetry_Int_Tables_number   1
_chemical_formula_structural   LiMn(FeRh2)2
_chemical_formula_sum   'Li3 Mn3 Fe6 Rh12'
_cell_volume   323.01580070
_cell_formula_units_Z   3
loop_
 _symmetry_equiv_pos_site_id
 _symmetry_equiv_pos_as_xyz
  1  'x, y, z'
loop_
 _atom_site_type_symbol
 _atom_site_label
 _atom_site_symmetry_multiplicity
 _atom_site_fract_x
 _atom_site_fract_y
 _atom_site_fract_z
 _atom_site_occupancy
  Li  Li0  1  0.499994  0.000000  0.501167  1
  Li  Li1  1  0.000123  0.500000  0.666656  1
  Li  Li2  1  0.500115  0.000000  0.832146  1
  Mn  Mn3  1  0.999992  0.500000  0.994896  1
  Mn  Mn4  1  0.499895  0.000000  0.166650  1
  Mn  Mn5  1  0.999886  0.500000  0.338441  1
  Fe  Fe6  1  0.999989  0.000000  0.994975  1
  Fe  Fe7  1  0.499898  0.500000  0.166644  1
  Fe  Fe8  1  0.999893  0.000000  0.338360  1
  Fe  Fe9  1  0.499984  0.500000  0.505508  1
  Fe  Fe10  1  0.000126  0.000000  0.666689  1
  Fe  Fe11  1  0.500097  0.500000  0.827843  1
  Rh  Rh12  1  0.499990  0.249539  0.998815  1
  Rh  Rh13  1  0.499990  0.750461  0.998815  1
  Rh  Rh14  1  0.999898  0.250877  0.166662  1
  Rh  Rh15  1  0.999898  0.749122  0.166662  1
  Rh  Rh16  1  0.499893  0.249544  0.334495  1
  Rh  Rh17  1  0.499893  0.750455  0.334495  1
  Rh  Rh18  1  0.999995  0.247692  0.502349  1
  Rh  Rh19  1  0.999995  0.752308  0.502349  1
  Rh  Rh20  1  0.500125  0.248314  0.666691  1
  Rh  Rh21  1  0.500125  0.751685  0.666691  1
  Rh  Rh22  1  0.000101  0.247678  0.831002  1
  Rh  Rh23  1  0.000101  0.752321  0.831002  1
