# generated using pymatgen
data_Cs7K9(TiSe4)4
_symmetry_space_group_name_H-M   'P 1'
_cell_length_a   8.58253711
_cell_length_b   10.33152850
_cell_length_c   15.67065200
_cell_angle_alpha   90.40834602
_cell_angle_beta   90.49870607
_cell_angle_gamma   90.41379350
_symmetry_Int_Tables_number   1
_chemical_formula_structural   Cs7K9(TiSe4)4
_chemical_formula_sum   'Cs7 K9 Ti4 Se16'
_cell_volume   1389.40331239
_cell_formula_units_Z   1
loop_
 _symmetry_equiv_pos_site_id
 _symmetry_equiv_pos_as_xyz
  1  'x, y, z'
loop_
 _atom_site_type_symbol
 _atom_site_label
 _atom_site_symmetry_multiplicity
 _atom_site_fract_x
 _atom_site_fract_y
 _atom_site_fract_z
 _atom_site_occupancy
  Cs  Cs0  1  0.000000  0.000000  0.000000  1
  Cs  Cs1  1  0.500000  0.000000  0.500000  1
  Cs  Cs2  1  0.000000  0.500000  0.000000  1
  Cs  Cs3  1  0.996405  0.750975  0.431348  1
  Cs  Cs4  1  0.491665  0.250054  0.070834  1
  Cs  Cs5  1  0.003595  0.249025  0.568652  1
  Cs  Cs6  1  0.508335  0.749946  0.929166  1
  K  K7  1  0.500000  0.500000  0.500000  1
  K  K8  1  0.840117  0.056462  0.271685  1
  K  K9  1  0.339396  0.947176  0.231628  1
  K  K10  1  0.153883  0.549996  0.725064  1
  K  K11  1  0.658673  0.443544  0.769090  1
  K  K12  1  0.159883  0.943538  0.728315  1
  K  K13  1  0.660604  0.052824  0.768372  1
  K  K14  1  0.846117  0.450004  0.274936  1
  K  K15  1  0.341327  0.556456  0.230910  1
  Ti  Ti16  1  0.757498  0.744671  0.674401  1
  Ti  Ti17  1  0.242502  0.255329  0.325599  1
  Ti  Ti18  1  0.733611  0.750393  0.179958  1
  Ti  Ti19  1  0.266389  0.249607  0.820042  1
  Se  Se20  1  0.984219  0.248640  0.813859  1
  Se  Se21  1  0.523814  0.251367  0.319704  1
  Se  Se22  1  0.476186  0.748633  0.680296  1
  Se  Se23  1  0.015781  0.751360  0.186141  1
  Se  Se24  1  0.645113  0.561398  0.105517  1
  Se  Se25  1  0.163989  0.444394  0.402566  1
  Se  Se26  1  0.355683  0.062097  0.894056  1
  Se  Se27  1  0.853264  0.933403  0.604324  1
  Se  Se28  1  0.354887  0.438602  0.894483  1
  Se  Se29  1  0.836011  0.555606  0.597434  1
  Se  Se30  1  0.644317  0.937903  0.105944  1
  Se  Se31  1  0.146736  0.066597  0.395676  1
  Se  Se32  1  0.621516  0.750173  0.321836  1
  Se  Se33  1  0.124596  0.258270  0.183747  1
  Se  Se34  1  0.378484  0.249827  0.678164  1
  Se  Se35  1  0.875404  0.741730  0.816253  1
