# generated using pymatgen
data_Er10Sc10SiBi11
_symmetry_space_group_name_H-M   'P 1'
_cell_length_a   7.86904490
_cell_length_b   9.10774083
_cell_length_c   11.71246500
_cell_angle_alpha   90.06463889
_cell_angle_beta   89.92414485
_cell_angle_gamma   90.00521265
_symmetry_Int_Tables_number   1
_chemical_formula_structural   Er10Sc10SiBi11
_chemical_formula_sum   'Er10 Sc10 Si1 Bi11'
_cell_volume   839.42197536
_cell_formula_units_Z   1
loop_
 _symmetry_equiv_pos_site_id
 _symmetry_equiv_pos_as_xyz
  1  'x, y, z'
loop_
 _atom_site_type_symbol
 _atom_site_label
 _atom_site_symmetry_multiplicity
 _atom_site_fract_x
 _atom_site_fract_y
 _atom_site_fract_z
 _atom_site_occupancy
  Er  Er0  1  0.351877  0.248816  0.294129  1
  Er  Er1  1  0.654254  0.749920  0.719000  1
  Er  Er2  1  0.147628  0.751763  0.781038  1
  Er  Er3  1  0.850893  0.247940  0.215754  1
  Er  Er4  1  0.192798  0.248452  0.773244  1
  Er  Er5  1  0.813360  0.750964  0.219282  1
  Er  Er6  1  0.316385  0.750417  0.279066  1
  Er  Er7  1  0.665908  0.248713  0.709606  1
  Er  Er8  1  0.683733  0.427919  0.445734  1
  Er  Er9  1  0.311096  0.548121  0.558328  1
  Sc  Sc10  1  0.036070  0.247105  0.510743  1
  Sc  Sc11  1  0.983950  0.752274  0.491501  1
  Sc  Sc12  1  0.481388  0.749998  0.010375  1
  Sc  Sc13  1  0.521177  0.249784  0.989037  1
  Sc  Sc14  1  0.193549  0.067431  0.059301  1
  Sc  Sc15  1  0.806769  0.933755  0.942663  1
  Sc  Sc16  1  0.309429  0.951740  0.558365  1
  Sc  Sc17  1  0.806769  0.566535  0.942779  1
  Sc  Sc18  1  0.682089  0.075919  0.447281  1
  Sc  Sc19  1  0.193418  0.432126  0.059360  1
  Si  Si20  1  0.404427  0.242129  0.536624  1
  Bi  Bi21  1  0.597836  0.759486  0.459633  1
  Bi  Bi22  1  0.097006  0.749576  0.040094  1
  Bi  Bi23  1  0.906846  0.250350  0.955152  1
  Bi  Bi24  1  0.062143  0.002911  0.330623  1
  Bi  Bi25  1  0.934669  0.999012  0.669289  1
  Bi  Bi26  1  0.436595  0.994424  0.831772  1
  Bi  Bi27  1  0.933898  0.500818  0.671211  1
  Bi  Bi28  1  0.562551  0.005406  0.168754  1
  Bi  Bi29  1  0.062798  0.496812  0.328937  1
  Bi  Bi30  1  0.562401  0.494548  0.168447  1
  Bi  Bi31  1  0.436289  0.504835  0.832882  1
