# generated using pymatgen
data_Al11(TcRh)2
_symmetry_space_group_name_H-M   'P 1'
_cell_length_a   5.20366348
_cell_length_b   5.17010328
_cell_length_c   8.94734286
_cell_angle_alpha   105.51503380
_cell_angle_beta   88.14798634
_cell_angle_gamma   100.55260684
_symmetry_Int_Tables_number   1
_chemical_formula_structural   Al11(TcRh)2
_chemical_formula_sum   'Al11 Tc2 Rh2'
_cell_volume   227.98494620
_cell_formula_units_Z   1
loop_
 _symmetry_equiv_pos_site_id
 _symmetry_equiv_pos_as_xyz
  1  'x, y, z'
loop_
 _atom_site_type_symbol
 _atom_site_label
 _atom_site_symmetry_multiplicity
 _atom_site_fract_x
 _atom_site_fract_y
 _atom_site_fract_z
 _atom_site_occupancy
  Al  Al0  1  0.000000  0.000000  0.000000  1
  Al  Al1  1  0.942768  0.810328  0.661896  1
  Al  Al2  1  0.057232  0.189672  0.338104  1
  Al  Al3  1  0.828421  0.268960  0.624562  1
  Al  Al4  1  0.844263  0.536549  0.127308  1
  Al  Al5  1  0.155737  0.463451  0.872692  1
  Al  Al6  1  0.476448  0.896918  0.125015  1
  Al  Al7  1  0.523552  0.103082  0.874985  1
  Al  Al8  1  0.574888  0.328765  0.373592  1
  Al  Al9  1  0.425112  0.671235  0.626408  1
  Al  Al10  1  0.171579  0.731040  0.375438  1
  Tc  Tc11  1  0.669813  0.613187  0.866418  1
  Tc  Tc12  1  0.330187  0.386813  0.133582  1
  Rh  Rh13  1  0.319404  0.155103  0.608674  1
  Rh  Rh14  1  0.680596  0.844897  0.391326  1
