# generated using pymatgen
data_Ti3Ga2CuO
_symmetry_space_group_name_H-M   'P 1'
_cell_length_a   8.08987249
_cell_length_b   8.08899530
_cell_length_c   8.09014903
_cell_angle_alpha   60.00219056
_cell_angle_beta   59.99475118
_cell_angle_gamma   60.00506758
_symmetry_Int_Tables_number   1
_chemical_formula_structural   Ti3Ga2CuO
_chemical_formula_sum   'Ti12 Ga8 Cu4 O4'
_cell_volume   374.35563146
_cell_formula_units_Z   4
loop_
 _symmetry_equiv_pos_site_id
 _symmetry_equiv_pos_as_xyz
  1  'x, y, z'
loop_
 _atom_site_type_symbol
 _atom_site_label
 _atom_site_symmetry_multiplicity
 _atom_site_fract_x
 _atom_site_fract_y
 _atom_site_fract_z
 _atom_site_occupancy
  Ti  Ti0  1  0.567185  0.932778  0.567194  1
  Ti  Ti1  1  0.317199  0.682766  0.682750  1
  Ti  Ti2  1  0.682758  0.317361  0.317122  1
  Ti  Ti3  1  0.317245  0.682801  0.317158  1
  Ti  Ti4  1  0.682765  0.682771  0.317145  1
  Ti  Ti5  1  0.317147  0.317299  0.682773  1
  Ti  Ti6  1  0.567235  0.567229  0.932855  1
  Ti  Ti7  1  0.932801  0.567234  0.567250  1
  Ti  Ti8  1  0.567242  0.932639  0.932878  1
  Ti  Ti9  1  0.932853  0.932701  0.567227  1
  Ti  Ti10  1  0.682815  0.317222  0.682806  1
  Ti  Ti11  1  0.932755  0.567199  0.932842  1
  Ga  Ga12  1  0.336276  0.336357  0.336231  1
  Ga  Ga13  1  0.258841  0.913669  0.913787  1
  Ga  Ga14  1  0.913704  0.258886  0.913752  1
  Ga  Ga15  1  0.913764  0.913694  0.258815  1
  Ga  Ga16  1  0.336296  0.991114  0.336248  1
  Ga  Ga17  1  0.336236  0.336306  0.991185  1
  Ga  Ga18  1  0.991159  0.336331  0.336213  1
  Ga  Ga19  1  0.913724  0.913643  0.913769  1
  Cu  Cu20  1  0.125000  0.125000  0.125000  1
  Cu  Cu21  1  0.625000  0.125000  0.125000  1
  Cu  Cu22  1  0.125000  0.625000  0.125000  1
  Cu  Cu23  1  0.125000  0.125000  0.625000  1
  O  O24  1  0.625000  0.625000  0.625000  1
  O  O25  1  0.125000  0.625000  0.625000  1
  O  O26  1  0.625000  0.125000  0.625000  1
  O  O27  1  0.625000  0.625000  0.125000  1
