# generated using pymatgen
data_Dy2HoPa(Al3Rh)6
_symmetry_space_group_name_H-M   'P 1'
_cell_length_a   7.57757500
_cell_length_b   7.57123925
_cell_length_c   9.42715500
_cell_angle_alpha   90.00000000
_cell_angle_beta   90.00000000
_cell_angle_gamma   119.47337495
_symmetry_Int_Tables_number   1
_chemical_formula_structural   Dy2HoPa(Al3Rh)6
_chemical_formula_sum   'Dy2 Ho1 Pa1 Al18 Rh6'
_cell_volume   470.85670225
_cell_formula_units_Z   1
loop_
 _symmetry_equiv_pos_site_id
 _symmetry_equiv_pos_as_xyz
  1  'x, y, z'
loop_
 _atom_site_type_symbol
 _atom_site_label
 _atom_site_symmetry_multiplicity
 _atom_site_fract_x
 _atom_site_fract_y
 _atom_site_fract_z
 _atom_site_occupancy
  Dy  Dy0  1  0.005340  0.328780  0.250000  1
  Dy  Dy1  1  0.328602  0.004568  0.250000  1
  Ho  Ho2  1  0.672825  0.994514  0.750000  1
  Pa  Pa3  1  0.995583  0.671746  0.750000  1
  Al  Al4  1  0.131344  0.129507  0.750000  1
  Al  Al5  1  0.872987  0.874167  0.250000  1
  Al  Al6  1  0.000711  0.333311  0.575236  1
  Al  Al7  1  0.998983  0.664368  0.421413  1
  Al  Al8  1  0.998983  0.664368  0.078587  1
  Al  Al9  1  0.338398  0.002977  0.924497  1
  Al  Al10  1  0.000711  0.333311  0.924764  1
  Al  Al11  1  0.664837  0.000151  0.076460  1
  Al  Al12  1  0.664837  0.000151  0.423540  1
  Al  Al13  1  0.338398  0.002977  0.575503  1
  Al  Al14  1  0.332456  0.332477  0.054014  1
  Al  Al15  1  0.663964  0.665954  0.950628  1
  Al  Al16  1  0.663964  0.665954  0.549372  1
  Al  Al17  1  0.332456  0.332477  0.445986  1
  Al  Al18  1  0.338636  0.548498  0.750000  1
  Al  Al19  1  0.659050  0.448792  0.250000  1
  Al  Al20  1  0.549039  0.342775  0.750000  1
  Al  Al21  1  0.450083  0.660302  0.250000  1
  Rh  Rh22  1  0.673356  0.329323  0.501797  1
  Rh  Rh23  1  0.326305  0.672054  0.501809  1
  Rh  Rh24  1  0.326305  0.672054  0.998191  1
  Rh  Rh25  1  0.673356  0.329323  0.998203  1
  Rh  Rh26  1  0.999246  0.997559  0.502638  1
  Rh  Rh27  1  0.999246  0.997559  0.997362  1
