# generated using pymatgen
data_Er3TmMoOs7
_symmetry_space_group_name_H-M   'P 1'
_cell_length_a   5.27564139
_cell_length_b   5.27564187
_cell_length_c   8.84804901
_cell_angle_alpha   90.00412836
_cell_angle_beta   89.99586803
_cell_angle_gamma   118.00574103
_symmetry_Int_Tables_number   1
_chemical_formula_structural   Er3TmMoOs7
_chemical_formula_sum   'Er3 Tm1 Mo1 Os7'
_cell_volume   217.42519972
_cell_formula_units_Z   1
loop_
 _symmetry_equiv_pos_site_id
 _symmetry_equiv_pos_as_xyz
  1  'x, y, z'
loop_
 _atom_site_type_symbol
 _atom_site_label
 _atom_site_symmetry_multiplicity
 _atom_site_fract_x
 _atom_site_fract_y
 _atom_site_fract_z
 _atom_site_occupancy
  Er  Er0  1  0.666440  0.333560  0.565921  1
  Er  Er1  1  0.666484  0.333516  0.934031  1
  Er  Er2  1  0.329811  0.670189  0.062408  1
  Tm  Tm3  1  0.329714  0.670286  0.437598  1
  Mo  Mo4  1  0.832299  0.167701  0.250208  1
  Os  Os5  1  0.994126  0.005874  0.501832  1
  Os  Os6  1  0.994010  0.005990  0.998076  1
  Os  Os7  1  0.826615  0.652924  0.250353  1
  Os  Os8  1  0.347076  0.173385  0.250353  1
  Os  Os9  1  0.178546  0.821454  0.749661  1
  Os  Os10  1  0.173013  0.338131  0.749779  1
  Os  Os11  1  0.661869  0.826987  0.749779  1
