# generated using pymatgen
data_Zr6Zn20Cu3S
_symmetry_space_group_name_H-M   'P 1'
_cell_length_a   8.69141943
_cell_length_b   8.69139251
_cell_length_c   8.73090103
_cell_angle_alpha   59.84947555
_cell_angle_beta   59.84922126
_cell_angle_gamma   60.30061543
_symmetry_Int_Tables_number   1
_chemical_formula_structural   Zr6Zn20Cu3S
_chemical_formula_sum   'Zr6 Zn20 Cu3 S1'
_cell_volume   466.34128612
_cell_formula_units_Z   1
loop_
 _symmetry_equiv_pos_site_id
 _symmetry_equiv_pos_as_xyz
  1  'x, y, z'
loop_
 _atom_site_type_symbol
 _atom_site_label
 _atom_site_symmetry_multiplicity
 _atom_site_fract_x
 _atom_site_fract_y
 _atom_site_fract_z
 _atom_site_occupancy
  Zr  Zr0  1  0.706221  0.293779  0.293780  1
  Zr  Zr1  1  0.293780  0.706222  0.706219  1
  Zr  Zr2  1  0.293769  0.706233  0.293768  1
  Zr  Zr3  1  0.706233  0.293768  0.706232  1
  Zr  Zr4  1  0.293214  0.293211  0.706787  1
  Zr  Zr5  1  0.706788  0.706790  0.293213  1
  Zn  Zn6  1  0.118109  0.118129  0.125465  1
  Zn  Zn7  1  0.881894  0.881875  0.874531  1
  Zn  Zn8  1  0.118125  0.118106  0.638303  1
  Zn  Zn9  1  0.125471  0.638296  0.118106  1
  Zn  Zn10  1  0.881873  0.881891  0.361707  1
  Zn  Zn11  1  0.874534  0.361700  0.881892  1
  Zn  Zn12  1  0.638296  0.125472  0.118126  1
  Zn  Zn13  1  0.361701  0.874533  0.881872  1
  Zn  Zn14  1  0.500000  0.999996  0.000005  1
  Zn  Zn15  1  0.000000  0.500001  0.500000  1
  Zn  Zn16  1  0.999996  0.500001  0.000004  1
  Zn  Zn17  1  0.500001  0.999999  0.500000  1
  Zn  Zn18  1  0.335091  0.335101  0.328955  1
  Zn  Zn19  1  0.664908  0.664897  0.671047  1
  Zn  Zn20  1  0.335102  0.335093  0.000848  1
  Zn  Zn21  1  0.328952  0.000857  0.335091  1
  Zn  Zn22  1  0.664900  0.664909  0.999143  1
  Zn  Zn23  1  0.671045  0.999148  0.664911  1
  Zn  Zn24  1  0.000855  0.328953  0.335103  1
  Zn  Zn25  1  0.999149  0.671043  0.664901  1
  Cu  Cu26  1  0.999993  0.999998  0.500021  1
  Cu  Cu27  1  0.499997  0.499994  0.999982  1
  Cu  Cu28  1  0.000003  0.000007  0.999989  1
  S  S29  1  0.500001  0.500000  0.500000  1
