# generated using pymatgen
data_Dy3AlZn2C
_symmetry_space_group_name_H-M   'P 1'
_cell_length_a   9.19906030
_cell_length_b   9.19905971
_cell_length_c   9.19906000
_cell_angle_alpha   59.99999897
_cell_angle_beta   60.00000109
_cell_angle_gamma   60.00000484
_symmetry_Int_Tables_number   1
_chemical_formula_structural   Dy3AlZn2C
_chemical_formula_sum   'Dy12 Al4 Zn8 C4'
_cell_volume   550.44682818
_cell_formula_units_Z   4
loop_
 _symmetry_equiv_pos_site_id
 _symmetry_equiv_pos_as_xyz
  1  'x, y, z'
loop_
 _atom_site_type_symbol
 _atom_site_label
 _atom_site_symmetry_multiplicity
 _atom_site_fract_x
 _atom_site_fract_y
 _atom_site_fract_z
 _atom_site_occupancy
  Dy  Dy0  1  0.446003  0.446003  0.053997  1
  Dy  Dy1  1  0.053997  0.446003  0.053997  1
  Dy  Dy2  1  0.446003  0.053997  0.053997  1
  Dy  Dy3  1  0.053997  0.053997  0.446003  1
  Dy  Dy4  1  0.446003  0.053997  0.446003  1
  Dy  Dy5  1  0.053997  0.446003  0.446003  1
  Dy  Dy6  1  0.803997  0.803997  0.196003  1
  Dy  Dy7  1  0.196003  0.803997  0.196003  1
  Dy  Dy8  1  0.803997  0.196003  0.196003  1
  Dy  Dy9  1  0.196003  0.196003  0.803997  1
  Dy  Dy10  1  0.803997  0.196003  0.803997  1
  Dy  Dy11  1  0.196003  0.803997  0.803997  1
  Al  Al12  1  0.625000  0.625000  0.125000  1
  Al  Al13  1  0.625000  0.125000  0.625000  1
  Al  Al14  1  0.125000  0.625000  0.625000  1
  Al  Al15  1  0.625000  0.625000  0.625000  1
  Zn  Zn16  1  0.826727  0.826727  0.519821  1
  Zn  Zn17  1  0.826727  0.519821  0.826727  1
  Zn  Zn18  1  0.519821  0.826727  0.826727  1
  Zn  Zn19  1  0.826727  0.826727  0.826727  1
  Zn  Zn20  1  0.423273  0.423273  0.730179  1
  Zn  Zn21  1  0.423273  0.730179  0.423273  1
  Zn  Zn22  1  0.730179  0.423273  0.423273  1
  Zn  Zn23  1  0.423273  0.423273  0.423273  1
  C  C24  1  0.125000  0.125000  0.625000  1
  C  C25  1  0.125000  0.625000  0.125000  1
  C  C26  1  0.625000  0.125000  0.125000  1
  C  C27  1  0.125000  0.125000  0.125000  1
