# generated using pymatgen
data_Dy2U4Cu3NiS14
_symmetry_space_group_name_H-M   'P 1'
_cell_length_a   9.67990636
_cell_length_b   9.66906386
_cell_length_c   5.64636272
_cell_angle_alpha   89.77651496
_cell_angle_beta   90.32418808
_cell_angle_gamma   120.28837748
_symmetry_Int_Tables_number   1
_chemical_formula_structural   Dy2U4Cu3NiS14
_chemical_formula_sum   'Dy2 U4 Cu3 Ni1 S14'
_cell_volume   456.32930688
_cell_formula_units_Z   1
loop_
 _symmetry_equiv_pos_site_id
 _symmetry_equiv_pos_as_xyz
  1  'x, y, z'
loop_
 _atom_site_type_symbol
 _atom_site_label
 _atom_site_symmetry_multiplicity
 _atom_site_fract_x
 _atom_site_fract_y
 _atom_site_fract_z
 _atom_site_occupancy
  Dy  Dy0  1  0.224019  0.845817  0.027399  1
  Dy  Dy1  1  0.154370  0.379043  0.026750  1
  U  U2  1  0.850501  0.616958  0.535538  1
  U  U3  1  0.619472  0.771896  0.026447  1
  U  U4  1  0.768515  0.152239  0.535616  1
  U  U5  1  0.380265  0.229655  0.532121  1
  Cu  Cu6  1  0.334472  0.667403  0.645582  1
  Cu  Cu7  1  0.999384  0.000203  0.499196  1
  Cu  Cu8  1  0.998943  0.999227  0.001041  1
  Ni  Ni9  1  0.666778  0.333879  0.164242  1
  S  S10  1  0.665098  0.333250  0.768306  1
  S  S11  1  0.571257  0.485031  0.280473  1
  S  S12  1  0.152550  0.892622  0.512164  1
  S  S13  1  0.517155  0.088129  0.286554  1
  S  S14  1  0.441920  0.517565  0.775223  1
  S  S15  1  0.491591  0.921286  0.778459  1
  S  S16  1  0.840843  0.103631  0.017212  1
  S  S17  1  0.076175  0.565391  0.772909  1
  S  S18  1  0.738128  0.846308  0.512504  1
  S  S19  1  0.340327  0.669062  0.247031  1
  S  S20  1  0.912554  0.430678  0.282407  1
  S  S21  1  0.262737  0.153791  0.011101  1
  S  S22  1  0.109357  0.262059  0.514007  1
  S  S23  1  0.883591  0.734876  0.014120  1
