# generated using pymatgen
data_K10LaSn12
_symmetry_space_group_name_H-M   'P 1'
_cell_length_a   10.56368326
_cell_length_b   10.56368392
_cell_length_c   10.56368300
_cell_angle_alpha   109.47122078
_cell_angle_beta   109.47122206
_cell_angle_gamma   109.47121794
_symmetry_Int_Tables_number   1
_chemical_formula_structural   K10LaSn12
_chemical_formula_sum   'K10 La1 Sn12'
_cell_volume   907.45321664
_cell_formula_units_Z   1
loop_
 _symmetry_equiv_pos_site_id
 _symmetry_equiv_pos_as_xyz
  1  'x, y, z'
loop_
 _atom_site_type_symbol
 _atom_site_label
 _atom_site_symmetry_multiplicity
 _atom_site_fract_x
 _atom_site_fract_y
 _atom_site_fract_z
 _atom_site_occupancy
  K  K0  1  0.250000  0.500000  0.750000  1
  K  K1  1  0.401297  0.401297  0.401297  1
  K  K2  1  0.000000  0.598703  0.000000  1
  K  K3  1  0.598703  0.000000  0.000000  1
  K  K4  1  0.000000  0.000000  0.598703  1
  K  K5  1  0.750000  0.500000  0.250000  1
  K  K6  1  0.250000  0.750000  0.500000  1
  K  K7  1  0.750000  0.250000  0.500000  1
  K  K8  1  0.500000  0.250000  0.750000  1
  K  K9  1  0.500000  0.750000  0.250000  1
  La  La10  1  0.000000  0.000000  0.000000  1
  Sn  Sn11  1  0.651548  0.651548  0.828681  1
  Sn  Sn12  1  0.000000  0.177132  0.348452  1
  Sn  Sn13  1  0.177132  0.000000  0.348452  1
  Sn  Sn14  1  0.822868  0.171319  0.822868  1
  Sn  Sn15  1  0.171319  0.822868  0.822868  1
  Sn  Sn16  1  0.828681  0.651548  0.651548  1
  Sn  Sn17  1  0.000000  0.348452  0.177132  1
  Sn  Sn18  1  0.348452  0.000000  0.177132  1
  Sn  Sn19  1  0.651548  0.828681  0.651548  1
  Sn  Sn20  1  0.177132  0.348452  0.000000  1
  Sn  Sn21  1  0.348452  0.177132  0.000000  1
  Sn  Sn22  1  0.822868  0.822868  0.171319  1
