# generated using pymatgen
data_CsO8
_symmetry_space_group_name_H-M   'P 1'
_cell_length_a   6.13195087
_cell_length_b   5.86584630
_cell_length_c   6.82174184
_cell_angle_alpha   110.52072518
_cell_angle_beta   89.90341121
_cell_angle_gamma   121.72685795
_symmetry_Int_Tables_number   1
_chemical_formula_structural   CsO8
_chemical_formula_sum   'Cs1 O8'
_cell_volume   190.25356318
_cell_formula_units_Z   1
loop_
 _symmetry_equiv_pos_site_id
 _symmetry_equiv_pos_as_xyz
  1  'x, y, z'
loop_
 _atom_site_type_symbol
 _atom_site_label
 _atom_site_symmetry_multiplicity
 _atom_site_fract_x
 _atom_site_fract_y
 _atom_site_fract_z
 _atom_site_occupancy
  Cs  Cs0  1  0.052792  0.280003  0.615715  1
  O  O1  1  0.443077  0.828677  0.226674  1
  O  O2  1  0.515163  0.133970  0.869327  1
  O  O3  1  0.945697  0.833495  0.884115  1
  O  O4  1  0.247062  0.568986  0.153462  1
  O  O5  1  0.812765  0.552705  0.404313  1
  O  O6  1  0.381878  0.983494  0.677267  1
  O  O7  1  0.578914  0.472192  0.415008  1
  O  O8  1  0.708199  0.749001  0.879415  1
