# generated using pymatgen
data_Dy2YHo3MnBi2
_symmetry_space_group_name_H-M   'P 1'
_cell_length_a   4.28687900
_cell_length_b   8.30174554
_cell_length_c   8.30174582
_cell_angle_alpha   119.85305164
_cell_angle_beta   90.00000000
_cell_angle_gamma   90.00000000
_symmetry_Int_Tables_number   1
_chemical_formula_structural   Dy2YHo3MnBi2
_chemical_formula_sum   'Dy2 Y1 Ho3 Mn1 Bi2'
_cell_volume   256.24292657
_cell_formula_units_Z   1
loop_
 _symmetry_equiv_pos_site_id
 _symmetry_equiv_pos_as_xyz
  1  'x, y, z'
loop_
 _atom_site_type_symbol
 _atom_site_label
 _atom_site_symmetry_multiplicity
 _atom_site_fract_x
 _atom_site_fract_y
 _atom_site_fract_z
 _atom_site_occupancy
  Dy  Dy0  1  0.000000  0.999939  0.606651  1
  Dy  Dy1  1  0.000000  0.606651  0.999939  1
  Y  Y2  1  0.000000  0.393652  0.393652  1
  Ho  Ho3  1  0.500000  0.767779  0.767779  1
  Ho  Ho4  1  0.500000  0.999712  0.232393  1
  Ho  Ho5  1  0.500000  0.232393  0.999712  1
  Mn  Mn6  1  0.000000  0.999759  0.999759  1
  Bi  Bi7  1  0.500000  0.666693  0.333421  1
  Bi  Bi8  1  0.500000  0.333421  0.666693  1
