# generated using pymatgen
data_Dy4Al3GaRu4
_symmetry_space_group_name_H-M   'P 1'
_cell_length_a   4.54383200
_cell_length_b   7.26153635
_cell_length_c   7.03938194
_cell_angle_alpha   89.83594193
_cell_angle_beta   90.00000000
_cell_angle_gamma   90.00000000
_symmetry_Int_Tables_number   1
_chemical_formula_structural   Dy4Al3GaRu4
_chemical_formula_sum   'Dy4 Al3 Ga1 Ru4'
_cell_volume   232.26487157
_cell_formula_units_Z   1
loop_
 _symmetry_equiv_pos_site_id
 _symmetry_equiv_pos_as_xyz
  1  'x, y, z'
loop_
 _atom_site_type_symbol
 _atom_site_label
 _atom_site_symmetry_multiplicity
 _atom_site_fract_x
 _atom_site_fract_y
 _atom_site_fract_z
 _atom_site_occupancy
  Dy  Dy0  1  0.250000  0.978085  0.804059  1
  Dy  Dy1  1  0.750000  0.024047  0.194220  1
  Dy  Dy2  1  0.250000  0.475523  0.693255  1
  Dy  Dy3  1  0.750000  0.523536  0.307646  1
  Al  Al4  1  0.250000  0.310794  0.108382  1
  Al  Al5  1  0.750000  0.689207  0.892675  1
  Al  Al6  1  0.250000  0.807921  0.392620  1
  Ga  Ga7  1  0.750000  0.195104  0.605356  1
  Ru  Ru8  1  0.750000  0.839869  0.563484  1
  Ru  Ru9  1  0.250000  0.155553  0.435725  1
  Ru  Ru10  1  0.750000  0.341585  0.939514  1
  Ru  Ru11  1  0.250000  0.658779  0.063064  1
