# generated using pymatgen
data_Eu4Ti3VO14
_symmetry_space_group_name_H-M   'P 1'
_cell_length_a   7.27490957
_cell_length_b   7.27490890
_cell_length_c   7.29628148
_cell_angle_alpha   60.09685078
_cell_angle_beta   60.09684576
_cell_angle_gamma   60.00000582
_symmetry_Int_Tables_number   1
_chemical_formula_structural   Eu4Ti3VO14
_chemical_formula_sum   'Eu4 Ti3 V1 O14'
_cell_volume   273.44875961
_cell_formula_units_Z   1
loop_
 _symmetry_equiv_pos_site_id
 _symmetry_equiv_pos_as_xyz
  1  'x, y, z'
loop_
 _atom_site_type_symbol
 _atom_site_label
 _atom_site_symmetry_multiplicity
 _atom_site_fract_x
 _atom_site_fract_y
 _atom_site_fract_z
 _atom_site_occupancy
  Eu  Eu0  1  0.125000  0.625000  0.125000  1
  Eu  Eu1  1  0.125000  0.125000  0.625000  1
  Eu  Eu2  1  0.625000  0.125000  0.125000  1
  Eu  Eu3  1  0.125000  0.125000  0.125000  1
  Ti  Ti4  1  0.625000  0.125000  0.625000  1
  Ti  Ti5  1  0.125000  0.625000  0.625000  1
  Ti  Ti6  1  0.625000  0.625000  0.625000  1
  V  V7  1  0.625000  0.625000  0.125000  1
  O  O8  1  0.693343  0.693343  0.300304  1
  O  O9  1  0.950154  0.553550  0.546143  1
  O  O10  1  0.556657  0.936992  0.949696  1
  O  O11  1  0.950154  0.950154  0.546143  1
  O  O12  1  0.936992  0.556657  0.949696  1
  O  O13  1  0.553550  0.950154  0.546143  1
  O  O14  1  0.313008  0.693343  0.300304  1
  O  O15  1  0.299846  0.696450  0.703857  1
  O  O16  1  0.693343  0.313008  0.300304  1
  O  O17  1  0.696450  0.299846  0.703857  1
  O  O18  1  0.556657  0.556657  0.949696  1
  O  O19  1  0.299846  0.299846  0.703857  1
  O  O20  1  0.250337  0.250337  0.248988  1
  O  O21  1  0.999663  0.999663  0.001012  1
