# generated using pymatgen
data_Pr4NdRh3
_symmetry_space_group_name_H-M   'P 1'
_cell_length_a   11.32435900
_cell_length_b   11.32435900
_cell_length_c   6.64310300
_cell_angle_alpha   90.00000000
_cell_angle_beta   90.00000000
_cell_angle_gamma   90.00000000
_symmetry_Int_Tables_number   1
_chemical_formula_structural   Pr4NdRh3
_chemical_formula_sum   'Pr16 Nd4 Rh12'
_cell_volume   851.91888105
_cell_formula_units_Z   4
loop_
 _symmetry_equiv_pos_site_id
 _symmetry_equiv_pos_as_xyz
  1  'x, y, z'
loop_
 _atom_site_type_symbol
 _atom_site_label
 _atom_site_symmetry_multiplicity
 _atom_site_fract_x
 _atom_site_fract_y
 _atom_site_fract_z
 _atom_site_occupancy
  Pr  Pr0  1  0.090588  0.291293  0.115892  1
  Pr  Pr1  1  0.791293  0.409412  0.115892  1
  Pr  Pr2  1  0.208707  0.590588  0.115892  1
  Pr  Pr3  1  0.909412  0.708707  0.115892  1
  Pr  Pr4  1  0.409412  0.791293  0.384108  1
  Pr  Pr5  1  0.590588  0.208707  0.384108  1
  Pr  Pr6  1  0.291293  0.090588  0.384108  1
  Pr  Pr7  1  0.708707  0.909412  0.384108  1
  Pr  Pr8  1  0.409412  0.208707  0.884108  1
  Pr  Pr9  1  0.708707  0.090588  0.884108  1
  Pr  Pr10  1  0.291293  0.909412  0.884108  1
  Pr  Pr11  1  0.590588  0.791293  0.884108  1
  Pr  Pr12  1  0.090588  0.708707  0.615892  1
  Pr  Pr13  1  0.909412  0.291293  0.615892  1
  Pr  Pr14  1  0.208707  0.409412  0.615892  1
  Pr  Pr15  1  0.791293  0.590588  0.615892  1
  Nd  Nd16  1  0.000000  0.000000  0.000000  1
  Nd  Nd17  1  0.500000  0.500000  0.000000  1
  Nd  Nd18  1  0.500000  0.500000  0.500000  1
  Nd  Nd19  1  0.000000  0.000000  0.500000  1
  Rh  Rh20  1  0.152896  0.847104  0.250000  1
  Rh  Rh21  1  0.347104  0.347104  0.250000  1
  Rh  Rh22  1  0.652896  0.652896  0.250000  1
  Rh  Rh23  1  0.847104  0.152896  0.250000  1
  Rh  Rh24  1  0.347104  0.652896  0.750000  1
  Rh  Rh25  1  0.152896  0.152896  0.750000  1
  Rh  Rh26  1  0.847104  0.847104  0.750000  1
  Rh  Rh27  1  0.652896  0.347104  0.750000  1
  Rh  Rh28  1  0.000000  0.500000  0.378912  1
  Rh  Rh29  1  0.500000  0.000000  0.121088  1
  Rh  Rh30  1  0.500000  0.000000  0.621088  1
  Rh  Rh31  1  0.000000  0.500000  0.878912  1
