# generated using pymatgen
data_CaLa4Ge3H
_symmetry_space_group_name_H-M   'P 1'
_cell_length_a   9.12042461
_cell_length_b   9.12042468
_cell_length_c   9.12042514
_cell_angle_alpha   128.10237623
_cell_angle_beta   128.10237650
_cell_angle_gamma   76.45923979
_symmetry_Int_Tables_number   1
_chemical_formula_structural   CaLa4Ge3H
_chemical_formula_sum   'Ca2 La8 Ge6 H2'
_cell_volume   456.41822005
_cell_formula_units_Z   2
loop_
 _symmetry_equiv_pos_site_id
 _symmetry_equiv_pos_as_xyz
  1  'x, y, z'
loop_
 _atom_site_type_symbol
 _atom_site_label
 _atom_site_symmetry_multiplicity
 _atom_site_fract_x
 _atom_site_fract_y
 _atom_site_fract_z
 _atom_site_occupancy
  Ca  Ca0  1  0.500000  0.500000  0.000000  1
  Ca  Ca1  1  0.000000  0.000000  0.000000  1
  La  La2  1  0.523136  0.023136  0.844475  1
  La  La3  1  0.178662  0.678662  0.155525  1
  La  La4  1  0.023136  0.178662  0.500000  1
  La  La5  1  0.678662  0.523136  0.500000  1
  La  La6  1  0.476864  0.976864  0.155525  1
  La  La7  1  0.821338  0.321338  0.844475  1
  La  La8  1  0.976864  0.821338  0.500000  1
  La  La9  1  0.321338  0.476864  0.500000  1
  Ge  Ge10  1  0.250000  0.250000  0.000000  1
  Ge  Ge11  1  0.750000  0.750000  0.000000  1
  Ge  Ge12  1  0.878659  0.378659  0.257320  1
  Ge  Ge13  1  0.121341  0.621341  0.742680  1
  Ge  Ge14  1  0.378659  0.121341  0.500000  1
  Ge  Ge15  1  0.621341  0.878659  0.500000  1
  H  H16  1  0.250000  0.750000  0.500000  1
  H  H17  1  0.750000  0.250000  0.500000  1
