# generated using pymatgen
data_Ac16Mg4Os3Ru
_symmetry_space_group_name_H-M   'P 1'
_cell_length_a   10.55539229
_cell_length_b   10.58916534
_cell_length_c   10.58916500
_cell_angle_alpha   59.99999794
_cell_angle_beta   59.89409941
_cell_angle_gamma   59.89409746
_symmetry_Int_Tables_number   1
_chemical_formula_structural   Ac16Mg4Os3Ru
_chemical_formula_sum   'Ac16 Mg4 Os3 Ru1'
_cell_volume   835.57566934
_cell_formula_units_Z   1
loop_
 _symmetry_equiv_pos_site_id
 _symmetry_equiv_pos_as_xyz
  1  'x, y, z'
loop_
 _atom_site_type_symbol
 _atom_site_label
 _atom_site_symmetry_multiplicity
 _atom_site_fract_x
 _atom_site_fract_y
 _atom_site_fract_z
 _atom_site_occupancy
  Ac  Ac0  1  0.342849  0.343787  0.343787  1
  Ac  Ac1  1  0.342849  0.343787  0.969576  1
  Ac  Ac2  1  0.342849  0.969576  0.343787  1
  Ac  Ac3  1  0.969681  0.343440  0.343440  1
  Ac  Ac4  1  0.812660  0.186837  0.186837  1
  Ac  Ac5  1  0.187128  0.812738  0.812738  1
  Ac  Ac6  1  0.187128  0.812738  0.187395  1
  Ac  Ac7  1  0.812660  0.186837  0.813667  1
  Ac  Ac8  1  0.187128  0.187395  0.812738  1
  Ac  Ac9  1  0.812660  0.813667  0.186837  1
  Ac  Ac10  1  0.940653  0.559125  0.559125  1
  Ac  Ac11  1  0.559216  0.939697  0.939697  1
  Ac  Ac12  1  0.559216  0.939697  0.561390  1
  Ac  Ac13  1  0.940653  0.559125  0.941097  1
  Ac  Ac14  1  0.559216  0.561390  0.939697  1
  Ac  Ac15  1  0.940653  0.941097  0.559125  1
  Mg  Mg16  1  0.577202  0.577108  0.577108  1
  Mg  Mg17  1  0.577202  0.577108  0.268582  1
  Mg  Mg18  1  0.577202  0.268582  0.577108  1
  Mg  Mg19  1  0.268489  0.577170  0.577170  1
  Os  Os20  1  0.137928  0.138436  0.138436  1
  Os  Os21  1  0.137928  0.138436  0.585202  1
  Os  Os22  1  0.137928  0.585202  0.138436  1
  Ru  Ru23  1  0.588924  0.137026  0.137026  1
