# generated using pymatgen
data_Pr3Dy3(AuO7)2
_symmetry_space_group_name_H-M   'P 1'
_cell_length_a   6.58827000
_cell_length_b   6.59529686
_cell_length_c   7.59384600
_cell_angle_alpha   90.00000000
_cell_angle_beta   90.00000000
_cell_angle_gamma   108.84184366
_symmetry_Int_Tables_number   1
_chemical_formula_structural   Pr3Dy3(AuO7)2
_chemical_formula_sum   'Pr3 Dy3 Au2 O14'
_cell_volume   312.28312754
_cell_formula_units_Z   1
loop_
 _symmetry_equiv_pos_site_id
 _symmetry_equiv_pos_as_xyz
  1  'x, y, z'
loop_
 _atom_site_type_symbol
 _atom_site_label
 _atom_site_symmetry_multiplicity
 _atom_site_fract_x
 _atom_site_fract_y
 _atom_site_fract_z
 _atom_site_occupancy
  Pr  Pr0  1  0.505653  0.505020  0.502031  1
  Pr  Pr1  1  0.505653  0.505020  0.997969  1
  Pr  Pr2  1  0.470061  0.003906  0.250000  1
  Dy  Dy3  1  0.000598  0.527797  0.250000  1
  Dy  Dy4  1  0.003418  0.470303  0.750000  1
  Dy  Dy5  1  0.526550  0.999792  0.750000  1
  Au  Au6  1  0.998996  0.998901  0.502657  1
  Au  Au7  1  0.998996  0.998901  0.997343  1
  O  O8  1  0.925190  0.079201  0.750000  1
  O  O9  1  0.065722  0.917321  0.250000  1
  O  O10  1  0.355285  0.632176  0.250000  1
  O  O11  1  0.647691  0.355560  0.750000  1
  O  O12  1  0.361187  0.640152  0.750000  1
  O  O13  1  0.645771  0.375278  0.250000  1
  O  O14  1  0.323828  0.080616  0.968695  1
  O  O15  1  0.672954  0.917478  0.484260  1
  O  O16  1  0.323828  0.080616  0.531305  1
  O  O17  1  0.672954  0.917478  0.015740  1
  O  O18  1  0.067202  0.324024  0.476488  1
  O  O19  1  0.930630  0.673221  0.974218  1
  O  O20  1  0.930630  0.673221  0.525782  1
  O  O21  1  0.067202  0.324024  0.023512  1
