# generated using pymatgen
data_NdY2Al12Ir3Os
_symmetry_space_group_name_H-M   'P 1'
_cell_length_a   8.85096400
_cell_length_b   8.85441735
_cell_length_c   9.60001200
_cell_angle_alpha   90.00000000
_cell_angle_beta   90.00000000
_cell_angle_gamma   119.98709926
_symmetry_Int_Tables_number   1
_chemical_formula_structural   NdY2Al12Ir3Os
_chemical_formula_sum   'Nd2 Y4 Al24 Ir6 Os2'
_cell_volume   651.64251703
_cell_formula_units_Z   2
loop_
 _symmetry_equiv_pos_site_id
 _symmetry_equiv_pos_as_xyz
  1  'x, y, z'
loop_
 _atom_site_type_symbol
 _atom_site_label
 _atom_site_symmetry_multiplicity
 _atom_site_fract_x
 _atom_site_fract_y
 _atom_site_fract_z
 _atom_site_occupancy
  Nd  Nd0  1  0.189295  0.378590  0.250000  1
  Nd  Nd1  1  0.810705  0.621410  0.750000  1
  Y  Y2  1  0.615980  0.808490  0.250000  1
  Y  Y3  1  0.384020  0.191510  0.750000  1
  Y  Y4  1  0.192511  0.808490  0.250000  1
  Y  Y5  1  0.807489  0.191510  0.750000  1
  Al  Al6  1  0.333718  0.667437  0.029628  1
  Al  Al7  1  0.666282  0.332563  0.970372  1
  Al  Al8  1  0.666282  0.332563  0.529628  1
  Al  Al9  1  0.333718  0.667437  0.470372  1
  Al  Al10  1  0.164003  0.328006  0.575446  1
  Al  Al11  1  0.835997  0.671994  0.424554  1
  Al  Al12  1  0.671635  0.836682  0.573918  1
  Al  Al13  1  0.835997  0.671994  0.075446  1
  Al  Al14  1  0.328365  0.163318  0.426082  1
  Al  Al15  1  0.164003  0.328006  0.924554  1
  Al  Al16  1  0.165046  0.836682  0.573918  1
  Al  Al17  1  0.328365  0.163318  0.073918  1
  Al  Al18  1  0.834954  0.163318  0.426082  1
  Al  Al19  1  0.671635  0.836682  0.926082  1
  Al  Al20  1  0.834954  0.163318  0.073918  1
  Al  Al21  1  0.165046  0.836682  0.926082  1
  Al  Al22  1  0.562149  0.124298  0.250000  1
  Al  Al23  1  0.437851  0.875702  0.750000  1
  Al  Al24  1  0.873687  0.437621  0.250000  1
  Al  Al25  1  0.126313  0.562379  0.750000  1
  Al  Al26  1  0.563934  0.437621  0.250000  1
  Al  Al27  1  0.436066  0.562379  0.750000  1
  Al  Al28  1  0.998162  0.996324  0.250000  1
  Al  Al29  1  0.001838  0.003676  0.750000  1
  Ir  Ir30  1  0.500000  0.000000  0.000000  1
  Ir  Ir31  1  0.000000  0.500000  0.000000  1
  Ir  Ir32  1  0.500000  0.000000  0.500000  1
  Ir  Ir33  1  0.500000  0.500000  0.000000  1
  Ir  Ir34  1  0.000000  0.500000  0.500000  1
  Ir  Ir35  1  0.500000  0.500000  0.500000  1
  Os  Os36  1  0.000000  0.000000  0.000000  1
  Os  Os37  1  0.000000  0.000000  0.500000  1
