# generated using pymatgen
data_Ba5(RhO5)2
_symmetry_space_group_name_H-M   'P 1'
_cell_length_a   6.07244010
_cell_length_b   6.07244083
_cell_length_c   18.01291800
_cell_angle_alpha   90.00000000
_cell_angle_beta   90.00000000
_cell_angle_gamma   120.47794742
_symmetry_Int_Tables_number   1
_chemical_formula_structural   Ba5(RhO5)2
_chemical_formula_sum   'Ba10 Rh4 O20'
_cell_volume   572.43925832
_cell_formula_units_Z   2
loop_
 _symmetry_equiv_pos_site_id
 _symmetry_equiv_pos_as_xyz
  1  'x, y, z'
loop_
 _atom_site_type_symbol
 _atom_site_label
 _atom_site_symmetry_multiplicity
 _atom_site_fract_x
 _atom_site_fract_y
 _atom_site_fract_z
 _atom_site_occupancy
  Ba  Ba0  1  0.176739  0.823261  0.009937  1
  Ba  Ba1  1  0.823261  0.176739  0.509937  1
  Ba  Ba2  1  0.833132  0.166868  0.746486  1
  Ba  Ba3  1  0.166868  0.833132  0.246486  1
  Ba  Ba4  1  0.503190  0.496810  0.361708  1
  Ba  Ba5  1  0.496810  0.503190  0.861708  1
  Ba  Ba6  1  0.503691  0.496309  0.630345  1
  Ba  Ba7  1  0.840526  0.159474  0.981839  1
  Ba  Ba8  1  0.496309  0.503691  0.130345  1
  Ba  Ba9  1  0.159474  0.840526  0.481839  1
  Rh  Rh10  1  0.172037  0.827963  0.670293  1
  Rh  Rh11  1  0.161740  0.838260  0.821908  1
  Rh  Rh12  1  0.827963  0.172037  0.170293  1
  Rh  Rh13  1  0.838260  0.161740  0.321908  1
  O  O14  1  0.428099  0.571901  0.996051  1
  O  O15  1  0.571901  0.428099  0.496051  1
  O  O16  1  0.469902  0.010814  0.881496  1
  O  O17  1  0.003693  0.996307  0.879364  1
  O  O18  1  0.686006  0.313994  0.249623  1
  O  O19  1  0.315634  0.128842  0.744513  1
  O  O20  1  0.010814  0.469902  0.381496  1
  O  O21  1  0.989186  0.530098  0.881496  1
  O  O22  1  0.033582  0.514978  0.612510  1
  O  O23  1  0.019967  0.980033  0.609611  1
  O  O24  1  0.514978  0.033582  0.112510  1
  O  O25  1  0.871158  0.684366  0.744513  1
  O  O26  1  0.684366  0.871158  0.244513  1
  O  O27  1  0.128842  0.315634  0.244513  1
  O  O28  1  0.996307  0.003693  0.379364  1
  O  O29  1  0.313994  0.686006  0.749623  1
  O  O30  1  0.485022  0.966418  0.612510  1
  O  O31  1  0.966418  0.485022  0.112510  1
  O  O32  1  0.530098  0.989186  0.381496  1
  O  O33  1  0.980033  0.019967  0.109611  1
