# generated using pymatgen
data_Nb12Ga7PtN4
_symmetry_space_group_name_H-M   'P 1'
_cell_length_a   7.06368864
_cell_length_b   7.06368864
_cell_length_c   7.06368864
_cell_angle_alpha   89.73872994
_cell_angle_beta   90.26127006
_cell_angle_gamma   90.26127006
_symmetry_Int_Tables_number   1
_chemical_formula_structural   Nb12Ga7PtN4
_chemical_formula_sum   'Nb12 Ga7 Pt1 N4'
_cell_volume   352.43670930
_cell_formula_units_Z   1
loop_
 _symmetry_equiv_pos_site_id
 _symmetry_equiv_pos_as_xyz
  1  'x, y, z'
loop_
 _atom_site_type_symbol
 _atom_site_label
 _atom_site_symmetry_multiplicity
 _atom_site_fract_x
 _atom_site_fract_y
 _atom_site_fract_z
 _atom_site_occupancy
  Nb  Nb0  1  0.792188  0.957148  0.374060  1
  Nb  Nb1  1  0.707473  0.044048  0.876860  1
  Nb  Nb2  1  0.206589  0.453167  0.121901  1
  Nb  Nb3  1  0.293961  0.545337  0.627191  1
  Nb  Nb4  1  0.955952  0.376860  0.792527  1
  Nb  Nb5  1  0.042852  0.874060  0.707812  1
  Nb  Nb6  1  0.454663  0.127191  0.206039  1
  Nb  Nb7  1  0.546833  0.621901  0.293411  1
  Nb  Nb8  1  0.378099  0.793411  0.953167  1
  Nb  Nb9  1  0.872809  0.706039  0.045337  1
  Nb  Nb10  1  0.125940  0.207812  0.457148  1
  Nb  Nb11  1  0.623140  0.292527  0.544048  1
  Ga  Ga12  1  0.319650  0.178242  0.819612  1
  Ga  Ga13  1  0.821758  0.319612  0.180350  1
  Ga  Ga14  1  0.680388  0.680350  0.678242  1
  Ga  Ga15  1  0.568792  0.431208  0.931208  1
  Ga  Ga16  1  0.426932  0.930077  0.564919  1
  Ga  Ga17  1  0.935081  0.573068  0.430077  1
  Ga  Ga18  1  0.069923  0.064919  0.073068  1
  Pt  Pt19  1  0.182920  0.817080  0.317080  1
  N  N20  1  0.875164  0.124836  0.624836  1
  N  N21  1  0.622591  0.875774  0.127924  1
  N  N22  1  0.124226  0.627924  0.877409  1
  N  N23  1  0.372076  0.377409  0.375774  1
