# generated using pymatgen
data_Sr5SiOsN7
_symmetry_space_group_name_H-M   'P 1'
_cell_length_a   6.41237049
_cell_length_b   8.94139058
_cell_length_c   9.25167252
_cell_angle_alpha   113.91572030
_cell_angle_beta   98.35940909
_cell_angle_gamma   89.96880898
_symmetry_Int_Tables_number   1
_chemical_formula_structural   Sr5SiOsN7
_chemical_formula_sum   'Sr10 Si2 Os2 N14'
_cell_volume   478.75365296
_cell_formula_units_Z   2
loop_
 _symmetry_equiv_pos_site_id
 _symmetry_equiv_pos_as_xyz
  1  'x, y, z'
loop_
 _atom_site_type_symbol
 _atom_site_label
 _atom_site_symmetry_multiplicity
 _atom_site_fract_x
 _atom_site_fract_y
 _atom_site_fract_z
 _atom_site_occupancy
  Sr  Sr0  1  0.855059  0.582337  0.350604  1
  Sr  Sr1  1  0.276793  0.978796  0.564621  1
  Sr  Sr2  1  0.691818  0.404250  0.833756  1
  Sr  Sr3  1  0.308182  0.595750  0.166244  1
  Sr  Sr4  1  0.402296  0.782701  0.894071  1
  Sr  Sr5  1  0.597704  0.217299  0.105929  1
  Sr  Sr6  1  0.144941  0.417663  0.649396  1
  Sr  Sr7  1  0.882132  0.831447  0.746548  1
  Sr  Sr8  1  0.117868  0.168553  0.253452  1
  Sr  Sr9  1  0.723207  0.021204  0.435379  1
  Si  Si10  1  0.572540  0.363689  0.476493  1
  Si  Si11  1  0.427460  0.636311  0.523507  1
  Os  Os12  1  0.117686  0.220984  0.915838  1
  Os  Os13  1  0.882314  0.779016  0.084162  1
  N  N14  1  0.565482  0.553568  0.655847  1
  N  N15  1  0.434518  0.446432  0.344153  1
  N  N16  1  0.181013  0.695891  0.584315  1
  N  N17  1  0.818987  0.304109  0.415685  1
  N  N18  1  0.422815  0.209182  0.494352  1
  N  N19  1  0.577185  0.790818  0.505648  1
  N  N20  1  0.952777  0.143743  0.717747  1
  N  N21  1  0.047223  0.856257  0.282253  1
  N  N22  1  0.225417  0.052148  0.963889  1
  N  N23  1  0.774583  0.947852  0.036111  1
  N  N24  1  0.353970  0.334811  0.910651  1
  N  N25  1  0.972259  0.350038  0.073188  1
  N  N26  1  0.027741  0.649962  0.926812  1
  N  N27  1  0.646030  0.665189  0.089349  1
