# generated using pymatgen
data_Tb2MgCdSn2
_symmetry_space_group_name_H-M   'P 1'
_cell_length_a   8.52937275
_cell_length_b   8.52937295
_cell_length_c   8.52937280
_cell_angle_alpha   149.81936812
_cell_angle_beta   150.15327614
_cell_angle_gamma   42.96210091
_symmetry_Int_Tables_number   1
_chemical_formula_structural   Tb2MgCdSn2
_chemical_formula_sum   'Tb2 Mg1 Cd1 Sn2'
_cell_volume   154.85002709
_cell_formula_units_Z   1
loop_
 _symmetry_equiv_pos_site_id
 _symmetry_equiv_pos_as_xyz
  1  'x, y, z'
loop_
 _atom_site_type_symbol
 _atom_site_label
 _atom_site_symmetry_multiplicity
 _atom_site_fract_x
 _atom_site_fract_y
 _atom_site_fract_z
 _atom_site_occupancy
  Tb  Tb0  1  0.663942  0.663942  0.000000  1
  Tb  Tb1  1  0.336058  0.336058  0.000000  1
  Mg  Mg2  1  0.500000  0.000000  0.500000  1
  Cd  Cd3  1  0.000000  0.500000  0.500000  1
  Sn  Sn4  1  0.860961  0.860961  0.000000  1
  Sn  Sn5  1  0.139039  0.139039  0.000000  1
