# generated using pymatgen
data_YEr7(TcB6)4
_symmetry_space_group_name_H-M   'P 1'
_cell_length_a   3.66422800
_cell_length_b   9.12478500
_cell_length_c   11.49753400
_cell_angle_alpha   89.99683795
_cell_angle_beta   90.00000000
_cell_angle_gamma   90.00000000
_symmetry_Int_Tables_number   1
_chemical_formula_structural   YEr7(TcB6)4
_chemical_formula_sum   'Y1 Er7 Tc4 B24'
_cell_volume   384.42341422
_cell_formula_units_Z   1
loop_
 _symmetry_equiv_pos_site_id
 _symmetry_equiv_pos_as_xyz
  1  'x, y, z'
loop_
 _atom_site_type_symbol
 _atom_site_label
 _atom_site_symmetry_multiplicity
 _atom_site_fract_x
 _atom_site_fract_y
 _atom_site_fract_z
 _atom_site_occupancy
  Y  Y0  1  0.000000  0.323573  0.414176  1
  Er  Er1  1  0.000000  0.676199  0.585870  1
  Er  Er2  1  0.000000  0.823901  0.085798  1
  Er  Er3  1  0.000000  0.176098  0.914205  1
  Er  Er4  1  0.000000  0.942786  0.369417  1
  Er  Er5  1  0.000000  0.056943  0.630719  1
  Er  Er6  1  0.000000  0.442961  0.130397  1
  Er  Er7  1  0.000000  0.557159  0.869516  1
  Tc  Tc8  1  0.000000  0.639515  0.320226  1
  Tc  Tc9  1  0.000000  0.360961  0.680008  1
  Tc  Tc10  1  0.000000  0.138732  0.179155  1
  Tc  Tc11  1  0.000000  0.861003  0.820495  1
  B  B12  1  0.500000  0.553920  0.433172  1
  B  B13  1  0.500000  0.446965  0.567287  1
  B  B14  1  0.500000  0.053227  0.066697  1
  B  B15  1  0.500000  0.946679  0.933199  1
  B  B16  1  0.500000  0.749578  0.419035  1
  B  B17  1  0.500000  0.250436  0.581695  1
  B  B18  1  0.500000  0.249409  0.080827  1
  B  B19  1  0.500000  0.750603  0.919015  1
  B  B20  1  0.500000  0.792520  0.265002  1
  B  B21  1  0.500000  0.207494  0.735129  1
  B  B22  1  0.500000  0.292221  0.234387  1
  B  B23  1  0.500000  0.707578  0.765105  1
  B  B24  1  0.500000  0.631040  0.185015  1
  B  B25  1  0.500000  0.369148  0.814955  1
  B  B26  1  0.500000  0.130387  0.314412  1
  B  B27  1  0.500000  0.869071  0.685199  1
  B  B28  1  0.500000  0.981688  0.211546  1
  B  B29  1  0.500000  0.018127  0.788406  1
  B  B30  1  0.500000  0.482440  0.287957  1
  B  B31  1  0.500000  0.518301  0.711827  1
  B  B32  1  0.500000  0.600157  0.027887  1
  B  B33  1  0.500000  0.399923  0.972037  1
  B  B34  1  0.500000  0.099330  0.472278  1
  B  B35  1  0.500000  0.899927  0.527949  1
