# generated using pymatgen
data_Dy12TcOs3
_symmetry_space_group_name_H-M   'P 1'
_cell_length_a   6.29631253
_cell_length_b   7.40667575
_cell_length_c   9.11327600
_cell_angle_alpha   90.00000000
_cell_angle_beta   90.00000000
_cell_angle_gamma   90.07931140
_symmetry_Int_Tables_number   1
_chemical_formula_structural   Dy12TcOs3
_chemical_formula_sum   'Dy12 Tc1 Os3'
_cell_volume   424.99489812
_cell_formula_units_Z   1
loop_
 _symmetry_equiv_pos_site_id
 _symmetry_equiv_pos_as_xyz
  1  'x, y, z'
loop_
 _atom_site_type_symbol
 _atom_site_label
 _atom_site_symmetry_multiplicity
 _atom_site_fract_x
 _atom_site_fract_y
 _atom_site_fract_z
 _atom_site_occupancy
  Dy  Dy0  1  0.333557  0.674606  0.063077  1
  Dy  Dy1  1  0.167355  0.175001  0.436515  1
  Dy  Dy2  1  0.668685  0.324773  0.563088  1
  Dy  Dy3  1  0.832684  0.825036  0.936462  1
  Dy  Dy4  1  0.668685  0.324773  0.936912  1
  Dy  Dy5  1  0.832684  0.825036  0.563538  1
  Dy  Dy6  1  0.333557  0.674606  0.436923  1
  Dy  Dy7  1  0.167355  0.175001  0.063485  1
  Dy  Dy8  1  0.870059  0.539950  0.250000  1
  Dy  Dy9  1  0.628234  0.040330  0.250000  1
  Dy  Dy10  1  0.131361  0.459102  0.750000  1
  Dy  Dy11  1  0.368256  0.960078  0.750000  1
  Tc  Tc12  1  0.038689  0.884597  0.250000  1
  Os  Os13  1  0.459947  0.383380  0.250000  1
  Os  Os14  1  0.959384  0.117543  0.750000  1
  Os  Os15  1  0.539509  0.616187  0.750000  1
