# generated using pymatgen
data_Sc4Fe2Os5Ru
_symmetry_space_group_name_H-M   'P 1'
_cell_length_a   5.04234241
_cell_length_b   5.14564636
_cell_length_c   8.58087400
_cell_angle_alpha   90.00000000
_cell_angle_beta   90.00000000
_cell_angle_gamma   119.31576418
_symmetry_Int_Tables_number   1
_chemical_formula_structural   Sc4Fe2Os5Ru
_chemical_formula_sum   'Sc4 Fe2 Os5 Ru1'
_cell_volume   194.12778606
_cell_formula_units_Z   1
loop_
 _symmetry_equiv_pos_site_id
 _symmetry_equiv_pos_as_xyz
  1  'x, y, z'
loop_
 _atom_site_type_symbol
 _atom_site_label
 _atom_site_symmetry_multiplicity
 _atom_site_fract_x
 _atom_site_fract_y
 _atom_site_fract_z
 _atom_site_occupancy
  Sc  Sc0  1  0.332090  0.668668  0.434819  1
  Sc  Sc1  1  0.661553  0.329018  0.564547  1
  Sc  Sc2  1  0.661553  0.329018  0.935453  1
  Sc  Sc3  1  0.332090  0.668668  0.065181  1
  Fe  Fe4  1  0.176384  0.835987  0.750000  1
  Fe  Fe5  1  0.340106  0.169944  0.250000  1
  Os  Os6  1  0.829411  0.652902  0.250000  1
  Os  Os7  1  0.664877  0.833497  0.750000  1
  Os  Os8  1  0.995281  0.993625  0.999226  1
  Os  Os9  1  0.831095  0.171583  0.250000  1
  Os  Os10  1  0.995281  0.993625  0.500774  1
  Ru  Ru11  1  0.180281  0.353462  0.750000  1
