# generated using pymatgen
data_Rb6InAsP2
_symmetry_space_group_name_H-M   'P 1'
_cell_length_a   9.42465872
_cell_length_b   9.42152204
_cell_length_c   10.60147572
_cell_angle_alpha   82.14287182
_cell_angle_beta   106.82901213
_cell_angle_gamma   119.16098645
_symmetry_Int_Tables_number   1
_chemical_formula_structural   Rb6InAsP2
_chemical_formula_sum   'Rb12 In2 As2 P4'
_cell_volume   786.82501798
_cell_formula_units_Z   2
loop_
 _symmetry_equiv_pos_site_id
 _symmetry_equiv_pos_as_xyz
  1  'x, y, z'
loop_
 _atom_site_type_symbol
 _atom_site_label
 _atom_site_symmetry_multiplicity
 _atom_site_fract_x
 _atom_site_fract_y
 _atom_site_fract_z
 _atom_site_occupancy
  Rb  Rb0  1  0.731315  0.121186  0.616650  1
  Rb  Rb1  1  0.255944  0.862108  0.391848  1
  Rb  Rb2  1  0.970295  0.818706  0.627722  1
  Rb  Rb3  1  0.020933  0.194103  0.391378  1
  Rb  Rb4  1  0.625334  0.448306  0.396824  1
  Rb  Rb5  1  0.395468  0.561489  0.595699  1
  Rb  Rb6  1  0.868833  0.486061  0.141913  1
  Rb  Rb7  1  0.114019  0.500905  0.843378  1
  Rb  Rb8  1  0.747118  0.092908  0.986779  1
  Rb  Rb9  1  0.243578  0.873885  0.004411  1
  Rb  Rb10  1  0.573690  0.631823  0.947874  1
  Rb  Rb11  1  0.246574  0.208316  0.106381  1
  In  In12  1  0.592205  0.833567  0.257197  1
  In  In13  1  0.413749  0.170925  0.749997  1
  As  As14  1  0.296510  0.559554  0.231276  1
  As  As15  1  0.709216  0.436724  0.763140  1
  P  P16  1  0.598183  0.109128  0.261105  1
  P  P17  1  0.387528  0.883593  0.740300  1
  P  P18  1  0.855703  0.822341  0.246747  1
  P  P19  1  0.163183  0.201115  0.760764  1
