# generated using pymatgen
data_Ta4BeSi(PRh2)2
_symmetry_space_group_name_H-M   'P 1'
_cell_length_a   3.70144400
_cell_length_b   6.33997153
_cell_length_c   7.27248929
_cell_angle_alpha   90.02633436
_cell_angle_beta   90.00000000
_cell_angle_gamma   90.00000000
_symmetry_Int_Tables_number   1
_chemical_formula_structural   Ta4BeSi(PRh2)2
_chemical_formula_sum   'Ta4 Be1 Si1 P2 Rh4'
_cell_volume   170.66384888
_cell_formula_units_Z   1
loop_
 _symmetry_equiv_pos_site_id
 _symmetry_equiv_pos_as_xyz
  1  'x, y, z'
loop_
 _atom_site_type_symbol
 _atom_site_label
 _atom_site_symmetry_multiplicity
 _atom_site_fract_x
 _atom_site_fract_y
 _atom_site_fract_z
 _atom_site_occupancy
  Ta  Ta0  1  0.250000  0.022739  0.822535  1
  Ta  Ta1  1  0.250000  0.532702  0.668369  1
  Ta  Ta2  1  0.750000  0.964174  0.178173  1
  Ta  Ta3  1  0.750000  0.483420  0.332260  1
  Be  Be4  1  0.250000  0.766494  0.375402  1
  Si  Si5  1  0.250000  0.262940  0.127509  1
  P  P6  1  0.750000  0.234825  0.624497  1
  P  P7  1  0.750000  0.736153  0.872534  1
  Rh  Rh8  1  0.250000  0.144362  0.439019  1
  Rh  Rh9  1  0.250000  0.645616  0.066232  1
  Rh  Rh10  1  0.750000  0.852472  0.559420  1
  Rh  Rh11  1  0.750000  0.354103  0.934049  1
