# generated using pymatgen
data_Li8HoTh7Sn8
_symmetry_space_group_name_H-M   'P 1'
_cell_length_a   9.67934900
_cell_length_b   9.67935001
_cell_length_c   7.33180200
_cell_angle_alpha   90.00000000
_cell_angle_beta   90.00000000
_cell_angle_gamma   119.99999998
_symmetry_Int_Tables_number   1
_chemical_formula_structural   Li8HoTh7Sn8
_chemical_formula_sum   'Li8 Ho1 Th7 Sn8'
_cell_volume   594.88593819
_cell_formula_units_Z   1
loop_
 _symmetry_equiv_pos_site_id
 _symmetry_equiv_pos_as_xyz
  1  'x, y, z'
loop_
 _atom_site_type_symbol
 _atom_site_label
 _atom_site_symmetry_multiplicity
 _atom_site_fract_x
 _atom_site_fract_y
 _atom_site_fract_z
 _atom_site_occupancy
  Li  Li0  1  0.165681  0.331363  0.261455  1
  Li  Li1  1  0.165681  0.834319  0.261455  1
  Li  Li2  1  0.668637  0.834319  0.261455  1
  Li  Li3  1  0.835034  0.670069  0.778626  1
  Li  Li4  1  0.835034  0.164966  0.778626  1
  Li  Li5  1  0.329931  0.164966  0.778626  1
  Li  Li6  1  0.333333  0.666667  0.702356  1
  Li  Li7  1  0.666667  0.333333  0.199641  1
  Ho  Ho8  1  0.000000  0.000000  0.999868  1
  Th  Th9  1  0.506943  0.013884  0.495103  1
  Th  Th10  1  0.506943  0.493057  0.495103  1
  Th  Th11  1  0.986116  0.493057  0.495103  1
  Th  Th12  1  0.493186  0.986374  0.994900  1
  Th  Th13  1  0.493186  0.506814  0.994900  1
  Th  Th14  1  0.013626  0.506814  0.994900  1
  Th  Th15  1  0.000000  0.000000  0.499370  1
  Sn  Sn16  1  0.165577  0.331155  0.740203  1
  Sn  Sn17  1  0.165577  0.834423  0.740203  1
  Sn  Sn18  1  0.668845  0.834423  0.740203  1
  Sn  Sn19  1  0.835051  0.670100  0.235378  1
  Sn  Sn20  1  0.835051  0.164949  0.235378  1
  Sn  Sn21  1  0.329900  0.164949  0.235378  1
  Sn  Sn22  1  0.333333  0.666667  0.262422  1
  Sn  Sn23  1  0.666667  0.333333  0.761315  1
