# generated using pymatgen
data_Th2ZrWN6
_symmetry_space_group_name_H-M   'P 1'
_cell_length_a   5.71417091
_cell_length_b   5.84072900
_cell_length_c   8.12171651
_cell_angle_alpha   90.00000000
_cell_angle_beta   90.19177745
_cell_angle_gamma   90.00000000
_symmetry_Int_Tables_number   1
_chemical_formula_structural   Th2ZrWN6
_chemical_formula_sum   'Th4 Zr2 W2 N12'
_cell_volume   271.06015065
_cell_formula_units_Z   2
loop_
 _symmetry_equiv_pos_site_id
 _symmetry_equiv_pos_as_xyz
  1  'x, y, z'
loop_
 _atom_site_type_symbol
 _atom_site_label
 _atom_site_symmetry_multiplicity
 _atom_site_fract_x
 _atom_site_fract_y
 _atom_site_fract_z
 _atom_site_occupancy
  Th  Th0  1  0.506533  0.549601  0.250431  1
  Th  Th1  1  0.993467  0.049601  0.249569  1
  Th  Th2  1  0.493467  0.450399  0.749569  1
  Th  Th3  1  0.006533  0.950399  0.750431  1
  Zr  Zr4  1  0.000000  0.500000  0.000000  1
  Zr  Zr5  1  0.500000  0.000000  0.500000  1
  W  W6  1  0.000000  0.500000  0.500000  1
  W  W7  1  0.500000  0.000000  0.000000  1
  N  N8  1  0.402525  0.967670  0.240077  1
  N  N9  1  0.097475  0.467670  0.259923  1
  N  N10  1  0.597475  0.032330  0.759923  1
  N  N11  1  0.902525  0.532330  0.740077  1
  N  N12  1  0.792569  0.813767  0.049342  1
  N  N13  1  0.707431  0.313767  0.450658  1
  N  N14  1  0.186041  0.204761  0.551644  1
  N  N15  1  0.313959  0.704761  0.948356  1
  N  N16  1  0.207431  0.186233  0.950658  1
  N  N17  1  0.292569  0.686233  0.549342  1
  N  N18  1  0.813959  0.795239  0.448356  1
  N  N19  1  0.686041  0.295239  0.051644  1
