# generated using pymatgen
data_Ni4GeMo6PC
_symmetry_space_group_name_H-M   'P 1'
_cell_length_a   7.73442429
_cell_length_b   7.74750161
_cell_length_c   7.74750040
_cell_angle_alpha   60.18979421
_cell_angle_beta   60.05581764
_cell_angle_gamma   60.05581631
_symmetry_Int_Tables_number   1
_chemical_formula_structural   Ni4GeMo6PC
_chemical_formula_sum   'Ni8 Ge2 Mo12 P2 C2'
_cell_volume   329.01999154
_cell_formula_units_Z   2
loop_
 _symmetry_equiv_pos_site_id
 _symmetry_equiv_pos_as_xyz
  1  'x, y, z'
loop_
 _atom_site_type_symbol
 _atom_site_label
 _atom_site_symmetry_multiplicity
 _atom_site_fract_x
 _atom_site_fract_y
 _atom_site_fract_z
 _atom_site_occupancy
  Ni  Ni0  1  0.336257  0.323602  0.003884  1
  Ni  Ni1  1  0.341710  0.326403  0.326403  1
  Ni  Ni2  1  0.244517  0.923597  0.923597  1
  Ni  Ni3  1  0.908290  0.923597  0.923597  1
  Ni  Ni4  1  0.005483  0.326403  0.326403  1
  Ni  Ni5  1  0.336257  0.003884  0.323602  1
  Ni  Ni6  1  0.913743  0.926398  0.246116  1
  Ni  Ni7  1  0.913743  0.246116  0.926398  1
  Ge  Ge8  1  0.125000  0.625000  0.125000  1
  Ge  Ge9  1  0.125000  0.125000  0.625000  1
  Mo  Mo10  1  0.306949  0.693051  0.693051  1
  Mo  Mo11  1  0.692979  0.693242  0.307329  1
  Mo  Mo12  1  0.692979  0.307329  0.693242  1
  Mo  Mo13  1  0.306450  0.693242  0.307329  1
  Mo  Mo14  1  0.557021  0.942671  0.556758  1
  Mo  Mo15  1  0.556413  0.943587  0.943587  1
  Mo  Mo16  1  0.943051  0.556949  0.556949  1
  Mo  Mo17  1  0.943550  0.556758  0.942671  1
  Mo  Mo18  1  0.306450  0.307329  0.693242  1
  Mo  Mo19  1  0.557021  0.556758  0.942671  1
  Mo  Mo20  1  0.943550  0.942671  0.556758  1
  Mo  Mo21  1  0.693587  0.306413  0.306413  1
  P  P22  1  0.625000  0.125000  0.125000  1
  P  P23  1  0.125000  0.125000  0.125000  1
  C  C24  1  0.500189  0.499811  0.499811  1
  C  C25  1  0.749811  0.750189  0.750189  1
