# generated using pymatgen
data_NaTc7P2O25
_symmetry_space_group_name_H-M   'P 1'
_cell_length_a   5.30533678
_cell_length_b   6.56511700
_cell_length_c   13.72925121
_cell_angle_alpha   95.71917584
_cell_angle_beta   100.76759586
_cell_angle_gamma   90.06907920
_symmetry_Int_Tables_number   1
_chemical_formula_structural   NaTc7P2O25
_chemical_formula_sum   'Na1 Tc7 P2 O25'
_cell_volume   467.33795023
_cell_formula_units_Z   1
loop_
 _symmetry_equiv_pos_site_id
 _symmetry_equiv_pos_as_xyz
  1  'x, y, z'
loop_
 _atom_site_type_symbol
 _atom_site_label
 _atom_site_symmetry_multiplicity
 _atom_site_fract_x
 _atom_site_fract_y
 _atom_site_fract_z
 _atom_site_occupancy
  Na  Na0  1  0.261840  0.340758  0.477390  1
  Tc  Tc1  1  0.554317  0.693711  0.112348  1
  Tc  Tc2  1  0.445172  0.307271  0.886785  1
  Tc  Tc3  1  0.998939  0.998279  0.998462  1
  Tc  Tc4  1  0.109146  0.387781  0.224696  1
  Tc  Tc5  1  0.889819  0.610518  0.772718  1
  Tc  Tc6  1  0.662540  0.078942  0.335295  1
  Tc  Tc7  1  0.338095  0.916276  0.664671  1
  P  P8  1  0.814431  0.205510  0.583360  1
  P  P9  1  0.184928  0.793176  0.418366  1
  O  O10  1  0.180806  0.583441  0.356546  1
  O  O11  1  0.820906  0.413024  0.646160  1
  O  O12  1  0.810744  0.827170  0.062974  1
  O  O13  1  0.188590  0.172573  0.936053  1
  O  O14  1  0.417640  0.256161  0.284976  1
  O  O15  1  0.580865  0.741506  0.715133  1
  O  O16  1  0.723699  0.256398  0.473313  1
  O  O17  1  0.267081  0.741019  0.528041  1
  O  O18  1  0.923465  0.218395  0.299834  1
  O  O19  1  0.078900  0.782252  0.701847  1
  O  O20  1  0.300892  0.558514  0.166731  1
  O  O21  1  0.699324  0.440558  0.833088  1
  O  O22  1  0.302008  0.861957  0.048173  1
  O  O23  1  0.696588  0.136626  0.950538  1
  O  O24  1  0.057734  0.190181  0.117184  1
  O  O25  1  0.940973  0.808857  0.881810  1
  O  O26  1  0.809604  0.523907  0.180849  1
  O  O27  1  0.191285  0.475866  0.818535  1
  O  O28  1  0.605399  0.895850  0.226222  1
  O  O29  1  0.392548  0.103504  0.772756  1
  O  O30  1  0.091117  0.122411  0.591453  1
  O  O31  1  0.912793  0.883906  0.404936  1
  O  O32  1  0.622232  0.055991  0.609330  1
  O  O33  1  0.374434  0.948044  0.393373  1
  O  O34  1  0.499946  0.499666  0.999651  1
