# generated using pymatgen
data_Dy3Ho9Ga2Ni3Ru
_symmetry_space_group_name_H-M   'P 1'
_cell_length_a   8.30059658
_cell_length_b   8.28978918
_cell_length_c   8.28978437
_cell_angle_alpha   112.72074394
_cell_angle_beta   109.55462247
_cell_angle_gamma   106.15615779
_symmetry_Int_Tables_number   1
_chemical_formula_structural   Dy3Ho9Ga2Ni3Ru
_chemical_formula_sum   'Dy3 Ho9 Ga2 Ni3 Ru1'
_cell_volume   437.93394448
_cell_formula_units_Z   1
loop_
 _symmetry_equiv_pos_site_id
 _symmetry_equiv_pos_as_xyz
  1  'x, y, z'
loop_
 _atom_site_type_symbol
 _atom_site_label
 _atom_site_symmetry_multiplicity
 _atom_site_fract_x
 _atom_site_fract_y
 _atom_site_fract_z
 _atom_site_occupancy
  Dy  Dy0  1  0.441039  0.247255  0.193784  1
  Dy  Dy1  1  0.573574  0.767112  0.806462  1
  Dy  Dy2  1  0.039642  0.233213  0.806429  1
  Ho  Ho3  1  0.947235  0.752775  0.194460  1
  Ho  Ho4  1  0.183848  0.279521  0.463313  1
  Ho  Ho5  1  0.825781  0.722161  0.547769  1
  Ho  Ho6  1  0.183848  0.720534  0.904327  1
  Ho  Ho7  1  0.825781  0.278013  0.103621  1
  Ho  Ho8  1  0.325623  0.637483  0.308190  1
  Ho  Ho9  1  0.671289  0.363105  0.689192  1
  Ho  Ho10  1  0.325622  0.017433  0.688138  1
  Ho  Ho11  1  0.671289  0.982097  0.308184  1
  Ga  Ga12  1  0.496536  0.500523  0.996013  1
  Ga  Ga13  1  0.013891  0.999399  0.014492  1
  Ni  Ni14  1  0.649701  0.999900  0.649803  1
  Ni  Ni15  1  0.116037  0.618489  0.497548  1
  Ni  Ni16  1  0.880059  0.381206  0.498853  1
  Ru  Ru17  1  0.329204  0.999781  0.329423  1
