# generated using pymatgen
data_Ti4AlC2O
_symmetry_space_group_name_H-M   'P 1'
_cell_length_a   3.05301300
_cell_length_b   3.05301291
_cell_length_c   23.81477400
_cell_angle_alpha   90.00000000
_cell_angle_beta   90.00000000
_cell_angle_gamma   119.99999015
_symmetry_Int_Tables_number   1
_chemical_formula_structural   Ti4AlC2O
_chemical_formula_sum   'Ti8 Al2 C4 O2'
_cell_volume   192.23587265
_cell_formula_units_Z   2
loop_
 _symmetry_equiv_pos_site_id
 _symmetry_equiv_pos_as_xyz
  1  'x, y, z'
loop_
 _atom_site_type_symbol
 _atom_site_label
 _atom_site_symmetry_multiplicity
 _atom_site_fract_x
 _atom_site_fract_y
 _atom_site_fract_z
 _atom_site_occupancy
  Ti  Ti0  1  0.000000  0.000000  0.345353  1
  Ti  Ti1  1  0.000000  0.000000  0.654647  1
  Ti  Ti2  1  0.000000  0.000000  0.845353  1
  Ti  Ti3  1  0.000000  0.000000  0.154647  1
  Ti  Ti4  1  0.333333  0.666667  0.442488  1
  Ti  Ti5  1  0.666667  0.333333  0.557512  1
  Ti  Ti6  1  0.666667  0.333333  0.942488  1
  Ti  Ti7  1  0.333333  0.666667  0.057512  1
  Al  Al8  1  0.333333  0.666667  0.250000  1
  Al  Al9  1  0.666667  0.333333  0.750000  1
  C  C10  1  0.666667  0.333333  0.393633  1
  C  C11  1  0.333333  0.666667  0.606367  1
  C  C12  1  0.333333  0.666667  0.893633  1
  C  C13  1  0.666667  0.333333  0.106367  1
  O  O14  1  0.000000  0.000000  0.500000  1
  O  O15  1  0.000000  0.000000  0.000000  1
