# generated using pymatgen
data_Li3Y3ZnBi2
_symmetry_space_group_name_H-M   'P 1'
_cell_length_a   7.40480400
_cell_length_b   7.40480454
_cell_length_c   4.56980700
_cell_angle_alpha   90.00000000
_cell_angle_beta   90.00000000
_cell_angle_gamma   119.99999758
_symmetry_Int_Tables_number   1
_chemical_formula_structural   Li3Y3ZnBi2
_chemical_formula_sum   'Li3 Y3 Zn1 Bi2'
_cell_volume   216.99796834
_cell_formula_units_Z   1
loop_
 _symmetry_equiv_pos_site_id
 _symmetry_equiv_pos_as_xyz
  1  'x, y, z'
loop_
 _atom_site_type_symbol
 _atom_site_label
 _atom_site_symmetry_multiplicity
 _atom_site_fract_x
 _atom_site_fract_y
 _atom_site_fract_z
 _atom_site_occupancy
  Li  Li0  1  0.233303  0.000000  0.000000  1
  Li  Li1  1  0.766697  0.766697  0.000000  1
  Li  Li2  1  0.000000  0.233303  0.000000  1
  Y  Y3  1  0.000000  0.597854  0.500000  1
  Y  Y4  1  0.402146  0.402146  0.500000  1
  Y  Y5  1  0.597854  0.000000  0.500000  1
  Zn  Zn6  1  0.000000  0.000000  0.500000  1
  Bi  Bi7  1  0.333333  0.666667  0.000000  1
  Bi  Bi8  1  0.666667  0.333333  0.000000  1
