# generated using pymatgen
data_TcPBr9
_symmetry_space_group_name_H-M   'P 1'
_cell_length_a   8.45347136
_cell_length_b   10.31778598
_cell_length_c   10.60404590
_cell_angle_alpha   104.77644295
_cell_angle_beta   87.19517902
_cell_angle_gamma   96.84196106
_symmetry_Int_Tables_number   1
_chemical_formula_structural   TcPBr9
_chemical_formula_sum   'Tc2 P2 Br18'
_cell_volume   887.77420611
_cell_formula_units_Z   2
loop_
 _symmetry_equiv_pos_site_id
 _symmetry_equiv_pos_as_xyz
  1  'x, y, z'
loop_
 _atom_site_type_symbol
 _atom_site_label
 _atom_site_symmetry_multiplicity
 _atom_site_fract_x
 _atom_site_fract_y
 _atom_site_fract_z
 _atom_site_occupancy
  Tc  Tc0  1  0.899011  0.364574  0.354379  1
  Tc  Tc1  1  0.100991  0.635426  0.645622  1
  P  P2  1  0.561767  0.788646  0.171815  1
  P  P3  1  0.438232  0.211353  0.828184  1
  Br  Br4  1  0.729681  0.785275  0.005839  1
  Br  Br5  1  0.327215  0.820657  0.114879  1
  Br  Br6  1  0.980378  0.510255  0.205330  1
  Br  Br7  1  0.993589  0.167121  0.192497  1
  Br  Br8  1  0.552649  0.594279  0.221774  1
  Br  Br9  1  0.617607  0.324330  0.282102  1
  Br  Br10  1  0.653413  0.959008  0.332362  1
  Br  Br11  1  0.177291  0.428331  0.462658  1
  Br  Br12  1  0.174513  0.787549  0.490471  1
  Br  Br13  1  0.825495  0.212446  0.509524  1
  Br  Br14  1  0.822710  0.571670  0.537343  1
  Br  Br15  1  0.346589  0.040990  0.667637  1
  Br  Br16  1  0.382394  0.675670  0.717899  1
  Br  Br17  1  0.447342  0.405720  0.778225  1
  Br  Br18  1  0.006415  0.832881  0.807502  1
  Br  Br19  1  0.019620  0.489747  0.794672  1
  Br  Br20  1  0.672783  0.179349  0.885127  1
  Br  Br21  1  0.270319  0.214725  0.994161  1
