# generated using pymatgen
data_Co3Sn16Pd
_symmetry_space_group_name_H-M   'P 1'
_cell_length_a   12.64274520
_cell_length_b   12.64274492
_cell_length_c   12.65038066
_cell_angle_alpha   151.18285870
_cell_angle_beta   151.18285266
_cell_angle_gamma   41.11569645
_symmetry_Int_Tables_number   1
_chemical_formula_structural   Co3Sn16Pd
_chemical_formula_sum   'Co3 Sn16 Pd1'
_cell_volume   468.90782226
_cell_formula_units_Z   1
loop_
 _symmetry_equiv_pos_site_id
 _symmetry_equiv_pos_as_xyz
  1  'x, y, z'
loop_
 _atom_site_type_symbol
 _atom_site_label
 _atom_site_symmetry_multiplicity
 _atom_site_fract_x
 _atom_site_fract_y
 _atom_site_fract_z
 _atom_site_occupancy
  Co  Co0  1  0.250000  0.250000  0.000000  1
  Co  Co1  1  0.000000  0.500000  0.500000  1
  Co  Co2  1  0.500000  0.000000  0.500000  1
  Sn  Sn3  1  0.144120  0.628623  0.145660  1
  Sn  Sn4  1  0.627793  0.482510  0.484023  1
  Sn  Sn5  1  0.879307  0.879438  0.637225  1
  Sn  Sn6  1  0.379770  0.742322  0.999463  1
  Sn  Sn7  1  0.620562  0.620693  0.362775  1
  Sn  Sn8  1  0.119692  0.757139  0.999463  1
  Sn  Sn9  1  0.871377  0.355880  0.854340  1
  Sn  Sn10  1  0.356231  0.501515  0.484023  1
  Sn  Sn11  1  0.998485  0.143769  0.515977  1
  Sn  Sn12  1  0.482961  0.998460  0.854340  1
  Sn  Sn13  1  0.742861  0.380308  0.000537  1
  Sn  Sn14  1  0.242214  0.242082  0.362775  1
  Sn  Sn15  1  0.757678  0.120230  0.000537  1
  Sn  Sn16  1  0.257918  0.257786  0.637225  1
  Sn  Sn17  1  0.017490  0.872207  0.515977  1
  Sn  Sn18  1  0.501540  0.017039  0.145660  1
  Pd  Pd19  1  0.750000  0.750000  0.000000  1
