# generated using pymatgen
data_NdSmNi6(BPd)2
_symmetry_space_group_name_H-M   'P 1'
_cell_length_a   5.13438237
_cell_length_b   5.12764195
_cell_length_c   7.22896800
_cell_angle_alpha   89.99995126
_cell_angle_beta   89.99996180
_cell_angle_gamma   119.95976604
_symmetry_Int_Tables_number   1
_chemical_formula_structural   NdSmNi6(BPd)2
_chemical_formula_sum   'Nd1 Sm1 Ni6 B2 Pd2'
_cell_volume   164.88789158
_cell_formula_units_Z   1
loop_
 _symmetry_equiv_pos_site_id
 _symmetry_equiv_pos_as_xyz
  1  'x, y, z'
loop_
 _atom_site_type_symbol
 _atom_site_label
 _atom_site_symmetry_multiplicity
 _atom_site_fract_x
 _atom_site_fract_y
 _atom_site_fract_z
 _atom_site_occupancy
  Nd  Nd0  1  0.999996  0.000000  0.999945  1
  Sm  Sm1  1  0.999983  0.000000  0.500147  1
  Ni  Ni2  1  0.499981  0.000000  0.306609  1
  Ni  Ni3  1  0.499984  0.500001  0.306556  1
  Ni  Ni4  1  0.999983  0.500000  0.306476  1
  Ni  Ni5  1  0.499982  0.000000  0.693509  1
  Ni  Ni6  1  0.499983  0.500000  0.693544  1
  Ni  Ni7  1  0.999983  0.500000  0.693394  1
  B  B8  1  0.333268  0.666614  0.499997  1
  B  B9  1  0.666698  0.333386  0.499997  1
  Pd  Pd10  1  0.333338  0.666671  0.999913  1
  Pd  Pd11  1  0.666619  0.333328  0.999912  1
