# generated using pymatgen
data_EuV2P2O9
_symmetry_space_group_name_H-M   'P 1'
_cell_length_a   6.54399900
_cell_length_b   7.47302000
_cell_length_c   14.36389000
_cell_angle_alpha   90.00000000
_cell_angle_beta   90.00000000
_cell_angle_gamma   90.00000000
_symmetry_Int_Tables_number   1
_chemical_formula_structural   EuV2P2O9
_chemical_formula_sum   'Eu4 V8 P8 O36'
_cell_volume   702.44356681
_cell_formula_units_Z   4
loop_
 _symmetry_equiv_pos_site_id
 _symmetry_equiv_pos_as_xyz
  1  'x, y, z'
loop_
 _atom_site_type_symbol
 _atom_site_label
 _atom_site_symmetry_multiplicity
 _atom_site_fract_x
 _atom_site_fract_y
 _atom_site_fract_z
 _atom_site_occupancy
  Eu  Eu0  1  0.250000  0.888263  0.283943  1
  Eu  Eu1  1  0.250000  0.611737  0.783943  1
  Eu  Eu2  1  0.750000  0.388263  0.216057  1
  Eu  Eu3  1  0.750000  0.111737  0.716057  1
  V  V4  1  0.250000  0.349532  0.381592  1
  V  V5  1  0.750000  0.650468  0.618408  1
  V  V6  1  0.750000  0.849532  0.118408  1
  V  V7  1  0.250000  0.150468  0.881592  1
  V  V8  1  0.000000  0.000000  0.500000  1
  V  V9  1  0.000000  0.500000  0.000000  1
  V  V10  1  0.500000  0.500000  0.000000  1
  V  V11  1  0.500000  0.000000  0.500000  1
  P  P12  1  0.750000  0.360305  0.434074  1
  P  P13  1  0.250000  0.639695  0.565926  1
  P  P14  1  0.250000  0.860305  0.065926  1
  P  P15  1  0.750000  0.139695  0.934074  1
  P  P16  1  0.250000  0.386044  0.190453  1
  P  P17  1  0.250000  0.113956  0.690453  1
  P  P18  1  0.750000  0.886044  0.309547  1
  P  P19  1  0.750000  0.613956  0.809547  1
  O  O20  1  0.558639  0.611292  0.872131  1
  O  O21  1  0.058639  0.388708  0.127869  1
  O  O22  1  0.441361  0.111292  0.627869  1
  O  O23  1  0.941361  0.888708  0.372131  1
  O  O24  1  0.441361  0.388708  0.127869  1
  O  O25  1  0.941361  0.611292  0.872131  1
  O  O26  1  0.558639  0.888708  0.372131  1
  O  O27  1  0.058639  0.111292  0.627869  1
  O  O28  1  0.750000  0.323938  0.984795  1
  O  O29  1  0.250000  0.676062  0.015205  1
  O  O30  1  0.250000  0.823938  0.515205  1
  O  O31  1  0.750000  0.176062  0.484795  1
  O  O32  1  0.250000  0.120280  0.440755  1
  O  O33  1  0.750000  0.879720  0.559245  1
  O  O34  1  0.750000  0.620280  0.059245  1
  O  O35  1  0.250000  0.379720  0.940755  1
  O  O36  1  0.250000  0.214665  0.251504  1
  O  O37  1  0.750000  0.785335  0.748496  1
  O  O38  1  0.750000  0.714665  0.248496  1
  O  O39  1  0.250000  0.285335  0.751504  1
  O  O40  1  0.935759  0.130216  0.867867  1
  O  O41  1  0.435759  0.869784  0.132133  1
  O  O42  1  0.064241  0.630216  0.632133  1
  O  O43  1  0.564241  0.369784  0.367867  1
  O  O44  1  0.064241  0.869784  0.132133  1
  O  O45  1  0.564241  0.130216  0.867867  1
  O  O46  1  0.935759  0.369784  0.367867  1
  O  O47  1  0.435759  0.630216  0.632133  1
  O  O48  1  0.250000  0.494377  0.492604  1
  O  O49  1  0.750000  0.039614  0.236359  1
  O  O50  1  0.750000  0.460386  0.736359  1
  O  O51  1  0.250000  0.539614  0.263641  1
  O  O52  1  0.250000  0.005623  0.992604  1
  O  O53  1  0.750000  0.994377  0.007396  1
  O  O54  1  0.750000  0.505623  0.507396  1
  O  O55  1  0.250000  0.960386  0.763641  1
