# generated using pymatgen
data_DyHo3V4F28
_symmetry_space_group_name_H-M   'P 1'
_cell_length_a   5.47273710
_cell_length_b   8.77929313
_cell_length_c   11.78990476
_cell_angle_alpha   63.34934317
_cell_angle_beta   89.98002671
_cell_angle_gamma   89.98426922
_symmetry_Int_Tables_number   1
_chemical_formula_structural   DyHo3V4F28
_chemical_formula_sum   'Dy1 Ho3 V4 F28'
_cell_volume   506.28417079
_cell_formula_units_Z   1
loop_
 _symmetry_equiv_pos_site_id
 _symmetry_equiv_pos_as_xyz
  1  'x, y, z'
loop_
 _atom_site_type_symbol
 _atom_site_label
 _atom_site_symmetry_multiplicity
 _atom_site_fract_x
 _atom_site_fract_y
 _atom_site_fract_z
 _atom_site_occupancy
  Dy  Dy0  1  0.758472  0.808693  0.769126  1
  Ho  Ho1  1  0.258391  0.192508  0.730646  1
  Ho  Ho2  1  0.241519  0.191596  0.230785  1
  Ho  Ho3  1  0.741603  0.808597  0.269184  1
  V  V4  1  0.755621  0.272940  0.955687  1
  V  V5  1  0.255925  0.726682  0.543956  1
  V  V6  1  0.244352  0.726527  0.044975  1
  V  V7  1  0.744176  0.273436  0.455338  1
  F  F8  1  0.440978  0.704976  0.921090  1
  F  F9  1  0.941596  0.294642  0.579087  1
  F  F10  1  0.558034  0.294484  0.079276  1
  F  F11  1  0.057850  0.705388  0.420377  1
  F  F12  1  0.452383  0.279390  0.543698  1
  F  F13  1  0.952593  0.720147  0.957151  1
  F  F14  1  0.548201  0.720778  0.455917  1
  F  F15  1  0.047604  0.279125  0.043928  1
  F  F16  1  0.773889  0.506815  0.864237  1
  F  F17  1  0.273751  0.492451  0.635831  1
  F  F18  1  0.226408  0.492305  0.136175  1
  F  F19  1  0.726215  0.507703  0.363953  1
  F  F20  1  0.756738  0.040946  0.045740  1
  F  F21  1  0.256698  0.958547  0.454340  1
  F  F22  1  0.243230  0.958308  0.954682  1
  F  F23  1  0.743333  0.041579  0.545232  1
  F  F24  1  0.974299  0.728382  0.637699  1
  F  F25  1  0.474168  0.271193  0.861786  1
  F  F26  1  0.025854  0.271060  0.361596  1
  F  F27  1  0.526325  0.728970  0.138537  1
  F  F28  1  0.046622  0.746812  0.171869  1
  F  F29  1  0.546739  0.253256  0.328406  1
  F  F30  1  0.953008  0.253191  0.828523  1
  F  F31  1  0.451437  0.746229  0.671353  1
  F  F32  1  0.417340  0.971766  0.229980  1
  F  F33  1  0.917300  0.028208  0.269999  1
  F  F34  1  0.582348  0.029884  0.770202  1
  F  F35  1  0.084999  0.972484  0.729638  1
