# generated using pymatgen
data_Ta5Si7TcNi16
_symmetry_space_group_name_H-M   'P 1'
_cell_length_a   7.91323913
_cell_length_b   7.93953429
_cell_length_c   7.91478209
_cell_angle_alpha   59.88350662
_cell_angle_beta   60.20427209
_cell_angle_gamma   59.90247073
_symmetry_Int_Tables_number   1
_chemical_formula_structural   Ta5Si7TcNi16
_chemical_formula_sum   'Ta5 Si7 Tc1 Ni16'
_cell_volume   351.58690361
_cell_formula_units_Z   1
loop_
 _symmetry_equiv_pos_site_id
 _symmetry_equiv_pos_as_xyz
  1  'x, y, z'
loop_
 _atom_site_type_symbol
 _atom_site_label
 _atom_site_symmetry_multiplicity
 _atom_site_fract_x
 _atom_site_fract_y
 _atom_site_fract_z
 _atom_site_occupancy
  Ta  Ta0  1  0.196424  0.205052  0.794968  1
  Ta  Ta1  1  0.794964  0.803556  0.196426  1
  Ta  Ta2  1  0.794982  0.205037  0.196447  1
  Ta  Ta3  1  0.196448  0.803535  0.794978  1
  Ta  Ta4  1  0.197748  0.802252  0.197748  1
  Si  Si5  1  0.499947  0.500052  0.499948  1
  Si  Si6  1  0.503829  0.496276  0.992268  1
  Si  Si7  1  0.992272  0.007629  0.503823  1
  Si  Si8  1  0.499199  0.000803  0.499199  1
  Si  Si9  1  0.992230  0.496261  0.503841  1
  Si  Si10  1  0.503833  0.007672  0.992235  1
  Si  Si11  1  0.999128  0.500865  0.999128  1
  Tc  Tc12  1  0.859544  0.140457  0.859545  1
  Ni  Ni13  1  0.495440  0.834923  0.834725  1
  Ni  Ni14  1  0.829332  0.511032  0.829293  1
  Ni  Ni15  1  0.834724  0.834915  0.495442  1
  Ni  Ni16  1  0.165007  0.504717  0.165010  1
  Ni  Ni17  1  0.169602  0.170635  0.489152  1
  Ni  Ni18  1  0.489151  0.170609  0.169602  1
  Ni  Ni19  1  0.829294  0.830345  0.829331  1
  Ni  Ni20  1  0.381069  0.386753  0.381016  1
  Ni  Ni21  1  0.148641  0.619058  0.613291  1
  Ni  Ni22  1  0.617021  0.148607  0.616989  1
  Ni  Ni23  1  0.613291  0.619004  0.148641  1
  Ni  Ni24  1  0.381014  0.851164  0.381068  1
  Ni  Ni25  1  0.382555  0.383088  0.851307  1
  Ni  Ni26  1  0.851309  0.383051  0.382553  1
  Ni  Ni27  1  0.616987  0.617386  0.617019  1
  Ni  Ni28  1  0.165014  0.165268  0.165010  1
