# generated using pymatgen
data_CeFeOs2C
_symmetry_space_group_name_H-M   'P 1'
_cell_length_a   5.68184675
_cell_length_b   5.68184667
_cell_length_c   7.40570200
_cell_angle_alpha   90.00000000
_cell_angle_beta   90.00000000
_cell_angle_gamma   139.53993826
_symmetry_Int_Tables_number   1
_chemical_formula_structural   CeFeOs2C
_chemical_formula_sum   'Ce2 Fe2 Os4 C2'
_cell_volume   155.14399718
_cell_formula_units_Z   2
loop_
 _symmetry_equiv_pos_site_id
 _symmetry_equiv_pos_as_xyz
  1  'x, y, z'
loop_
 _atom_site_type_symbol
 _atom_site_label
 _atom_site_symmetry_multiplicity
 _atom_site_fract_x
 _atom_site_fract_y
 _atom_site_fract_z
 _atom_site_occupancy
  Ce  Ce0  1  0.535260  0.464740  0.250000  1
  Ce  Ce1  1  0.464740  0.535260  0.750000  1
  Fe  Fe2  1  0.270098  0.729902  0.250000  1
  Fe  Fe3  1  0.729902  0.270098  0.750000  1
  Os  Os4  1  0.826410  0.173590  0.059743  1
  Os  Os5  1  0.173590  0.826410  0.940257  1
  Os  Os6  1  0.173590  0.826410  0.559743  1
  Os  Os7  1  0.826410  0.173590  0.440257  1
  C  C8  1  0.000000  0.000000  0.000000  1
  C  C9  1  0.000000  0.000000  0.500000  1
