# generated using pymatgen
data_Th6Co17MoP12
_symmetry_space_group_name_H-M   'P 1'
_cell_length_a   3.81072100
_cell_length_b   10.59714600
_cell_length_c   12.45348300
_cell_angle_alpha   90.00000000
_cell_angle_beta   90.00000000
_cell_angle_gamma   90.00000000
_symmetry_Int_Tables_number   1
_chemical_formula_structural   Th6Co17MoP12
_chemical_formula_sum   'Th6 Co17 Mo1 P12'
_cell_volume   502.90609986
_cell_formula_units_Z   1
loop_
 _symmetry_equiv_pos_site_id
 _symmetry_equiv_pos_as_xyz
  1  'x, y, z'
loop_
 _atom_site_type_symbol
 _atom_site_label
 _atom_site_symmetry_multiplicity
 _atom_site_fract_x
 _atom_site_fract_y
 _atom_site_fract_z
 _atom_site_occupancy
  Th  Th0  1  0.000000  0.500000  0.523344  1
  Th  Th1  1  0.500000  0.000000  0.479580  1
  Th  Th2  1  0.500000  0.817613  0.208443  1
  Th  Th3  1  0.500000  0.182387  0.208443  1
  Th  Th4  1  0.000000  0.684953  0.793911  1
  Th  Th5  1  0.000000  0.315047  0.793911  1
  Co  Co6  1  0.000000  0.000000  0.840935  1
  Co  Co7  1  0.500000  0.500000  0.703628  1
  Co  Co8  1  0.000000  0.000000  0.296566  1
  Co  Co9  1  0.000000  0.500000  0.985873  1
  Co  Co10  1  0.500000  0.000000  0.016474  1
  Co  Co11  1  0.500000  0.331614  0.991388  1
  Co  Co12  1  0.500000  0.668386  0.991388  1
  Co  Co13  1  0.000000  0.165316  0.004434  1
  Co  Co14  1  0.000000  0.834684  0.004434  1
  Co  Co15  1  0.500000  0.300035  0.428930  1
  Co  Co16  1  0.500000  0.699965  0.428930  1
  Co  Co17  1  0.000000  0.199333  0.572058  1
  Co  Co18  1  0.000000  0.800667  0.572058  1
  Co  Co19  1  0.500000  0.881478  0.713580  1
  Co  Co20  1  0.500000  0.118522  0.713580  1
  Co  Co21  1  0.000000  0.619571  0.287151  1
  Co  Co22  1  0.000000  0.380429  0.287151  1
  Mo  Mo23  1  0.500000  0.500000  0.152906  1
  P  P24  1  0.500000  0.500000  0.885052  1
  P  P25  1  0.000000  0.000000  0.113756  1
  P  P26  1  0.500000  0.500000  0.343007  1
  P  P27  1  0.000000  0.000000  0.661178  1
  P  P28  1  0.500000  0.305558  0.613018  1
  P  P29  1  0.500000  0.694442  0.613018  1
  P  P30  1  0.000000  0.194286  0.388660  1
  P  P31  1  0.000000  0.805714  0.388660  1
  P  P32  1  0.500000  0.852816  0.895841  1
  P  P33  1  0.500000  0.147184  0.895841  1
  P  P34  1  0.000000  0.654781  0.101440  1
  P  P35  1  0.000000  0.345219  0.101440  1
