# generated using pymatgen
data_La3Nd5(Ho3Sn4)4
_symmetry_space_group_name_H-M   'P 1'
_cell_length_a   8.12479692
_cell_length_b   8.25728970
_cell_length_c   15.56319000
_cell_angle_alpha   90.05209661
_cell_angle_beta   89.95145427
_cell_angle_gamma   89.98483427
_symmetry_Int_Tables_number   1
_chemical_formula_structural   La3Nd5(Ho3Sn4)4
_chemical_formula_sum   'La3 Nd5 Ho12 Sn16'
_cell_volume   1044.11492808
_cell_formula_units_Z   1
loop_
 _symmetry_equiv_pos_site_id
 _symmetry_equiv_pos_as_xyz
  1  'x, y, z'
loop_
 _atom_site_type_symbol
 _atom_site_label
 _atom_site_symmetry_multiplicity
 _atom_site_fract_x
 _atom_site_fract_y
 _atom_site_fract_z
 _atom_site_occupancy
  La  La0  1  0.988122  0.822500  0.403847  1
  La  La1  1  0.511406  0.322761  0.595210  1
  La  La2  1  0.010698  0.177245  0.905317  1
  Nd  Nd3  1  0.513164  0.322500  0.903404  1
  Nd  Nd4  1  0.013097  0.178035  0.597089  1
  Nd  Nd5  1  0.487100  0.678040  0.402870  1
  Nd  Nd6  1  0.987739  0.820957  0.097004  1
  Nd  Nd7  1  0.487311  0.677460  0.096225  1
  Ho  Ho8  1  0.357673  0.835250  0.876599  1
  Ho  Ho9  1  0.857541  0.664425  0.623274  1
  Ho  Ho10  1  0.642296  0.164038  0.375931  1
  Ho  Ho11  1  0.142740  0.335908  0.122924  1
  Ho  Ho12  1  0.642436  0.164535  0.123870  1
  Ho  Ho13  1  0.142496  0.336022  0.376114  1
  Ho  Ho14  1  0.357387  0.836264  0.623690  1
  Ho  Ho15  1  0.857700  0.663747  0.876963  1
  Ho  Ho16  1  0.191118  0.502605  0.750170  1
  Ho  Ho17  1  0.690678  0.997144  0.750133  1
  Ho  Ho18  1  0.809210  0.497709  0.249453  1
  Ho  Ho19  1  0.309348  0.002657  0.249706  1
  Sn  Sn20  1  0.308770  0.038955  0.042799  1
  Sn  Sn21  1  0.807320  0.459199  0.457059  1
  Sn  Sn22  1  0.692788  0.959773  0.542604  1
  Sn  Sn23  1  0.195460  0.541550  0.958162  1
  Sn  Sn24  1  0.690946  0.956648  0.959376  1
  Sn  Sn25  1  0.192552  0.542274  0.541457  1
  Sn  Sn26  1  0.307174  0.042000  0.458286  1
  Sn  Sn27  1  0.804890  0.459988  0.042304  1
  Sn  Sn28  1  0.556482  0.623986  0.750302  1
  Sn  Sn29  1  0.056076  0.875923  0.749984  1
  Sn  Sn30  1  0.443792  0.376993  0.250040  1
  Sn  Sn31  1  0.943781  0.123998  0.249311  1
  Sn  Sn32  1  0.320981  0.142423  0.750919  1
  Sn  Sn33  1  0.821171  0.357749  0.749654  1
  Sn  Sn34  1  0.677800  0.856618  0.249276  1
  Sn  Sn35  1  0.180760  0.642120  0.248674  1
