# generated using pymatgen
data_Nd2Fe3PtO10
_symmetry_space_group_name_H-M   'P 1'
_cell_length_a   5.98137800
_cell_length_b   7.61429300
_cell_length_c   8.82043000
_cell_angle_alpha   90.00000000
_cell_angle_beta   90.00000000
_cell_angle_gamma   90.00000000
_symmetry_Int_Tables_number   1
_chemical_formula_structural   Nd2Fe3PtO10
_chemical_formula_sum   'Nd4 Fe6 Pt2 O20'
_cell_volume   401.71735199
_cell_formula_units_Z   2
loop_
 _symmetry_equiv_pos_site_id
 _symmetry_equiv_pos_as_xyz
  1  'x, y, z'
loop_
 _atom_site_type_symbol
 _atom_site_label
 _atom_site_symmetry_multiplicity
 _atom_site_fract_x
 _atom_site_fract_y
 _atom_site_fract_z
 _atom_site_occupancy
  Nd  Nd0  1  0.995968  0.364416  0.669714  1
  Nd  Nd1  1  0.995968  0.635584  0.330286  1
  Nd  Nd2  1  0.004032  0.864416  0.830286  1
  Nd  Nd3  1  0.004032  0.135584  0.169714  1
  Fe  Fe4  1  0.506215  0.105279  0.856193  1
  Fe  Fe5  1  0.506215  0.894721  0.143807  1
  Fe  Fe6  1  0.493785  0.605279  0.643807  1
  Fe  Fe7  1  0.493785  0.394721  0.356193  1
  Fe  Fe8  1  0.252466  0.500000  0.000000  1
  Fe  Fe9  1  0.747534  0.000000  0.500000  1
  Pt  Pt10  1  0.746310  0.500000  0.000000  1
  Pt  Pt11  1  0.253690  0.000000  0.500000  1
  O  O12  1  0.244467  0.897844  0.286872  1
  O  O13  1  0.244467  0.102156  0.713128  1
  O  O14  1  0.755533  0.397844  0.213128  1
  O  O15  1  0.755533  0.602156  0.786872  1
  O  O16  1  0.753888  0.098858  0.708157  1
  O  O17  1  0.753888  0.901142  0.291843  1
  O  O18  1  0.246112  0.598858  0.791843  1
  O  O19  1  0.246112  0.401142  0.208157  1
  O  O20  1  0.499110  0.341356  0.929635  1
  O  O21  1  0.499110  0.658644  0.070365  1
  O  O22  1  0.500890  0.841356  0.570365  1
  O  O23  1  0.500890  0.158644  0.429635  1
  O  O24  1  0.282467  0.000000  0.000000  1
  O  O25  1  0.717533  0.500000  0.500000  1
  O  O26  1  0.728605  0.000000  0.000000  1
  O  O27  1  0.271395  0.500000  0.500000  1
  O  O28  1  0.000944  0.165231  0.443498  1
  O  O29  1  0.000944  0.834769  0.556502  1
  O  O30  1  0.999056  0.665231  0.056502  1
  O  O31  1  0.999056  0.334769  0.943498  1
