# generated using pymatgen
data_Al13Os3Rh
_symmetry_space_group_name_H-M   'P 1'
_cell_length_a   4.24494268
_cell_length_b   7.83746214
_cell_length_c   9.10725521
_cell_angle_alpha   115.29727303
_cell_angle_beta   103.47687047
_cell_angle_gamma   90.00000134
_symmetry_Int_Tables_number   1
_chemical_formula_structural   Al13Os3Rh
_chemical_formula_sum   'Al13 Os3 Rh1'
_cell_volume   264.68066889
_cell_formula_units_Z   1
loop_
 _symmetry_equiv_pos_site_id
 _symmetry_equiv_pos_as_xyz
  1  'x, y, z'
loop_
 _atom_site_type_symbol
 _atom_site_label
 _atom_site_symmetry_multiplicity
 _atom_site_fract_x
 _atom_site_fract_y
 _atom_site_fract_z
 _atom_site_occupancy
  Al  Al0  1  0.498532  0.999936  0.997064  1
  Al  Al1  1  0.087094  0.566329  0.174189  1
  Al  Al2  1  0.588494  0.801982  0.176989  1
  Al  Al3  1  0.587755  0.364537  0.175511  1
  Al  Al4  1  0.130210  0.158260  0.260420  1
  Al  Al5  1  0.208810  0.916315  0.417621  1
  Al  Al6  1  0.740017  0.381137  0.480035  1
  Al  Al7  1  0.260982  0.619444  0.521963  1
  Al  Al8  1  0.792611  0.084251  0.585224  1
  Al  Al9  1  0.869689  0.844254  0.739381  1
  Al  Al10  1  0.410759  0.633412  0.821518  1
  Al  Al11  1  0.412417  0.202381  0.824834  1
  Al  Al12  1  0.914114  0.429623  0.828228  1
  Os  Os13  1  0.705039  0.708282  0.410078  1
  Os  Os14  1  0.294505  0.291255  0.589011  1
  Os  Os15  1  0.990379  0.195186  0.980759  1
  Rh  Rh16  1  0.008588  0.803417  0.017176  1
