# generated using pymatgen
data_Pr6UO11F
_symmetry_space_group_name_H-M   'P 1'
_cell_length_a   6.88616352
_cell_length_b   6.85644142
_cell_length_c   6.90343557
_cell_angle_alpha   99.11064883
_cell_angle_beta   99.10509606
_cell_angle_gamma   98.88804980
_symmetry_Int_Tables_number   1
_chemical_formula_structural   Pr6UO11F
_chemical_formula_sum   'Pr6 U1 O11 F1'
_cell_volume   312.33956388
_cell_formula_units_Z   1
loop_
 _symmetry_equiv_pos_site_id
 _symmetry_equiv_pos_as_xyz
  1  'x, y, z'
loop_
 _atom_site_type_symbol
 _atom_site_label
 _atom_site_symmetry_multiplicity
 _atom_site_fract_x
 _atom_site_fract_y
 _atom_site_fract_z
 _atom_site_occupancy
  Pr  Pr0  1  0.309282  0.608780  0.146938  1
  Pr  Pr1  1  0.617845  0.136822  0.288326  1
  Pr  Pr2  1  0.390205  0.843445  0.695151  1
  Pr  Pr3  1  0.702441  0.401064  0.869020  1
  Pr  Pr4  1  0.856410  0.693276  0.393635  1
  Pr  Pr5  1  0.126733  0.310200  0.609847  1
  U  U6  1  0.003140  0.000918  0.998103  1
  O  O7  1  0.930006  0.695921  0.050586  1
  O  O8  1  0.174839  0.585590  0.437885  1
  O  O9  1  0.815011  0.405466  0.563547  1
  O  O10  1  0.562906  0.830717  0.417877  1
  O  O11  1  0.589817  0.439589  0.180150  1
  O  O12  1  0.410114  0.555082  0.819048  1
  O  O13  1  0.954955  0.071339  0.302467  1
  O  O14  1  0.055883  0.933742  0.695222  1
  O  O15  1  0.694172  0.054701  0.932095  1
  O  O16  1  0.066791  0.306854  0.950228  1
  O  O17  1  0.306796  0.948389  0.068494  1
  F  F18  1  0.432652  0.178105  0.581383  1
