# generated using pymatgen
data_ErNp3(GePt)4
_symmetry_space_group_name_H-M   'P 1'
_cell_length_a   4.45002600
_cell_length_b   7.04658108
_cell_length_c   7.57516307
_cell_angle_alpha   89.83514765
_cell_angle_beta   90.00000000
_cell_angle_gamma   90.00000000
_symmetry_Int_Tables_number   1
_chemical_formula_structural   ErNp3(GePt)4
_chemical_formula_sum   'Er1 Np3 Ge4 Pt4'
_cell_volume   237.53695805
_cell_formula_units_Z   1
loop_
 _symmetry_equiv_pos_site_id
 _symmetry_equiv_pos_as_xyz
  1  'x, y, z'
loop_
 _atom_site_type_symbol
 _atom_site_label
 _atom_site_symmetry_multiplicity
 _atom_site_fract_x
 _atom_site_fract_y
 _atom_site_fract_z
 _atom_site_occupancy
  Er  Er0  1  0.250000  0.502435  0.203527  1
  Np  Np1  1  0.750000  0.494633  0.797706  1
  Np  Np2  1  0.250000  0.006890  0.297424  1
  Np  Np3  1  0.750000  0.994007  0.700549  1
  Ge  Ge4  1  0.250000  0.690656  0.586599  1
  Ge  Ge5  1  0.250000  0.188469  0.912934  1
  Ge  Ge6  1  0.750000  0.311691  0.411837  1
  Ge  Ge7  1  0.750000  0.808943  0.087409  1
  Pt  Pt8  1  0.250000  0.793019  0.919927  1
  Pt  Pt9  1  0.250000  0.293866  0.581830  1
  Pt  Pt10  1  0.750000  0.702612  0.415177  1
  Pt  Pt11  1  0.750000  0.212777  0.085081  1
