# generated using pymatgen
data_Tm5Al2PdC4
_symmetry_space_group_name_H-M   'P 1'
_cell_length_a   10.73268500
_cell_length_b   10.73268500
_cell_length_c   3.44639400
_cell_angle_alpha   90.00000000
_cell_angle_beta   90.00000000
_cell_angle_gamma   90.00000000
_symmetry_Int_Tables_number   1
_chemical_formula_structural   Tm5Al2PdC4
_chemical_formula_sum   'Tm10 Al4 Pd2 C8'
_cell_volume   396.99194218
_cell_formula_units_Z   2
loop_
 _symmetry_equiv_pos_site_id
 _symmetry_equiv_pos_as_xyz
  1  'x, y, z'
loop_
 _atom_site_type_symbol
 _atom_site_label
 _atom_site_symmetry_multiplicity
 _atom_site_fract_x
 _atom_site_fract_y
 _atom_site_fract_z
 _atom_site_occupancy
  Tm  Tm0  1  0.549563  0.727433  0.500000  1
  Tm  Tm1  1  0.450437  0.272567  0.500000  1
  Tm  Tm2  1  0.049563  0.772567  0.500000  1
  Tm  Tm3  1  0.950437  0.227433  0.500000  1
  Tm  Tm4  1  0.272567  0.549563  0.500000  1
  Tm  Tm5  1  0.727433  0.450437  0.500000  1
  Tm  Tm6  1  0.227433  0.049563  0.500000  1
  Tm  Tm7  1  0.772567  0.950437  0.500000  1
  Tm  Tm8  1  0.500000  0.000000  0.000000  1
  Tm  Tm9  1  0.000000  0.500000  0.000000  1
  Al  Al10  1  0.702992  0.202992  0.000000  1
  Al  Al11  1  0.297008  0.797008  0.000000  1
  Al  Al12  1  0.202992  0.297008  0.000000  1
  Al  Al13  1  0.797008  0.702992  0.000000  1
  Pd  Pd14  1  0.500000  0.500000  0.000000  1
  Pd  Pd15  1  0.000000  0.000000  0.000000  1
  C  C16  1  0.629472  0.129472  0.500000  1
  C  C17  1  0.370528  0.870528  0.500000  1
  C  C18  1  0.129472  0.370528  0.500000  1
  C  C19  1  0.870528  0.629472  0.500000  1
  C  C20  1  0.162265  0.662265  0.000000  1
  C  C21  1  0.837735  0.337735  0.000000  1
  C  C22  1  0.662265  0.837735  0.000000  1
  C  C23  1  0.337735  0.162265  0.000000  1
