# generated using pymatgen
data_CaTb5Y4(In2Pt)4
_symmetry_space_group_name_H-M   'P 1'
_cell_length_a   3.63713800
_cell_length_b   8.23431331
_cell_length_c   18.39074477
_cell_angle_alpha   89.90612277
_cell_angle_beta   90.00000000
_cell_angle_gamma   90.00000000
_symmetry_Int_Tables_number   1
_chemical_formula_structural   CaTb5Y4(In2Pt)4
_chemical_formula_sum   'Ca1 Tb5 Y4 In8 Pt4'
_cell_volume   550.78981555
_cell_formula_units_Z   1
loop_
 _symmetry_equiv_pos_site_id
 _symmetry_equiv_pos_as_xyz
  1  'x, y, z'
loop_
 _atom_site_type_symbol
 _atom_site_label
 _atom_site_symmetry_multiplicity
 _atom_site_fract_x
 _atom_site_fract_y
 _atom_site_fract_z
 _atom_site_occupancy
  Ca  Ca0  1  0.000000  0.999512  0.000041  1
  Tb  Tb1  1  0.000000  0.618528  0.085575  1
  Tb  Tb2  1  0.000000  0.242455  0.220979  1
  Tb  Tb3  1  0.000000  0.757402  0.779049  1
  Tb  Tb4  1  0.000000  0.257715  0.720410  1
  Tb  Tb5  1  0.000000  0.742644  0.279620  1
  Y  Y6  1  0.000000  0.117654  0.415168  1
  Y  Y7  1  0.000000  0.882350  0.584863  1
  Y  Y8  1  0.000000  0.381239  0.914826  1
  Y  Y9  1  0.000000  0.500178  0.499983  1
  In  In10  1  0.500000  0.423738  0.351576  1
  In  In11  1  0.500000  0.576179  0.648456  1
  In  In12  1  0.500000  0.075532  0.850514  1
  In  In13  1  0.500000  0.925178  0.149598  1
  In  In14  1  0.500000  0.293917  0.067576  1
  In  In15  1  0.500000  0.705628  0.932088  1
  In  In16  1  0.500000  0.207590  0.566793  1
  In  In17  1  0.500000  0.792556  0.433134  1
  Pt  Pt18  1  0.500000  0.023971  0.303262  1
  Pt  Pt19  1  0.500000  0.976152  0.696857  1
  Pt  Pt20  1  0.500000  0.477352  0.802603  1
  Pt  Pt21  1  0.500000  0.522532  0.197033  1
