# generated using pymatgen
data_Yb5As3O13
_symmetry_space_group_name_H-M   'P 1'
_cell_length_a   6.86565624
_cell_length_b   9.53670819
_cell_length_c   9.59388700
_cell_angle_alpha   119.69217949
_cell_angle_beta   91.32336093
_cell_angle_gamma   89.35367245
_symmetry_Int_Tables_number   1
_chemical_formula_structural   Yb5As3O13
_chemical_formula_sum   'Yb10 As6 O26'
_cell_volume   545.54260865
_cell_formula_units_Z   2
loop_
 _symmetry_equiv_pos_site_id
 _symmetry_equiv_pos_as_xyz
  1  'x, y, z'
loop_
 _atom_site_type_symbol
 _atom_site_label
 _atom_site_symmetry_multiplicity
 _atom_site_fract_x
 _atom_site_fract_y
 _atom_site_fract_z
 _atom_site_occupancy
  Yb  Yb0  1  0.998778  0.359679  0.702034  1
  Yb  Yb1  1  0.001222  0.640321  0.297966  1
  Yb  Yb2  1  0.769450  0.228982  0.990933  1
  Yb  Yb3  1  0.270741  0.253389  0.250425  1
  Yb  Yb4  1  0.729259  0.746611  0.749575  1
  Yb  Yb5  1  0.498543  0.690924  0.346340  1
  Yb  Yb6  1  0.501457  0.309076  0.653660  1
  Yb  Yb7  1  0.746943  0.003737  0.243695  1
  Yb  Yb8  1  0.253057  0.996263  0.756305  1
  Yb  Yb9  1  0.230550  0.771018  0.009067  1
  As  As10  1  0.236907  0.025915  0.394707  1
  As  As11  1  0.233607  0.613443  0.633888  1
  As  As12  1  0.278345  0.373393  0.973449  1
  As  As13  1  0.721655  0.626607  0.026551  1
  As  As14  1  0.763093  0.974085  0.605293  1
  As  As15  1  0.766393  0.386557  0.366112  1
  O  O16  1  0.071709  0.074978  0.289185  1
  O  O17  1  0.939132  0.727107  0.090808  1
  O  O18  1  0.544757  0.899164  0.624601  1
  O  O19  1  0.596782  0.271261  0.220520  1
  O  O20  1  0.713380  0.516454  0.821447  1
  O  O21  1  0.286620  0.483546  0.178553  1
  O  O22  1  0.760482  0.178457  0.689045  1
  O  O23  1  0.030550  0.633092  0.743826  1
  O  O24  1  0.928291  0.925022  0.710815  1
  O  O25  1  0.218817  0.688691  0.505342  1
  O  O26  1  0.060868  0.272893  0.909192  1
  O  O27  1  0.969450  0.366908  0.256174  1
  O  O28  1  0.403218  0.728739  0.779480  1
  O  O29  1  0.455243  0.100836  0.375399  1
  O  O30  1  0.797588  0.872309  0.401207  1
  O  O31  1  0.544306  0.771153  0.108933  1
  O  O32  1  0.283694  0.409724  0.534442  1
  O  O33  1  0.455694  0.228847  0.891067  1
  O  O34  1  0.239518  0.821543  0.310955  1
  O  O35  1  0.716306  0.590276  0.465558  1
  O  O36  1  0.713456  0.515709  0.123829  1
  O  O37  1  0.286544  0.484291  0.876171  1
  O  O38  1  0.202412  0.127691  0.598793  1
  O  O39  1  0.781183  0.311309  0.494658  1
  O  O40  1  0.758524  0.986050  0.992569  1
  O  O41  1  0.241476  0.013950  0.007431  1
