# generated using pymatgen
data_Nd16MgHg3(IrRh)2
_symmetry_space_group_name_H-M   'P 1'
_cell_length_a   9.93042545
_cell_length_b   9.91293060
_cell_length_c   9.93041216
_cell_angle_alpha   60.27825352
_cell_angle_beta   60.34975225
_cell_angle_gamma   60.27833358
_symmetry_Int_Tables_number   1
_chemical_formula_structural   Nd16MgHg3(IrRh)2
_chemical_formula_sum   'Nd16 Mg1 Hg3 Ir2 Rh2'
_cell_volume   695.95426132
_cell_formula_units_Z   1
loop_
 _symmetry_equiv_pos_site_id
 _symmetry_equiv_pos_as_xyz
  1  'x, y, z'
loop_
 _atom_site_type_symbol
 _atom_site_label
 _atom_site_symmetry_multiplicity
 _atom_site_fract_x
 _atom_site_fract_y
 _atom_site_fract_z
 _atom_site_occupancy
  Nd  Nd0  1  0.651268  0.045426  0.651266  1
  Nd  Nd1  1  0.808242  0.191065  0.808242  1
  Nd  Nd2  1  0.191038  0.808715  0.808119  1
  Nd  Nd3  1  0.061856  0.438233  0.436629  1
  Nd  Nd4  1  0.060866  0.060868  0.438380  1
  Nd  Nd5  1  0.438173  0.061270  0.438174  1
  Nd  Nd6  1  0.811564  0.189084  0.189269  1
  Nd  Nd7  1  0.438381  0.060868  0.060866  1
  Nd  Nd8  1  0.189165  0.812072  0.189168  1
  Nd  Nd9  1  0.436628  0.438234  0.061856  1
  Nd  Nd10  1  0.808119  0.808714  0.191039  1
  Nd  Nd11  1  0.189267  0.189085  0.811563  1
  Nd  Nd12  1  0.045570  0.651179  0.651231  1
  Nd  Nd13  1  0.649522  0.649521  0.649520  1
  Nd  Nd14  1  0.061520  0.438337  0.061521  1
  Nd  Nd15  1  0.651232  0.651179  0.045571  1
  Mg  Mg16  1  0.429754  0.429989  0.429755  1
  Hg  Hg17  1  0.413254  0.413381  0.754407  1
  Hg  Hg18  1  0.754407  0.413381  0.413254  1
  Hg  Hg19  1  0.413271  0.754330  0.413271  1
  Ir  Ir20  1  0.856798  0.856412  0.425150  1
  Ir  Ir21  1  0.425150  0.856412  0.856797  1
  Rh  Rh22  1  0.857975  0.857836  0.857974  1
  Rh  Rh23  1  0.856982  0.424407  0.856981  1
