# generated using pymatgen
data_NaTl(S2O7)2
_symmetry_space_group_name_H-M   'P 1'
_cell_length_a   5.53336614
_cell_length_b   12.31866800
_cell_length_c   10.17446800
_cell_angle_alpha   90.00000000
_cell_angle_beta   113.09263893
_cell_angle_gamma   90.00000000
_symmetry_Int_Tables_number   1
_chemical_formula_structural   NaTl(S2O7)2
_chemical_formula_sum   'Na2 Tl2 S8 O28'
_cell_volume   637.95819322
_cell_formula_units_Z   2
loop_
 _symmetry_equiv_pos_site_id
 _symmetry_equiv_pos_as_xyz
  1  'x, y, z'
loop_
 _atom_site_type_symbol
 _atom_site_label
 _atom_site_symmetry_multiplicity
 _atom_site_fract_x
 _atom_site_fract_y
 _atom_site_fract_z
 _atom_site_occupancy
  Na  Na0  1  0.500000  0.500000  0.000000  1
  Na  Na1  1  0.500000  0.000000  0.500000  1
  Tl  Tl2  1  0.000000  0.000000  0.000000  1
  Tl  Tl3  1  0.000000  0.500000  0.500000  1
  S  S4  1  0.314330  0.041698  0.780278  1
  S  S5  1  0.314330  0.458302  0.280278  1
  S  S6  1  0.685670  0.958302  0.219722  1
  S  S7  1  0.685670  0.541698  0.719722  1
  S  S8  1  0.153268  0.233434  0.897949  1
  S  S9  1  0.153268  0.266566  0.397949  1
  S  S10  1  0.846732  0.766566  0.102051  1
  S  S11  1  0.846732  0.733434  0.602051  1
  O  O12  1  0.574306  0.015737  0.779382  1
  O  O13  1  0.574306  0.484263  0.279382  1
  O  O14  1  0.425694  0.984263  0.220618  1
  O  O15  1  0.425694  0.515737  0.720618  1
  O  O16  1  0.375135  0.159432  0.858823  1
  O  O17  1  0.375135  0.340568  0.358823  1
  O  O18  1  0.624865  0.840568  0.141177  1
  O  O19  1  0.624865  0.659432  0.641177  1
  O  O20  1  0.913999  0.235469  0.773348  1
  O  O21  1  0.913999  0.264531  0.273348  1
  O  O22  1  0.086001  0.764531  0.226652  1
  O  O23  1  0.086001  0.735469  0.726652  1
  O  O24  1  0.256387  0.965864  0.879134  1
  O  O25  1  0.256387  0.534136  0.379134  1
  O  O26  1  0.743613  0.034136  0.120866  1
  O  O27  1  0.743613  0.465864  0.620866  1
  O  O28  1  0.104763  0.050321  0.642043  1
  O  O29  1  0.104763  0.449679  0.142043  1
  O  O30  1  0.895237  0.949679  0.357957  1
  O  O31  1  0.895237  0.550321  0.857957  1
  O  O32  1  0.132819  0.171871  0.022182  1
  O  O33  1  0.132819  0.328129  0.522182  1
  O  O34  1  0.867181  0.828129  0.977818  1
  O  O35  1  0.867181  0.671871  0.477818  1
  O  O36  1  0.303198  0.330706  0.949513  1
  O  O37  1  0.303198  0.169294  0.449513  1
  O  O38  1  0.696802  0.669294  0.050487  1
  O  O39  1  0.696802  0.830706  0.550487  1
