# generated using pymatgen
data_Er2Ga10Ru3
_symmetry_space_group_name_H-M   'P 1'
_cell_length_a   8.90639100
_cell_length_b   8.90639100
_cell_length_c   6.39413300
_cell_angle_alpha   90.00000000
_cell_angle_beta   90.00000000
_cell_angle_gamma   90.00000000
_symmetry_Int_Tables_number   1
_chemical_formula_structural   Er2Ga10Ru3
_chemical_formula_sum   'Er4 Ga20 Ru6'
_cell_volume   507.20693139
_cell_formula_units_Z   2
loop_
 _symmetry_equiv_pos_site_id
 _symmetry_equiv_pos_as_xyz
  1  'x, y, z'
loop_
 _atom_site_type_symbol
 _atom_site_label
 _atom_site_symmetry_multiplicity
 _atom_site_fract_x
 _atom_site_fract_y
 _atom_site_fract_z
 _atom_site_occupancy
  Er  Er0  1  0.682835  0.182835  0.000000  1
  Er  Er1  1  0.317165  0.817165  0.000000  1
  Er  Er2  1  0.817165  0.682835  0.000000  1
  Er  Er3  1  0.182835  0.317165  0.000000  1
  Ga  Ga4  1  0.938721  0.206750  0.292792  1
  Ga  Ga5  1  0.706750  0.438721  0.292792  1
  Ga  Ga6  1  0.500000  0.000000  0.284743  1
  Ga  Ga7  1  0.561279  0.706750  0.707208  1
  Ga  Ga8  1  0.293250  0.561279  0.707208  1
  Ga  Ga9  1  0.793250  0.938721  0.292792  1
  Ga  Ga10  1  0.938721  0.206750  0.707208  1
  Ga  Ga11  1  0.293250  0.561279  0.292792  1
  Ga  Ga12  1  0.061279  0.793250  0.292792  1
  Ga  Ga13  1  0.706750  0.438721  0.707208  1
  Ga  Ga14  1  0.438721  0.293250  0.707208  1
  Ga  Ga15  1  0.061279  0.793250  0.707208  1
  Ga  Ga16  1  0.206750  0.061279  0.707208  1
  Ga  Ga17  1  0.793250  0.938721  0.707208  1
  Ga  Ga18  1  0.206750  0.061279  0.292792  1
  Ga  Ga19  1  0.000000  0.500000  0.715257  1
  Ga  Ga20  1  0.000000  0.500000  0.284743  1
  Ga  Ga21  1  0.561279  0.706750  0.292792  1
  Ga  Ga22  1  0.438721  0.293250  0.292792  1
  Ga  Ga23  1  0.500000  0.000000  0.715257  1
  Ru  Ru24  1  0.678342  0.178342  0.500000  1
  Ru  Ru25  1  0.821658  0.678342  0.500000  1
  Ru  Ru26  1  0.178342  0.321658  0.500000  1
  Ru  Ru27  1  0.000000  0.000000  0.000000  1
  Ru  Ru28  1  0.321658  0.821658  0.500000  1
  Ru  Ru29  1  0.500000  0.500000  0.000000  1
