# generated using pymatgen
data_SmAl3Au
_symmetry_space_group_name_H-M   'P 1'
_cell_length_a   4.26595653
_cell_length_b   4.26595661
_cell_length_c   6.31812666
_cell_angle_alpha   70.26948886
_cell_angle_beta   70.26949080
_cell_angle_gamma   89.99999734
_symmetry_Int_Tables_number   1
_chemical_formula_structural   SmAl3Au
_chemical_formula_sum   'Sm1 Al3 Au1'
_cell_volume   101.02896747
_cell_formula_units_Z   1
loop_
 _symmetry_equiv_pos_site_id
 _symmetry_equiv_pos_as_xyz
  1  'x, y, z'
loop_
 _atom_site_type_symbol
 _atom_site_label
 _atom_site_symmetry_multiplicity
 _atom_site_fract_x
 _atom_site_fract_y
 _atom_site_fract_z
 _atom_site_occupancy
  Sm  Sm0  1  0.986664  0.986664  0.026671  1
  Al  Al1  1  0.748733  0.248733  0.502533  1
  Al  Al2  1  0.248733  0.748733  0.502533  1
  Al  Al3  1  0.395926  0.395926  0.208149  1
  Au  Au4  1  0.619943  0.619943  0.760114  1
