# generated using pymatgen
data_Sm3TmCr4F28
_symmetry_space_group_name_H-M   'P 1'
_cell_length_a   5.54705365
_cell_length_b   8.86743708
_cell_length_c   11.81864500
_cell_angle_alpha   62.84181600
_cell_angle_beta   90.05605575
_cell_angle_gamma   89.96917885
_symmetry_Int_Tables_number   1
_chemical_formula_structural   Sm3TmCr4F28
_chemical_formula_sum   'Sm3 Tm1 Cr4 F28'
_cell_volume   517.24412409
_cell_formula_units_Z   1
loop_
 _symmetry_equiv_pos_site_id
 _symmetry_equiv_pos_as_xyz
  1  'x, y, z'
loop_
 _atom_site_type_symbol
 _atom_site_label
 _atom_site_symmetry_multiplicity
 _atom_site_fract_x
 _atom_site_fract_y
 _atom_site_fract_z
 _atom_site_occupancy
  Sm  Sm0  1  0.264863  0.187524  0.734561  1
  Sm  Sm1  1  0.234949  0.192002  0.234034  1
  Sm  Sm2  1  0.734400  0.806813  0.265834  1
  Tm  Tm3  1  0.769052  0.806521  0.766006  1
  Cr  Cr4  1  0.756403  0.277865  0.954838  1
  Cr  Cr5  1  0.259145  0.726621  0.547538  1
  Cr  Cr6  1  0.243608  0.725917  0.039575  1
  Cr  Cr7  1  0.744744  0.271705  0.458311  1
  F  F8  1  0.438050  0.706843  0.921405  1
  F  F9  1  0.934281  0.292841  0.578206  1
  F  F10  1  0.565126  0.295091  0.075499  1
  F  F11  1  0.063699  0.707938  0.428572  1
  F  F12  1  0.460212  0.282732  0.543247  1
  F  F13  1  0.958720  0.718328  0.950327  1
  F  F14  1  0.538017  0.715848  0.458681  1
  F  F15  1  0.039850  0.287053  0.040830  1
  F  F16  1  0.762195  0.511784  0.860666  1
  F  F17  1  0.267142  0.494410  0.640754  1
  F  F18  1  0.230804  0.494115  0.134769  1
  F  F19  1  0.734440  0.505063  0.363992  1
  F  F20  1  0.758994  0.046012  0.044920  1
  F  F21  1  0.259320  0.957915  0.455810  1
  F  F22  1  0.242411  0.957840  0.951996  1
  F  F23  1  0.743683  0.040689  0.547746  1
  F  F24  1  0.982916  0.731917  0.641455  1
  F  F25  1  0.479640  0.269936  0.864709  1
  F  F26  1  0.023548  0.269995  0.367749  1
  F  F27  1  0.519526  0.728873  0.132493  1
  F  F28  1  0.052155  0.743764  0.162775  1
  F  F29  1  0.556492  0.255968  0.333631  1
  F  F30  1  0.945556  0.259448  0.831784  1
  F  F31  1  0.457648  0.747216  0.668179  1
  F  F32  1  0.404201  0.969623  0.225774  1
  F  F33  1  0.904789  0.029374  0.273475  1
  F  F34  1  0.591210  0.016072  0.772173  1
  F  F35  1  0.078211  0.968349  0.727689  1
