# generated using pymatgen
data_Gd17Er2MgIr12
_symmetry_space_group_name_H-M   'P 1'
_cell_length_a   10.86886400
_cell_length_b   10.86886400
_cell_length_c   6.29650800
_cell_angle_alpha   90.00000000
_cell_angle_beta   90.00000000
_cell_angle_gamma   90.00000000
_symmetry_Int_Tables_number   1
_chemical_formula_structural   Gd17Er2MgIr12
_chemical_formula_sum   'Gd17 Er2 Mg1 Ir12'
_cell_volume   743.82037164
_cell_formula_units_Z   1
loop_
 _symmetry_equiv_pos_site_id
 _symmetry_equiv_pos_as_xyz
  1  'x, y, z'
loop_
 _atom_site_type_symbol
 _atom_site_label
 _atom_site_symmetry_multiplicity
 _atom_site_fract_x
 _atom_site_fract_y
 _atom_site_fract_z
 _atom_site_occupancy
  Gd  Gd0  1  0.283305  0.084923  0.379205  1
  Gd  Gd1  1  0.289810  0.911610  0.878639  1
  Gd  Gd2  1  0.710190  0.088390  0.878639  1
  Gd  Gd3  1  0.716695  0.915077  0.379205  1
  Gd  Gd4  1  0.588692  0.790259  0.879409  1
  Gd  Gd5  1  0.587499  0.209685  0.377618  1
  Gd  Gd6  1  0.412501  0.790315  0.377618  1
  Gd  Gd7  1  0.411308  0.209741  0.879409  1
  Gd  Gd8  1  0.209685  0.412501  0.622382  1
  Gd  Gd9  1  0.209741  0.588692  0.120591  1
  Gd  Gd10  1  0.790259  0.411308  0.120591  1
  Gd  Gd11  1  0.790315  0.587499  0.622382  1
  Gd  Gd12  1  0.911610  0.710190  0.121361  1
  Gd  Gd13  1  0.915077  0.283305  0.620795  1
  Gd  Gd14  1  0.084923  0.716695  0.620795  1
  Gd  Gd15  1  0.088390  0.289810  0.121361  1
  Gd  Gd16  1  0.000000  0.000000  0.000000  1
  Er  Er17  1  0.500000  0.500000  0.000000  1
  Er  Er18  1  0.500000  0.500000  0.500000  1
  Mg  Mg19  1  0.000000  0.000000  0.500000  1
  Ir  Ir20  1  0.846849  0.153860  0.248496  1
  Ir  Ir21  1  0.846140  0.846849  0.751504  1
  Ir  Ir22  1  0.153860  0.153151  0.751504  1
  Ir  Ir23  1  0.153151  0.846140  0.248496  1
  Ir  Ir24  1  0.652771  0.347786  0.748125  1
  Ir  Ir25  1  0.652214  0.652771  0.251875  1
  Ir  Ir26  1  0.347786  0.347229  0.251875  1
  Ir  Ir27  1  0.347229  0.652214  0.748125  1
  Ir  Ir28  1  0.500000  0.000000  0.123647  1
  Ir  Ir29  1  0.500000  0.000000  0.619949  1
  Ir  Ir30  1  0.000000  0.500000  0.876353  1
  Ir  Ir31  1  0.000000  0.500000  0.380051  1
