# generated using pymatgen
data_Sc2BPd5Rh
_symmetry_space_group_name_H-M   'P 1'
_cell_length_a   5.64214710
_cell_length_b   5.69520495
_cell_length_c   5.69520700
_cell_angle_alpha   59.38458453
_cell_angle_beta   60.30771196
_cell_angle_gamma   60.30771285
_symmetry_Int_Tables_number   1
_chemical_formula_structural   Sc2BPd5Rh
_chemical_formula_sum   'Sc2 B1 Pd5 Rh1'
_cell_volume   129.38192444
_cell_formula_units_Z   1
loop_
 _symmetry_equiv_pos_site_id
 _symmetry_equiv_pos_as_xyz
  1  'x, y, z'
loop_
 _atom_site_type_symbol
 _atom_site_label
 _atom_site_symmetry_multiplicity
 _atom_site_fract_x
 _atom_site_fract_y
 _atom_site_fract_z
 _atom_site_occupancy
  Sc  Sc0  1  0.248871  0.251129  0.251129  1
  Sc  Sc1  1  0.748871  0.751129  0.751129  1
  B  B2  1  0.006572  0.993428  0.993428  1
  Pd  Pd3  1  0.745648  0.254353  0.254353  1
  Pd  Pd4  1  0.257536  0.742465  0.259677  1
  Pd  Pd5  1  0.740322  0.742463  0.259679  1
  Pd  Pd6  1  0.257536  0.259677  0.742465  1
  Pd  Pd7  1  0.740322  0.259679  0.742463  1
  Rh  Rh8  1  0.254323  0.745678  0.745678  1
