# generated using pymatgen
data_Dy6IrO12
_symmetry_space_group_name_H-M   'P 1'
_cell_length_a   6.47507816
_cell_length_b   6.47507884
_cell_length_c   6.47507731
_cell_angle_alpha   98.66797533
_cell_angle_beta   98.66795812
_cell_angle_gamma   98.66795226
_symmetry_Int_Tables_number   1
_chemical_formula_structural   Dy6IrO12
_chemical_formula_sum   'Dy6 Ir1 O12'
_cell_volume   261.10156137
_cell_formula_units_Z   1
loop_
 _symmetry_equiv_pos_site_id
 _symmetry_equiv_pos_as_xyz
  1  'x, y, z'
loop_
 _atom_site_type_symbol
 _atom_site_label
 _atom_site_symmetry_multiplicity
 _atom_site_fract_x
 _atom_site_fract_y
 _atom_site_fract_z
 _atom_site_occupancy
  Dy  Dy0  1  0.855711  0.389284  0.686639  1
  Dy  Dy1  1  0.610716  0.313361  0.144289  1
  Dy  Dy2  1  0.313361  0.144289  0.610716  1
  Dy  Dy3  1  0.686639  0.855711  0.389284  1
  Dy  Dy4  1  0.389284  0.686639  0.855711  1
  Dy  Dy5  1  0.144289  0.610716  0.313361  1
  Ir  Ir6  1  0.000000  0.000000  0.000000  1
  O  O7  1  0.929159  0.035509  0.701929  1
  O  O8  1  0.964491  0.298071  0.070841  1
  O  O9  1  0.591009  0.177255  0.434534  1
  O  O10  1  0.822745  0.565466  0.408991  1
  O  O11  1  0.298071  0.070841  0.964491  1
  O  O12  1  0.565466  0.408991  0.822745  1
  O  O13  1  0.434534  0.591009  0.177255  1
  O  O14  1  0.701929  0.929159  0.035509  1
  O  O15  1  0.177255  0.434534  0.591009  1
  O  O16  1  0.408991  0.822745  0.565466  1
  O  O17  1  0.035509  0.701929  0.929159  1
  O  O18  1  0.070841  0.964491  0.298071  1
