# generated using pymatgen
data_Tm8Lu4In2Fe2Os
_symmetry_space_group_name_H-M   'P 1'
_cell_length_a   8.23313870
_cell_length_b   8.23875103
_cell_length_c   8.23586759
_cell_angle_alpha   108.67824126
_cell_angle_beta   108.65293168
_cell_angle_gamma   111.09395616
_symmetry_Int_Tables_number   1
_chemical_formula_structural   Tm8Lu4In2Fe2Os
_chemical_formula_sum   'Tm8 Lu4 In2 Fe2 Os1'
_cell_volume   429.79010348
_cell_formula_units_Z   1
loop_
 _symmetry_equiv_pos_site_id
 _symmetry_equiv_pos_as_xyz
  1  'x, y, z'
loop_
 _atom_site_type_symbol
 _atom_site_label
 _atom_site_symmetry_multiplicity
 _atom_site_fract_x
 _atom_site_fract_y
 _atom_site_fract_z
 _atom_site_occupancy
  Tm  Tm0  1  0.808171  0.046188  0.238226  1
  Tm  Tm1  1  0.045807  0.807569  0.237860  1
  Tm  Tm2  1  0.429823  0.192375  0.237639  1
  Tm  Tm3  1  0.570015  0.807802  0.761833  1
  Tm  Tm4  1  0.308131  0.308036  0.616477  1
  Tm  Tm5  1  0.691830  0.691927  0.384036  1
  Tm  Tm6  1  0.691811  0.308024  0.999580  1
  Tm  Tm7  1  0.307579  0.691347  0.999776  1
  Lu  Lu8  1  0.191737  0.429283  0.237152  1
  Lu  Lu9  1  0.808445  0.570615  0.762355  1
  Lu  Lu10  1  0.191512  0.954437  0.762555  1
  Lu  Lu11  1  0.954812  0.192087  0.762922  1
  In  In12  1  0.000221  0.500454  0.500204  1
  In  In13  1  0.500433  0.000201  0.500201  1
  Fe  Fe14  1  0.383872  0.383929  0.999892  1
  Fe  Fe15  1  0.615591  0.615525  0.999869  1
  Os  Os16  1  0.000208  0.000201  0.999421  1
