# generated using pymatgen
data_Rb2CeThB24
_symmetry_space_group_name_H-M   'P 1'
_cell_length_a   4.19544200
_cell_length_b   4.19544200
_cell_length_c   16.85843500
_cell_angle_alpha   90.00000000
_cell_angle_beta   90.00000000
_cell_angle_gamma   90.00000000
_symmetry_Int_Tables_number   1
_chemical_formula_structural   Rb2CeThB24
_chemical_formula_sum   'Rb2 Ce1 Th1 B24'
_cell_volume   296.73768137
_cell_formula_units_Z   1
loop_
 _symmetry_equiv_pos_site_id
 _symmetry_equiv_pos_as_xyz
  1  'x, y, z'
loop_
 _atom_site_type_symbol
 _atom_site_label
 _atom_site_symmetry_multiplicity
 _atom_site_fract_x
 _atom_site_fract_y
 _atom_site_fract_z
 _atom_site_occupancy
  Rb  Rb0  1  0.500000  0.500000  0.250724  1
  Rb  Rb1  1  0.500000  0.500000  0.749276  1
  Ce  Ce2  1  0.500000  0.500000  0.500000  1
  Th  Th3  1  0.500000  0.500000  0.000000  1
  B  B4  1  0.000000  0.000000  0.048841  1
  B  B5  1  0.000000  0.000000  0.302353  1
  B  B6  1  0.000000  0.000000  0.549099  1
  B  B7  1  0.000000  0.000000  0.801811  1
  B  B8  1  0.000000  0.298096  0.877791  1
  B  B9  1  0.000000  0.298096  0.122209  1
  B  B10  1  0.000000  0.297722  0.377810  1
  B  B11  1  0.000000  0.297722  0.622190  1
  B  B12  1  0.298096  0.000000  0.877791  1
  B  B13  1  0.298096  0.000000  0.122209  1
  B  B14  1  0.297722  0.000000  0.377810  1
  B  B15  1  0.297722  0.000000  0.622190  1
  B  B16  1  0.000000  0.000000  0.951159  1
  B  B17  1  0.000000  0.000000  0.198189  1
  B  B18  1  0.000000  0.000000  0.450901  1
  B  B19  1  0.000000  0.000000  0.697647  1
  B  B20  1  0.000000  0.701904  0.877791  1
  B  B21  1  0.000000  0.701904  0.122209  1
  B  B22  1  0.000000  0.702278  0.377810  1
  B  B23  1  0.000000  0.702278  0.622190  1
  B  B24  1  0.701904  0.000000  0.877791  1
  B  B25  1  0.701904  0.000000  0.122209  1
  B  B26  1  0.702278  0.000000  0.377810  1
  B  B27  1  0.702278  0.000000  0.622190  1
