# generated using pymatgen
data_SrHgIr4(PbO7)2
_symmetry_space_group_name_H-M   'P 1'
_cell_length_a   7.42791325
_cell_length_b   7.41782825
_cell_length_c   7.29785091
_cell_angle_alpha   59.45465521
_cell_angle_beta   59.55300979
_cell_angle_gamma   60.04491167
_symmetry_Int_Tables_number   1
_chemical_formula_structural   SrHgIr4(PbO7)2
_chemical_formula_sum   'Sr1 Hg1 Ir4 Pb2 O14'
_cell_volume   282.27331150
_cell_formula_units_Z   1
loop_
 _symmetry_equiv_pos_site_id
 _symmetry_equiv_pos_as_xyz
  1  'x, y, z'
loop_
 _atom_site_type_symbol
 _atom_site_label
 _atom_site_symmetry_multiplicity
 _atom_site_fract_x
 _atom_site_fract_y
 _atom_site_fract_z
 _atom_site_occupancy
  Sr  Sr0  1  0.625000  0.125000  0.125000  1
  Hg  Hg1  1  0.125000  0.125000  0.625000  1
  Ir  Ir2  1  0.125000  0.625000  0.625000  1
  Ir  Ir3  1  0.625000  0.125000  0.625000  1
  Ir  Ir4  1  0.625000  0.625000  0.125000  1
  Ir  Ir5  1  0.625000  0.625000  0.625000  1
  Pb  Pb6  1  0.125000  0.625000  0.125000  1
  Pb  Pb7  1  0.125000  0.125000  0.125000  1
  O  O8  1  0.709817  0.692497  0.296832  1
  O  O9  1  0.301567  0.304569  0.708327  1
  O  O10  1  0.693234  0.307205  0.692355  1
  O  O11  1  0.297280  0.703944  0.294831  1
  O  O12  1  0.301567  0.685536  0.708327  1
  O  O13  1  0.709817  0.300853  0.296832  1
  O  O14  1  0.540183  0.557503  0.953168  1
  O  O15  1  0.948433  0.945431  0.541673  1
  O  O16  1  0.556766  0.942795  0.557645  1
  O  O17  1  0.952720  0.546056  0.955169  1
  O  O18  1  0.948433  0.564464  0.541673  1
  O  O19  1  0.540183  0.949147  0.953168  1
  O  O20  1  0.228730  0.248379  0.274510  1
  O  O21  1  0.021270  0.001621  0.975490  1
