# generated using pymatgen
data_Tb2EuYNi13C4
_symmetry_space_group_name_H-M   'P 1'
_cell_length_a   8.42794296
_cell_length_b   8.42794322
_cell_length_c   3.89520400
_cell_angle_alpha   90.00000000
_cell_angle_beta   90.00000000
_cell_angle_gamma   90.67951655
_symmetry_Int_Tables_number   1
_chemical_formula_structural   Tb2EuYNi13C4
_chemical_formula_sum   'Tb2 Eu1 Y1 Ni13 C4'
_cell_volume   276.65775780
_cell_formula_units_Z   1
loop_
 _symmetry_equiv_pos_site_id
 _symmetry_equiv_pos_as_xyz
  1  'x, y, z'
loop_
 _atom_site_type_symbol
 _atom_site_label
 _atom_site_symmetry_multiplicity
 _atom_site_fract_x
 _atom_site_fract_y
 _atom_site_fract_z
 _atom_site_occupancy
  Tb  Tb0  1  0.812340  0.188001  0.500000  1
  Tb  Tb1  1  0.188001  0.812340  0.500000  1
  Eu  Eu2  1  0.649611  0.649611  0.500000  1
  Y  Y3  1  0.348989  0.348989  0.500000  1
  Ni  Ni4  1  0.496143  0.006535  0.500000  1
  Ni  Ni5  1  0.006535  0.496143  0.500000  1
  Ni  Ni6  1  0.002237  0.002237  0.000000  1
  Ni  Ni7  1  0.426972  0.784005  0.000000  1
  Ni  Ni8  1  0.568468  0.213096  0.000000  1
  Ni  Ni9  1  0.213096  0.568468  0.000000  1
  Ni  Ni10  1  0.784005  0.426972  0.000000  1
  Ni  Ni11  1  0.711958  0.931590  0.000000  1
  Ni  Ni12  1  0.292015  0.074327  0.000000  1
  Ni  Ni13  1  0.074327  0.292015  0.000000  1
  Ni  Ni14  1  0.931590  0.711958  0.000000  1
  Ni  Ni15  1  0.879550  0.879550  0.500000  1
  Ni  Ni16  1  0.124190  0.124190  0.500000  1
  C  C17  1  0.439526  0.553138  0.000000  1
  C  C18  1  0.553138  0.439526  0.000000  1
  C  C19  1  0.500624  0.996685  0.000000  1
  C  C20  1  0.996685  0.500624  0.000000  1
