# generated using pymatgen
data_Dy2YScAu5
_symmetry_space_group_name_H-M   'P 1'
_cell_length_a   7.91934798
_cell_length_b   7.91729389
_cell_length_c   7.91715276
_cell_angle_alpha   66.26779482
_cell_angle_beta   66.25868966
_cell_angle_gamma   66.26351336
_symmetry_Int_Tables_number   1
_chemical_formula_structural   Dy2YScAu5
_chemical_formula_sum   'Dy4 Y2 Sc2 Au10'
_cell_volume   398.46973750
_cell_formula_units_Z   2
loop_
 _symmetry_equiv_pos_site_id
 _symmetry_equiv_pos_as_xyz
  1  'x, y, z'
loop_
 _atom_site_type_symbol
 _atom_site_label
 _atom_site_symmetry_multiplicity
 _atom_site_fract_x
 _atom_site_fract_y
 _atom_site_fract_z
 _atom_site_occupancy
  Dy  Dy0  1  0.891394  0.188899  0.619145  1
  Dy  Dy1  1  0.619155  0.891321  0.188982  1
  Dy  Dy2  1  0.189013  0.619127  0.891290  1
  Dy  Dy3  1  0.108788  0.811092  0.380906  1
  Y  Y4  1  0.380953  0.108773  0.811077  1
  Y  Y5  1  0.811147  0.381050  0.108633  1
  Sc  Sc6  1  0.659068  0.659100  0.659170  1
  Sc  Sc7  1  0.340699  0.340815  0.340737  1
  Au  Au8  1  0.999916  0.999733  0.000049  1
  Au  Au9  1  0.499952  0.500175  0.500103  1
  Au  Au10  1  0.807062  0.806991  0.806863  1
  Au  Au11  1  0.193146  0.192991  0.193398  1
  Au  Au12  1  0.937134  0.550151  0.320205  1
  Au  Au13  1  0.320106  0.936940  0.549962  1
  Au  Au14  1  0.550026  0.320187  0.937055  1
  Au  Au15  1  0.062839  0.450132  0.679610  1
  Au  Au16  1  0.680087  0.062591  0.449750  1
  Au  Au17  1  0.449514  0.679931  0.063065  1
