# generated using pymatgen
data_Ho10CoAg3
_symmetry_space_group_name_H-M   'P 1'
_cell_length_a   9.43108700
_cell_length_b   9.43108818
_cell_length_c   9.53166000
_cell_angle_alpha   90.00000000
_cell_angle_beta   90.00000000
_cell_angle_gamma   119.99999937
_symmetry_Int_Tables_number   1
_chemical_formula_structural   Ho10CoAg3
_chemical_formula_sum   'Ho20 Co2 Ag6'
_cell_volume   734.21412185
_cell_formula_units_Z   2
loop_
 _symmetry_equiv_pos_site_id
 _symmetry_equiv_pos_as_xyz
  1  'x, y, z'
loop_
 _atom_site_type_symbol
 _atom_site_label
 _atom_site_symmetry_multiplicity
 _atom_site_fract_x
 _atom_site_fract_y
 _atom_site_fract_z
 _atom_site_occupancy
  Ho  Ho0  1  0.000000  0.000000  0.500000  1
  Ho  Ho1  1  0.000000  0.000000  0.000000  1
  Ho  Ho2  1  0.543190  0.456810  0.250000  1
  Ho  Ho3  1  0.543190  0.086382  0.250000  1
  Ho  Ho4  1  0.913618  0.456810  0.250000  1
  Ho  Ho5  1  0.456810  0.543190  0.750000  1
  Ho  Ho6  1  0.456810  0.913618  0.750000  1
  Ho  Ho7  1  0.086382  0.543190  0.750000  1
  Ho  Ho8  1  0.210650  0.789350  0.438017  1
  Ho  Ho9  1  0.210650  0.421300  0.438017  1
  Ho  Ho10  1  0.578700  0.789350  0.438017  1
  Ho  Ho11  1  0.789350  0.210650  0.561983  1
  Ho  Ho12  1  0.789350  0.578700  0.561983  1
  Ho  Ho13  1  0.421300  0.210650  0.561983  1
  Ho  Ho14  1  0.789350  0.210650  0.938017  1
  Ho  Ho15  1  0.789350  0.578700  0.938017  1
  Ho  Ho16  1  0.421300  0.210650  0.938017  1
  Ho  Ho17  1  0.210650  0.789350  0.061983  1
  Ho  Ho18  1  0.210650  0.421300  0.061983  1
  Ho  Ho19  1  0.578700  0.789350  0.061983  1
  Co  Co20  1  0.333333  0.666667  0.250000  1
  Co  Co21  1  0.666667  0.333333  0.750000  1
  Ag  Ag22  1  0.883645  0.116355  0.250000  1
  Ag  Ag23  1  0.883645  0.767289  0.250000  1
  Ag  Ag24  1  0.232711  0.116355  0.250000  1
  Ag  Ag25  1  0.116355  0.883645  0.750000  1
  Ag  Ag26  1  0.116355  0.232711  0.750000  1
  Ag  Ag27  1  0.767289  0.883645  0.750000  1
