# generated using pymatgen
data_Zr3Al3GaCuNi
_symmetry_space_group_name_H-M   'P 1'
_cell_length_a   6.59744000
_cell_length_b   6.59743895
_cell_length_c   3.97519400
_cell_angle_alpha   90.00000000
_cell_angle_beta   90.00000000
_cell_angle_gamma   119.99999526
_symmetry_Int_Tables_number   1
_chemical_formula_structural   Zr3Al3GaCuNi
_chemical_formula_sum   'Zr3 Al3 Ga1 Cu1 Ni1'
_cell_volume   149.84415596
_cell_formula_units_Z   1
loop_
 _symmetry_equiv_pos_site_id
 _symmetry_equiv_pos_as_xyz
  1  'x, y, z'
loop_
 _atom_site_type_symbol
 _atom_site_label
 _atom_site_symmetry_multiplicity
 _atom_site_fract_x
 _atom_site_fract_y
 _atom_site_fract_z
 _atom_site_occupancy
  Zr  Zr0  1  0.993385  0.405202  0.500000  1
  Zr  Zr1  1  0.594798  0.588183  0.500000  1
  Zr  Zr2  1  0.411817  0.006615  0.500000  1
  Al  Al3  1  0.990074  0.754027  0.000000  1
  Al  Al4  1  0.245973  0.236046  0.000000  1
  Al  Al5  1  0.763954  0.009926  0.000000  1
  Ga  Ga6  1  0.333333  0.666667  0.000000  1
  Cu  Cu7  1  0.666667  0.333333  0.000000  1
  Ni  Ni8  1  0.000000  0.000000  0.500000  1
