# generated using pymatgen
data_Er2Mn6Be3Fe8C3
_symmetry_space_group_name_H-M   'P 1'
_cell_length_a   6.33817366
_cell_length_b   6.33817259
_cell_length_c   6.33817308
_cell_angle_alpha   82.73877751
_cell_angle_beta   82.73876714
_cell_angle_gamma   82.73877461
_symmetry_Int_Tables_number   1
_chemical_formula_structural   Er2Mn6Be3Fe8C3
_chemical_formula_sum   'Er2 Mn6 Be3 Fe8 C3'
_cell_volume   248.96986751
_cell_formula_units_Z   1
loop_
 _symmetry_equiv_pos_site_id
 _symmetry_equiv_pos_as_xyz
  1  'x, y, z'
loop_
 _atom_site_type_symbol
 _atom_site_label
 _atom_site_symmetry_multiplicity
 _atom_site_fract_x
 _atom_site_fract_y
 _atom_site_fract_z
 _atom_site_occupancy
  Er  Er0  1  0.656016  0.656016  0.656016  1
  Er  Er1  1  0.343984  0.343984  0.343984  1
  Mn  Mn2  1  0.724350  0.275650  0.000000  1
  Mn  Mn3  1  0.000000  0.724350  0.275650  1
  Mn  Mn4  1  0.275650  0.000000  0.724350  1
  Mn  Mn5  1  0.000000  0.275650  0.724350  1
  Mn  Mn6  1  0.724350  0.000000  0.275650  1
  Mn  Mn7  1  0.275650  0.724350  0.000000  1
  Be  Be8  1  0.000000  0.000000  0.500000  1
  Be  Be9  1  0.500000  0.000000  0.000000  1
  Be  Be10  1  0.000000  0.500000  0.000000  1
  Fe  Fe11  1  0.339543  0.859486  0.339543  1
  Fe  Fe12  1  0.339543  0.339543  0.859486  1
  Fe  Fe13  1  0.859486  0.339543  0.339543  1
  Fe  Fe14  1  0.660457  0.140514  0.660457  1
  Fe  Fe15  1  0.660457  0.660457  0.140514  1
  Fe  Fe16  1  0.140514  0.660457  0.660457  1
  Fe  Fe17  1  0.901208  0.901208  0.901208  1
  Fe  Fe18  1  0.098792  0.098792  0.098792  1
  C  C19  1  0.500000  0.500000  0.000000  1
  C  C20  1  0.000000  0.500000  0.500000  1
  C  C21  1  0.500000  0.000000  0.500000  1
