# generated using pymatgen
data_TbTh2As4Pd7
_symmetry_space_group_name_H-M   'P 1'
_cell_length_a   8.24123196
_cell_length_b   8.24123260
_cell_length_c   9.72431620
_cell_angle_alpha   55.31292738
_cell_angle_beta   55.31292374
_cell_angle_gamma   29.57869631
_symmetry_Int_Tables_number   1
_chemical_formula_structural   TbTh2As4Pd7
_chemical_formula_sum   'Tb1 Th2 As4 Pd7'
_cell_volume   263.55833386
_cell_formula_units_Z   1
loop_
 _symmetry_equiv_pos_site_id
 _symmetry_equiv_pos_as_xyz
  1  'x, y, z'
loop_
 _atom_site_type_symbol
 _atom_site_label
 _atom_site_symmetry_multiplicity
 _atom_site_fract_x
 _atom_site_fract_y
 _atom_site_fract_z
 _atom_site_occupancy
  Tb  Tb0  1  0.320809  0.320809  0.673534  1
  Th  Th1  1  0.676669  0.676669  0.331926  1
  Th  Th2  1  0.001750  0.001750  0.996226  1
  As  As3  1  0.343165  0.343165  0.250314  1
  As  As4  1  0.661442  0.661442  0.745823  1
  As  As5  1  0.890818  0.890818  0.822869  1
  As  As6  1  0.106614  0.106614  0.173905  1
  Pd  Pd7  1  0.308484  0.308484  0.023220  1
  Pd  Pd8  1  0.690849  0.690849  0.978351  1
  Pd  Pd9  1  0.511984  0.511984  0.705739  1
  Pd  Pd10  1  0.835139  0.835139  0.429384  1
  Pd  Pd11  1  0.487979  0.487979  0.295942  1
  Pd  Pd12  1  0.164989  0.164989  0.571252  1
  Pd  Pd13  1  0.999309  0.999309  0.501513  1
