# generated using pymatgen
data_AlV10Si3Os2
_symmetry_space_group_name_H-M   'P 1'
_cell_length_a   4.67640300
_cell_length_b   4.74042007
_cell_length_c   9.49873015
_cell_angle_alpha   89.97988266
_cell_angle_beta   90.00000000
_cell_angle_gamma   90.00000000
_symmetry_Int_Tables_number   1
_chemical_formula_structural   AlV10Si3Os2
_chemical_formula_sum   'Al1 V10 Si3 Os2'
_cell_volume   210.56892594
_cell_formula_units_Z   1
loop_
 _symmetry_equiv_pos_site_id
 _symmetry_equiv_pos_as_xyz
  1  'x, y, z'
loop_
 _atom_site_type_symbol
 _atom_site_label
 _atom_site_symmetry_multiplicity
 _atom_site_fract_x
 _atom_site_fract_y
 _atom_site_fract_z
 _atom_site_occupancy
  Al  Al0  1  0.500000  0.502248  0.999173  1
  V  V1  1  0.000000  0.498542  0.625767  1
  V  V2  1  0.500000  0.247921  0.253229  1
  V  V3  1  0.752184  0.999633  0.999790  1
  V  V4  1  0.752162  0.999947  0.500007  1
  V  V5  1  0.000000  0.498972  0.867600  1
  V  V6  1  0.000000  0.501028  0.381219  1
  V  V7  1  0.500000  0.749493  0.747076  1
  V  V8  1  0.500000  0.754808  0.252561  1
  V  V9  1  0.247816  0.999633  0.999790  1
  V  V10  1  0.247838  0.999947  0.500007  1
  Si  Si11  1  0.500000  0.504220  0.497238  1
  Si  Si12  1  0.000000  0.992895  0.749638  1
  Si  Si13  1  0.000000  0.999739  0.253802  1
  Os  Os14  1  0.000000  0.501661  0.125233  1
  Os  Os15  1  0.500000  0.249313  0.747871  1
