# generated using pymatgen
data_V4As4W
_symmetry_space_group_name_H-M   'P 1'
_cell_length_a   6.87716874
_cell_length_b   6.87716855
_cell_length_c   6.87716797
_cell_angle_alpha   93.12256017
_cell_angle_beta   93.12255856
_cell_angle_gamma   153.00624776
_symmetry_Int_Tables_number   1
_chemical_formula_structural   V4As4W
_chemical_formula_sum   'V4 As4 W1'
_cell_volume   143.55555359
_cell_formula_units_Z   1
loop_
 _symmetry_equiv_pos_site_id
 _symmetry_equiv_pos_as_xyz
  1  'x, y, z'
loop_
 _atom_site_type_symbol
 _atom_site_label
 _atom_site_symmetry_multiplicity
 _atom_site_fract_x
 _atom_site_fract_y
 _atom_site_fract_z
 _atom_site_occupancy
  V  V0  1  0.374316  0.694924  0.069243  1
  V  V1  1  0.694924  0.625681  0.320608  1
  V  V2  1  0.305075  0.374318  0.679393  1
  V  V3  1  0.625683  0.305075  0.930758  1
  As  As4  1  0.285280  0.942282  0.227565  1
  As  As5  1  0.057717  0.285282  0.342999  1
  As  As6  1  0.942282  0.714717  0.657002  1
  As  As7  1  0.714719  0.057717  0.772436  1
  W  W8  1  0.000000  0.000000  0.000000  1
