# generated using pymatgen
data_NdSc(Si7Ir3)2
_symmetry_space_group_name_H-M   'P 1'
_cell_length_a   8.05137687
_cell_length_b   8.05137690
_cell_length_c   8.05137713
_cell_angle_alpha   56.50595598
_cell_angle_beta   56.50595787
_cell_angle_gamma   56.50595746
_symmetry_Int_Tables_number   1
_chemical_formula_structural   NdSc(Si7Ir3)2
_chemical_formula_sum   'Nd1 Sc1 Si14 Ir6'
_cell_volume   339.25446443
_cell_formula_units_Z   1
loop_
 _symmetry_equiv_pos_site_id
 _symmetry_equiv_pos_as_xyz
  1  'x, y, z'
loop_
 _atom_site_type_symbol
 _atom_site_label
 _atom_site_symmetry_multiplicity
 _atom_site_fract_x
 _atom_site_fract_y
 _atom_site_fract_z
 _atom_site_occupancy
  Nd  Nd0  1  0.000000  0.000000  0.000000  1
  Sc  Sc1  1  0.500000  0.500000  0.500000  1
  Si  Si2  1  0.750499  0.750499  0.750499  1
  Si  Si3  1  0.249501  0.249501  0.249501  1
  Si  Si4  1  0.848393  0.066281  0.671479  1
  Si  Si5  1  0.671479  0.848393  0.066281  1
  Si  Si6  1  0.066281  0.671479  0.848393  1
  Si  Si7  1  0.647800  0.825650  0.438105  1
  Si  Si8  1  0.438105  0.647800  0.825650  1
  Si  Si9  1  0.825650  0.438105  0.647800  1
  Si  Si10  1  0.174350  0.561895  0.352200  1
  Si  Si11  1  0.561895  0.352200  0.174350  1
  Si  Si12  1  0.352200  0.174350  0.561895  1
  Si  Si13  1  0.933719  0.328521  0.151607  1
  Si  Si14  1  0.328521  0.151607  0.933719  1
  Si  Si15  1  0.151607  0.933719  0.328521  1
  Ir  Ir16  1  0.073782  0.432347  0.746105  1
  Ir  Ir17  1  0.253895  0.926218  0.567653  1
  Ir  Ir18  1  0.567653  0.253895  0.926218  1
  Ir  Ir19  1  0.926218  0.567653  0.253895  1
  Ir  Ir20  1  0.432347  0.746105  0.073782  1
  Ir  Ir21  1  0.746105  0.073782  0.432347  1
