# generated using pymatgen
data_Ce4Hg2PdPt3
_symmetry_space_group_name_H-M   'P 1'
_cell_length_a   7.89116945
_cell_length_b   7.89116886
_cell_length_c   3.74986700
_cell_angle_alpha   90.00000000
_cell_angle_beta   90.00000000
_cell_angle_gamma   89.88125770
_symmetry_Int_Tables_number   1
_chemical_formula_structural   Ce4Hg2PdPt3
_chemical_formula_sum   'Ce4 Hg2 Pd1 Pt3'
_cell_volume   233.50578150
_cell_formula_units_Z   1
loop_
 _symmetry_equiv_pos_site_id
 _symmetry_equiv_pos_as_xyz
  1  'x, y, z'
loop_
 _atom_site_type_symbol
 _atom_site_label
 _atom_site_symmetry_multiplicity
 _atom_site_fract_x
 _atom_site_fract_y
 _atom_site_fract_z
 _atom_site_occupancy
  Ce  Ce0  1  0.677243  0.172075  0.500000  1
  Ce  Ce1  1  0.327925  0.822757  0.500000  1
  Ce  Ce2  1  0.170245  0.329755  0.500000  1
  Ce  Ce3  1  0.825756  0.674244  0.500000  1
  Hg  Hg4  1  0.003502  0.000224  0.000000  1
  Hg  Hg5  1  0.499776  0.496498  0.000000  1
  Pd  Pd6  1  0.369474  0.130526  0.000000  1
  Pt  Pt7  1  0.128654  0.628398  0.000000  1
  Pt  Pt8  1  0.871602  0.371346  0.000000  1
  Pt  Pt9  1  0.625822  0.874178  0.000000  1
