# generated using pymatgen
data_La3TbFeC6
_symmetry_space_group_name_H-M   'P 1'
_cell_length_a   8.83279000
_cell_length_b   8.83279041
_cell_length_c   5.53688500
_cell_angle_alpha   90.00000000
_cell_angle_beta   90.00000000
_cell_angle_gamma   119.99999846
_symmetry_Int_Tables_number   1
_chemical_formula_structural   La3TbFeC6
_chemical_formula_sum   'La6 Tb2 Fe2 C12'
_cell_volume   374.10367316
_cell_formula_units_Z   2
loop_
 _symmetry_equiv_pos_site_id
 _symmetry_equiv_pos_as_xyz
  1  'x, y, z'
loop_
 _atom_site_type_symbol
 _atom_site_label
 _atom_site_symmetry_multiplicity
 _atom_site_fract_x
 _atom_site_fract_y
 _atom_site_fract_z
 _atom_site_occupancy
  La  La0  1  0.613132  0.667191  0.750000  1
  La  La1  1  0.945940  0.613132  0.250000  1
  La  La2  1  0.667191  0.054060  0.250000  1
  La  La3  1  0.332809  0.945940  0.750000  1
  La  La4  1  0.054060  0.386868  0.750000  1
  La  La5  1  0.386868  0.332809  0.250000  1
  Tb  Tb6  1  0.000000  0.000000  0.500000  1
  Tb  Tb7  1  0.000000  0.000000  0.000000  1
  Fe  Fe8  1  0.666667  0.333333  0.750000  1
  Fe  Fe9  1  0.333333  0.666667  0.250000  1
  C  C10  1  0.955748  0.733206  0.750000  1
  C  C11  1  0.222542  0.955748  0.250000  1
  C  C12  1  0.733206  0.777458  0.250000  1
  C  C13  1  0.266794  0.222542  0.750000  1
  C  C14  1  0.777458  0.044252  0.750000  1
  C  C15  1  0.044252  0.266794  0.250000  1
  C  C16  1  0.849079  0.557205  0.750000  1
  C  C17  1  0.291872  0.849079  0.250000  1
  C  C18  1  0.557205  0.708128  0.250000  1
  C  C19  1  0.442795  0.291872  0.750000  1
  C  C20  1  0.150921  0.442795  0.250000  1
  C  C21  1  0.708128  0.150921  0.750000  1
