# generated using pymatgen
data_Nd4Al18Co2IrPt3
_symmetry_space_group_name_H-M   'P 1'
_cell_length_a   7.60484720
_cell_length_b   7.60484870
_cell_length_c   9.54236878
_cell_angle_alpha   90.17706212
_cell_angle_beta   90.17707036
_cell_angle_gamma   119.57969763
_symmetry_Int_Tables_number   1
_chemical_formula_structural   Nd4Al18Co2IrPt3
_chemical_formula_sum   'Nd4 Al18 Co2 Ir1 Pt3'
_cell_volume   479.93620675
_cell_formula_units_Z   1
loop_
 _symmetry_equiv_pos_site_id
 _symmetry_equiv_pos_as_xyz
  1  'x, y, z'
loop_
 _atom_site_type_symbol
 _atom_site_label
 _atom_site_symmetry_multiplicity
 _atom_site_fract_x
 _atom_site_fract_y
 _atom_site_fract_z
 _atom_site_occupancy
  Nd  Nd0  1  0.995867  0.669275  0.250101  1
  Nd  Nd1  1  0.006218  0.332534  0.750269  1
  Nd  Nd2  1  0.667466  0.993782  0.249731  1
  Nd  Nd3  1  0.330725  0.004133  0.749899  1
  Al  Al4  1  0.124751  0.125824  0.247006  1
  Al  Al5  1  0.874176  0.875249  0.752994  1
  Al  Al6  1  0.000960  0.325577  0.072983  1
  Al  Al7  1  0.997382  0.674156  0.926555  1
  Al  Al8  1  0.990811  0.661064  0.571722  1
  Al  Al9  1  0.338936  0.009189  0.428278  1
  Al  Al10  1  0.991570  0.330507  0.428830  1
  Al  Al11  1  0.669493  0.008430  0.571170  1
  Al  Al12  1  0.674423  0.999040  0.927017  1
  Al  Al13  1  0.325844  0.002618  0.073445  1
  Al  Al14  1  0.338005  0.330776  0.547456  1
  Al  Al15  1  0.669224  0.661995  0.452544  1
  Al  Al16  1  0.673488  0.673151  0.050352  1
  Al  Al17  1  0.326849  0.326512  0.949648  1
  Al  Al18  1  0.339982  0.541670  0.250380  1
  Al  Al19  1  0.659844  0.451154  0.742115  1
  Al  Al20  1  0.548846  0.340156  0.257885  1
  Al  Al21  1  0.458330  0.660018  0.749620  1
  Co  Co22  1  0.669660  0.330340  0.500000  1
  Co  Co23  1  0.999829  0.000171  0.000000  1
  Ir  Ir24  1  0.999756  0.000244  0.500000  1
  Pt  Pt25  1  0.671011  0.328989  0.000000  1
  Pt  Pt26  1  0.328243  0.671757  0.000000  1
  Pt  Pt27  1  0.328307  0.671693  0.500000  1
