# generated using pymatgen
data_TbErReB6
_symmetry_space_group_name_H-M   'P 1'
_cell_length_a   3.67633700
_cell_length_b   9.16199800
_cell_length_c   11.55661300
_cell_angle_alpha   90.00000000
_cell_angle_beta   90.00000000
_cell_angle_gamma   90.00000000
_symmetry_Int_Tables_number   1
_chemical_formula_structural   TbErReB6
_chemical_formula_sum   'Tb4 Er4 Re4 B24'
_cell_volume   389.25668337
_cell_formula_units_Z   4
loop_
 _symmetry_equiv_pos_site_id
 _symmetry_equiv_pos_as_xyz
  1  'x, y, z'
loop_
 _atom_site_type_symbol
 _atom_site_label
 _atom_site_symmetry_multiplicity
 _atom_site_fract_x
 _atom_site_fract_y
 _atom_site_fract_z
 _atom_site_occupancy
  Tb  Tb0  1  0.000000  0.323492  0.413833  1
  Tb  Tb1  1  0.000000  0.676508  0.586167  1
  Tb  Tb2  1  0.000000  0.823492  0.086167  1
  Tb  Tb3  1  0.000000  0.176508  0.913833  1
  Er  Er4  1  0.000000  0.943664  0.370368  1
  Er  Er5  1  0.000000  0.056336  0.629632  1
  Er  Er6  1  0.000000  0.443664  0.129632  1
  Er  Er7  1  0.000000  0.556336  0.870368  1
  Re  Re8  1  0.000000  0.639294  0.320361  1
  Re  Re9  1  0.000000  0.360706  0.679639  1
  Re  Re10  1  0.000000  0.139294  0.179639  1
  Re  Re11  1  0.000000  0.860706  0.820361  1
  B  B12  1  0.500000  0.553800  0.432555  1
  B  B13  1  0.500000  0.446200  0.567445  1
  B  B14  1  0.500000  0.053800  0.067445  1
  B  B15  1  0.500000  0.946200  0.932555  1
  B  B16  1  0.500000  0.749735  0.418467  1
  B  B17  1  0.500000  0.250265  0.581533  1
  B  B18  1  0.500000  0.249735  0.081533  1
  B  B19  1  0.500000  0.750265  0.918467  1
  B  B20  1  0.500000  0.792593  0.266040  1
  B  B21  1  0.500000  0.207407  0.733960  1
  B  B22  1  0.500000  0.292593  0.233960  1
  B  B23  1  0.500000  0.707407  0.766040  1
  B  B24  1  0.500000  0.630776  0.185816  1
  B  B25  1  0.500000  0.369224  0.814184  1
  B  B26  1  0.500000  0.130776  0.314184  1
  B  B27  1  0.500000  0.869224  0.685816  1
  B  B28  1  0.500000  0.982686  0.212356  1
  B  B29  1  0.500000  0.017314  0.787644  1
  B  B30  1  0.500000  0.482686  0.287644  1
  B  B31  1  0.500000  0.517314  0.712356  1
  B  B32  1  0.500000  0.599458  0.027814  1
  B  B33  1  0.500000  0.400542  0.972186  1
  B  B34  1  0.500000  0.099458  0.472186  1
  B  B35  1  0.500000  0.900542  0.527814  1
