# generated using pymatgen
data_HoFeSb12Os2Ru
_symmetry_space_group_name_H-M   'P 1'
_cell_length_a   8.09167898
_cell_length_b   8.09403320
_cell_length_c   8.10405310
_cell_angle_alpha   109.42306758
_cell_angle_beta   109.40538357
_cell_angle_gamma   109.36344548
_symmetry_Int_Tables_number   1
_chemical_formula_structural   HoFeSb12Os2Ru
_chemical_formula_sum   'Ho1 Fe1 Sb12 Os2 Ru1'
_cell_volume   409.70084990
_cell_formula_units_Z   1
loop_
 _symmetry_equiv_pos_site_id
 _symmetry_equiv_pos_as_xyz
  1  'x, y, z'
loop_
 _atom_site_type_symbol
 _atom_site_label
 _atom_site_symmetry_multiplicity
 _atom_site_fract_x
 _atom_site_fract_y
 _atom_site_fract_z
 _atom_site_occupancy
  Ho  Ho0  1  0.000000  0.000000  0.000000  1
  Fe  Fe1  1  0.500000  0.500000  0.500000  1
  Sb  Sb2  1  0.163440  0.493649  0.339602  1
  Sb  Sb3  1  0.506316  0.660080  0.836241  1
  Sb  Sb4  1  0.338358  0.843633  0.182679  1
  Sb  Sb5  1  0.818157  0.663028  0.157610  1
  Sb  Sb6  1  0.661096  0.836554  0.506342  1
  Sb  Sb7  1  0.181843  0.336972  0.842390  1
  Sb  Sb8  1  0.661642  0.156367  0.817321  1
  Sb  Sb9  1  0.338904  0.163446  0.493658  1
  Sb  Sb10  1  0.493684  0.339920  0.163759  1
  Sb  Sb11  1  0.836560  0.506351  0.660398  1
  Sb  Sb12  1  0.843964  0.181846  0.338714  1
  Sb  Sb13  1  0.156036  0.818154  0.661286  1
  Os  Os14  1  0.500000  0.000000  0.000000  1
  Os  Os15  1  0.000000  0.500000  0.000000  1
  Ru  Ru16  1  0.000000  0.000000  0.500000  1
