# generated using pymatgen
data_TaNb(RuPt)3
_symmetry_space_group_name_H-M   'P 1'
_cell_length_a   3.93559900
_cell_length_b   4.01440500
_cell_length_c   7.75065800
_cell_angle_alpha   90.00000000
_cell_angle_beta   90.00000000
_cell_angle_gamma   90.00000000
_symmetry_Int_Tables_number   1
_chemical_formula_structural   TaNb(RuPt)3
_chemical_formula_sum   'Ta1 Nb1 Ru3 Pt3'
_cell_volume   122.45333015
_cell_formula_units_Z   1
loop_
 _symmetry_equiv_pos_site_id
 _symmetry_equiv_pos_as_xyz
  1  'x, y, z'
loop_
 _atom_site_type_symbol
 _atom_site_label
 _atom_site_symmetry_multiplicity
 _atom_site_fract_x
 _atom_site_fract_y
 _atom_site_fract_z
 _atom_site_occupancy
  Ta  Ta0  1  0.000000  0.000000  0.756396  1
  Nb  Nb1  1  0.000000  0.000000  0.242963  1
  Ru  Ru2  1  0.000000  0.500000  0.999857  1
  Ru  Ru3  1  0.500000  0.000000  0.500548  1
  Ru  Ru4  1  0.500000  0.000000  0.999814  1
  Pt  Pt5  1  0.500000  0.500000  0.248415  1
  Pt  Pt6  1  0.500000  0.500000  0.751334  1
  Pt  Pt7  1  0.000000  0.500000  0.500674  1
