# generated using pymatgen
data_PrCd2Ir9
_symmetry_space_group_name_H-M   'P 1'
_cell_length_a   8.95572100
_cell_length_b   8.95572100
_cell_length_c   5.15062500
_cell_angle_alpha   90.00000000
_cell_angle_beta   90.00000000
_cell_angle_gamma   90.00000000
_symmetry_Int_Tables_number   1
_chemical_formula_structural   PrCd2Ir9
_chemical_formula_sum   'Pr2 Cd4 Ir18'
_cell_volume   413.10556203
_cell_formula_units_Z   2
loop_
 _symmetry_equiv_pos_site_id
 _symmetry_equiv_pos_as_xyz
  1  'x, y, z'
loop_
 _atom_site_type_symbol
 _atom_site_label
 _atom_site_symmetry_multiplicity
 _atom_site_fract_x
 _atom_site_fract_y
 _atom_site_fract_z
 _atom_site_occupancy
  Pr  Pr0  1  0.500000  0.500000  0.000000  1
  Pr  Pr1  1  0.000000  0.000000  0.000000  1
  Cd  Cd2  1  0.117320  0.617320  0.000000  1
  Cd  Cd3  1  0.882680  0.382680  0.000000  1
  Cd  Cd4  1  0.382680  0.117320  0.000000  1
  Cd  Cd5  1  0.617320  0.882680  0.000000  1
  Ir  Ir6  1  0.318206  0.818206  0.758605  1
  Ir  Ir7  1  0.681794  0.181794  0.758605  1
  Ir  Ir8  1  0.181794  0.318206  0.758605  1
  Ir  Ir9  1  0.818206  0.681794  0.758605  1
  Ir  Ir10  1  0.681794  0.181794  0.241395  1
  Ir  Ir11  1  0.318206  0.818206  0.241395  1
  Ir  Ir12  1  0.818206  0.681794  0.241395  1
  Ir  Ir13  1  0.181794  0.318206  0.241395  1
  Ir  Ir14  1  0.556604  0.704634  0.500000  1
  Ir  Ir15  1  0.443396  0.295366  0.500000  1
  Ir  Ir16  1  0.943396  0.204634  0.500000  1
  Ir  Ir17  1  0.056604  0.795366  0.500000  1
  Ir  Ir18  1  0.704634  0.443396  0.500000  1
  Ir  Ir19  1  0.295366  0.556604  0.500000  1
  Ir  Ir20  1  0.204634  0.056604  0.500000  1
  Ir  Ir21  1  0.795366  0.943396  0.500000  1
  Ir  Ir22  1  0.000000  0.500000  0.500000  1
  Ir  Ir23  1  0.500000  0.000000  0.500000  1
