# generated using pymatgen
data_Tm4ScGeBi2
_symmetry_space_group_name_H-M   'P 1'
_cell_length_a   11.76892300
_cell_length_b   9.04944700
_cell_length_c   7.89559300
_cell_angle_alpha   90.00000000
_cell_angle_beta   90.00000000
_cell_angle_gamma   90.00000000
_symmetry_Int_Tables_number   1
_chemical_formula_structural   Tm4ScGeBi2
_chemical_formula_sum   'Tm16 Sc4 Ge4 Bi8'
_cell_volume   840.89837960
_cell_formula_units_Z   4
loop_
 _symmetry_equiv_pos_site_id
 _symmetry_equiv_pos_as_xyz
  1  'x, y, z'
loop_
 _atom_site_type_symbol
 _atom_site_label
 _atom_site_symmetry_multiplicity
 _atom_site_fract_x
 _atom_site_fract_y
 _atom_site_fract_z
 _atom_site_occupancy
  Tm  Tm0  1  0.062396  0.555763  0.816231  1
  Tm  Tm1  1  0.562396  0.944237  0.683769  1
  Tm  Tm2  1  0.937604  0.055763  0.183769  1
  Tm  Tm3  1  0.437604  0.444237  0.316231  1
  Tm  Tm4  1  0.937604  0.444237  0.183769  1
  Tm  Tm5  1  0.437604  0.055763  0.316231  1
  Tm  Tm6  1  0.062396  0.944237  0.816231  1
  Tm  Tm7  1  0.562396  0.555763  0.683769  1
  Tm  Tm8  1  0.213922  0.750000  0.167956  1
  Tm  Tm9  1  0.713922  0.750000  0.332044  1
  Tm  Tm10  1  0.786078  0.250000  0.832044  1
  Tm  Tm11  1  0.286078  0.250000  0.667956  1
  Tm  Tm12  1  0.291866  0.750000  0.639574  1
  Tm  Tm13  1  0.791866  0.750000  0.860426  1
  Tm  Tm14  1  0.708134  0.250000  0.360426  1
  Tm  Tm15  1  0.208134  0.250000  0.139574  1
  Sc  Sc16  1  0.001601  0.750000  0.461093  1
  Sc  Sc17  1  0.501601  0.750000  0.038907  1
  Sc  Sc18  1  0.998399  0.250000  0.538907  1
  Sc  Sc19  1  0.498399  0.250000  0.961093  1
  Ge  Ge20  1  0.475341  0.750000  0.405607  1
  Ge  Ge21  1  0.975341  0.750000  0.094393  1
  Ge  Ge22  1  0.524659  0.250000  0.594393  1
  Ge  Ge23  1  0.024659  0.250000  0.905607  1
  Bi  Bi24  1  0.330385  0.511317  0.933663  1
  Bi  Bi25  1  0.830385  0.988683  0.566337  1
  Bi  Bi26  1  0.669615  0.011317  0.066337  1
  Bi  Bi27  1  0.169615  0.488683  0.433663  1
  Bi  Bi28  1  0.669615  0.488683  0.066337  1
  Bi  Bi29  1  0.169615  0.011317  0.433663  1
  Bi  Bi30  1  0.330385  0.988683  0.933663  1
  Bi  Bi31  1  0.830385  0.511317  0.566337  1
