# generated using pymatgen
data_Dy5Ho(GaNi3)4
_symmetry_space_group_name_H-M   'P 1'
_cell_length_a   7.70786412
_cell_length_b   7.70778965
_cell_length_c   7.70779011
_cell_angle_alpha   109.45187027
_cell_angle_beta   109.48069661
_cell_angle_gamma   109.48069452
_symmetry_Int_Tables_number   1
_chemical_formula_structural   Dy5Ho(GaNi3)4
_chemical_formula_sum   'Dy5 Ho1 Ga4 Ni12'
_cell_volume   352.51208666
_cell_formula_units_Z   1
loop_
 _symmetry_equiv_pos_site_id
 _symmetry_equiv_pos_as_xyz
  1  'x, y, z'
loop_
 _atom_site_type_symbol
 _atom_site_label
 _atom_site_symmetry_multiplicity
 _atom_site_fract_x
 _atom_site_fract_y
 _atom_site_fract_z
 _atom_site_occupancy
  Dy  Dy0  1  0.709580  0.709496  0.999914  1
  Dy  Dy1  1  0.290420  0.999916  0.290333  1
  Dy  Dy2  1  0.000000  0.290638  0.290638  1
  Dy  Dy3  1  0.290420  0.290333  0.999916  1
  Dy  Dy4  1  0.709580  0.999914  0.709496  1
  Ho  Ho5  1  0.000000  0.709035  0.709035  1
  Ga  Ga6  1  0.000000  0.999917  0.500087  1
  Ga  Ga7  1  0.000000  0.500087  0.999917  1
  Ga  Ga8  1  0.499827  0.999913  0.999913  1
  Ga  Ga9  1  0.500173  0.500086  0.500086  1
  Ni  Ni10  1  0.338323  0.338310  0.676644  1
  Ni  Ni11  1  0.661677  0.999987  0.338320  1
  Ni  Ni12  1  0.000000  0.661734  0.338481  1
  Ni  Ni13  1  0.661677  0.338320  0.999987  1
  Ni  Ni14  1  0.338323  0.676644  0.338310  1
  Ni  Ni15  1  0.000000  0.338481  0.661734  1
  Ni  Ni16  1  0.338101  0.661745  0.999861  1
  Ni  Ni17  1  0.338101  0.999861  0.661745  1
  Ni  Ni18  1  0.676768  0.338475  0.338475  1
  Ni  Ni19  1  0.661899  0.661759  0.323643  1
  Ni  Ni20  1  0.661899  0.323643  0.661759  1
  Ni  Ni21  1  0.323232  0.661708  0.661708  1
