# generated using pymatgen
data_HoTm9In8IrPt3
_symmetry_space_group_name_H-M   'P 1'
_cell_length_a   3.60504300
_cell_length_b   8.05506505
_cell_length_c   18.06272381
_cell_angle_alpha   90.02337764
_cell_angle_beta   90.00000000
_cell_angle_gamma   90.00000000
_symmetry_Int_Tables_number   1
_chemical_formula_structural   HoTm9In8IrPt3
_chemical_formula_sum   'Ho1 Tm9 In8 Ir1 Pt3'
_cell_volume   524.52078962
_cell_formula_units_Z   1
loop_
 _symmetry_equiv_pos_site_id
 _symmetry_equiv_pos_as_xyz
  1  'x, y, z'
loop_
 _atom_site_type_symbol
 _atom_site_label
 _atom_site_symmetry_multiplicity
 _atom_site_fract_x
 _atom_site_fract_y
 _atom_site_fract_z
 _atom_site_occupancy
  Ho  Ho0  1  0.000000  0.501077  0.499292  1
  Tm  Tm1  1  0.000000  0.114511  0.412355  1
  Tm  Tm2  1  0.000000  0.884292  0.585529  1
  Tm  Tm3  1  0.000000  0.384151  0.914749  1
  Tm  Tm4  1  0.000000  0.615909  0.086940  1
  Tm  Tm5  1  0.000000  0.235782  0.222553  1
  Tm  Tm6  1  0.000000  0.758165  0.779082  1
  Tm  Tm7  1  0.000000  0.257617  0.721516  1
  Tm  Tm8  1  0.000000  0.749631  0.278118  1
  Tm  Tm9  1  0.000000  0.000097  0.000174  1
  In  In10  1  0.500000  0.423783  0.351103  1
  In  In11  1  0.500000  0.576872  0.648520  1
  In  In12  1  0.500000  0.076785  0.852218  1
  In  In13  1  0.500000  0.926970  0.147955  1
  In  In14  1  0.500000  0.291289  0.067161  1
  In  In15  1  0.500000  0.708420  0.933838  1
  In  In16  1  0.500000  0.208579  0.566651  1
  In  In17  1  0.500000  0.792780  0.431467  1
  Ir  Ir18  1  0.500000  0.019995  0.303938  1
  Pt  Pt19  1  0.500000  0.976350  0.696254  1
  Pt  Pt20  1  0.500000  0.476547  0.804228  1
  Pt  Pt21  1  0.500000  0.520398  0.196356  1
