# generated using pymatgen
data_ScUCrB6
_symmetry_space_group_name_H-M   'P 1'
_cell_length_a   3.49438400
_cell_length_b   8.91956200
_cell_length_c   11.26039000
_cell_angle_alpha   90.00000000
_cell_angle_beta   90.00000000
_cell_angle_gamma   90.00000000
_symmetry_Int_Tables_number   1
_chemical_formula_structural   ScUCrB6
_chemical_formula_sum   'Sc4 U4 Cr4 B24'
_cell_volume   350.96805524
_cell_formula_units_Z   4
loop_
 _symmetry_equiv_pos_site_id
 _symmetry_equiv_pos_as_xyz
  1  'x, y, z'
loop_
 _atom_site_type_symbol
 _atom_site_label
 _atom_site_symmetry_multiplicity
 _atom_site_fract_x
 _atom_site_fract_y
 _atom_site_fract_z
 _atom_site_occupancy
  Sc  Sc0  1  0.000000  0.444560  0.127735  1
  Sc  Sc1  1  0.000000  0.555440  0.872265  1
  Sc  Sc2  1  0.000000  0.944560  0.372265  1
  Sc  Sc3  1  0.000000  0.055440  0.627735  1
  U  U4  1  0.000000  0.822374  0.085676  1
  U  U5  1  0.000000  0.177626  0.914324  1
  U  U6  1  0.000000  0.322374  0.414324  1
  U  U7  1  0.000000  0.677626  0.585676  1
  Cr  Cr8  1  0.000000  0.140095  0.180074  1
  Cr  Cr9  1  0.000000  0.859905  0.819926  1
  Cr  Cr10  1  0.000000  0.640095  0.319926  1
  Cr  Cr11  1  0.000000  0.359905  0.680074  1
  B  B12  1  0.500000  0.053868  0.066898  1
  B  B13  1  0.500000  0.946132  0.933102  1
  B  B14  1  0.500000  0.553868  0.433102  1
  B  B15  1  0.500000  0.446132  0.566898  1
  B  B16  1  0.500000  0.251842  0.081021  1
  B  B17  1  0.500000  0.748158  0.918979  1
  B  B18  1  0.500000  0.751842  0.418979  1
  B  B19  1  0.500000  0.248158  0.581021  1
  B  B20  1  0.500000  0.294268  0.235344  1
  B  B21  1  0.500000  0.705732  0.764656  1
  B  B22  1  0.500000  0.794268  0.264656  1
  B  B23  1  0.500000  0.205732  0.735344  1
  B  B24  1  0.500000  0.131136  0.316738  1
  B  B25  1  0.500000  0.868864  0.683262  1
  B  B26  1  0.500000  0.631136  0.183262  1
  B  B27  1  0.500000  0.368864  0.816738  1
  B  B28  1  0.500000  0.482046  0.286595  1
  B  B29  1  0.500000  0.517954  0.713405  1
  B  B30  1  0.500000  0.982046  0.213405  1
  B  B31  1  0.500000  0.017954  0.786595  1
  B  B32  1  0.500000  0.101818  0.472274  1
  B  B33  1  0.500000  0.898182  0.527726  1
  B  B34  1  0.500000  0.601818  0.027726  1
  B  B35  1  0.500000  0.398182  0.972274  1
