# generated using pymatgen
data_YbSm2Er(B6Os)2
_symmetry_space_group_name_H-M   'P 1'
_cell_length_a   3.67949600
_cell_length_b   9.15899237
_cell_length_c   11.57264173
_cell_angle_alpha   89.93735665
_cell_angle_beta   90.00000000
_cell_angle_gamma   90.00000000
_symmetry_Int_Tables_number   1
_chemical_formula_structural   YbSm2Er(B6Os)2
_chemical_formula_sum   'Yb2 Sm4 Er2 B24 Os4'
_cell_volume   390.00329925
_cell_formula_units_Z   2
loop_
 _symmetry_equiv_pos_site_id
 _symmetry_equiv_pos_as_xyz
  1  'x, y, z'
loop_
 _atom_site_type_symbol
 _atom_site_label
 _atom_site_symmetry_multiplicity
 _atom_site_fract_x
 _atom_site_fract_y
 _atom_site_fract_z
 _atom_site_occupancy
  Yb  Yb0  1  0.000000  0.942376  0.370197  1
  Yb  Yb1  1  0.000000  0.057624  0.629803  1
  Sm  Sm2  1  0.000000  0.320697  0.414679  1
  Sm  Sm3  1  0.000000  0.679303  0.585321  1
  Sm  Sm4  1  0.000000  0.822826  0.086476  1
  Sm  Sm5  1  0.000000  0.177174  0.913524  1
  Er  Er6  1  0.000000  0.443126  0.128643  1
  Er  Er7  1  0.000000  0.556874  0.871357  1
  B  B8  1  0.500000  0.555277  0.431377  1
  B  B9  1  0.500000  0.444723  0.568623  1
  B  B10  1  0.500000  0.054984  0.069079  1
  B  B11  1  0.500000  0.945016  0.930921  1
  B  B12  1  0.500000  0.750093  0.416865  1
  B  B13  1  0.500000  0.249907  0.583135  1
  B  B14  1  0.500000  0.249442  0.082334  1
  B  B15  1  0.500000  0.750558  0.917666  1
  B  B16  1  0.500000  0.790645  0.266606  1
  B  B17  1  0.500000  0.209355  0.733394  1
  B  B18  1  0.500000  0.289847  0.233837  1
  B  B19  1  0.500000  0.710153  0.766163  1
  B  B20  1  0.500000  0.630105  0.185990  1
  B  B21  1  0.500000  0.369895  0.814010  1
  B  B22  1  0.500000  0.128750  0.314497  1
  B  B23  1  0.500000  0.871250  0.685503  1
  B  B24  1  0.500000  0.984112  0.213685  1
  B  B25  1  0.500000  0.015888  0.786315  1
  B  B26  1  0.500000  0.483398  0.286952  1
  B  B27  1  0.500000  0.516602  0.713048  1
  B  B28  1  0.500000  0.602072  0.028214  1
  B  B29  1  0.500000  0.397928  0.971786  1
  B  B30  1  0.500000  0.096942  0.473132  1
  B  B31  1  0.500000  0.903058  0.526868  1
  Os  Os32  1  0.000000  0.637799  0.319733  1
  Os  Os33  1  0.000000  0.362201  0.680267  1
  Os  Os34  1  0.000000  0.138949  0.179514  1
  Os  Os35  1  0.000000  0.861051  0.820486  1
