# generated using pymatgen
data_InSb12(OsPd)2
_symmetry_space_group_name_H-M   'P 1'
_cell_length_a   8.20902470
_cell_length_b   8.21801968
_cell_length_c   8.21801924
_cell_angle_alpha   109.65672782
_cell_angle_beta   109.36372604
_cell_angle_gamma   109.43754812
_symmetry_Int_Tables_number   1
_chemical_formula_structural   InSb12(OsPd)2
_chemical_formula_sum   'In1 Sb12 Os2 Pd2'
_cell_volume   426.54397922
_cell_formula_units_Z   1
loop_
 _symmetry_equiv_pos_site_id
 _symmetry_equiv_pos_as_xyz
  1  'x, y, z'
loop_
 _atom_site_type_symbol
 _atom_site_label
 _atom_site_symmetry_multiplicity
 _atom_site_fract_x
 _atom_site_fract_y
 _atom_site_fract_z
 _atom_site_occupancy
  In  In0  1  0.000000  0.000000  0.000000  1
  Sb  Sb1  1  0.848921  0.663106  0.504482  1
  Sb  Sb2  1  0.151079  0.336894  0.495518  1
  Sb  Sb3  1  0.151079  0.655561  0.814185  1
  Sb  Sb4  1  0.848921  0.344439  0.185815  1
  Sb  Sb5  1  0.663702  0.505137  0.849836  1
  Sb  Sb6  1  0.336298  0.494863  0.150164  1
  Sb  Sb7  1  0.663702  0.813866  0.158566  1
  Sb  Sb8  1  0.336298  0.186134  0.841434  1
  Sb  Sb9  1  0.501712  0.847472  0.654241  1
  Sb  Sb10  1  0.498288  0.152528  0.345759  1
  Sb  Sb11  1  0.180298  0.844803  0.335494  1
  Sb  Sb12  1  0.819702  0.155197  0.664506  1
  Os  Os13  1  0.000000  0.500000  0.000000  1
  Os  Os14  1  0.000000  0.000000  0.500000  1
  Pd  Pd15  1  0.500000  0.500000  0.500000  1
  Pd  Pd16  1  0.500000  0.000000  0.000000  1
