# generated using pymatgen
data_DySc(Be12Ni)2
_symmetry_space_group_name_H-M   'P 1'
_cell_length_a   7.24332429
_cell_length_b   7.30581488
_cell_length_c   7.21733300
_cell_angle_alpha   59.83011778
_cell_angle_beta   59.57070012
_cell_angle_gamma   59.47827309
_symmetry_Int_Tables_number   1
_chemical_formula_structural   DySc(Be12Ni)2
_chemical_formula_sum   'Dy1 Sc1 Be24 Ni2'
_cell_volume   267.76641485
_cell_formula_units_Z   1
loop_
 _symmetry_equiv_pos_site_id
 _symmetry_equiv_pos_as_xyz
  1  'x, y, z'
loop_
 _atom_site_type_symbol
 _atom_site_label
 _atom_site_symmetry_multiplicity
 _atom_site_fract_x
 _atom_site_fract_y
 _atom_site_fract_z
 _atom_site_occupancy
  Dy  Dy0  1  0.249039  0.250961  0.249039  1
  Sc  Sc1  1  0.751859  0.748141  0.751859  1
  Be  Be2  1  0.500057  0.499943  0.500057  1
  Be  Be3  1  0.999896  0.000104  0.999896  1
  Be  Be4  1  0.569109  0.787427  0.432072  1
  Be  Be5  1  0.432072  0.211392  0.569109  1
  Be  Be6  1  0.295468  0.934635  0.706179  1
  Be  Be7  1  0.706179  0.063718  0.295468  1
  Be  Be8  1  0.931685  0.285754  0.066967  1
  Be  Be9  1  0.066967  0.715594  0.931685  1
  Be  Be10  1  0.204741  0.797632  0.561359  1
  Be  Be11  1  0.793923  0.200714  0.440236  1
  Be  Be12  1  0.440236  0.565128  0.793923  1
  Be  Be13  1  0.561359  0.436268  0.204741  1
  Be  Be14  1  0.711434  0.284540  0.934954  1
  Be  Be15  1  0.290107  0.716179  0.063821  1
  Be  Be16  1  0.063821  0.929893  0.290107  1
  Be  Be17  1  0.934954  0.069073  0.711434  1
  Be  Be18  1  0.562273  0.206227  0.794867  1
  Be  Be19  1  0.439094  0.792641  0.203473  1
  Be  Be20  1  0.794867  0.436630  0.562273  1
  Be  Be21  1  0.203473  0.564792  0.439094  1
  Be  Be22  1  0.935488  0.710955  0.290822  1
  Be  Be23  1  0.063087  0.290328  0.710920  1
  Be  Be24  1  0.290822  0.062734  0.935488  1
  Be  Be25  1  0.710920  0.935665  0.063087  1
  Ni  Ni26  1  0.799534  0.559917  0.197537  1
  Ni  Ni27  1  0.197537  0.443012  0.799534  1
