# generated using pymatgen
data_La20Ge8Os3Rh
_symmetry_space_group_name_H-M   'P 1'
_cell_length_a   8.17624502
_cell_length_b   9.03190000
_cell_length_c   12.58658943
_cell_angle_alpha   90.00000000
_cell_angle_beta   89.83925198
_cell_angle_gamma   90.00000000
_symmetry_Int_Tables_number   1
_chemical_formula_structural   La20Ge8Os3Rh
_chemical_formula_sum   'La20 Ge8 Os3 Rh1'
_cell_volume   929.47855577
_cell_formula_units_Z   1
loop_
 _symmetry_equiv_pos_site_id
 _symmetry_equiv_pos_as_xyz
  1  'x, y, z'
loop_
 _atom_site_type_symbol
 _atom_site_label
 _atom_site_symmetry_multiplicity
 _atom_site_fract_x
 _atom_site_fract_y
 _atom_site_fract_z
 _atom_site_occupancy
  La  La0  1  0.678626  0.467625  0.072472  1
  La  La1  1  0.179643  0.531700  0.426251  1
  La  La2  1  0.321863  0.967096  0.927407  1
  La  La3  1  0.819661  0.034444  0.573429  1
  La  La4  1  0.321863  0.532904  0.927407  1
  La  La5  1  0.819661  0.465556  0.573429  1
  La  La6  1  0.678626  0.032375  0.072472  1
  La  La7  1  0.179643  0.968300  0.426251  1
  La  La8  1  0.954357  0.750000  0.999736  1
  La  La9  1  0.455193  0.250000  0.500176  1
  La  La10  1  0.045466  0.250000  0.999762  1
  La  La11  1  0.543723  0.750000  0.500625  1
  La  La12  1  0.356889  0.750000  0.202900  1
  La  La13  1  0.857806  0.250000  0.297463  1
  La  La14  1  0.641878  0.250000  0.797377  1
  La  La15  1  0.145963  0.750000  0.704760  1
  La  La16  1  0.832189  0.750000  0.283502  1
  La  La17  1  0.332934  0.250000  0.213909  1
  La  La18  1  0.166449  0.250000  0.713942  1
  La  La19  1  0.666116  0.750000  0.786665  1
  Ge  Ge20  1  0.562209  0.495480  0.329333  1
  Ge  Ge21  1  0.061771  0.505095  0.171110  1
  Ge  Ge22  1  0.437939  0.994830  0.670874  1
  Ge  Ge23  1  0.938184  0.004765  0.828636  1
  Ge  Ge24  1  0.437939  0.505170  0.670874  1
  Ge  Ge25  1  0.938184  0.495235  0.828636  1
  Ge  Ge26  1  0.562209  0.004520  0.329333  1
  Ge  Ge27  1  0.061771  0.994905  0.171110  1
  Os  Os28  1  0.580989  0.750000  0.017215  1
  Os  Os29  1  0.079525  0.250000  0.483002  1
  Os  Os30  1  0.419520  0.250000  0.982759  1
  Rh  Rh31  1  0.921212  0.750000  0.517185  1
