# generated using pymatgen
data_Ho5TmCo4(P6Ir7)2
_symmetry_space_group_name_H-M   'P 1'
_cell_length_a   3.87701300
_cell_length_b   11.02314549
_cell_length_c   12.69875757
_cell_angle_alpha   90.03428931
_cell_angle_beta   90.00000000
_cell_angle_gamma   90.00000000
_symmetry_Int_Tables_number   1
_chemical_formula_structural   Ho5TmCo4(P6Ir7)2
_chemical_formula_sum   'Ho5 Tm1 Co4 P12 Ir14'
_cell_volume   542.70516059
_cell_formula_units_Z   1
loop_
 _symmetry_equiv_pos_site_id
 _symmetry_equiv_pos_as_xyz
  1  'x, y, z'
loop_
 _atom_site_type_symbol
 _atom_site_label
 _atom_site_symmetry_multiplicity
 _atom_site_fract_x
 _atom_site_fract_y
 _atom_site_fract_z
 _atom_site_occupancy
  Ho  Ho0  1  0.000000  0.499788  0.522863  1
  Ho  Ho1  1  0.500000  0.999718  0.477256  1
  Ho  Ho2  1  0.500000  0.179016  0.198963  1
  Ho  Ho3  1  0.000000  0.685208  0.801202  1
  Ho  Ho4  1  0.000000  0.314925  0.801414  1
  Tm  Tm5  1  0.500000  0.821582  0.199081  1
  Co  Co6  1  0.000000  0.500395  0.987576  1
  Co  Co7  1  0.500000  0.999758  0.016442  1
  Co  Co8  1  0.000000  0.158971  0.003364  1
  Co  Co9  1  0.000000  0.841046  0.003518  1
  P  P10  1  0.500000  0.316124  0.620461  1
  P  P11  1  0.500000  0.683506  0.619961  1
  P  P12  1  0.000000  0.182932  0.379513  1
  P  P13  1  0.000000  0.816530  0.378946  1
  P  P14  1  0.500000  0.500231  0.883603  1
  P  P15  1  0.000000  0.999716  0.111605  1
  P  P16  1  0.500000  0.851380  0.899946  1
  P  P17  1  0.500000  0.148803  0.900418  1
  P  P18  1  0.000000  0.662152  0.101884  1
  P  P19  1  0.000000  0.339731  0.102205  1
  P  P20  1  0.500000  0.499531  0.354592  1
  P  P21  1  0.000000  0.999775  0.645478  1
  Ir  Ir22  1  0.500000  0.294143  0.428881  1
  Ir  Ir23  1  0.500000  0.704873  0.428170  1
  Ir  Ir24  1  0.000000  0.203511  0.570451  1
  Ir  Ir25  1  0.000000  0.795883  0.569950  1
  Ir  Ir26  1  0.500000  0.871147  0.716044  1
  Ir  Ir27  1  0.500000  0.128632  0.716629  1
  Ir  Ir28  1  0.000000  0.630974  0.282285  1
  Ir  Ir29  1  0.000000  0.370601  0.283839  1
  Ir  Ir30  1  0.500000  0.332801  0.996110  1
  Ir  Ir31  1  0.500000  0.667729  0.996520  1
  Ir  Ir32  1  0.500000  0.499815  0.171217  1
  Ir  Ir33  1  0.000000  0.999585  0.830975  1
  Ir  Ir34  1  0.500000  0.500010  0.704907  1
  Ir  Ir35  1  0.000000  0.999479  0.293735  1
