# generated using pymatgen
data_Th10NiSn6P
_symmetry_space_group_name_H-M   'P 1'
_cell_length_a   6.55517300
_cell_length_b   9.49839134
_cell_length_c   9.49839200
_cell_angle_alpha   120.00000231
_cell_angle_beta   90.00000000
_cell_angle_gamma   90.00000000
_symmetry_Int_Tables_number   1
_chemical_formula_structural   Th10NiSn6P
_chemical_formula_sum   'Th10 Ni1 Sn6 P1'
_cell_volume   512.17093242
_cell_formula_units_Z   1
loop_
 _symmetry_equiv_pos_site_id
 _symmetry_equiv_pos_as_xyz
  1  'x, y, z'
loop_
 _atom_site_type_symbol
 _atom_site_label
 _atom_site_symmetry_multiplicity
 _atom_site_fract_x
 _atom_site_fract_y
 _atom_site_fract_z
 _atom_site_occupancy
  Th  Th0  1  0.748486  0.749202  0.749202  1
  Th  Th1  1  0.251514  0.250798  0.250798  1
  Th  Th2  1  0.748486  0.000000  0.250798  1
  Th  Th3  1  0.251514  0.000000  0.749202  1
  Th  Th4  1  0.748486  0.250798  0.000000  1
  Th  Th5  1  0.251514  0.749202  0.000000  1
  Th  Th6  1  0.000000  0.666667  0.333333  1
  Th  Th7  1  0.000000  0.333333  0.666667  1
  Th  Th8  1  0.500000  0.333333  0.666667  1
  Th  Th9  1  0.500000  0.666667  0.333333  1
  Ni  Ni10  1  0.500000  0.000000  0.000000  1
  Sn  Sn11  1  0.748767  0.389987  0.389987  1
  Sn  Sn12  1  0.251233  0.610013  0.610013  1
  Sn  Sn13  1  0.748767  0.000000  0.610013  1
  Sn  Sn14  1  0.251233  0.000000  0.389987  1
  Sn  Sn15  1  0.748767  0.610013  0.000000  1
  Sn  Sn16  1  0.251233  0.389987  0.000000  1
  P  P17  1  0.000000  0.000000  0.000000  1
