# generated using pymatgen
data_Ho3ThGa12Ru
_symmetry_space_group_name_H-M   'P 1'
_cell_length_a   7.54254951
_cell_length_b   7.54254968
_cell_length_c   7.45192700
_cell_angle_alpha   109.22801061
_cell_angle_beta   109.22801106
_cell_angle_gamma   109.71333091
_symmetry_Int_Tables_number   1
_chemical_formula_structural   Ho3ThGa12Ru
_chemical_formula_sum   'Ho3 Th1 Ga12 Ru1'
_cell_volume   327.32396934
_cell_formula_units_Z   1
loop_
 _symmetry_equiv_pos_site_id
 _symmetry_equiv_pos_as_xyz
  1  'x, y, z'
loop_
 _atom_site_type_symbol
 _atom_site_label
 _atom_site_symmetry_multiplicity
 _atom_site_fract_x
 _atom_site_fract_y
 _atom_site_fract_z
 _atom_site_occupancy
  Ho  Ho0  1  0.000000  0.500000  0.000000  1
  Ho  Ho1  1  0.500000  0.000000  0.000000  1
  Ho  Ho2  1  0.500000  0.500000  0.500000  1
  Th  Th3  1  0.000000  0.000000  0.500000  1
  Ga  Ga4  1  0.748560  0.251440  0.500000  1
  Ga  Ga5  1  0.748560  0.497121  0.248560  1
  Ga  Ga6  1  0.502879  0.251440  0.751440  1
  Ga  Ga7  1  0.251440  0.502879  0.751440  1
  Ga  Ga8  1  0.251440  0.748560  0.500000  1
  Ga  Ga9  1  0.497121  0.748560  0.248560  1
  Ga  Ga10  1  0.708320  0.708320  0.997719  1
  Ga  Ga11  1  0.291680  0.000000  0.289399  1
  Ga  Ga12  1  0.000000  0.291680  0.289399  1
  Ga  Ga13  1  0.291680  0.291680  0.002281  1
  Ga  Ga14  1  0.708320  0.000000  0.710601  1
  Ga  Ga15  1  0.000000  0.708320  0.710601  1
  Ru  Ru16  1  0.000000  0.000000  0.000000  1
