# generated using pymatgen
data_Ca5Ga6As6Rh19
_symmetry_space_group_name_H-M   'P 1'
_cell_length_a   13.15254100
_cell_length_b   13.15254057
_cell_length_c   4.06288700
_cell_angle_alpha   90.00000000
_cell_angle_beta   90.00000000
_cell_angle_gamma   119.99999354
_symmetry_Int_Tables_number   1
_chemical_formula_structural   Ca5Ga6As6Rh19
_chemical_formula_sum   'Ca5 Ga6 As6 Rh19'
_cell_volume   608.67395378
_cell_formula_units_Z   1
loop_
 _symmetry_equiv_pos_site_id
 _symmetry_equiv_pos_as_xyz
  1  'x, y, z'
loop_
 _atom_site_type_symbol
 _atom_site_label
 _atom_site_symmetry_multiplicity
 _atom_site_fract_x
 _atom_site_fract_y
 _atom_site_fract_z
 _atom_site_occupancy
  Ca  Ca0  1  0.000000  0.184895  0.500000  1
  Ca  Ca1  1  0.815105  0.815105  0.500000  1
  Ca  Ca2  1  0.184895  0.000000  0.500000  1
  Ca  Ca3  1  0.666667  0.333333  0.000000  1
  Ca  Ca4  1  0.333333  0.666667  0.000000  1
  Ga  Ga5  1  0.480782  0.320835  0.500000  1
  Ga  Ga6  1  0.679165  0.159947  0.500000  1
  Ga  Ga7  1  0.840053  0.519218  0.500000  1
  Ga  Ga8  1  0.519218  0.840053  0.500000  1
  Ga  Ga9  1  0.159947  0.679165  0.500000  1
  Ga  Ga10  1  0.320835  0.480782  0.500000  1
  As  As11  1  0.819104  0.000000  0.000000  1
  As  As12  1  0.180896  0.180896  0.000000  1
  As  As13  1  0.000000  0.819104  0.000000  1
  As  As14  1  0.371469  0.000000  0.000000  1
  As  As15  1  0.000000  0.371469  0.000000  1
  As  As16  1  0.628531  0.628531  0.000000  1
  Rh  Rh17  1  0.808789  0.182341  0.000000  1
  Rh  Rh18  1  0.373553  0.191211  0.000000  1
  Rh  Rh19  1  0.646920  0.523360  0.500000  1
  Rh  Rh20  1  0.876440  0.353080  0.500000  1
  Rh  Rh21  1  0.353080  0.876440  0.500000  1
  Rh  Rh22  1  0.523360  0.646920  0.500000  1
  Rh  Rh23  1  0.123560  0.476640  0.500000  1
  Rh  Rh24  1  0.817659  0.626447  0.000000  1
  Rh  Rh25  1  0.626447  0.817659  0.000000  1
  Rh  Rh26  1  0.182341  0.808789  0.000000  1
  Rh  Rh27  1  0.191211  0.373553  0.000000  1
  Rh  Rh28  1  0.000000  0.722995  0.500000  1
  Rh  Rh29  1  0.277005  0.277005  0.500000  1
  Rh  Rh30  1  0.722995  0.000000  0.500000  1
  Rh  Rh31  1  0.000000  0.555213  0.000000  1
  Rh  Rh32  1  0.444787  0.444787  0.000000  1
  Rh  Rh33  1  0.555213  0.000000  0.000000  1
  Rh  Rh34  1  0.000000  0.000000  0.000000  1
  Rh  Rh35  1  0.476640  0.123560  0.500000  1
