# generated using pymatgen
data_Dy3Ho5Cu3Si12Rh
_symmetry_space_group_name_H-M   'P 1'
_cell_length_a   8.03067802
_cell_length_b   8.03072890
_cell_length_c   8.07962801
_cell_angle_alpha   90.00428680
_cell_angle_beta   89.99576646
_cell_angle_gamma   120.00540419
_symmetry_Int_Tables_number   1
_chemical_formula_structural   Dy3Ho5Cu3Si12Rh
_chemical_formula_sum   'Dy3 Ho5 Cu3 Si12 Rh1'
_cell_volume   451.23785117
_cell_formula_units_Z   1
loop_
 _symmetry_equiv_pos_site_id
 _symmetry_equiv_pos_as_xyz
  1  'x, y, z'
loop_
 _atom_site_type_symbol
 _atom_site_label
 _atom_site_symmetry_multiplicity
 _atom_site_fract_x
 _atom_site_fract_y
 _atom_site_fract_z
 _atom_site_occupancy
  Dy  Dy0  1  0.999996  0.000004  0.250063  1
  Dy  Dy1  1  0.000002  0.999995  0.750162  1
  Dy  Dy2  1  0.500327  0.499670  0.248323  1
  Ho  Ho3  1  0.500276  0.000548  0.248240  1
  Ho  Ho4  1  0.999454  0.499720  0.248240  1
  Ho  Ho5  1  0.498176  0.501814  0.751770  1
  Ho  Ho6  1  0.498173  0.996343  0.751778  1
  Ho  Ho7  1  0.003662  0.501828  0.751782  1
  Cu  Cu8  1  0.333282  0.666733  0.496023  1
  Cu  Cu9  1  0.666727  0.333278  0.504905  1
  Cu  Cu10  1  0.666724  0.333272  0.995916  1
  Si  Si11  1  0.168984  0.831016  0.500270  1
  Si  Si12  1  0.168887  0.337920  0.500324  1
  Si  Si13  1  0.662084  0.831114  0.500323  1
  Si  Si14  1  0.830897  0.169100  0.499800  1
  Si  Si15  1  0.830999  0.661843  0.499863  1
  Si  Si16  1  0.338156  0.169002  0.499863  1
  Si  Si17  1  0.831895  0.168103  0.998999  1
  Si  Si18  1  0.832000  0.663858  0.998930  1
  Si  Si19  1  0.336143  0.168000  0.998929  1
  Si  Si20  1  0.167776  0.832225  0.001204  1
  Si  Si21  1  0.167695  0.335541  0.001129  1
  Si  Si22  1  0.664454  0.832302  0.001129  1
  Rh  Rh23  1  0.333232  0.666768  0.002033  1
