# generated using pymatgen
data_Hf2Mn3Al
_symmetry_space_group_name_H-M   'P 1'
_cell_length_a   4.96874501
_cell_length_b   4.96856280
_cell_length_c   8.24984400
_cell_angle_alpha   90.00000000
_cell_angle_beta   90.00000000
_cell_angle_gamma   119.99544744
_symmetry_Int_Tables_number   1
_chemical_formula_structural   Hf2Mn3Al
_chemical_formula_sum   'Hf4 Mn6 Al2'
_cell_volume   176.38992765
_cell_formula_units_Z   2
loop_
 _symmetry_equiv_pos_site_id
 _symmetry_equiv_pos_as_xyz
  1  'x, y, z'
loop_
 _atom_site_type_symbol
 _atom_site_label
 _atom_site_symmetry_multiplicity
 _atom_site_fract_x
 _atom_site_fract_y
 _atom_site_fract_z
 _atom_site_occupancy
  Hf  Hf0  1  0.333332  0.666664  0.067253  1
  Hf  Hf1  1  0.333332  0.666664  0.432746  1
  Hf  Hf2  1  0.666667  0.333337  0.567253  1
  Hf  Hf3  1  0.666667  0.333337  0.932747  1
  Mn  Mn4  1  0.352165  0.176072  0.250000  1
  Mn  Mn5  1  0.823941  0.176114  0.250000  1
  Mn  Mn6  1  0.824104  0.647972  0.250000  1
  Mn  Mn7  1  0.175895  0.352029  0.750000  1
  Mn  Mn8  1  0.176060  0.823887  0.750000  1
  Mn  Mn9  1  0.647835  0.823929  0.750000  1
  Al  Al10  1  0.000000  0.000000  0.000000  1
  Al  Al11  1  0.000000  0.000000  0.500000  1
