# generated using pymatgen
data_YEr11Co5Pb
_symmetry_space_group_name_H-M   'P 1'
_cell_length_a   8.25747959
_cell_length_b   8.25926838
_cell_length_c   8.22924455
_cell_angle_alpha   110.80629244
_cell_angle_beta   110.87253742
_cell_angle_gamma   106.91740312
_symmetry_Int_Tables_number   1
_chemical_formula_structural   YEr11Co5Pb
_chemical_formula_sum   'Y1 Er11 Co5 Pb1'
_cell_volume   430.56767503
_cell_formula_units_Z   1
loop_
 _symmetry_equiv_pos_site_id
 _symmetry_equiv_pos_as_xyz
  1  'x, y, z'
loop_
 _atom_site_type_symbol
 _atom_site_label
 _atom_site_symmetry_multiplicity
 _atom_site_fract_x
 _atom_site_fract_y
 _atom_site_fract_z
 _atom_site_occupancy
  Y  Y0  1  0.289564  0.186052  0.475805  1
  Er  Er1  1  0.710762  0.815181  0.525987  1
  Er  Er2  1  0.290317  0.814313  0.104658  1
  Er  Er3  1  0.710717  0.184688  0.895442  1
  Er  Er4  1  0.620869  0.313386  0.307160  1
  Er  Er5  1  0.379878  0.688032  0.693465  1
  Er  Er6  1  0.005427  0.313589  0.693456  1
  Er  Er7  1  0.993741  0.686277  0.307130  1
  Er  Er8  1  0.208725  0.403737  0.193903  1
  Er  Er9  1  0.792679  0.599165  0.807360  1
  Er  Er10  1  0.208181  0.014662  0.807353  1
  Er  Er11  1  0.790167  0.985192  0.193906  1
  Co  Co12  1  0.999552  0.376896  0.376417  1
  Co  Co13  1  0.999992  0.623282  0.623221  1
  Co  Co14  1  0.388939  0.885689  0.498631  1
  Co  Co15  1  0.612947  0.109705  0.498616  1
  Co  Co16  1  0.997856  0.000792  0.998640  1
  Pb  Pb17  1  0.499687  0.499360  0.998851  1
