# generated using pymatgen
data_Ti20Ga2Si9P
_symmetry_space_group_name_H-M   'P 1'
_cell_length_a   5.14084600
_cell_length_b   7.48267685
_cell_length_c   12.95232101
_cell_angle_alpha   89.92607855
_cell_angle_beta   90.00000000
_cell_angle_gamma   90.00000000
_symmetry_Int_Tables_number   1
_chemical_formula_structural   Ti20Ga2Si9P
_chemical_formula_sum   'Ti20 Ga2 Si9 P1'
_cell_volume   498.24026546
_cell_formula_units_Z   1
loop_
 _symmetry_equiv_pos_site_id
 _symmetry_equiv_pos_as_xyz
  1  'x, y, z'
loop_
 _atom_site_type_symbol
 _atom_site_label
 _atom_site_symmetry_multiplicity
 _atom_site_fract_x
 _atom_site_fract_y
 _atom_site_fract_z
 _atom_site_occupancy
  Ti  Ti0  1  0.750780  0.998330  0.670706  1
  Ti  Ti1  1  0.751115  0.501078  0.167860  1
  Ti  Ti2  1  0.750672  0.505715  0.831245  1
  Ti  Ti3  1  0.751283  0.000709  0.331707  1
  Ti  Ti4  1  0.249328  0.505715  0.831245  1
  Ti  Ti5  1  0.248717  0.000709  0.331707  1
  Ti  Ti6  1  0.249220  0.998330  0.670706  1
  Ti  Ti7  1  0.248885  0.501078  0.167860  1
  Ti  Ti8  1  0.500000  0.254534  0.500510  1
  Ti  Ti9  1  0.500000  0.755011  0.998385  1
  Ti  Ti10  1  0.500000  0.623619  0.630148  1
  Ti  Ti11  1  0.500000  0.122066  0.126850  1
  Ti  Ti12  1  0.500000  0.119259  0.872582  1
  Ti  Ti13  1  0.500000  0.621586  0.372813  1
  Ti  Ti14  1  0.000000  0.748000  0.499550  1
  Ti  Ti15  1  0.000000  0.248297  0.999911  1
  Ti  Ti16  1  0.000000  0.872848  0.871312  1
  Ti  Ti17  1  0.000000  0.374673  0.374847  1
  Ti  Ti18  1  0.000000  0.374416  0.625162  1
  Ti  Ti19  1  0.000000  0.875675  0.125040  1
  Ga  Ga20  1  0.500000  0.389462  0.999015  1
  Ga  Ga21  1  0.500000  0.890083  0.500690  1
  Si  Si22  1  0.500000  0.302635  0.303825  1
  Si  Si23  1  0.500000  0.302028  0.696777  1
  Si  Si24  1  0.500000  0.802696  0.195361  1
  Si  Si25  1  0.000000  0.609642  0.000013  1
  Si  Si26  1  0.000000  0.108488  0.500945  1
  Si  Si27  1  0.000000  0.694577  0.692391  1
  Si  Si28  1  0.000000  0.197370  0.195256  1
  Si  Si29  1  0.000000  0.199420  0.804891  1
  Si  Si30  1  0.000000  0.696844  0.304482  1
  P  P31  1  0.500000  0.805095  0.806196  1
