# generated using pymatgen
data_SrTbTm5NiI12
_symmetry_space_group_name_H-M   'P 1'
_cell_length_a   9.68864438
_cell_length_b   9.69707993
_cell_length_c   9.69359814
_cell_angle_alpha   106.29067053
_cell_angle_beta   106.16492307
_cell_angle_gamma   106.16564345
_symmetry_Int_Tables_number   1
_chemical_formula_structural   SrTbTm5NiI12
_chemical_formula_sum   'Sr1 Tb1 Tm5 Ni1 I12'
_cell_volume   774.28267222
_cell_formula_units_Z   1
loop_
 _symmetry_equiv_pos_site_id
 _symmetry_equiv_pos_as_xyz
  1  'x, y, z'
loop_
 _atom_site_type_symbol
 _atom_site_label
 _atom_site_symmetry_multiplicity
 _atom_site_fract_x
 _atom_site_fract_y
 _atom_site_fract_z
 _atom_site_occupancy
  Sr  Sr0  1  0.500065  0.499797  0.500000  1
  Tb  Tb1  1  0.020187  0.291831  0.092658  1
  Tm  Tm2  1  0.909130  0.978919  0.713355  1
  Tm  Tm3  1  0.713292  0.908003  0.979397  1
  Tm  Tm4  1  0.979744  0.713655  0.908881  1
  Tm  Tm5  1  0.090943  0.020175  0.286368  1
  Tm  Tm6  1  0.286588  0.090211  0.020153  1
  Ni  Ni7  1  0.999706  0.000013  0.999503  1
  I  I8  1  0.925060  0.323072  0.774162  1
  I  I9  1  0.778208  0.926207  0.323573  1
  I  I10  1  0.323907  0.777842  0.926304  1
  I  I11  1  0.074244  0.678145  0.222649  1
  I  I12  1  0.221762  0.073410  0.676408  1
  I  I13  1  0.672855  0.219727  0.072954  1
  I  I14  1  0.552329  0.866624  0.631927  1
  I  I15  1  0.631774  0.551889  0.866721  1
  I  I16  1  0.866897  0.631691  0.552052  1
  I  I17  1  0.447615  0.132968  0.368117  1
  I  I18  1  0.371117  0.447917  0.133379  1
  I  I19  1  0.134576  0.367906  0.451437  1
