# generated using pymatgen
data_YbEu3Co(Si2Pt)5
_symmetry_space_group_name_H-M   'P 1'
_cell_length_a   8.25700789
_cell_length_b   8.24567408
_cell_length_c   8.24622449
_cell_angle_alpha   138.17391982
_cell_angle_beta   104.72477327
_cell_angle_gamma   90.03226103
_symmetry_Int_Tables_number   1
_chemical_formula_structural   YbEu3Co(Si2Pt)5
_chemical_formula_sum   'Yb1 Eu3 Co1 Si10 Pt5'
_cell_volume   346.04929521
_cell_formula_units_Z   1
loop_
 _symmetry_equiv_pos_site_id
 _symmetry_equiv_pos_as_xyz
  1  'x, y, z'
loop_
 _atom_site_type_symbol
 _atom_site_label
 _atom_site_symmetry_multiplicity
 _atom_site_fract_x
 _atom_site_fract_y
 _atom_site_fract_z
 _atom_site_occupancy
  Yb  Yb0  1  0.102215  0.874423  0.237701  1
  Eu  Eu1  1  0.897959  0.134970  0.771079  1
  Eu  Eu2  1  0.636947  0.365664  0.262997  1
  Eu  Eu3  1  0.363343  0.625855  0.729199  1
  Co  Co4  1  0.498810  0.749019  0.249258  1
  Si  Si5  1  0.000654  0.749387  0.748791  1
  Si  Si6  1  0.000661  0.251695  0.251199  1
  Si  Si7  1  0.274477  0.025306  0.750041  1
  Si  Si8  1  0.725648  0.473964  0.749897  1
  Si  Si9  1  0.724751  0.975389  0.251673  1
  Si  Si10  1  0.275544  0.525569  0.249664  1
  Si  Si11  1  0.753096  0.621327  0.162396  1
  Si  Si12  1  0.246090  0.411495  0.869405  1
  Si  Si13  1  0.456353  0.087926  0.335355  1
  Si  Si14  1  0.542592  0.878160  0.631902  1
  Pt  Pt15  1  0.497559  0.248131  0.747982  1
  Pt  Pt16  1  0.024383  0.640938  0.386553  1
  Pt  Pt17  1  0.978216  0.365012  0.616012  1
  Pt  Pt18  1  0.249970  0.134639  0.112410  1
  Pt  Pt19  1  0.750732  0.861131  0.886484  1
