# generated using pymatgen
data_Pr3Nd7Sn20(IrPd)4
_symmetry_space_group_name_H-M   'P 1'
_cell_length_a   14.24183400
_cell_length_b   14.21435600
_cell_length_c   4.68564500
_cell_angle_alpha   90.00000000
_cell_angle_beta   90.00000000
_cell_angle_gamma   89.99737846
_symmetry_Int_Tables_number   1
_chemical_formula_structural   Pr3Nd7Sn20(IrPd)4
_chemical_formula_sum   'Pr3 Nd7 Sn20 Ir4 Pd4'
_cell_volume   948.55493813
_cell_formula_units_Z   1
loop_
 _symmetry_equiv_pos_site_id
 _symmetry_equiv_pos_as_xyz
  1  'x, y, z'
loop_
 _atom_site_type_symbol
 _atom_site_label
 _atom_site_symmetry_multiplicity
 _atom_site_fract_x
 _atom_site_fract_y
 _atom_site_fract_z
 _atom_site_occupancy
  Pr  Pr0  1  0.107532  0.609643  0.500000  1
  Pr  Pr1  1  0.392442  0.109689  0.500000  1
  Pr  Pr2  1  0.607564  0.890328  0.500000  1
  Nd  Nd3  1  0.500005  0.499983  0.000000  1
  Nd  Nd4  1  0.999981  0.000007  0.000000  1
  Nd  Nd5  1  0.675286  0.181893  0.500000  1
  Nd  Nd6  1  0.324751  0.818145  0.500000  1
  Nd  Nd7  1  0.175223  0.318154  0.500000  1
  Nd  Nd8  1  0.824753  0.681822  0.500000  1
  Nd  Nd9  1  0.892545  0.390322  0.500000  1
  Sn  Sn10  1  0.568040  0.070787  0.000000  1
  Sn  Sn11  1  0.431962  0.929210  0.000000  1
  Sn  Sn12  1  0.067895  0.429174  0.000000  1
  Sn  Sn13  1  0.931911  0.570660  0.000000  1
  Sn  Sn14  1  0.652237  0.703422  0.000000  1
  Sn  Sn15  1  0.347770  0.296585  0.000000  1
  Sn  Sn16  1  0.152227  0.796577  0.000000  1
  Sn  Sn17  1  0.847789  0.203550  0.000000  1
  Sn  Sn18  1  0.300202  0.652320  0.000000  1
  Sn  Sn19  1  0.699901  0.347706  0.000000  1
  Sn  Sn20  1  0.199792  0.152332  0.000000  1
  Sn  Sn21  1  0.800202  0.847675  0.000000  1
  Sn  Sn22  1  0.663643  0.504364  0.500000  1
  Sn  Sn23  1  0.336434  0.495628  0.500000  1
  Sn  Sn24  1  0.163569  0.995618  0.500000  1
  Sn  Sn25  1  0.836432  0.004359  0.500000  1
  Sn  Sn26  1  0.496657  0.662004  0.500000  1
  Sn  Sn27  1  0.503332  0.337991  0.500000  1
  Sn  Sn28  1  0.003315  0.162052  0.500000  1
  Sn  Sn29  1  0.996656  0.838001  0.500000  1
  Ir  Ir30  1  0.467543  0.743112  0.000000  1
  Ir  Ir31  1  0.532456  0.256898  0.000000  1
  Ir  Ir32  1  0.032366  0.243187  0.000000  1
  Ir  Ir33  1  0.967535  0.756871  0.000000  1
  Pd  Pd34  1  0.745184  0.532015  0.000000  1
  Pd  Pd35  1  0.254863  0.467885  0.000000  1
  Pd  Pd36  1  0.245118  0.967919  0.000000  1
  Pd  Pd37  1  0.754883  0.032111  0.000000  1
