# generated using pymatgen
data_Pr8Er9Tm3Si16
_symmetry_space_group_name_H-M   'P 1'
_cell_length_a   7.47402701
_cell_length_b   7.76793801
_cell_length_c   14.76094700
_cell_angle_alpha   90.00000000
_cell_angle_beta   90.00000000
_cell_angle_gamma   89.99482761
_symmetry_Int_Tables_number   1
_chemical_formula_structural   Pr8Er9Tm3Si16
_chemical_formula_sum   'Pr8 Er9 Tm3 Si16'
_cell_volume   856.98778736
_cell_formula_units_Z   1
loop_
 _symmetry_equiv_pos_site_id
 _symmetry_equiv_pos_as_xyz
  1  'x, y, z'
loop_
 _atom_site_type_symbol
 _atom_site_label
 _atom_site_symmetry_multiplicity
 _atom_site_fract_x
 _atom_site_fract_y
 _atom_site_fract_z
 _atom_site_occupancy
  Pr  Pr0  1  0.019698  0.177219  0.402194  1
  Pr  Pr1  1  0.519719  0.322777  0.402188  1
  Pr  Pr2  1  0.480257  0.677231  0.902236  1
  Pr  Pr3  1  0.480257  0.677231  0.597764  1
  Pr  Pr4  1  0.980364  0.822698  0.597746  1
  Pr  Pr5  1  0.980364  0.822698  0.902254  1
  Pr  Pr6  1  0.519719  0.322777  0.097812  1
  Pr  Pr7  1  0.019698  0.177219  0.097806  1
  Er  Er8  1  0.323295  0.178058  0.623336  1
  Er  Er9  1  0.676681  0.821949  0.376621  1
  Er  Er10  1  0.654944  0.990329  0.750000  1
  Er  Er11  1  0.176651  0.678064  0.376627  1
  Er  Er12  1  0.823439  0.322027  0.876621  1
  Er  Er13  1  0.823439  0.322027  0.623379  1
  Er  Er14  1  0.323295  0.178058  0.876664  1
  Er  Er15  1  0.176651  0.678064  0.123373  1
  Er  Er16  1  0.676681  0.821949  0.123379  1
  Tm  Tm17  1  0.844991  0.490281  0.250000  1
  Tm  Tm18  1  0.344964  0.009723  0.250000  1
  Tm  Tm19  1  0.155013  0.509792  0.750000  1
  Si  Si20  1  0.274944  0.879548  0.750000  1
  Si  Si21  1  0.471116  0.615356  0.250000  1
  Si  Si22  1  0.029216  0.115414  0.750000  1
  Si  Si23  1  0.528900  0.384713  0.750000  1
  Si  Si24  1  0.147152  0.467971  0.539677  1
  Si  Si25  1  0.971116  0.884659  0.250000  1
  Si  Si26  1  0.724694  0.120427  0.250000  1
  Si  Si27  1  0.852828  0.532009  0.039698  1
  Si  Si28  1  0.352840  0.967984  0.039711  1
  Si  Si29  1  0.147152  0.467971  0.960323  1
  Si  Si30  1  0.647142  0.032060  0.539584  1
  Si  Si31  1  0.352840  0.967984  0.460289  1
  Si  Si32  1  0.852828  0.532009  0.460302  1
  Si  Si33  1  0.775305  0.620092  0.750000  1
  Si  Si34  1  0.224669  0.379571  0.250000  1
  Si  Si35  1  0.647142  0.032060  0.960416  1
