# generated using pymatgen
data_YbEr2Si6(Pd4Pt)4
_symmetry_space_group_name_H-M   'P 1'
_cell_length_a   8.72038486
_cell_length_b   8.73053490
_cell_length_c   8.73054889
_cell_angle_alpha   59.84710305
_cell_angle_beta   59.79320108
_cell_angle_gamma   59.79346163
_symmetry_Int_Tables_number   1
_chemical_formula_structural   YbEr2Si6(Pd4Pt)4
_chemical_formula_sum   'Yb1 Er2 Si6 Pd16 Pt4'
_cell_volume   467.99167138
_cell_formula_units_Z   1
loop_
 _symmetry_equiv_pos_site_id
 _symmetry_equiv_pos_as_xyz
  1  'x, y, z'
loop_
 _atom_site_type_symbol
 _atom_site_label
 _atom_site_symmetry_multiplicity
 _atom_site_fract_x
 _atom_site_fract_y
 _atom_site_fract_z
 _atom_site_occupancy
  Yb  Yb0  1  0.750114  0.750419  0.750420  1
  Er  Er1  1  0.250654  0.249817  0.249807  1
  Er  Er2  1  0.999927  0.999928  0.999936  1
  Si  Si3  1  0.730683  0.268303  0.268303  1
  Si  Si4  1  0.270654  0.730051  0.730051  1
  Si  Si5  1  0.269448  0.730369  0.269119  1
  Si  Si6  1  0.730239  0.269755  0.731416  1
  Si  Si7  1  0.269449  0.269119  0.730369  1
  Si  Si8  1  0.730238  0.731417  0.269757  1
  Pd  Pd9  1  0.619011  0.616215  0.149199  1
  Pd  Pd10  1  0.619006  0.149201  0.616217  1
  Pd  Pd11  1  0.852599  0.381436  0.381432  1
  Pd  Pd12  1  0.148208  0.617482  0.617482  1
  Pd  Pd13  1  0.342984  0.000879  0.000876  1
  Pd  Pd14  1  0.655050  0.001092  0.001096  1
  Pd  Pd15  1  0.999816  0.344101  0.656197  1
  Pd  Pd16  1  0.999812  0.656196  0.344104  1
  Pd  Pd17  1  0.000150  0.343917  0.001186  1
  Pd  Pd18  1  0.655538  0.000615  0.343840  1
  Pd  Pd19  1  0.000075  0.655448  0.001249  1
  Pd  Pd20  1  0.343309  0.000516  0.656433  1
  Pd  Pd21  1  0.000149  0.001190  0.343920  1
  Pd  Pd22  1  0.000075  0.001246  0.655448  1
  Pd  Pd23  1  0.655538  0.343839  0.000615  1
  Pd  Pd24  1  0.343309  0.656436  0.000514  1
  Pt  Pt25  1  0.383120  0.383364  0.383363  1
  Pt  Pt26  1  0.617832  0.614434  0.614435  1
  Pt  Pt27  1  0.381507  0.381899  0.851317  1
  Pt  Pt28  1  0.381506  0.851318  0.381899  1
