# generated using pymatgen
data_Nd20Ir3Pt8Rh
_symmetry_space_group_name_H-M   'P 1'
_cell_length_a   11.44122000
_cell_length_b   11.44122000
_cell_length_c   6.54223100
_cell_angle_alpha   90.00000000
_cell_angle_beta   90.00000000
_cell_angle_gamma   90.00000000
_symmetry_Int_Tables_number   1
_chemical_formula_structural   Nd20Ir3Pt8Rh
_chemical_formula_sum   'Nd20 Ir3 Pt8 Rh1'
_cell_volume   856.38794996
_cell_formula_units_Z   1
loop_
 _symmetry_equiv_pos_site_id
 _symmetry_equiv_pos_as_xyz
  1  'x, y, z'
loop_
 _atom_site_type_symbol
 _atom_site_label
 _atom_site_symmetry_multiplicity
 _atom_site_fract_x
 _atom_site_fract_y
 _atom_site_fract_z
 _atom_site_occupancy
  Nd  Nd0  1  0.089978  0.295231  0.123055  1
  Nd  Nd1  1  0.795231  0.410022  0.123055  1
  Nd  Nd2  1  0.204769  0.589978  0.123055  1
  Nd  Nd3  1  0.910022  0.704769  0.123055  1
  Nd  Nd4  1  0.409829  0.795522  0.375539  1
  Nd  Nd5  1  0.590171  0.204478  0.375539  1
  Nd  Nd6  1  0.295522  0.090171  0.375539  1
  Nd  Nd7  1  0.704478  0.909829  0.375539  1
  Nd  Nd8  1  0.410343  0.204442  0.875842  1
  Nd  Nd9  1  0.704442  0.089657  0.875842  1
  Nd  Nd10  1  0.295558  0.910343  0.875842  1
  Nd  Nd11  1  0.589657  0.795558  0.875842  1
  Nd  Nd12  1  0.090089  0.704815  0.625819  1
  Nd  Nd13  1  0.909911  0.295185  0.625819  1
  Nd  Nd14  1  0.204815  0.409911  0.625819  1
  Nd  Nd15  1  0.795185  0.590089  0.625819  1
  Nd  Nd16  1  0.000000  0.000000  0.999862  1
  Nd  Nd17  1  0.500000  0.500000  0.999862  1
  Nd  Nd18  1  0.500000  0.500000  0.499775  1
  Nd  Nd19  1  0.000000  0.000000  0.499775  1
  Ir  Ir20  1  0.500000  0.000000  0.117566  1
  Ir  Ir21  1  0.500000  0.000000  0.616838  1
  Ir  Ir22  1  0.000000  0.500000  0.882090  1
  Pt  Pt23  1  0.152497  0.845669  0.249802  1
  Pt  Pt24  1  0.345669  0.347503  0.249802  1
  Pt  Pt25  1  0.654331  0.652497  0.249802  1
  Pt  Pt26  1  0.847503  0.154331  0.249802  1
  Pt  Pt27  1  0.346759  0.653240  0.750128  1
  Pt  Pt28  1  0.153240  0.153241  0.750128  1
  Pt  Pt29  1  0.846760  0.846759  0.750128  1
  Pt  Pt30  1  0.653241  0.346760  0.750128  1
  Rh  Rh31  1  0.000000  0.500000  0.383490  1
