# generated using pymatgen
data_Be3Nb16FeTe16
_symmetry_space_group_name_H-M   'P 1'
_cell_length_a   4.82634900
_cell_length_b   11.03195685
_cell_length_c   19.18609228
_cell_angle_alpha   89.85512777
_cell_angle_beta   90.00000000
_cell_angle_gamma   90.00000000
_symmetry_Int_Tables_number   1
_chemical_formula_structural   Be3Nb16FeTe16
_chemical_formula_sum   'Be3 Nb16 Fe1 Te16'
_cell_volume   1021.54244960
_cell_formula_units_Z   1
loop_
 _symmetry_equiv_pos_site_id
 _symmetry_equiv_pos_as_xyz
  1  'x, y, z'
loop_
 _atom_site_type_symbol
 _atom_site_label
 _atom_site_symmetry_multiplicity
 _atom_site_fract_x
 _atom_site_fract_y
 _atom_site_fract_z
 _atom_site_occupancy
  Be  Be0  1  0.241468  0.500000  0.500000  1
  Be  Be1  1  0.750607  0.000000  0.000000  1
  Be  Be2  1  0.758203  0.500000  0.500000  1
  Nb  Nb3  1  0.501079  0.560338  0.388302  1
  Nb  Nb4  1  0.501079  0.439662  0.611698  1
  Nb  Nb5  1  0.504150  0.062779  0.114321  1
  Nb  Nb6  1  0.504150  0.937221  0.885679  1
  Nb  Nb7  1  0.498389  0.694733  0.534742  1
  Nb  Nb8  1  0.498389  0.305267  0.465258  1
  Nb  Nb9  1  0.508040  0.200732  0.964175  1
  Nb  Nb10  1  0.508040  0.799268  0.035825  1
  Nb  Nb11  1  0.002450  0.685072  0.443482  1
  Nb  Nb12  1  0.002450  0.314928  0.556518  1
  Nb  Nb13  1  0.991943  0.186316  0.055805  1
  Nb  Nb14  1  0.991943  0.813684  0.944195  1
  Nb  Nb15  1  0.997269  0.403171  0.393705  1
  Nb  Nb16  1  0.997269  0.596829  0.606295  1
  Nb  Nb17  1  0.996883  0.902429  0.106207  1
  Nb  Nb18  1  0.996883  0.097571  0.893793  1
  Fe  Fe19  1  0.250130  0.000000  0.000000  1
  Te  Te20  1  0.997786  0.842113  0.560457  1
  Te  Te21  1  0.997786  0.157887  0.439543  1
  Te  Te22  1  0.008208  0.344340  0.937745  1
  Te  Te23  1  0.008208  0.655660  0.062255  1
  Te  Te24  1  0.499219  0.333868  0.317572  1
  Te  Te25  1  0.499219  0.666132  0.682428  1
  Te  Te26  1  0.496354  0.833809  0.182878  1
  Te  Te27  1  0.496354  0.166191  0.817122  1
  Te  Te28  1  0.501028  0.817270  0.403765  1
  Te  Te29  1  0.501028  0.182730  0.596235  1
  Te  Te30  1  0.491592  0.319467  0.096189  1
  Te  Te31  1  0.491592  0.680533  0.903811  1
  Te  Te32  1  0.000753  0.606588  0.302918  1
  Te  Te33  1  0.000753  0.393412  0.697082  1
  Te  Te34  1  0.004652  0.106118  0.196979  1
  Te  Te35  1  0.004652  0.893882  0.803021  1
