# generated using pymatgen
data_Zr10Si2Sn2Bi3Pb
_symmetry_space_group_name_H-M   'P 1'
_cell_length_a   8.78106739
_cell_length_b   8.78106785
_cell_length_c   5.93518300
_cell_angle_alpha   90.00000000
_cell_angle_beta   90.00000000
_cell_angle_gamma   119.91538165
_symmetry_Int_Tables_number   1
_chemical_formula_structural   Zr10Si2Sn2Bi3Pb
_chemical_formula_sum   'Zr10 Si2 Sn2 Bi3 Pb1'
_cell_volume   396.66973689
_cell_formula_units_Z   1
loop_
 _symmetry_equiv_pos_site_id
 _symmetry_equiv_pos_as_xyz
  1  'x, y, z'
loop_
 _atom_site_type_symbol
 _atom_site_label
 _atom_site_symmetry_multiplicity
 _atom_site_fract_x
 _atom_site_fract_y
 _atom_site_fract_z
 _atom_site_occupancy
  Zr  Zr0  1  0.667047  0.330967  0.006266  1
  Zr  Zr1  1  0.330967  0.667047  0.006266  1
  Zr  Zr2  1  0.330967  0.667047  0.493734  1
  Zr  Zr3  1  0.667047  0.330967  0.493734  1
  Zr  Zr4  1  0.749459  0.749459  0.750000  1
  Zr  Zr5  1  0.251190  0.999128  0.750000  1
  Zr  Zr6  1  0.999128  0.251190  0.750000  1
  Zr  Zr7  1  0.259841  0.259841  0.250000  1
  Zr  Zr8  1  0.739809  0.004341  0.250000  1
  Zr  Zr9  1  0.004341  0.739809  0.250000  1
  Si  Si10  1  0.999368  0.999368  0.006980  1
  Si  Si11  1  0.999368  0.999368  0.493020  1
  Sn  Sn12  1  0.390461  0.000595  0.250000  1
  Sn  Sn13  1  0.000595  0.390461  0.250000  1
  Bi  Bi14  1  0.399333  0.399333  0.750000  1
  Bi  Bi15  1  0.600381  0.998313  0.750000  1
  Bi  Bi16  1  0.998313  0.600381  0.750000  1
  Pb  Pb17  1  0.612384  0.612384  0.250000  1
