# generated using pymatgen
data_TbCoRe(PRh)3
_symmetry_space_group_name_H-M   'P 1'
_cell_length_a   3.87584600
_cell_length_b   10.72856400
_cell_length_c   12.39097500
_cell_angle_alpha   90.00000000
_cell_angle_beta   90.00000000
_cell_angle_gamma   90.00000000
_symmetry_Int_Tables_number   1
_chemical_formula_structural   TbCoRe(PRh)3
_chemical_formula_sum   'Tb4 Co4 Re4 P12 Rh12'
_cell_volume   515.24476721
_cell_formula_units_Z   4
loop_
 _symmetry_equiv_pos_site_id
 _symmetry_equiv_pos_as_xyz
  1  'x, y, z'
loop_
 _atom_site_type_symbol
 _atom_site_label
 _atom_site_symmetry_multiplicity
 _atom_site_fract_x
 _atom_site_fract_y
 _atom_site_fract_z
 _atom_site_occupancy
  Tb  Tb0  1  0.250000  0.585595  0.708162  1
  Tb  Tb1  1  0.250000  0.914405  0.208162  1
  Tb  Tb2  1  0.750000  0.414405  0.291838  1
  Tb  Tb3  1  0.750000  0.085595  0.791838  1
  Co  Co4  1  0.250000  0.462158  0.935514  1
  Co  Co5  1  0.250000  0.037842  0.435514  1
  Co  Co6  1  0.750000  0.537842  0.064486  1
  Co  Co7  1  0.750000  0.962158  0.564486  1
  Re  Re8  1  0.250000  0.709475  0.986791  1
  Re  Re9  1  0.250000  0.790525  0.486791  1
  Re  Re10  1  0.750000  0.290525  0.013209  1
  Re  Re11  1  0.750000  0.209475  0.513209  1
  P  P12  1  0.250000  0.421978  0.106370  1
  P  P13  1  0.250000  0.078022  0.606370  1
  P  P14  1  0.750000  0.578022  0.893630  1
  P  P15  1  0.750000  0.921978  0.393630  1
  P  P16  1  0.250000  0.271178  0.873015  1
  P  P17  1  0.250000  0.228822  0.373015  1
  P  P18  1  0.750000  0.728822  0.126985  1
  P  P19  1  0.750000  0.771178  0.626985  1
  P  P20  1  0.250000  0.599676  0.390538  1
  P  P21  1  0.250000  0.900324  0.890538  1
  P  P22  1  0.750000  0.400324  0.609462  1
  P  P23  1  0.750000  0.099676  0.109462  1
  Rh  Rh24  1  0.250000  0.405286  0.485531  1
  Rh  Rh25  1  0.250000  0.094714  0.985531  1
  Rh  Rh26  1  0.750000  0.594714  0.514469  1
  Rh  Rh27  1  0.750000  0.905286  0.014469  1
  Rh  Rh28  1  0.250000  0.227969  0.179476  1
  Rh  Rh29  1  0.250000  0.272031  0.679476  1
  Rh  Rh30  1  0.750000  0.772031  0.820524  1
  Rh  Rh31  1  0.750000  0.727969  0.320524  1
  Rh  Rh32  1  0.250000  0.889929  0.700032  1
  Rh  Rh33  1  0.250000  0.610071  0.200032  1
  Rh  Rh34  1  0.750000  0.110071  0.299968  1
  Rh  Rh35  1  0.750000  0.389929  0.799968  1
