# generated using pymatgen
data_Dy5TmMn3(Co5P4)3
_symmetry_space_group_name_H-M   'P 1'
_cell_length_a   3.70207100
_cell_length_b   10.56046200
_cell_length_c   12.15734700
_cell_angle_alpha   89.99724577
_cell_angle_beta   90.00000000
_cell_angle_gamma   90.00000000
_symmetry_Int_Tables_number   1
_chemical_formula_structural   Dy5TmMn3(Co5P4)3
_chemical_formula_sum   'Dy5 Tm1 Mn3 Co15 P12'
_cell_volume   475.29853337
_cell_formula_units_Z   1
loop_
 _symmetry_equiv_pos_site_id
 _symmetry_equiv_pos_as_xyz
  1  'x, y, z'
loop_
 _atom_site_type_symbol
 _atom_site_label
 _atom_site_symmetry_multiplicity
 _atom_site_fract_x
 _atom_site_fract_y
 _atom_site_fract_z
 _atom_site_occupancy
  Dy  Dy0  1  0.000000  0.500105  0.523407  1
  Dy  Dy1  1  0.500000  0.999854  0.476924  1
  Dy  Dy2  1  0.500000  0.181363  0.204827  1
  Dy  Dy3  1  0.000000  0.680597  0.795693  1
  Dy  Dy4  1  0.000000  0.319451  0.795916  1
  Tm  Tm5  1  0.500000  0.818324  0.204720  1
  Mn  Mn6  1  0.500000  0.500240  0.155398  1
  Mn  Mn7  1  0.000000  0.999798  0.841296  1
  Mn  Mn8  1  0.000000  0.500485  0.989185  1
  Co  Co9  1  0.500000  0.500145  0.699686  1
  Co  Co10  1  0.000000  0.998993  0.297459  1
  Co  Co11  1  0.500000  0.999517  0.013764  1
  Co  Co12  1  0.500000  0.330437  0.994399  1
  Co  Co13  1  0.500000  0.670096  0.994910  1
  Co  Co14  1  0.000000  0.164643  0.005350  1
  Co  Co15  1  0.000000  0.834815  0.005804  1
  Co  Co16  1  0.500000  0.295888  0.430503  1
  Co  Co17  1  0.500000  0.704261  0.429848  1
  Co  Co18  1  0.000000  0.203323  0.569965  1
  Co  Co19  1  0.000000  0.796598  0.569536  1
  Co  Co20  1  0.500000  0.879859  0.709297  1
  Co  Co21  1  0.500000  0.120104  0.709493  1
  Co  Co22  1  0.000000  0.621998  0.290987  1
  Co  Co23  1  0.000000  0.379031  0.291585  1
  P  P24  1  0.500000  0.500260  0.883105  1
  P  P25  1  0.000000  0.999089  0.117815  1
  P  P26  1  0.500000  0.499976  0.345645  1
  P  P27  1  0.000000  0.999998  0.654968  1
  P  P28  1  0.500000  0.310398  0.616388  1
  P  P29  1  0.500000  0.689766  0.616068  1
  P  P30  1  0.000000  0.188652  0.384113  1
  P  P31  1  0.000000  0.811168  0.383051  1
  P  P32  1  0.500000  0.847302  0.892807  1
  P  P33  1  0.500000  0.152490  0.893076  1
  P  P34  1  0.000000  0.655717  0.106899  1
  P  P35  1  0.000000  0.345260  0.106113  1
