# generated using pymatgen
data_PmThCu4
_symmetry_space_group_name_H-M   'P 1'
_cell_length_a   5.65277435
_cell_length_b   5.65277485
_cell_length_c   5.65277398
_cell_angle_alpha   135.45977785
_cell_angle_beta   96.95403180
_cell_angle_gamma   99.56512758
_symmetry_Int_Tables_number   1
_chemical_formula_structural   PmThCu4
_chemical_formula_sum   'Pm1 Th1 Cu4'
_cell_volume   117.20314962
_cell_formula_units_Z   1
loop_
 _symmetry_equiv_pos_site_id
 _symmetry_equiv_pos_as_xyz
  1  'x, y, z'
loop_
 _atom_site_type_symbol
 _atom_site_label
 _atom_site_symmetry_multiplicity
 _atom_site_fract_x
 _atom_site_fract_y
 _atom_site_fract_z
 _atom_site_occupancy
  Pm  Pm0  1  0.500000  0.500000  0.000000  1
  Th  Th1  1  0.000000  0.000000  0.000000  1
  Cu  Cu2  1  0.584230  0.250291  0.333940  1
  Cu  Cu3  1  0.083651  0.749710  0.333941  1
  Cu  Cu4  1  0.916350  0.250291  0.666061  1
  Cu  Cu5  1  0.415770  0.749710  0.666060  1
