# generated using pymatgen
data_Er3LuAl18Ir5Au
_symmetry_space_group_name_H-M   'P 1'
_cell_length_a   7.56819513
_cell_length_b   7.56925826
_cell_length_c   9.43427903
_cell_angle_alpha   89.96161297
_cell_angle_beta   89.99064840
_cell_angle_gamma   119.56160238
_symmetry_Int_Tables_number   1
_chemical_formula_structural   Er3LuAl18Ir5Au
_chemical_formula_sum   'Er3 Lu1 Al18 Ir5 Au1'
_cell_volume   470.09589287
_cell_formula_units_Z   1
loop_
 _symmetry_equiv_pos_site_id
 _symmetry_equiv_pos_as_xyz
  1  'x, y, z'
loop_
 _atom_site_type_symbol
 _atom_site_label
 _atom_site_symmetry_multiplicity
 _atom_site_fract_x
 _atom_site_fract_y
 _atom_site_fract_z
 _atom_site_occupancy
  Er  Er0  1  0.996147  0.673909  0.251381  1
  Er  Er1  1  0.004053  0.326152  0.748662  1
  Er  Er2  1  0.673616  0.996033  0.251335  1
  Lu  Lu3  1  0.326122  0.003907  0.748188  1
  Al  Al4  1  0.135210  0.135028  0.256201  1
  Al  Al5  1  0.865412  0.865067  0.744024  1
  Al  Al6  1  0.001421  0.344305  0.079108  1
  Al  Al7  1  0.999174  0.656430  0.920200  1
  Al  Al8  1  0.000787  0.664980  0.574662  1
  Al  Al9  1  0.335590  0.999832  0.426655  1
  Al  Al10  1  0.999795  0.335526  0.426076  1
  Al  Al11  1  0.663944  0.000195  0.574634  1
  Al  Al12  1  0.655097  0.998678  0.920075  1
  Al  Al13  1  0.344113  0.001416  0.078492  1
  Al  Al14  1  0.333141  0.332675  0.553878  1
  Al  Al15  1  0.666939  0.666899  0.447084  1
  Al  Al16  1  0.657976  0.657967  0.059623  1
  Al  Al17  1  0.341846  0.341325  0.939388  1
  Al  Al18  1  0.339108  0.550536  0.251283  1
  Al  Al19  1  0.660415  0.448803  0.748726  1
  Al  Al20  1  0.550459  0.338925  0.251268  1
  Al  Al21  1  0.449378  0.661330  0.748755  1
  Ir  Ir22  1  0.671901  0.327995  0.999740  1
  Ir  Ir23  1  0.328030  0.671983  0.999739  1
  Ir  Ir24  1  0.328038  0.671937  0.500215  1
  Ir  Ir25  1  0.671842  0.327968  0.500311  1
  Ir  Ir26  1  0.000419  0.000157  0.500384  1
  Au  Au27  1  0.000025  0.000042  0.999913  1
