# generated using pymatgen
data_MnIrO4
_symmetry_space_group_name_H-M   'P 1'
_cell_length_a   4.53869304
_cell_length_b   5.56666159
_cell_length_c   5.51657064
_cell_angle_alpha   70.67977491
_cell_angle_beta   89.99775845
_cell_angle_gamma   90.01479558
_symmetry_Int_Tables_number   1
_chemical_formula_structural   MnIrO4
_chemical_formula_sum   'Mn2 Ir2 O8'
_cell_volume   131.52899202
_cell_formula_units_Z   2
loop_
 _symmetry_equiv_pos_site_id
 _symmetry_equiv_pos_as_xyz
  1  'x, y, z'
loop_
 _atom_site_type_symbol
 _atom_site_label
 _atom_site_symmetry_multiplicity
 _atom_site_fract_x
 _atom_site_fract_y
 _atom_site_fract_z
 _atom_site_occupancy
  Mn  Mn0  1  0.000000  0.000000  0.000000  1
  Mn  Mn1  1  0.500000  0.000000  0.500000  1
  Ir  Ir2  1  0.000000  0.500000  0.500000  1
  Ir  Ir3  1  0.500000  0.500000  0.000000  1
  O  O4  1  0.312059  0.158913  0.138464  1
  O  O5  1  0.293551  0.641554  0.667184  1
  O  O6  1  0.187559  0.158620  0.638805  1
  O  O7  1  0.206891  0.641310  0.167015  1
  O  O8  1  0.706449  0.358446  0.332816  1
  O  O9  1  0.687941  0.841087  0.861536  1
  O  O10  1  0.812441  0.841380  0.361195  1
  O  O11  1  0.793109  0.358690  0.832985  1
