# generated using pymatgen
data_Er12Fe2Hg2Os
_symmetry_space_group_name_H-M   'P 1'
_cell_length_a   8.26801470
_cell_length_b   8.26735744
_cell_length_c   8.26801381
_cell_angle_alpha   108.64530951
_cell_angle_beta   108.64436819
_cell_angle_gamma   111.14025995
_symmetry_Int_Tables_number   1
_chemical_formula_structural   Er12Fe2Hg2Os
_chemical_formula_sum   'Er12 Fe2 Hg2 Os1'
_cell_volume   434.76301226
_cell_formula_units_Z   1
loop_
 _symmetry_equiv_pos_site_id
 _symmetry_equiv_pos_as_xyz
  1  'x, y, z'
loop_
 _atom_site_type_symbol
 _atom_site_label
 _atom_site_symmetry_multiplicity
 _atom_site_fract_x
 _atom_site_fract_y
 _atom_site_fract_z
 _atom_site_occupancy
  Er  Er0  1  0.308272  0.308281  0.616526  1
  Er  Er1  1  0.691728  0.691719  0.383474  1
  Er  Er2  1  0.308246  0.691719  0.999992  1
  Er  Er3  1  0.691754  0.308281  0.000008  1
  Er  Er4  1  0.430590  0.190593  0.239999  1
  Er  Er5  1  0.569410  0.809407  0.760001  1
  Er  Er6  1  0.950593  0.190593  0.760003  1
  Er  Er7  1  0.190593  0.950598  0.760006  1
  Er  Er8  1  0.049407  0.809407  0.239997  1
  Er  Er9  1  0.809407  0.049402  0.239994  1
  Er  Er10  1  0.190589  0.430581  0.239992  1
  Er  Er11  1  0.809411  0.569419  0.760008  1
  Fe  Fe12  1  0.383686  0.383687  0.000001  1
  Fe  Fe13  1  0.616314  0.616313  0.999999  1
  Hg  Hg14  1  0.500000  0.000000  0.500000  1
  Hg  Hg15  1  0.000000  0.500000  0.500000  1
  Os  Os16  1  0.000000  0.000000  0.000000  1
