# generated using pymatgen
data_Pr3Cd2Pt3Au
_symmetry_space_group_name_H-M   'P 1'
_cell_length_a   7.70652427
_cell_length_b   7.70652430
_cell_length_c   4.05660300
_cell_angle_alpha   90.00000000
_cell_angle_beta   90.00000000
_cell_angle_gamma   119.35859481
_symmetry_Int_Tables_number   1
_chemical_formula_structural   Pr3Cd2Pt3Au
_chemical_formula_sum   'Pr3 Cd2 Pt3 Au1'
_cell_volume   209.98151059
_cell_formula_units_Z   1
loop_
 _symmetry_equiv_pos_site_id
 _symmetry_equiv_pos_as_xyz
  1  'x, y, z'
loop_
 _atom_site_type_symbol
 _atom_site_label
 _atom_site_symmetry_multiplicity
 _atom_site_fract_x
 _atom_site_fract_y
 _atom_site_fract_z
 _atom_site_occupancy
  Pr  Pr0  1  0.411865  0.411865  0.500000  1
  Pr  Pr1  1  0.990710  0.602796  0.500000  1
  Pr  Pr2  1  0.602796  0.990710  0.500000  1
  Cd  Cd3  1  0.256683  0.003473  0.000000  1
  Cd  Cd4  1  0.003473  0.256683  0.000000  1
  Pt  Pt5  1  0.662928  0.321330  0.000000  1
  Pt  Pt6  1  0.008661  0.008661  0.500000  1
  Pt  Pt7  1  0.321330  0.662928  0.000000  1
  Au  Au8  1  0.741554  0.741554  0.000000  1
