# generated using pymatgen
data_Tb2YbHo4NiI12
_symmetry_space_group_name_H-M   'P 1'
_cell_length_a   9.73671476
_cell_length_b   9.72701190
_cell_length_c   9.72164917
_cell_angle_alpha   106.82754441
_cell_angle_beta   106.74160937
_cell_angle_gamma   106.81059141
_symmetry_Int_Tables_number   1
_chemical_formula_structural   Tb2YbHo4NiI12
_chemical_formula_sum   'Tb2 Yb1 Ho4 Ni1 I12'
_cell_volume   771.07536966
_cell_formula_units_Z   1
loop_
 _symmetry_equiv_pos_site_id
 _symmetry_equiv_pos_as_xyz
  1  'x, y, z'
loop_
 _atom_site_type_symbol
 _atom_site_label
 _atom_site_symmetry_multiplicity
 _atom_site_fract_x
 _atom_site_fract_y
 _atom_site_fract_z
 _atom_site_occupancy
  Tb  Tb0  1  0.294828  0.095398  0.023573  1
  Tb  Tb1  1  0.024122  0.295149  0.095851  1
  Yb  Yb2  1  0.499769  0.499460  0.500471  1
  Ho  Ho3  1  0.904388  0.975737  0.707348  1
  Ho  Ho4  1  0.708303  0.904403  0.976132  1
  Ho  Ho5  1  0.976167  0.708099  0.904731  1
  Ho  Ho6  1  0.094486  0.024158  0.292298  1
  Ni  Ni7  1  0.000946  0.001258  0.999628  1
  I  I8  1  0.927018  0.322528  0.774425  1
  I  I9  1  0.776495  0.928044  0.322923  1
  I  I10  1  0.322455  0.774105  0.927082  1
  I  I11  1  0.071775  0.678523  0.223356  1
  I  I12  1  0.221088  0.070356  0.674229  1
  I  I13  1  0.676328  0.221923  0.071776  1
  I  I14  1  0.542936  0.849433  0.621635  1
  I  I15  1  0.621954  0.542670  0.850442  1
  I  I16  1  0.849187  0.620972  0.542571  1
  I  I17  1  0.456377  0.149637  0.380594  1
  I  I18  1  0.380494  0.459262  0.151573  1
  I  I19  1  0.150885  0.378885  0.459361  1
