# generated using pymatgen
data_Ba2Ga3FeCl16
_symmetry_space_group_name_H-M   'P 1'
_cell_length_a   7.35160836
_cell_length_b   7.66693810
_cell_length_c   13.34239446
_cell_angle_alpha   85.31307462
_cell_angle_beta   89.97266259
_cell_angle_gamma   90.02125561
_symmetry_Int_Tables_number   1
_chemical_formula_structural   Ba2Ga3FeCl16
_chemical_formula_sum   'Ba2 Ga3 Fe1 Cl16'
_cell_volume   749.52016479
_cell_formula_units_Z   1
loop_
 _symmetry_equiv_pos_site_id
 _symmetry_equiv_pos_as_xyz
  1  'x, y, z'
loop_
 _atom_site_type_symbol
 _atom_site_label
 _atom_site_symmetry_multiplicity
 _atom_site_fract_x
 _atom_site_fract_y
 _atom_site_fract_z
 _atom_site_occupancy
  Ba  Ba0  1  0.161500  0.500278  0.249922  1
  Ba  Ba1  1  0.838973  0.500510  0.749893  1
  Ga  Ga2  1  0.736880  0.684351  0.078768  1
  Ga  Ga3  1  0.736805  0.315642  0.421187  1
  Ga  Ga4  1  0.263093  0.315638  0.921236  1
  Fe  Fe5  1  0.263271  0.684645  0.578798  1
  Cl  Cl6  1  0.519562  0.749566  0.654184  1
  Cl  Cl7  1  0.305345  0.746776  0.415623  1
  Cl  Cl8  1  0.814984  0.407540  0.111822  1
  Cl  Cl9  1  0.185026  0.592466  0.888206  1
  Cl  Cl10  1  0.481316  0.249795  0.346250  1
  Cl  Cl11  1  0.305858  0.252866  0.083768  1
  Cl  Cl12  1  0.694196  0.252954  0.583768  1
  Cl  Cl13  1  0.481385  0.750247  0.153736  1
  Cl  Cl14  1  0.184817  0.407225  0.611961  1
  Cl  Cl15  1  0.518687  0.249866  0.846210  1
  Cl  Cl16  1  0.814883  0.592516  0.388175  1
  Cl  Cl17  1  0.964684  0.836847  0.135077  1
  Cl  Cl18  1  0.694103  0.747087  0.916205  1
  Cl  Cl19  1  0.035346  0.163159  0.864922  1
  Cl  Cl20  1  0.964680  0.163138  0.364930  1
  Cl  Cl21  1  0.034605  0.836889  0.635356  1
