# generated using pymatgen
data_EuLu2Ga8Ag3
_symmetry_space_group_name_H-M   'P 1'
_cell_length_a   4.36169647
_cell_length_b   8.36669763
_cell_length_c   8.36669815
_cell_angle_alpha   70.29098051
_cell_angle_beta   74.89085492
_cell_angle_gamma   74.89086884
_symmetry_Int_Tables_number   1
_chemical_formula_structural   EuLu2Ga8Ag3
_chemical_formula_sum   'Eu1 Lu2 Ga8 Ag3'
_cell_volume   272.44372262
_cell_formula_units_Z   1
loop_
 _symmetry_equiv_pos_site_id
 _symmetry_equiv_pos_as_xyz
  1  'x, y, z'
loop_
 _atom_site_type_symbol
 _atom_site_label
 _atom_site_symmetry_multiplicity
 _atom_site_fract_x
 _atom_site_fract_y
 _atom_site_fract_z
 _atom_site_occupancy
  Eu  Eu0  1  0.500000  0.500000  0.500000  1
  Lu  Lu1  1  0.199523  0.800477  0.800477  1
  Lu  Lu2  1  0.800477  0.199523  0.199523  1
  Ga  Ga3  1  0.354810  0.362176  0.928203  1
  Ga  Ga4  1  0.645190  0.637824  0.071797  1
  Ga  Ga5  1  0.354810  0.928203  0.362176  1
  Ga  Ga6  1  0.645190  0.071797  0.637824  1
  Ga  Ga7  1  0.162155  0.468836  0.206852  1
  Ga  Ga8  1  0.837845  0.531164  0.793148  1
  Ga  Ga9  1  0.162155  0.206852  0.468836  1
  Ga  Ga10  1  0.837845  0.793148  0.531164  1
  Ag  Ag11  1  0.500000  0.000000  0.000000  1
  Ag  Ag12  1  0.000000  0.807003  0.192997  1
  Ag  Ag13  1  0.000000  0.192997  0.807003  1
