# generated using pymatgen
data_Dy15Er5(Ir5Pt)2
_symmetry_space_group_name_H-M   'P 1'
_cell_length_a   10.91821764
_cell_length_b   10.92088008
_cell_length_c   6.33288505
_cell_angle_alpha   90.01266047
_cell_angle_beta   89.95618867
_cell_angle_gamma   89.99542971
_symmetry_Int_Tables_number   1
_chemical_formula_structural   Dy15Er5(Ir5Pt)2
_chemical_formula_sum   'Dy15 Er5 Ir10 Pt2'
_cell_volume   755.11109458
_cell_formula_units_Z   1
loop_
 _symmetry_equiv_pos_site_id
 _symmetry_equiv_pos_as_xyz
  1  'x, y, z'
loop_
 _atom_site_type_symbol
 _atom_site_label
 _atom_site_symmetry_multiplicity
 _atom_site_fract_x
 _atom_site_fract_y
 _atom_site_fract_z
 _atom_site_occupancy
  Dy  Dy0  1  0.290876  0.088184  0.375794  1
  Dy  Dy1  1  0.290963  0.911958  0.875957  1
  Dy  Dy2  1  0.705892  0.089731  0.874127  1
  Dy  Dy3  1  0.705904  0.910306  0.374134  1
  Dy  Dy4  1  0.584698  0.790614  0.878069  1
  Dy  Dy5  1  0.584688  0.209337  0.378065  1
  Dy  Dy6  1  0.411136  0.791067  0.377131  1
  Dy  Dy7  1  0.411147  0.208903  0.877220  1
  Dy  Dy8  1  0.209078  0.411651  0.622408  1
  Dy  Dy9  1  0.209129  0.588022  0.122471  1
  Dy  Dy10  1  0.790746  0.414552  0.122895  1
  Dy  Dy11  1  0.790616  0.585356  0.622785  1
  Dy  Dy12  1  0.913534  0.707467  0.126697  1
  Dy  Dy13  1  0.913659  0.292549  0.626611  1
  Dy  Dy14  1  0.091082  0.707338  0.622810  1
  Er  Er15  1  0.091011  0.293049  0.122557  1
  Er  Er16  1  0.002706  0.999786  0.500014  1
  Er  Er17  1  0.002784  0.000520  0.000121  1
  Er  Er18  1  0.499880  0.499564  0.999804  1
  Er  Er19  1  0.499842  0.500365  0.499950  1
  Ir  Ir20  1  0.152266  0.153448  0.750716  1
  Ir  Ir21  1  0.152424  0.846703  0.250167  1
  Ir  Ir22  1  0.654393  0.346238  0.749660  1
  Ir  Ir23  1  0.654412  0.653805  0.249663  1
  Ir  Ir24  1  0.346654  0.346588  0.250059  1
  Ir  Ir25  1  0.346959  0.653375  0.750239  1
  Ir  Ir26  1  0.500814  0.999834  0.122765  1
  Ir  Ir27  1  0.500817  0.000175  0.622881  1
  Ir  Ir28  1  0.999656  0.499797  0.877622  1
  Ir  Ir29  1  0.999672  0.499636  0.377222  1
  Pt  Pt30  1  0.846370  0.153138  0.249612  1
  Pt  Pt31  1  0.846192  0.846946  0.749772  1
