# generated using pymatgen
data_Li2Y3Er3(Co4P3)4
_symmetry_space_group_name_H-M   'P 1'
_cell_length_a   3.71523000
_cell_length_b   10.56691426
_cell_length_c   12.17085430
_cell_angle_alpha   89.97475744
_cell_angle_beta   90.00000000
_cell_angle_gamma   90.00000000
_symmetry_Int_Tables_number   1
_chemical_formula_structural   Li2Y3Er3(Co4P3)4
_chemical_formula_sum   'Li2 Y3 Er3 Co16 P12'
_cell_volume   477.80964209
_cell_formula_units_Z   1
loop_
 _symmetry_equiv_pos_site_id
 _symmetry_equiv_pos_as_xyz
  1  'x, y, z'
loop_
 _atom_site_type_symbol
 _atom_site_label
 _atom_site_symmetry_multiplicity
 _atom_site_fract_x
 _atom_site_fract_y
 _atom_site_fract_z
 _atom_site_occupancy
  Li  Li0  1  0.250000  0.250198  0.847186  1
  Li  Li1  1  0.750000  0.750081  0.152850  1
  Y  Y2  1  0.750000  0.250234  0.477117  1
  Y  Y3  1  0.250000  0.749734  0.522718  1
  Y  Y4  1  0.250000  0.930063  0.794099  1
  Er  Er5  1  0.250000  0.569571  0.793965  1
  Er  Er6  1  0.750000  0.070298  0.205680  1
  Er  Er7  1  0.750000  0.429877  0.206122  1
  Co  Co8  1  0.250000  0.250157  0.294393  1
  Co  Co9  1  0.750000  0.748868  0.705317  1
  Co  Co10  1  0.750000  0.250518  0.012946  1
  Co  Co11  1  0.250000  0.749500  0.988063  1
  Co  Co12  1  0.250000  0.417332  0.003016  1
  Co  Co13  1  0.250000  0.083168  0.003578  1
  Co  Co14  1  0.750000  0.582322  0.997433  1
  Co  Co15  1  0.750000  0.917221  0.997506  1
  Co  Co16  1  0.250000  0.453531  0.569039  1
  Co  Co17  1  0.250000  0.046574  0.568375  1
  Co  Co18  1  0.750000  0.546178  0.430875  1
  Co  Co19  1  0.750000  0.953718  0.430351  1
  Co  Co20  1  0.250000  0.871837  0.292461  1
  Co  Co21  1  0.250000  0.628153  0.292699  1
  Co  Co22  1  0.750000  0.128899  0.706771  1
  Co  Co23  1  0.750000  0.371915  0.707451  1
  P  P24  1  0.250000  0.250330  0.115100  1
  P  P25  1  0.750000  0.749028  0.885652  1
  P  P26  1  0.250000  0.250072  0.654356  1
  P  P27  1  0.750000  0.749961  0.345404  1
  P  P28  1  0.250000  0.440083  0.383248  1
  P  P29  1  0.250000  0.060133  0.382814  1
  P  P30  1  0.750000  0.559547  0.616630  1
  P  P31  1  0.750000  0.940230  0.615686  1
  P  P32  1  0.250000  0.907371  0.107031  1
  P  P33  1  0.250000  0.592392  0.107290  1
  P  P34  1  0.750000  0.093599  0.893752  1
  P  P35  1  0.750000  0.407308  0.893026  1
