# generated using pymatgen
data_PrHo19Sn16
_symmetry_space_group_name_H-M   'P 1'
_cell_length_a   8.02406141
_cell_length_b   8.16634212
_cell_length_c   15.43397373
_cell_angle_alpha   90.00188782
_cell_angle_beta   89.75365251
_cell_angle_gamma   89.82903450
_symmetry_Int_Tables_number   1
_chemical_formula_structural   PrHo19Sn16
_chemical_formula_sum   'Pr1 Ho19 Sn16'
_cell_volume   1011.33170549
_cell_formula_units_Z   1
loop_
 _symmetry_equiv_pos_site_id
 _symmetry_equiv_pos_as_xyz
  1  'x, y, z'
loop_
 _atom_site_type_symbol
 _atom_site_label
 _atom_site_symmetry_multiplicity
 _atom_site_fract_x
 _atom_site_fract_y
 _atom_site_fract_z
 _atom_site_occupancy
  Pr  Pr0  1  0.017670  0.180684  0.903442  1
  Ho  Ho1  1  0.367509  0.836083  0.877771  1
  Ho  Ho2  1  0.868082  0.663721  0.620867  1
  Ho  Ho3  1  0.631542  0.163335  0.378275  1
  Ho  Ho4  1  0.133264  0.337184  0.122337  1
  Ho  Ho5  1  0.633004  0.163681  0.122371  1
  Ho  Ho6  1  0.131824  0.336668  0.378369  1
  Ho  Ho7  1  0.368591  0.836173  0.621293  1
  Ho  Ho8  1  0.867573  0.663388  0.878234  1
  Ho  Ho9  1  0.520496  0.320963  0.901867  1
  Ho  Ho10  1  0.021100  0.180369  0.598467  1
  Ho  Ho11  1  0.479259  0.680016  0.401745  1
  Ho  Ho12  1  0.980379  0.818850  0.098435  1
  Ho  Ho13  1  0.479913  0.680484  0.098398  1
  Ho  Ho14  1  0.979442  0.819901  0.401873  1
  Ho  Ho15  1  0.520732  0.320385  0.597128  1
  Ho  Ho16  1  0.198859  0.503004  0.749275  1
  Ho  Ho17  1  0.698328  0.996703  0.749044  1
  Ho  Ho18  1  0.801451  0.497304  0.250315  1
  Ho  Ho19  1  0.301609  0.002618  0.250363  1
  Sn  Sn20  1  0.295338  0.032985  0.043809  1
  Sn  Sn21  1  0.790951  0.464604  0.457889  1
  Sn  Sn22  1  0.709189  0.965610  0.541798  1
  Sn  Sn23  1  0.210313  0.538361  0.958939  1
  Sn  Sn24  1  0.702769  0.960327  0.959431  1
  Sn  Sn25  1  0.208840  0.535249  0.541689  1
  Sn  Sn26  1  0.291062  0.034952  0.458050  1
  Sn  Sn27  1  0.791045  0.465200  0.042213  1
  Sn  Sn28  1  0.564999  0.620252  0.749835  1
  Sn  Sn29  1  0.065387  0.878125  0.749327  1
  Sn  Sn30  1  0.435034  0.380371  0.250231  1
  Sn  Sn31  1  0.935161  0.120081  0.250227  1
  Sn  Sn32  1  0.330572  0.146329  0.748828  1
  Sn  Sn33  1  0.824879  0.355864  0.747702  1
  Sn  Sn34  1  0.671964  0.853534  0.250032  1
  Sn  Sn35  1  0.171870  0.646644  0.250134  1
