# generated using pymatgen
data_HoEr5Ta2(Co4P3)4
_symmetry_space_group_name_H-M   'P 1'
_cell_length_a   3.69253000
_cell_length_b   10.60158300
_cell_length_c   12.29331100
_cell_angle_alpha   90.00000000
_cell_angle_beta   90.00000000
_cell_angle_gamma   90.00000000
_symmetry_Int_Tables_number   1
_chemical_formula_structural   HoEr5Ta2(Co4P3)4
_chemical_formula_sum   'Ho1 Er5 Ta2 Co16 P12'
_cell_volume   481.24210625
_cell_formula_units_Z   1
loop_
 _symmetry_equiv_pos_site_id
 _symmetry_equiv_pos_as_xyz
  1  'x, y, z'
loop_
 _atom_site_type_symbol
 _atom_site_label
 _atom_site_symmetry_multiplicity
 _atom_site_fract_x
 _atom_site_fract_y
 _atom_site_fract_z
 _atom_site_occupancy
  Ho  Ho0  1  0.500000  0.000000  0.472838  1
  Er  Er1  1  0.000000  0.500000  0.527193  1
  Er  Er2  1  0.500000  0.821052  0.205144  1
  Er  Er3  1  0.500000  0.178948  0.205144  1
  Er  Er4  1  0.000000  0.678817  0.794722  1
  Er  Er5  1  0.000000  0.321183  0.794722  1
  Ta  Ta6  1  0.500000  0.500000  0.157184  1
  Ta  Ta7  1  0.000000  0.000000  0.843065  1
  Co  Co8  1  0.000000  0.500000  0.986967  1
  Co  Co9  1  0.500000  0.000000  0.013018  1
  Co  Co10  1  0.500000  0.295777  0.432396  1
  Co  Co11  1  0.500000  0.704223  0.432396  1
  Co  Co12  1  0.000000  0.204796  0.567636  1
  Co  Co13  1  0.000000  0.795204  0.567636  1
  Co  Co14  1  0.500000  0.877173  0.705326  1
  Co  Co15  1  0.500000  0.122827  0.705326  1
  Co  Co16  1  0.000000  0.622618  0.294743  1
  Co  Co17  1  0.000000  0.377382  0.294743  1
  Co  Co18  1  0.500000  0.332684  0.992305  1
  Co  Co19  1  0.500000  0.667316  0.992305  1
  Co  Co20  1  0.000000  0.167425  0.007702  1
  Co  Co21  1  0.000000  0.832575  0.007702  1
  Co  Co22  1  0.500000  0.500000  0.702191  1
  Co  Co23  1  0.000000  0.000000  0.297491  1
  P  P24  1  0.500000  0.312077  0.615922  1
  P  P25  1  0.500000  0.687923  0.615922  1
  P  P26  1  0.000000  0.188297  0.383944  1
  P  P27  1  0.000000  0.811703  0.383944  1
  P  P28  1  0.500000  0.500000  0.881292  1
  P  P29  1  0.000000  0.000000  0.118636  1
  P  P30  1  0.500000  0.840360  0.892101  1
  P  P31  1  0.500000  0.159640  0.892101  1
  P  P32  1  0.000000  0.659534  0.107911  1
  P  P33  1  0.000000  0.340466  0.107911  1
  P  P34  1  0.500000  0.500000  0.357792  1
  P  P35  1  0.000000  0.000000  0.642625  1
