# generated using pymatgen
data_Er10Lu6Cd4Ru3Pt
_symmetry_space_group_name_H-M   'P 1'
_cell_length_a   9.51616496
_cell_length_b   9.55651451
_cell_length_c   9.55626898
_cell_angle_alpha   59.48890218
_cell_angle_beta   59.43687338
_cell_angle_gamma   59.43261930
_symmetry_Int_Tables_number   1
_chemical_formula_structural   Er10Lu6Cd4Ru3Pt
_chemical_formula_sum   'Er10 Lu6 Cd4 Ru3 Pt1'
_cell_volume   606.86820999
_cell_formula_units_Z   1
loop_
 _symmetry_equiv_pos_site_id
 _symmetry_equiv_pos_as_xyz
  1  'x, y, z'
loop_
 _atom_site_type_symbol
 _atom_site_label
 _atom_site_symmetry_multiplicity
 _atom_site_fract_x
 _atom_site_fract_y
 _atom_site_fract_z
 _atom_site_occupancy
  Er  Er0  1  0.187455  0.811042  0.188386  1
  Er  Er1  1  0.813578  0.189326  0.805055  1
  Er  Er2  1  0.187463  0.188375  0.811058  1
  Er  Er3  1  0.813541  0.805147  0.189213  1
  Er  Er4  1  0.938321  0.560289  0.560305  1
  Er  Er5  1  0.557593  0.937946  0.937972  1
  Er  Er6  1  0.557278  0.939059  0.564790  1
  Er  Er7  1  0.938068  0.560388  0.938528  1
  Er  Er8  1  0.557282  0.564886  0.938951  1
  Er  Er9  1  0.937990  0.938498  0.560393  1
  Lu  Lu10  1  0.346677  0.350570  0.350488  1
  Lu  Lu11  1  0.345580  0.350641  0.957210  1
  Lu  Lu12  1  0.345665  0.957185  0.350620  1
  Lu  Lu13  1  0.964283  0.344803  0.344702  1
  Lu  Lu14  1  0.814573  0.189150  0.189260  1
  Lu  Lu15  1  0.185298  0.811175  0.811194  1
  Cd  Cd16  1  0.579524  0.580586  0.580820  1
  Cd  Cd17  1  0.581028  0.580275  0.257989  1
  Cd  Cd18  1  0.580871  0.257997  0.580406  1
  Cd  Cd19  1  0.256376  0.581378  0.581367  1
  Ru  Ru20  1  0.145137  0.139183  0.139192  1
  Ru  Ru21  1  0.145904  0.141873  0.575919  1
  Ru  Ru22  1  0.145881  0.575961  0.141867  1
  Pt  Pt23  1  0.574636  0.144267  0.144316  1
