# generated using pymatgen
data_DyHo4Tm3(WO6)4
_symmetry_space_group_name_H-M   'P 1'
_cell_length_a   5.37118241
_cell_length_b   7.66740107
_cell_length_c   11.40122891
_cell_angle_alpha   75.43597418
_cell_angle_beta   89.99943570
_cell_angle_gamma   90.04297489
_symmetry_Int_Tables_number   1
_chemical_formula_structural   DyHo4Tm3(WO6)4
_chemical_formula_sum   'Dy1 Ho4 Tm3 W4 O24'
_cell_volume   454.44926971
_cell_formula_units_Z   1
loop_
 _symmetry_equiv_pos_site_id
 _symmetry_equiv_pos_as_xyz
  1  'x, y, z'
loop_
 _atom_site_type_symbol
 _atom_site_label
 _atom_site_symmetry_multiplicity
 _atom_site_fract_x
 _atom_site_fract_y
 _atom_site_fract_z
 _atom_site_occupancy
  Dy  Dy0  1  0.316194  0.499830  0.249837  1
  Ho  Ho1  1  0.740020  0.000355  0.750715  1
  Ho  Ho2  1  0.259403  0.000260  0.249449  1
  Ho  Ho3  1  0.184488  0.795302  0.578124  1
  Ho  Ho4  1  0.684298  0.499540  0.750558  1
  Tm  Tm5  1  0.815870  0.794805  0.078196  1
  Tm  Tm6  1  0.184022  0.205436  0.921394  1
  Tm  Tm7  1  0.815296  0.205551  0.421553  1
  W  W8  1  0.255597  0.723185  0.886054  1
  W  W9  1  0.744890  0.723584  0.385267  1
  W  W10  1  0.255188  0.276414  0.614434  1
  W  W11  1  0.744764  0.276205  0.114077  1
  O  O12  1  0.044407  0.941102  0.896050  1
  O  O13  1  0.535251  0.846612  0.932445  1
  O  O14  1  0.955889  0.941369  0.396017  1
  O  O15  1  0.459543  0.790521  0.727545  1
  O  O16  1  0.465787  0.847481  0.430230  1
  O  O17  1  0.980259  0.710398  0.771778  1
  O  O18  1  0.542768  0.791025  0.225826  1
  O  O19  1  0.849468  0.634479  0.549280  1
  O  O20  1  0.360370  0.488132  0.886379  1
  O  O21  1  0.019379  0.712353  0.270306  1
  O  O22  1  0.362458  0.510613  0.613875  1
  O  O23  1  0.851973  0.364498  0.950401  1
  O  O24  1  0.146948  0.634653  0.049218  1
  O  O25  1  0.640761  0.488183  0.386107  1
  O  O26  1  0.981208  0.289746  0.729738  1
  O  O27  1  0.641295  0.511481  0.113304  1
  O  O28  1  0.147061  0.365381  0.451021  1
  O  O29  1  0.457580  0.208559  0.773916  1
  O  O30  1  0.018885  0.287586  0.229587  1
  O  O31  1  0.534487  0.152855  0.568274  1
  O  O32  1  0.542553  0.208677  0.273607  1
  O  O33  1  0.041569  0.060747  0.604151  1
  O  O34  1  0.463836  0.153944  0.068178  1
  O  O35  1  0.956236  0.059137  0.103111  1
