# generated using pymatgen
data_Yb10CuPd2Ru
_symmetry_space_group_name_H-M   'P 1'
_cell_length_a   8.69944405
_cell_length_b   8.68925233
_cell_length_c   7.51575394
_cell_angle_alpha   82.97313920
_cell_angle_beta   83.45823436
_cell_angle_gamma   44.00669153
_symmetry_Int_Tables_number   1
_chemical_formula_structural   Yb10CuPd2Ru
_chemical_formula_sum   'Yb10 Cu1 Pd2 Ru1'
_cell_volume   391.46094436
_cell_formula_units_Z   1
loop_
 _symmetry_equiv_pos_site_id
 _symmetry_equiv_pos_as_xyz
  1  'x, y, z'
loop_
 _atom_site_type_symbol
 _atom_site_label
 _atom_site_symmetry_multiplicity
 _atom_site_fract_x
 _atom_site_fract_y
 _atom_site_fract_z
 _atom_site_occupancy
  Yb  Yb0  1  0.025296  0.788265  0.913888  1
  Yb  Yb1  1  0.201818  0.969004  0.577265  1
  Yb  Yb2  1  0.973085  0.205261  0.081151  1
  Yb  Yb3  1  0.803066  0.012593  0.422751  1
  Yb  Yb4  1  0.360742  0.212631  0.811143  1
  Yb  Yb5  1  0.807336  0.635059  0.679013  1
  Yb  Yb6  1  0.633370  0.803354  0.181370  1
  Yb  Yb7  1  0.202343  0.369227  0.328356  1
  Yb  Yb8  1  0.572504  0.422393  0.742420  1
  Yb  Yb9  1  0.417610  0.575125  0.262020  1
  Cu  Cu10  1  0.405610  0.815719  0.920893  1
  Pd  Pd11  1  0.818150  0.405968  0.418289  1
  Pd  Pd12  1  0.601897  0.178613  0.079387  1
  Ru  Ru13  1  0.177171  0.606790  0.582054  1
