# generated using pymatgen
data_Dy5ReOsC7
_symmetry_space_group_name_H-M   'P 1'
_cell_length_a   8.26229477
_cell_length_b   8.26229522
_cell_length_c   3.47634000
_cell_angle_alpha   90.00000000
_cell_angle_beta   90.00000000
_cell_angle_gamma   122.54110389
_symmetry_Int_Tables_number   1
_chemical_formula_structural   Dy5ReOsC7
_chemical_formula_sum   'Dy5 Re1 Os1 C7'
_cell_volume   200.05720035
_cell_formula_units_Z   1
loop_
 _symmetry_equiv_pos_site_id
 _symmetry_equiv_pos_as_xyz
  1  'x, y, z'
loop_
 _atom_site_type_symbol
 _atom_site_label
 _atom_site_symmetry_multiplicity
 _atom_site_fract_x
 _atom_site_fract_y
 _atom_site_fract_z
 _atom_site_occupancy
  Dy  Dy0  1  0.500667  0.499333  0.000000  1
  Dy  Dy1  1  0.074690  0.335616  0.500000  1
  Dy  Dy2  1  0.923383  0.663479  0.500000  1
  Dy  Dy3  1  0.664384  0.925310  0.500000  1
  Dy  Dy4  1  0.336521  0.076617  0.500000  1
  Re  Re5  1  0.285405  0.714595  0.000000  1
  Os  Os6  1  0.712961  0.287039  0.000000  1
  C  C7  1  0.631380  0.368620  0.500000  1
  C  C8  1  0.373692  0.626308  0.500000  1
  C  C9  1  0.999512  0.000488  0.000000  1
  C  C10  1  0.170392  0.171013  0.000000  1
  C  C11  1  0.828987  0.829608  0.000000  1
  C  C12  1  0.999213  0.501185  0.000000  1
  C  C13  1  0.498815  0.000787  0.000000  1
