# generated using pymatgen
data_Sc8GeBBr12
_symmetry_space_group_name_H-M   'P 1'
_cell_length_a   3.79767800
_cell_length_b   12.70497022
_cell_length_c   13.16202211
_cell_angle_alpha   89.53351851
_cell_angle_beta   90.00000000
_cell_angle_gamma   90.00000000
_symmetry_Int_Tables_number   1
_chemical_formula_structural   Sc8GeBBr12
_chemical_formula_sum   'Sc8 Ge1 B1 Br12'
_cell_volume   635.03843619
_cell_formula_units_Z   1
loop_
 _symmetry_equiv_pos_site_id
 _symmetry_equiv_pos_as_xyz
  1  'x, y, z'
loop_
 _atom_site_type_symbol
 _atom_site_label
 _atom_site_symmetry_multiplicity
 _atom_site_fract_x
 _atom_site_fract_y
 _atom_site_fract_z
 _atom_site_occupancy
  Sc  Sc0  1  0.000000  0.112728  0.089772  1
  Sc  Sc1  1  0.000000  0.887272  0.910228  1
  Sc  Sc2  1  0.000000  0.596515  0.423041  1
  Sc  Sc3  1  0.000000  0.403485  0.576959  1
  Sc  Sc4  1  0.500000  0.131618  0.845573  1
  Sc  Sc5  1  0.500000  0.868382  0.154427  1
  Sc  Sc6  1  0.500000  0.616570  0.636904  1
  Sc  Sc7  1  0.500000  0.383430  0.363096  1
  Ge  Ge8  1  0.500000  0.000000  0.000000  1
  B  B9  1  0.500000  0.500000  0.500000  1
  Br  Br10  1  0.500000  0.271857  0.678977  1
  Br  Br11  1  0.500000  0.728143  0.321023  1
  Br  Br12  1  0.500000  0.765127  0.816058  1
  Br  Br13  1  0.500000  0.234873  0.183942  1
  Br  Br14  1  0.000000  0.260162  0.930081  1
  Br  Br15  1  0.000000  0.739838  0.069919  1
  Br  Br16  1  0.000000  0.480647  0.245195  1
  Br  Br17  1  0.000000  0.519353  0.754805  1
  Br  Br18  1  0.000000  0.979049  0.260167  1
  Br  Br19  1  0.000000  0.020951  0.739833  1
  Br  Br20  1  0.000000  0.245065  0.432777  1
  Br  Br21  1  0.000000  0.754935  0.567223  1
