# generated using pymatgen
data_Ca7TaGe2N9
_symmetry_space_group_name_H-M   'P 1'
_cell_length_a   10.14706200
_cell_length_b   6.10494149
_cell_length_c   9.13453555
_cell_angle_alpha   87.20599359
_cell_angle_beta   90.00000000
_cell_angle_gamma   90.00000000
_symmetry_Int_Tables_number   1
_chemical_formula_structural   Ca7TaGe2N9
_chemical_formula_sum   'Ca14 Ta2 Ge4 N18'
_cell_volume   565.18641189
_cell_formula_units_Z   2
loop_
 _symmetry_equiv_pos_site_id
 _symmetry_equiv_pos_as_xyz
  1  'x, y, z'
loop_
 _atom_site_type_symbol
 _atom_site_label
 _atom_site_symmetry_multiplicity
 _atom_site_fract_x
 _atom_site_fract_y
 _atom_site_fract_z
 _atom_site_occupancy
  Ca  Ca0  1  0.939538  0.428981  0.165971  1
  Ca  Ca1  1  0.076725  0.246983  0.494003  1
  Ca  Ca2  1  0.250000  0.086910  0.798713  1
  Ca  Ca3  1  0.439538  0.571019  0.834029  1
  Ca  Ca4  1  0.576725  0.753017  0.505997  1
  Ca  Ca5  1  0.576409  0.067943  0.830084  1
  Ca  Ca6  1  0.923591  0.067943  0.830084  1
  Ca  Ca7  1  0.423591  0.932057  0.169916  1
  Ca  Ca8  1  0.423275  0.246983  0.494003  1
  Ca  Ca9  1  0.076409  0.932057  0.169916  1
  Ca  Ca10  1  0.923275  0.753017  0.505997  1
  Ca  Ca11  1  0.060462  0.571019  0.834029  1
  Ca  Ca12  1  0.750000  0.913090  0.201287  1
  Ca  Ca13  1  0.560462  0.428981  0.165971  1
  Ta  Ta14  1  0.750000  0.278723  0.436409  1
  Ta  Ta15  1  0.250000  0.721277  0.563591  1
  Ge  Ge16  1  0.250000  0.320730  0.054385  1
  Ge  Ge17  1  0.750000  0.455829  0.720652  1
  Ge  Ge18  1  0.750000  0.679270  0.945615  1
  Ge  Ge19  1  0.250000  0.544171  0.279348  1
  N  N20  1  0.408184  0.227713  0.975200  1
  N  N21  1  0.250000  0.229166  0.264191  1
  N  N22  1  0.898918  0.117569  0.342265  1
  N  N23  1  0.605667  0.357577  0.622379  1
  N  N24  1  0.750000  0.556963  0.330636  1
  N  N25  1  0.250000  0.639019  0.073439  1
  N  N26  1  0.894333  0.357577  0.622379  1
  N  N27  1  0.394333  0.642423  0.377621  1
  N  N28  1  0.750000  0.360981  0.926561  1
  N  N29  1  0.101082  0.882431  0.657735  1
  N  N30  1  0.750000  0.770834  0.735809  1
  N  N31  1  0.105667  0.642423  0.377621  1
  N  N32  1  0.591816  0.772287  0.024800  1
  N  N33  1  0.250000  0.443037  0.669364  1
  N  N34  1  0.398918  0.882431  0.657735  1
  N  N35  1  0.601082  0.117569  0.342265  1
  N  N36  1  0.091816  0.227713  0.975200  1
  N  N37  1  0.908184  0.772287  0.024800  1
