# generated using pymatgen
data_CaPr9(SiSb2)2
_symmetry_space_group_name_H-M   'P 1'
_cell_length_a   8.24406300
_cell_length_b   9.37052500
_cell_length_c   12.45728200
_cell_angle_alpha   90.00000000
_cell_angle_beta   90.00000000
_cell_angle_gamma   90.00000000
_symmetry_Int_Tables_number   1
_chemical_formula_structural   CaPr9(SiSb2)2
_chemical_formula_sum   'Ca2 Pr18 Si4 Sb8'
_cell_volume   962.33996384
_cell_formula_units_Z   2
loop_
 _symmetry_equiv_pos_site_id
 _symmetry_equiv_pos_as_xyz
  1  'x, y, z'
loop_
 _atom_site_type_symbol
 _atom_site_label
 _atom_site_symmetry_multiplicity
 _atom_site_fract_x
 _atom_site_fract_y
 _atom_site_fract_z
 _atom_site_occupancy
  Ca  Ca0  1  0.459022  0.250000  0.500579  1
  Ca  Ca1  1  0.959022  0.750000  0.999421  1
  Pr  Pr2  1  0.311525  0.958425  0.065161  1
  Pr  Pr3  1  0.811525  0.041575  0.434839  1
  Pr  Pr4  1  0.689654  0.457671  0.936536  1
  Pr  Pr5  1  0.189654  0.542329  0.563464  1
  Pr  Pr6  1  0.689654  0.042329  0.936536  1
  Pr  Pr7  1  0.189654  0.957671  0.563464  1
  Pr  Pr8  1  0.311525  0.541575  0.065161  1
  Pr  Pr9  1  0.811525  0.458425  0.434839  1
  Pr  Pr10  1  0.659967  0.750000  0.210970  1
  Pr  Pr11  1  0.159967  0.250000  0.289030  1
  Pr  Pr12  1  0.338828  0.250000  0.786877  1
  Pr  Pr13  1  0.838828  0.750000  0.713123  1
  Pr  Pr14  1  0.138764  0.750000  0.293331  1
  Pr  Pr15  1  0.638764  0.250000  0.206669  1
  Pr  Pr16  1  0.861353  0.250000  0.707892  1
  Pr  Pr17  1  0.361353  0.750000  0.792108  1
  Pr  Pr18  1  0.534943  0.750000  0.500033  1
  Pr  Pr19  1  0.034943  0.250000  0.999967  1
  Si  Si20  1  0.574362  0.750000  0.980575  1
  Si  Si21  1  0.074362  0.250000  0.519425  1
  Si  Si22  1  0.428478  0.250000  0.016388  1
  Si  Si23  1  0.928478  0.750000  0.483612  1
  Sb  Sb24  1  0.928672  0.006593  0.173249  1
  Sb  Sb25  1  0.428672  0.993407  0.326751  1
  Sb  Sb26  1  0.072291  0.509770  0.827431  1
  Sb  Sb27  1  0.572291  0.490230  0.672569  1
  Sb  Sb28  1  0.072291  0.990230  0.827431  1
  Sb  Sb29  1  0.572291  0.009770  0.672569  1
  Sb  Sb30  1  0.928672  0.493407  0.173249  1
  Sb  Sb31  1  0.428672  0.506593  0.326751  1
