# generated using pymatgen
data_Yb12Er7LuSi16
_symmetry_space_group_name_H-M   'P 1'
_cell_length_a   7.34503341
_cell_length_b   7.77574724
_cell_length_c   15.03586741
_cell_angle_alpha   90.00576228
_cell_angle_beta   89.97370554
_cell_angle_gamma   89.97216523
_symmetry_Int_Tables_number   1
_chemical_formula_structural   Yb12Er7LuSi16
_chemical_formula_sum   'Yb12 Er7 Lu1 Si16'
_cell_volume   858.74515287
_cell_formula_units_Z   1
loop_
 _symmetry_equiv_pos_site_id
 _symmetry_equiv_pos_as_xyz
  1  'x, y, z'
loop_
 _atom_site_type_symbol
 _atom_site_label
 _atom_site_symmetry_multiplicity
 _atom_site_fract_x
 _atom_site_fract_y
 _atom_site_fract_z
 _atom_site_occupancy
  Yb  Yb0  1  0.974311  0.816699  0.404087  1
  Yb  Yb1  1  0.474440  0.683348  0.095809  1
  Yb  Yb2  1  0.525719  0.316711  0.595989  1
  Yb  Yb3  1  0.025478  0.183138  0.904049  1
  Yb  Yb4  1  0.025635  0.183207  0.596016  1
  Yb  Yb5  1  0.525924  0.316649  0.904070  1
  Yb  Yb6  1  0.474263  0.683318  0.404069  1
  Yb  Yb7  1  0.974137  0.816780  0.095838  1
  Yb  Yb8  1  0.351872  0.020146  0.750099  1
  Yb  Yb9  1  0.851594  0.479871  0.750148  1
  Yb  Yb10  1  0.148351  0.520367  0.250029  1
  Yb  Yb11  1  0.648382  0.979620  0.249974  1
  Er  Er12  1  0.315044  0.176294  0.120846  1
  Er  Er13  1  0.814831  0.323642  0.378982  1
  Er  Er14  1  0.185133  0.676681  0.878889  1
  Er  Er15  1  0.685083  0.823513  0.621147  1
  Er  Er16  1  0.314843  0.176362  0.378973  1
  Er  Er17  1  0.814803  0.323630  0.120923  1
  Er  Er18  1  0.185210  0.676475  0.621175  1
  Lu  Lu19  1  0.684986  0.823998  0.878898  1
  Si  Si20  1  0.856599  0.533799  0.538181  1
  Si  Si21  1  0.357514  0.965679  0.961509  1
  Si  Si22  1  0.643404  0.033841  0.461866  1
  Si  Si23  1  0.143228  0.466456  0.038080  1
  Si  Si24  1  0.143458  0.466176  0.461849  1
  Si  Si25  1  0.643975  0.033201  0.037620  1
  Si  Si26  1  0.356498  0.966121  0.538143  1
  Si  Si27  1  0.855505  0.534514  0.961487  1
  Si  Si28  1  0.976275  0.879563  0.750471  1
  Si  Si29  1  0.477530  0.620751  0.750257  1
  Si  Si30  1  0.523106  0.379924  0.249973  1
  Si  Si31  1  0.023142  0.120068  0.249983  1
  Si  Si32  1  0.249306  0.396331  0.750102  1
  Si  Si33  1  0.748558  0.103189  0.750495  1
  Si  Si34  1  0.250956  0.896193  0.249980  1
  Si  Si35  1  0.750907  0.603749  0.249991  1
