# generated using pymatgen
data_Dy4BI6
_symmetry_space_group_name_H-M   'P 1'
_cell_length_a   4.12932100
_cell_length_b   13.94725200
_cell_length_c   14.42434100
_cell_angle_alpha   90.00000000
_cell_angle_beta   90.00000000
_cell_angle_gamma   90.00000000
_symmetry_Int_Tables_number   1
_chemical_formula_structural   Dy4BI6
_chemical_formula_sum   'Dy8 B2 I12'
_cell_volume   830.73646373
_cell_formula_units_Z   2
loop_
 _symmetry_equiv_pos_site_id
 _symmetry_equiv_pos_as_xyz
  1  'x, y, z'
loop_
 _atom_site_type_symbol
 _atom_site_label
 _atom_site_symmetry_multiplicity
 _atom_site_fract_x
 _atom_site_fract_y
 _atom_site_fract_z
 _atom_site_occupancy
  Dy  Dy0  1  0.000000  0.095820  0.076299  1
  Dy  Dy1  1  0.000000  0.904180  0.923701  1
  Dy  Dy2  1  0.000000  0.595820  0.423701  1
  Dy  Dy3  1  0.000000  0.404180  0.576299  1
  Dy  Dy4  1  0.500000  0.117390  0.862210  1
  Dy  Dy5  1  0.500000  0.882610  0.137790  1
  Dy  Dy6  1  0.500000  0.617390  0.637790  1
  Dy  Dy7  1  0.500000  0.382610  0.362210  1
  B  B8  1  0.500000  0.000000  0.000000  1
  B  B9  1  0.500000  0.500000  0.500000  1
  I  I10  1  0.500000  0.268110  0.681481  1
  I  I11  1  0.500000  0.731890  0.318519  1
  I  I12  1  0.500000  0.768110  0.818519  1
  I  I13  1  0.500000  0.231890  0.181481  1
  I  I14  1  0.000000  0.263986  0.932292  1
  I  I15  1  0.000000  0.736014  0.067708  1
  I  I16  1  0.000000  0.482121  0.236506  1
  I  I17  1  0.000000  0.517879  0.763494  1
  I  I18  1  0.000000  0.982121  0.263494  1
  I  I19  1  0.000000  0.017879  0.736506  1
  I  I20  1  0.000000  0.236014  0.432292  1
  I  I21  1  0.000000  0.763986  0.567708  1
