# generated using pymatgen
data_PrNdS3
_symmetry_space_group_name_H-M   'P 1'
_cell_length_a   4.08104600
_cell_length_b   7.53390700
_cell_length_c   15.71331700
_cell_angle_alpha   90.00000000
_cell_angle_beta   90.00000000
_cell_angle_gamma   90.00000000
_symmetry_Int_Tables_number   1
_chemical_formula_structural   PrNdS3
_chemical_formula_sum   'Pr4 Nd4 S12'
_cell_volume   483.12511754
_cell_formula_units_Z   4
loop_
 _symmetry_equiv_pos_site_id
 _symmetry_equiv_pos_as_xyz
  1  'x, y, z'
loop_
 _atom_site_type_symbol
 _atom_site_label
 _atom_site_symmetry_multiplicity
 _atom_site_fract_x
 _atom_site_fract_y
 _atom_site_fract_z
 _atom_site_occupancy
  Pr  Pr0  1  0.250000  0.142679  0.796265  1
  Pr  Pr1  1  0.250000  0.642679  0.703735  1
  Pr  Pr2  1  0.750000  0.857321  0.203735  1
  Pr  Pr3  1  0.750000  0.357321  0.296265  1
  Nd  Nd4  1  0.250000  0.765749  0.456590  1
  Nd  Nd5  1  0.250000  0.265749  0.043410  1
  Nd  Nd6  1  0.750000  0.234251  0.543410  1
  Nd  Nd7  1  0.750000  0.734251  0.956590  1
  S  S8  1  0.250000  0.147901  0.218181  1
  S  S9  1  0.250000  0.647901  0.281819  1
  S  S10  1  0.750000  0.852099  0.781819  1
  S  S11  1  0.750000  0.352099  0.718181  1
  S  S12  1  0.250000  0.009009  0.608246  1
  S  S13  1  0.250000  0.509009  0.891754  1
  S  S14  1  0.750000  0.990991  0.391754  1
  S  S15  1  0.750000  0.490991  0.108246  1
  S  S16  1  0.250000  0.375118  0.433296  1
  S  S17  1  0.250000  0.875118  0.066704  1
  S  S18  1  0.750000  0.624882  0.566704  1
  S  S19  1  0.750000  0.124882  0.933296  1
