# generated using pymatgen
data_PaTaBr10
_symmetry_space_group_name_H-M   'P 1'
_cell_length_a   7.38959065
_cell_length_b   7.97755802
_cell_length_c   10.60599609
_cell_angle_alpha   110.00998313
_cell_angle_beta   90.99985661
_cell_angle_gamma   115.90058610
_symmetry_Int_Tables_number   1
_chemical_formula_structural   PaTaBr10
_chemical_formula_sum   'Pa1 Ta1 Br10'
_cell_volume   518.07077793
_cell_formula_units_Z   1
loop_
 _symmetry_equiv_pos_site_id
 _symmetry_equiv_pos_as_xyz
  1  'x, y, z'
loop_
 _atom_site_type_symbol
 _atom_site_label
 _atom_site_symmetry_multiplicity
 _atom_site_fract_x
 _atom_site_fract_y
 _atom_site_fract_z
 _atom_site_occupancy
  Pa  Pa0  1  0.098630  0.203983  0.205930  1
  Ta  Ta1  1  0.895013  0.783150  0.781408  1
  Br  Br2  1  0.769466  0.817623  0.031936  1
  Br  Br3  1  0.887544  0.378534  0.151443  1
  Br  Br4  1  0.302692  0.016986  0.250074  1
  Br  Br5  1  0.431289  0.564273  0.325606  1
  Br  Br6  1  0.932267  0.182650  0.424790  1
  Br  Br7  1  0.053253  0.809512  0.585882  1
  Br  Br8  1  0.590313  0.457032  0.674780  1
  Br  Br9  1  0.718348  0.979479  0.766251  1
  Br  Br10  1  0.100321  0.646222  0.855993  1
  Br  Br11  1  0.220864  0.160558  0.945904  1
