# generated using pymatgen
data_LiYEr18(Cd3Rh)2
_symmetry_space_group_name_H-M   'P 1'
_cell_length_a   9.51520230
_cell_length_b   9.51060032
_cell_length_c   9.63394601
_cell_angle_alpha   90.00010049
_cell_angle_beta   90.00425794
_cell_angle_gamma   119.98116804
_symmetry_Int_Tables_number   1
_chemical_formula_structural   LiYEr18(Cd3Rh)2
_chemical_formula_sum   'Li1 Y1 Er18 Cd6 Rh2'
_cell_volume   755.16730237
_cell_formula_units_Z   1
loop_
 _symmetry_equiv_pos_site_id
 _symmetry_equiv_pos_as_xyz
  1  'x, y, z'
loop_
 _atom_site_type_symbol
 _atom_site_label
 _atom_site_symmetry_multiplicity
 _atom_site_fract_x
 _atom_site_fract_y
 _atom_site_fract_z
 _atom_site_occupancy
  Li  Li0  1  0.999901  0.999955  0.499847  1
  Y  Y1  1  0.084778  0.542390  0.748021  1
  Er  Er2  1  0.999791  0.999898  0.999971  1
  Er  Er3  1  0.208137  0.792769  0.440641  1
  Er  Er4  1  0.208132  0.415354  0.440646  1
  Er  Er5  1  0.584166  0.792079  0.441110  1
  Er  Er6  1  0.791522  0.207290  0.558649  1
  Er  Er7  1  0.791519  0.584228  0.558642  1
  Er  Er8  1  0.415743  0.207869  0.558811  1
  Er  Er9  1  0.789446  0.209326  0.943217  1
  Er  Er10  1  0.789452  0.580126  0.943219  1
  Er  Er11  1  0.419574  0.209784  0.942928  1
  Er  Er12  1  0.210238  0.790775  0.057669  1
  Er  Er13  1  0.210236  0.419449  0.057655  1
  Er  Er14  1  0.580254  0.790126  0.057209  1
  Er  Er15  1  0.542484  0.457801  0.252250  1
  Er  Er16  1  0.542488  0.084683  0.252252  1
  Er  Er17  1  0.915668  0.457826  0.252317  1
  Er  Er18  1  0.458364  0.542155  0.747805  1
  Er  Er19  1  0.458359  0.916202  0.747806  1
  Cd  Cd20  1  0.888512  0.111116  0.259414  1
  Cd  Cd21  1  0.888465  0.777346  0.259382  1
  Cd  Cd22  1  0.222727  0.111393  0.259353  1
  Cd  Cd23  1  0.111609  0.889805  0.740354  1
  Cd  Cd24  1  0.111654  0.221849  0.740396  1
  Cd  Cd25  1  0.777326  0.888630  0.740497  1
  Rh  Rh26  1  0.333369  0.666706  0.250169  1
  Rh  Rh27  1  0.666086  0.333069  0.749772  1
