# generated using pymatgen
data_Ca5P12Ir16Ru2Rh
_symmetry_space_group_name_H-M   'P 1'
_cell_length_a   12.64978900
_cell_length_b   12.69367506
_cell_length_c   3.98132500
_cell_angle_alpha   90.00000000
_cell_angle_beta   90.00000000
_cell_angle_gamma   119.88569603
_symmetry_Int_Tables_number   1
_chemical_formula_structural   Ca5P12Ir16Ru2Rh
_chemical_formula_sum   'Ca5 P12 Ir16 Ru2 Rh1'
_cell_volume   554.27844630
_cell_formula_units_Z   1
loop_
 _symmetry_equiv_pos_site_id
 _symmetry_equiv_pos_as_xyz
  1  'x, y, z'
loop_
 _atom_site_type_symbol
 _atom_site_label
 _atom_site_symmetry_multiplicity
 _atom_site_fract_x
 _atom_site_fract_y
 _atom_site_fract_z
 _atom_site_occupancy
  Ca  Ca0  1  0.332421  0.665568  0.500000  1
  Ca  Ca1  1  0.666854  0.334432  0.500000  1
  Ca  Ca2  1  0.999388  0.816216  0.000000  1
  Ca  Ca3  1  0.183171  0.183784  0.000000  1
  Ca  Ca4  1  0.817082  0.000000  0.000000  1
  P  P5  1  0.000520  0.636847  0.500000  1
  P  P6  1  0.363672  0.363153  0.500000  1
  P  P7  1  0.639940  0.000000  0.500000  1
  P  P8  1  0.514998  0.685688  0.000000  1
  P  P9  1  0.311542  0.827576  0.000000  1
  P  P10  1  0.170350  0.484336  0.000000  1
  P  P11  1  0.483966  0.172424  0.000000  1
  P  P12  1  0.686014  0.515664  0.000000  1
  P  P13  1  0.829309  0.314312  0.000000  1
  P  P14  1  0.000401  0.180272  0.500000  1
  P  P15  1  0.820129  0.819728  0.500000  1
  P  P16  1  0.180974  0.000000  0.500000  1
  Ir  Ir17  1  0.509321  0.868568  0.000000  1
  Ir  Ir18  1  0.127900  0.639039  0.000000  1
  Ir  Ir19  1  0.359106  0.490164  0.000000  1
  Ir  Ir20  1  0.488862  0.360961  0.000000  1
  Ir  Ir21  1  0.868944  0.509836  0.000000  1
  Ir  Ir22  1  0.640755  0.131432  0.000000  1
  Ir  Ir23  1  0.000389  0.288648  0.000000  1
  Ir  Ir24  1  0.711741  0.711352  0.000000  1
  Ir  Ir25  1  0.285488  0.000000  0.000000  1
  Ir  Ir26  1  0.623497  0.804192  0.500000  1
  Ir  Ir27  1  0.196817  0.818860  0.500000  1
  Ir  Ir28  1  0.181103  0.376341  0.500000  1
  Ir  Ir29  1  0.377957  0.181140  0.500000  1
  Ir  Ir30  1  0.804762  0.623659  0.500000  1
  Ir  Ir31  1  0.819305  0.195808  0.500000  1
  Ir  Ir32  1  0.000435  0.000000  0.500000  1
  Ru  Ru33  1  0.998996  0.455354  0.500000  1
  Ru  Ru34  1  0.543643  0.544646  0.500000  1
  Rh  Rh35  1  0.460245  0.000000  0.500000  1
