# generated using pymatgen
data_Ti10Cu2(SnSb)3
_symmetry_space_group_name_H-M   'P 1'
_cell_length_a   8.19732700
_cell_length_b   8.19732825
_cell_length_c   5.50241800
_cell_angle_alpha   90.00000000
_cell_angle_beta   90.00000000
_cell_angle_gamma   120.00000707
_symmetry_Int_Tables_number   1
_chemical_formula_structural   Ti10Cu2(SnSb)3
_chemical_formula_sum   'Ti10 Cu2 Sn3 Sb3'
_cell_volume   320.20548418
_cell_formula_units_Z   1
loop_
 _symmetry_equiv_pos_site_id
 _symmetry_equiv_pos_as_xyz
  1  'x, y, z'
loop_
 _atom_site_type_symbol
 _atom_site_label
 _atom_site_symmetry_multiplicity
 _atom_site_fract_x
 _atom_site_fract_y
 _atom_site_fract_z
 _atom_site_occupancy
  Ti  Ti0  1  0.666667  0.333333  0.500126  1
  Ti  Ti1  1  0.333333  0.666667  0.500126  1
  Ti  Ti2  1  0.333333  0.666667  0.999874  1
  Ti  Ti3  1  0.666667  0.333333  0.999874  1
  Ti  Ti4  1  0.731096  0.731096  0.250000  1
  Ti  Ti5  1  0.268904  0.000000  0.250000  1
  Ti  Ti6  1  0.000000  0.268904  0.250000  1
  Ti  Ti7  1  0.268659  0.268659  0.750000  1
  Ti  Ti8  1  0.731341  0.000000  0.750000  1
  Ti  Ti9  1  0.000000  0.731341  0.750000  1
  Cu  Cu10  1  0.000000  0.000000  0.001130  1
  Cu  Cu11  1  0.000000  0.000000  0.498870  1
  Sn  Sn12  1  0.382515  0.382515  0.250000  1
  Sn  Sn13  1  0.617485  0.000000  0.250000  1
  Sn  Sn14  1  0.000000  0.617485  0.250000  1
  Sb  Sb15  1  0.616324  0.616324  0.750000  1
  Sb  Sb16  1  0.383676  0.000000  0.750000  1
  Sb  Sb17  1  0.000000  0.383676  0.750000  1
