# generated using pymatgen
data_Dy2Er4MnTe2
_symmetry_space_group_name_H-M   'P 1'
_cell_length_a   8.23992263
_cell_length_b   8.24049554
_cell_length_c   4.07436900
_cell_angle_alpha   90.00000000
_cell_angle_beta   90.00000000
_cell_angle_gamma   120.10520330
_symmetry_Int_Tables_number   1
_chemical_formula_structural   Dy2Er4MnTe2
_chemical_formula_sum   'Dy2 Er4 Mn1 Te2'
_cell_volume   239.33492685
_cell_formula_units_Z   1
loop_
 _symmetry_equiv_pos_site_id
 _symmetry_equiv_pos_as_xyz
  1  'x, y, z'
loop_
 _atom_site_type_symbol
 _atom_site_label
 _atom_site_symmetry_multiplicity
 _atom_site_fract_x
 _atom_site_fract_y
 _atom_site_fract_z
 _atom_site_occupancy
  Dy  Dy0  1  0.392812  0.000016  0.500000  1
  Dy  Dy1  1  0.000032  0.392858  0.500000  1
  Er  Er2  1  0.609435  0.609437  0.500000  1
  Er  Er3  1  0.762736  0.999106  0.000000  1
  Er  Er4  1  0.999113  0.762721  0.000000  1
  Er  Er5  1  0.237110  0.237045  0.000000  1
  Mn  Mn6  1  0.998249  0.998228  0.500000  1
  Te  Te7  1  0.333799  0.666774  0.000000  1
  Te  Te8  1  0.666713  0.333813  0.000000  1
