# generated using pymatgen
data_La6Mg3Cd20Te
_symmetry_space_group_name_H-M   'P 1'
_cell_length_a   10.10355821
_cell_length_b   10.15438412
_cell_length_c   10.15438400
_cell_angle_alpha   60.02818834
_cell_angle_beta   60.27958657
_cell_angle_gamma   60.27958821
_symmetry_Int_Tables_number   1
_chemical_formula_structural   La6Mg3Cd20Te
_chemical_formula_sum   'La6 Mg3 Cd20 Te1'
_cell_volume   739.91557803
_cell_formula_units_Z   1
loop_
 _symmetry_equiv_pos_site_id
 _symmetry_equiv_pos_as_xyz
  1  'x, y, z'
loop_
 _atom_site_type_symbol
 _atom_site_label
 _atom_site_symmetry_multiplicity
 _atom_site_fract_x
 _atom_site_fract_y
 _atom_site_fract_z
 _atom_site_occupancy
  La  La0  1  0.779010  0.780513  0.221472  1
  La  La1  1  0.220990  0.778528  0.219487  1
  La  La2  1  0.778641  0.219150  0.219150  1
  La  La3  1  0.220990  0.219487  0.778528  1
  La  La4  1  0.779010  0.221472  0.780513  1
  La  La5  1  0.221359  0.780850  0.780850  1
  Mg  Mg6  1  0.000000  0.000000  0.500000  1
  Mg  Mg7  1  0.000000  0.500000  0.000000  1
  Mg  Mg8  1  0.500000  0.500000  0.500000  1
  Cd  Cd9  1  0.832317  0.831172  0.505879  1
  Cd  Cd10  1  0.832317  0.505879  0.831172  1
  Cd  Cd11  1  0.506423  0.830828  0.830828  1
  Cd  Cd12  1  0.833798  0.830932  0.830932  1
  Cd  Cd13  1  0.167683  0.168828  0.494121  1
  Cd  Cd14  1  0.167683  0.494121  0.168828  1
  Cd  Cd15  1  0.493577  0.169172  0.169172  1
  Cd  Cd16  1  0.166202  0.169068  0.169068  1
  Cd  Cd17  1  0.625100  0.620507  0.136396  1
  Cd  Cd18  1  0.625100  0.136396  0.620507  1
  Cd  Cd19  1  0.136122  0.623268  0.623268  1
  Cd  Cd20  1  0.621987  0.621190  0.621190  1
  Cd  Cd21  1  0.374900  0.379493  0.863604  1
  Cd  Cd22  1  0.374900  0.863604  0.379493  1
  Cd  Cd23  1  0.863878  0.376732  0.376732  1
  Cd  Cd24  1  0.378013  0.378810  0.378810  1
  Cd  Cd25  1  0.500000  0.000000  0.500000  1
  Cd  Cd26  1  0.000000  0.500000  0.500000  1
  Cd  Cd27  1  0.500000  0.500000  0.000000  1
  Cd  Cd28  1  0.500000  0.000000  0.000000  1
  Te  Te29  1  0.000000  0.000000  0.000000  1
