# generated using pymatgen
data_Tb5Dy11(In3Co)2
_symmetry_space_group_name_H-M   'P 1'
_cell_length_a   10.39749819
_cell_length_b   10.39749721
_cell_length_c   7.01071913
_cell_angle_alpha   89.98124723
_cell_angle_beta   90.01874893
_cell_angle_gamma   119.94836919
_symmetry_Int_Tables_number   1
_chemical_formula_structural   Tb5Dy11(In3Co)2
_chemical_formula_sum   'Tb5 Dy11 In6 Co2'
_cell_volume   656.71441393
_cell_formula_units_Z   1
loop_
 _symmetry_equiv_pos_site_id
 _symmetry_equiv_pos_as_xyz
  1  'x, y, z'
loop_
 _atom_site_type_symbol
 _atom_site_label
 _atom_site_symmetry_multiplicity
 _atom_site_fract_x
 _atom_site_fract_y
 _atom_site_fract_z
 _atom_site_occupancy
  Tb  Tb0  1  0.534823  0.070112  0.511219  1
  Tb  Tb1  1  0.929888  0.465177  0.511219  1
  Tb  Tb2  1  0.535128  0.464872  0.511400  1
  Tb  Tb3  1  0.465068  0.929814  0.011083  1
  Tb  Tb4  1  0.070186  0.534932  0.011083  1
  Dy  Dy5  1  0.464833  0.535167  0.011545  1
  Dy  Dy6  1  0.178018  0.355491  0.721364  1
  Dy  Dy7  1  0.644509  0.821982  0.721364  1
  Dy  Dy8  1  0.177680  0.822320  0.721483  1
  Dy  Dy9  1  0.822126  0.644722  0.220812  1
  Dy  Dy10  1  0.355278  0.177874  0.220812  1
  Dy  Dy11  1  0.822313  0.177687  0.221225  1
  Dy  Dy12  1  0.666669  0.333331  0.904645  1
  Dy  Dy13  1  0.333438  0.666562  0.404319  1
  Dy  Dy14  1  0.000100  0.999900  0.500716  1
  Dy  Dy15  1  0.999868  0.000132  0.000964  1
  In  In16  1  0.836796  0.673796  0.760577  1
  In  In17  1  0.326204  0.163204  0.760577  1
  In  In18  1  0.836643  0.163357  0.760345  1
  In  In19  1  0.163255  0.326341  0.260025  1
  In  In20  1  0.673659  0.836745  0.260025  1
  In  In21  1  0.163267  0.836733  0.260798  1
  Co  Co22  1  0.666673  0.333327  0.288237  1
  Co  Co23  1  0.333579  0.666421  0.788364  1
