# generated using pymatgen
data_YLu3(CuSi3)2
_symmetry_space_group_name_H-M   'P 1'
_cell_length_a   7.94806883
_cell_length_b   7.95762355
_cell_length_c   5.60773683
_cell_angle_alpha   69.26459825
_cell_angle_beta   69.44730398
_cell_angle_gamma   41.28810193
_symmetry_Int_Tables_number   1
_chemical_formula_structural   YLu3(CuSi3)2
_chemical_formula_sum   'Y1 Lu3 Cu2 Si6'
_cell_volume   216.78472042
_cell_formula_units_Z   1
loop_
 _symmetry_equiv_pos_site_id
 _symmetry_equiv_pos_as_xyz
  1  'x, y, z'
loop_
 _atom_site_type_symbol
 _atom_site_label
 _atom_site_symmetry_multiplicity
 _atom_site_fract_x
 _atom_site_fract_y
 _atom_site_fract_z
 _atom_site_occupancy
  Y  Y0  1  0.756309  0.243691  0.756310  1
  Lu  Lu1  1  0.243982  0.756017  0.243984  1
  Lu  Lu2  1  0.250089  0.249911  0.250088  1
  Lu  Lu3  1  0.750088  0.749912  0.750088  1
  Cu  Cu4  1  0.666071  0.668149  0.331852  1
  Cu  Cu5  1  0.331851  0.333928  0.666073  1
  Si  Si6  1  0.831664  0.830099  0.169902  1
  Si  Si7  1  0.829279  0.340200  0.170740  1
  Si  Si8  1  0.659800  0.170721  0.340219  1
  Si  Si9  1  0.340217  0.829261  0.659801  1
  Si  Si10  1  0.170738  0.659783  0.829280  1
  Si  Si11  1  0.169901  0.168335  0.831666  1
