# generated using pymatgen
data_Sr6Lu2CrCoO12
_symmetry_space_group_name_H-M   'P 1'
_cell_length_a   6.77401791
_cell_length_b   6.77385499
_cell_length_c   6.77389067
_cell_angle_alpha   92.75487570
_cell_angle_beta   92.77795263
_cell_angle_gamma   92.76366693
_symmetry_Int_Tables_number   1
_chemical_formula_structural   Sr6Lu2CrCoO12
_chemical_formula_sum   'Sr6 Lu2 Cr1 Co1 O12'
_cell_volume   309.70588880
_cell_formula_units_Z   1
loop_
 _symmetry_equiv_pos_site_id
 _symmetry_equiv_pos_as_xyz
  1  'x, y, z'
loop_
 _atom_site_type_symbol
 _atom_site_label
 _atom_site_symmetry_multiplicity
 _atom_site_fract_x
 _atom_site_fract_y
 _atom_site_fract_z
 _atom_site_occupancy
  Sr  Sr0  1  0.881874  0.251143  0.615552  1
  Sr  Sr1  1  0.251162  0.615845  0.881486  1
  Sr  Sr2  1  0.615489  0.881596  0.251360  1
  Sr  Sr3  1  0.748844  0.384258  0.118467  1
  Sr  Sr4  1  0.384463  0.118384  0.748592  1
  Sr  Sr5  1  0.118192  0.748948  0.384366  1
  Lu  Lu6  1  0.746764  0.746641  0.747129  1
  Lu  Lu7  1  0.253391  0.253370  0.252911  1
  Cr  Cr8  1  0.999887  0.999995  0.999935  1
  Co  Co9  1  0.500083  0.499916  0.500008  1
  O  O10  1  0.219539  0.411675  0.540680  1
  O  O11  1  0.411889  0.541192  0.219367  1
  O  O12  1  0.540951  0.219377  0.411539  1
  O  O13  1  0.906421  0.712812  0.039877  1
  O  O14  1  0.712559  0.039320  0.906707  1
  O  O15  1  0.039173  0.906390  0.712780  1
  O  O16  1  0.780708  0.588149  0.459387  1
  O  O17  1  0.588284  0.458687  0.780635  1
  O  O18  1  0.459031  0.780417  0.588507  1
  O  O19  1  0.093405  0.287385  0.960165  1
  O  O20  1  0.287184  0.960707  0.093357  1
  O  O21  1  0.960707  0.093796  0.287192  1
