# generated using pymatgen
data_Dy7HoSc11Si16Ru
_symmetry_space_group_name_H-M   'P 1'
_cell_length_a   7.00287708
_cell_length_b   7.35809862
_cell_length_c   13.88728013
_cell_angle_alpha   89.98582431
_cell_angle_beta   90.00717208
_cell_angle_gamma   90.08467624
_symmetry_Int_Tables_number   1
_chemical_formula_structural   Dy7HoSc11Si16Ru
_chemical_formula_sum   'Dy7 Ho1 Sc11 Si16 Ru1'
_cell_volume   715.58101948
_cell_formula_units_Z   1
loop_
 _symmetry_equiv_pos_site_id
 _symmetry_equiv_pos_as_xyz
  1  'x, y, z'
loop_
 _atom_site_type_symbol
 _atom_site_label
 _atom_site_symmetry_multiplicity
 _atom_site_fract_x
 _atom_site_fract_y
 _atom_site_fract_z
 _atom_site_occupancy
  Dy  Dy0  1  0.012014  0.178131  0.093386  1
  Dy  Dy1  1  0.992587  0.818243  0.901093  1
  Dy  Dy2  1  0.488716  0.673111  0.902424  1
  Dy  Dy3  1  0.992585  0.818203  0.598890  1
  Dy  Dy4  1  0.511226  0.323529  0.094833  1
  Dy  Dy5  1  0.012005  0.178129  0.406636  1
  Dy  Dy6  1  0.511222  0.323544  0.405206  1
  Ho  Ho7  1  0.488621  0.673154  0.597690  1
  Sc  Sc8  1  0.841345  0.496149  0.250008  1
  Sc  Sc9  1  0.341930  0.003331  0.250004  1
  Sc  Sc10  1  0.657332  0.996028  0.749965  1
  Sc  Sc11  1  0.325964  0.177099  0.627188  1
  Sc  Sc12  1  0.672164  0.824692  0.374367  1
  Sc  Sc13  1  0.172796  0.673945  0.376565  1
  Sc  Sc14  1  0.672168  0.824736  0.125670  1
  Sc  Sc15  1  0.826120  0.331091  0.628327  1
  Sc  Sc16  1  0.325928  0.177054  0.872792  1
  Sc  Sc17  1  0.826202  0.331023  0.871633  1
  Sc  Sc18  1  0.172784  0.673930  0.123467  1
  Si  Si19  1  0.029002  0.116745  0.749982  1
  Si  Si20  1  0.972918  0.885645  0.250002  1
  Si  Si21  1  0.469029  0.615459  0.250009  1
  Si  Si22  1  0.515773  0.395330  0.749906  1
  Si  Si23  1  0.284998  0.863537  0.749892  1
  Si  Si24  1  0.716560  0.129280  0.249999  1
  Si  Si25  1  0.214860  0.371147  0.249995  1
  Si  Si26  1  0.794230  0.629163  0.749912  1
  Si  Si27  1  0.157080  0.465402  0.547082  1
  Si  Si28  1  0.843161  0.535901  0.463309  1
  Si  Si29  1  0.345238  0.964524  0.463172  1
  Si  Si30  1  0.843253  0.535885  0.036721  1
  Si  Si31  1  0.658642  0.034305  0.539844  1
  Si  Si32  1  0.156758  0.465223  0.952968  1
  Si  Si33  1  0.658726  0.034506  0.960190  1
  Si  Si34  1  0.345168  0.964695  0.036889  1
  Ru  Ru35  1  0.150894  0.498129  0.749985  1
