# generated using pymatgen
data_BaTl2Hg(NO3)8
_symmetry_space_group_name_H-M   'P 1'
_cell_length_a   8.29377431
_cell_length_b   8.06588619
_cell_length_c   8.40875700
_cell_angle_alpha   88.07080190
_cell_angle_beta   88.69405474
_cell_angle_gamma   88.52813179
_symmetry_Int_Tables_number   1
_chemical_formula_structural   BaTl2Hg(NO3)8
_chemical_formula_sum   'Ba1 Tl2 Hg1 N8 O24'
_cell_volume   561.87789619
_cell_formula_units_Z   1
loop_
 _symmetry_equiv_pos_site_id
 _symmetry_equiv_pos_as_xyz
  1  'x, y, z'
loop_
 _atom_site_type_symbol
 _atom_site_label
 _atom_site_symmetry_multiplicity
 _atom_site_fract_x
 _atom_site_fract_y
 _atom_site_fract_z
 _atom_site_occupancy
  Ba  Ba0  1  0.000000  0.000000  0.000000  1
  Tl  Tl1  1  0.000000  0.500000  0.500000  1
  Tl  Tl2  1  0.500000  0.500000  0.000000  1
  Hg  Hg3  1  0.500000  0.000000  0.500000  1
  N  N4  1  0.315055  0.336257  0.365471  1
  N  N5  1  0.353036  0.149123  0.817234  1
  N  N6  1  0.180938  0.829555  0.360947  1
  N  N7  1  0.887474  0.336264  0.193241  1
  N  N8  1  0.684945  0.663743  0.634529  1
  N  N9  1  0.112526  0.663736  0.806759  1
  N  N10  1  0.819062  0.170445  0.639053  1
  N  N11  1  0.646964  0.850877  0.182766  1
  O  O12  1  0.816417  0.313745  0.065814  1
  O  O13  1  0.206959  0.947672  0.264362  1
  O  O14  1  0.264914  0.799840  0.481060  1
  O  O15  1  0.273925  0.190450  0.941621  1
  O  O16  1  0.225884  0.305645  0.489519  1
  O  O17  1  0.436806  0.241112  0.337626  1
  O  O18  1  0.282567  0.456513  0.274110  1
  O  O19  1  0.152295  0.533227  0.727455  1
  O  O20  1  0.939519  0.264588  0.667168  1
  O  O21  1  0.694628  0.975201  0.259839  1
  O  O22  1  0.005424  0.762883  0.755373  1
  O  O23  1  0.525314  0.773416  0.230516  1
  O  O24  1  0.793041  0.052328  0.735638  1
  O  O25  1  0.735086  0.200160  0.518940  1
  O  O26  1  0.726075  0.809550  0.058379  1
  O  O27  1  0.183583  0.686255  0.934186  1
  O  O28  1  0.774116  0.694355  0.510481  1
  O  O29  1  0.563194  0.758888  0.662374  1
  O  O30  1  0.717433  0.543487  0.725890  1
  O  O31  1  0.847705  0.466773  0.272545  1
  O  O32  1  0.060481  0.735412  0.332832  1
  O  O33  1  0.305372  0.024799  0.740161  1
  O  O34  1  0.994576  0.237117  0.244627  1
  O  O35  1  0.474686  0.226584  0.769484  1
