# generated using pymatgen
data_La7TbPu12Si15Au
_symmetry_space_group_name_H-M   'P 1'
_cell_length_a   7.52263706
_cell_length_b   7.83446161
_cell_length_c   14.89472337
_cell_angle_alpha   89.80686242
_cell_angle_beta   89.24727033
_cell_angle_gamma   90.13133255
_symmetry_Int_Tables_number   1
_chemical_formula_structural   La7TbPu12Si15Au
_chemical_formula_sum   'La7 Tb1 Pu12 Si15 Au1'
_cell_volume   877.74946743
_cell_formula_units_Z   1
loop_
 _symmetry_equiv_pos_site_id
 _symmetry_equiv_pos_as_xyz
  1  'x, y, z'
loop_
 _atom_site_type_symbol
 _atom_site_label
 _atom_site_symmetry_multiplicity
 _atom_site_fract_x
 _atom_site_fract_y
 _atom_site_fract_z
 _atom_site_occupancy
  La  La0  1  0.014180  0.178090  0.096801  1
  La  La1  1  0.986329  0.822806  0.902276  1
  La  La2  1  0.486866  0.679835  0.903174  1
  La  La3  1  0.986972  0.824008  0.596404  1
  La  La4  1  0.514825  0.320802  0.096564  1
  La  La5  1  0.008190  0.176570  0.402449  1
  La  La6  1  0.510659  0.315996  0.404382  1
  Tb  Tb7  1  0.491765  0.684069  0.602292  1
  Pu  Pu8  1  0.150828  0.480634  0.753781  1
  Pu  Pu9  1  0.848409  0.518337  0.251202  1
  Pu  Pu10  1  0.348957  0.979124  0.251777  1
  Pu  Pu11  1  0.652558  0.020352  0.748926  1
  Pu  Pu12  1  0.339981  0.184180  0.626753  1
  Pu  Pu13  1  0.663044  0.816684  0.373422  1
  Pu  Pu14  1  0.164416  0.680353  0.374965  1
  Pu  Pu15  1  0.671901  0.818456  0.125290  1
  Pu  Pu16  1  0.832276  0.319988  0.623414  1
  Pu  Pu17  1  0.329042  0.182038  0.873901  1
  Pu  Pu18  1  0.829374  0.319760  0.872531  1
  Pu  Pu19  1  0.169654  0.682271  0.125741  1
  Si  Si20  1  0.041305  0.092745  0.748157  1
  Si  Si21  1  0.960827  0.906116  0.249936  1
  Si  Si22  1  0.459457  0.592343  0.249068  1
  Si  Si23  1  0.540083  0.411769  0.748230  1
  Si  Si24  1  0.275994  0.871119  0.748622  1
  Si  Si25  1  0.726845  0.126599  0.249232  1
  Si  Si26  1  0.225897  0.373050  0.249202  1
  Si  Si27  1  0.772138  0.631457  0.748148  1
  Si  Si28  1  0.831327  0.535006  0.463337  1
  Si  Si29  1  0.350348  0.959339  0.468378  1
  Si  Si30  1  0.854341  0.530846  0.036045  1
  Si  Si31  1  0.647243  0.022601  0.537688  1
  Si  Si32  1  0.145358  0.469834  0.963543  1
  Si  Si33  1  0.646122  0.031930  0.962543  1
  Si  Si34  1  0.355677  0.969312  0.036718  1
  Au  Au35  1  0.166807  0.471580  0.535110  1
