# generated using pymatgen
data_Tb3Ho(Ga8Pd3)3
_symmetry_space_group_name_H-M   'P 1'
_cell_length_a   7.50570682
_cell_length_b   7.57968755
_cell_length_c   13.43657427
_cell_angle_alpha   85.05890170
_cell_angle_beta   100.17666216
_cell_angle_gamma   119.69909206
_symmetry_Int_Tables_number   1
_chemical_formula_structural   Tb3Ho(Ga8Pd3)3
_chemical_formula_sum   'Tb3 Ho1 Ga24 Pd9'
_cell_volume   653.55718300
_cell_formula_units_Z   1
loop_
 _symmetry_equiv_pos_site_id
 _symmetry_equiv_pos_as_xyz
  1  'x, y, z'
loop_
 _atom_site_type_symbol
 _atom_site_label
 _atom_site_symmetry_multiplicity
 _atom_site_fract_x
 _atom_site_fract_y
 _atom_site_fract_z
 _atom_site_occupancy
  Tb  Tb0  1  0.562368  0.168859  0.188482  1
  Tb  Tb1  1  0.772587  0.503580  0.811377  1
  Tb  Tb2  1  0.227529  0.496494  0.188490  1
  Ho  Ho3  1  0.437190  0.831032  0.811113  1
  Ga  Ga4  1  0.480520  0.166261  0.939193  1
  Ga  Ga5  1  0.519417  0.833055  0.059764  1
  Ga  Ga6  1  0.022322  0.164291  0.558397  1
  Ga  Ga7  1  0.977770  0.835624  0.441898  1
  Ga  Ga8  1  0.356220  0.832641  0.556511  1
  Ga  Ga9  1  0.643831  0.167280  0.443756  1
  Ga  Ga10  1  0.611988  0.835097  0.324893  1
  Ga  Ga11  1  0.388241  0.164657  0.675672  1
  Ga  Ga12  1  0.061674  0.495930  0.673560  1
  Ga  Ga13  1  0.938686  0.504261  0.326907  1
  Ga  Ga14  1  0.731613  0.837334  0.673576  1
  Ga  Ga15  1  0.268268  0.162693  0.327066  1
  Ga  Ga16  1  0.146033  0.500979  0.940737  1
  Ga  Ga17  1  0.854560  0.499820  0.058784  1
  Ga  Ga18  1  0.812435  0.832559  0.944859  1
  Ga  Ga19  1  0.186405  0.167188  0.054342  1
  Ga  Ga20  1  0.310817  0.500189  0.443113  1
  Ga  Ga21  1  0.689143  0.499815  0.557048  1
  Ga  Ga22  1  0.101287  0.835242  0.182119  1
  Ga  Ga23  1  0.898070  0.164037  0.817882  1
  Ga  Ga24  1  0.309315  0.371090  0.816754  1
  Ga  Ga25  1  0.690479  0.629619  0.183203  1
  Ga  Ga26  1  0.104875  0.961830  0.816649  1
  Ga  Ga27  1  0.895925  0.038526  0.183328  1
  Pd  Pd28  1  0.388968  0.502404  0.638795  1
  Pd  Pd29  1  0.611249  0.497764  0.361532  1
  Pd  Pd30  1  0.170511  0.830406  0.998239  1
  Pd  Pd31  1  0.829476  0.169893  0.001400  1
  Pd  Pd32  1  0.288186  0.833342  0.360831  1
  Pd  Pd33  1  0.711748  0.166498  0.639468  1
  Pd  Pd34  1  0.051748  0.828119  0.638608  1
  Pd  Pd35  1  0.948390  0.171818  0.361766  1
  Pd  Pd36  1  0.500157  0.499773  0.999888  1
