# generated using pymatgen
data_Dy6Er4SnSb5
_symmetry_space_group_name_H-M   'P 1'
_cell_length_a   6.33467800
_cell_length_b   8.95085110
_cell_length_c   8.94602545
_cell_angle_alpha   120.01740742
_cell_angle_beta   89.99978894
_cell_angle_gamma   90.00035243
_symmetry_Int_Tables_number   1
_chemical_formula_structural   Dy6Er4SnSb5
_chemical_formula_sum   'Dy6 Er4 Sn1 Sb5'
_cell_volume   439.21122634
_cell_formula_units_Z   1
loop_
 _symmetry_equiv_pos_site_id
 _symmetry_equiv_pos_as_xyz
  1  'x, y, z'
loop_
 _atom_site_type_symbol
 _atom_site_label
 _atom_site_symmetry_multiplicity
 _atom_site_fract_x
 _atom_site_fract_y
 _atom_site_fract_z
 _atom_site_occupancy
  Dy  Dy0  1  0.749997  0.245911  0.000005  1
  Dy  Dy1  1  0.749992  0.753820  0.755298  1
  Dy  Dy2  1  0.749995  0.998533  0.244712  1
  Dy  Dy3  1  0.250000  0.754783  0.000004  1
  Dy  Dy4  1  0.250005  0.246381  0.245430  1
  Dy  Dy5  1  0.249992  0.000954  0.754585  1
  Er  Er6  1  0.500213  0.334045  0.667858  1
  Er  Er7  1  0.500194  0.666200  0.332135  1
  Er  Er8  1  0.999827  0.666199  0.332109  1
  Er  Er9  1  0.999792  0.334048  0.667854  1
  Sn  Sn10  1  0.749993  0.608530  0.000000  1
  Sb  Sb11  1  0.750004  0.389480  0.390050  1
  Sb  Sb12  1  0.750001  0.999425  0.609955  1
  Sb  Sb13  1  0.249998  0.390500  0.999995  1
  Sb  Sb14  1  0.249997  0.610560  0.609940  1
  Sb  Sb15  1  0.250007  0.000631  0.390070  1
