# generated using pymatgen
data_Tm2ThIn3Ir2Rh
_symmetry_space_group_name_H-M   'P 1'
_cell_length_a   7.58741014
_cell_length_b   7.71532731
_cell_length_c   3.85728100
_cell_angle_alpha   90.00000000
_cell_angle_beta   90.00000000
_cell_angle_gamma   120.55928444
_symmetry_Int_Tables_number   1
_chemical_formula_structural   Tm2ThIn3Ir2Rh
_chemical_formula_sum   'Tm2 Th1 In3 Ir2 Rh1'
_cell_volume   194.43953358
_cell_formula_units_Z   1
loop_
 _symmetry_equiv_pos_site_id
 _symmetry_equiv_pos_as_xyz
  1  'x, y, z'
loop_
 _atom_site_type_symbol
 _atom_site_label
 _atom_site_symmetry_multiplicity
 _atom_site_fract_x
 _atom_site_fract_y
 _atom_site_fract_z
 _atom_site_occupancy
  Tm  Tm0  1  0.593252  0.590967  0.500000  1
  Tm  Tm1  1  0.406748  0.997715  0.500000  1
  Th  Th2  1  0.000000  0.418867  0.500000  1
  In  In3  1  0.267435  0.255984  0.000000  1
  In  In4  1  0.000000  0.757187  0.000000  1
  In  In5  1  0.732565  0.988549  0.000000  1
  Ir  Ir6  1  0.322429  0.653876  0.000000  1
  Ir  Ir7  1  0.677571  0.331446  0.000000  1
  Rh  Rh8  1  0.000000  0.005409  0.500000  1
