# generated using pymatgen
data_Hf18ZnRe5AsW3
_symmetry_space_group_name_H-M   'P 1'
_cell_length_a   8.65743108
_cell_length_b   8.67978212
_cell_length_c   8.61511400
_cell_angle_alpha   90.00000000
_cell_angle_beta   90.00000000
_cell_angle_gamma   119.90815556
_symmetry_Int_Tables_number   1
_chemical_formula_structural   Hf18ZnRe5AsW3
_chemical_formula_sum   'Hf18 Zn1 Re5 As1 W3'
_cell_volume   561.16518162
_cell_formula_units_Z   1
loop_
 _symmetry_equiv_pos_site_id
 _symmetry_equiv_pos_as_xyz
  1  'x, y, z'
loop_
 _atom_site_type_symbol
 _atom_site_label
 _atom_site_symmetry_multiplicity
 _atom_site_fract_x
 _atom_site_fract_y
 _atom_site_fract_z
 _atom_site_occupancy
  Hf  Hf0  1  0.804345  0.608664  0.549812  1
  Hf  Hf1  1  0.804252  0.195497  0.549321  1
  Hf  Hf2  1  0.390846  0.195286  0.549537  1
  Hf  Hf3  1  0.194363  0.388806  0.453735  1
  Hf  Hf4  1  0.194625  0.805568  0.454026  1
  Hf  Hf5  1  0.611366  0.805822  0.453838  1
  Hf  Hf6  1  0.194363  0.388806  0.046265  1
  Hf  Hf7  1  0.194625  0.805568  0.045974  1
  Hf  Hf8  1  0.611366  0.805822  0.046162  1
  Hf  Hf9  1  0.804345  0.608664  0.950188  1
  Hf  Hf10  1  0.804252  0.195497  0.950679  1
  Hf  Hf11  1  0.390846  0.195286  0.950463  1
  Hf  Hf12  1  0.459142  0.918098  0.750000  1
  Hf  Hf13  1  0.458748  0.540784  0.750000  1
  Hf  Hf14  1  0.081888  0.540620  0.750000  1
  Hf  Hf15  1  0.541454  0.083122  0.250000  1
  Hf  Hf16  1  0.540735  0.458109  0.250000  1
  Hf  Hf17  1  0.917491  0.458253  0.250000  1
  Zn  Zn18  1  0.666478  0.333210  0.750000  1
  Re  Re19  1  0.110582  0.221372  0.750000  1
  Re  Re20  1  0.111093  0.889190  0.750000  1
  Re  Re21  1  0.778221  0.889355  0.750000  1
  Re  Re22  1  0.888851  0.110628  0.250000  1
  Re  Re23  1  0.221675  0.110489  0.250000  1
  As  As24  1  0.333112  0.665833  0.250000  1
  W  W25  1  0.889911  0.779635  0.250000  1
  W  W26  1  0.000513  0.001008  0.501529  1
  W  W27  1  0.000513  0.001008  0.998471  1
