# generated using pymatgen
data_Zr10Zn2InSn5
_symmetry_space_group_name_H-M   'P 1'
_cell_length_a   8.73276621
_cell_length_b   8.73276671
_cell_length_c   5.91248500
_cell_angle_alpha   90.00000000
_cell_angle_beta   90.00000000
_cell_angle_gamma   120.14729563
_symmetry_Int_Tables_number   1
_chemical_formula_structural   Zr10Zn2InSn5
_chemical_formula_sum   'Zr10 Zn2 In1 Sn5'
_cell_volume   389.90415162
_cell_formula_units_Z   1
loop_
 _symmetry_equiv_pos_site_id
 _symmetry_equiv_pos_as_xyz
  1  'x, y, z'
loop_
 _atom_site_type_symbol
 _atom_site_label
 _atom_site_symmetry_multiplicity
 _atom_site_fract_x
 _atom_site_fract_y
 _atom_site_fract_z
 _atom_site_occupancy
  Zr  Zr0  1  0.667742  0.332735  0.000244  1
  Zr  Zr1  1  0.332735  0.667742  0.000244  1
  Zr  Zr2  1  0.332735  0.667742  0.499756  1
  Zr  Zr3  1  0.667742  0.332735  0.499756  1
  Zr  Zr4  1  0.732433  0.732433  0.750000  1
  Zr  Zr5  1  0.267354  0.998196  0.750000  1
  Zr  Zr6  1  0.998196  0.267354  0.750000  1
  Zr  Zr7  1  0.267863  0.267863  0.250000  1
  Zr  Zr8  1  0.732453  0.000310  0.250000  1
  Zr  Zr9  1  0.000310  0.732453  0.250000  1
  Zn  Zn10  1  0.001336  0.001336  0.998940  1
  Zn  Zn11  1  0.001336  0.001336  0.501060  1
  In  In12  1  0.382462  0.382462  0.750000  1
  Sn  Sn13  1  0.616257  0.999436  0.750000  1
  Sn  Sn14  1  0.999436  0.616257  0.750000  1
  Sn  Sn15  1  0.615508  0.615508  0.250000  1
  Sn  Sn16  1  0.383395  0.000707  0.250000  1
  Sn  Sn17  1  0.000707  0.383395  0.250000  1
