# generated using pymatgen
data_Na11Ga2Sb5
_symmetry_space_group_name_H-M   'P 1'
_cell_length_a   8.94147626
_cell_length_b   10.68312410
_cell_length_c   11.71657358
_cell_angle_alpha   103.16505388
_cell_angle_beta   97.77526374
_cell_angle_gamma   107.56042526
_symmetry_Int_Tables_number   1
_chemical_formula_structural   Na11Ga2Sb5
_chemical_formula_sum   'Na22 Ga4 Sb10'
_cell_volume   1013.60391952
_cell_formula_units_Z   2
loop_
 _symmetry_equiv_pos_site_id
 _symmetry_equiv_pos_as_xyz
  1  'x, y, z'
loop_
 _atom_site_type_symbol
 _atom_site_label
 _atom_site_symmetry_multiplicity
 _atom_site_fract_x
 _atom_site_fract_y
 _atom_site_fract_z
 _atom_site_occupancy
  Na  Na0  1  0.851256  0.573629  0.961798  1
  Na  Na1  1  0.148744  0.426371  0.038202  1
  Na  Na2  1  0.312034  0.893909  0.775144  1
  Na  Na3  1  0.687966  0.106091  0.224856  1
  Na  Na4  1  0.633916  0.164010  0.529280  1
  Na  Na5  1  0.366084  0.835990  0.470720  1
  Na  Na6  1  0.626147  0.670479  0.552075  1
  Na  Na7  1  0.373853  0.329521  0.447925  1
  Na  Na8  1  0.195202  0.559124  0.574653  1
  Na  Na9  1  0.804798  0.440876  0.425347  1
  Na  Na10  1  0.054013  0.704124  0.254594  1
  Na  Na11  1  0.945987  0.295876  0.745406  1
  Na  Na12  1  0.195665  0.076542  0.573712  1
  Na  Na13  1  0.804335  0.923458  0.426288  1
  Na  Na14  1  0.874004  0.094169  0.985618  1
  Na  Na15  1  0.125996  0.905831  0.014382  1
  Na  Na16  1  0.582495  0.224652  0.860512  1
  Na  Na17  1  0.417505  0.775348  0.139488  1
  Na  Na18  1  0.395299  0.248536  0.146628  1
  Na  Na19  1  0.604701  0.751464  0.853372  1
  Na  Na20  1  0.344654  0.412647  0.785594  1
  Na  Na21  1  0.655346  0.587353  0.214406  1
  Ga  Ga22  1  0.938492  0.915591  0.743730  1
  Ga  Ga23  1  0.061508  0.084409  0.256270  1
  Ga  Ga24  1  0.938934  0.674550  0.738488  1
  Ga  Ga25  1  0.061066  0.325450  0.261512  1
  Sb  Sb26  1  0.005480  0.758648  0.526373  1
  Sb  Sb27  1  0.994520  0.241352  0.473627  1
  Sb  Sb28  1  0.656706  0.454204  0.691505  1
  Sb  Sb29  1  0.343294  0.545796  0.308495  1
  Sb  Sb30  1  0.658175  0.971736  0.698113  1
  Sb  Sb31  1  0.341825  0.028264  0.301887  1
  Sb  Sb32  1  0.198192  0.148892  0.869178  1
  Sb  Sb33  1  0.801808  0.851108  0.130822  1
  Sb  Sb34  1  0.193381  0.635320  0.871556  1
  Sb  Sb35  1  0.806619  0.364680  0.128444  1
