# generated using pymatgen
data_Hf4H15
_symmetry_space_group_name_H-M   'P 1'
_cell_length_a   6.91356962
_cell_length_b   6.90114897
_cell_length_c   6.91309875
_cell_angle_alpha   109.42931814
_cell_angle_beta   109.50641616
_cell_angle_gamma   109.42312818
_symmetry_Int_Tables_number   1
_chemical_formula_structural   Hf4H15
_chemical_formula_sum   'Hf8 H30'
_cell_volume   254.07841116
_cell_formula_units_Z   2
loop_
 _symmetry_equiv_pos_site_id
 _symmetry_equiv_pos_as_xyz
  1  'x, y, z'
loop_
 _atom_site_type_symbol
 _atom_site_label
 _atom_site_symmetry_multiplicity
 _atom_site_fract_x
 _atom_site_fract_y
 _atom_site_fract_z
 _atom_site_occupancy
  Hf  Hf0  1  0.904287  0.904255  0.904133  1
  Hf  Hf1  1  0.500022  0.999786  0.095824  1
  Hf  Hf2  1  0.999846  0.096388  0.500218  1
  Hf  Hf3  1  0.095965  0.500323  0.000026  1
  Hf  Hf4  1  0.999883  0.596579  0.500239  1
  Hf  Hf5  1  0.596024  0.500510  0.000105  1
  Hf  Hf6  1  0.500030  0.999774  0.595777  1
  Hf  Hf7  1  0.404385  0.404466  0.404214  1
  H  H8  1  0.655201  0.967068  0.386128  1
  H  H9  1  0.230839  0.312474  0.844432  1
  H  H10  1  0.187115  0.418079  0.531366  1
  H  H11  1  0.080890  0.268536  0.112592  1
  H  H12  1  0.268965  0.113178  0.081587  1
  H  H13  1  0.112616  0.081259  0.268671  1
  H  H14  1  0.468300  0.155891  0.887257  1
  H  H15  1  0.730839  0.344317  0.812716  1
  H  H16  1  0.625425  0.375480  0.250749  1
  H  H17  1  0.249843  0.625067  0.374971  1
  H  H18  1  0.750118  0.874775  0.125096  1
  H  H19  1  0.124977  0.749690  0.874474  1
  H  H20  1  0.374733  0.250069  0.625241  1
  H  H21  1  0.874657  0.124464  0.749210  1
  H  H22  1  0.769174  0.581035  0.613951  1
  H  H23  1  0.312503  0.844640  0.230486  1
  H  H24  1  0.386171  0.655022  0.966700  1
  H  H25  1  0.967489  0.386414  0.655448  1
  H  H26  1  0.532273  0.187566  0.418632  1
  H  H27  1  0.417856  0.532132  0.187248  1
  H  H28  1  0.844064  0.230758  0.312654  1
  H  H29  1  0.919704  0.688250  0.032743  1
  H  H30  1  0.812245  0.730852  0.344657  1
  H  H31  1  0.155871  0.886704  0.468585  1
  H  H32  1  0.687428  0.031595  0.918276  1
  H  H33  1  0.344349  0.812029  0.731244  1
  H  H34  1  0.887284  0.468592  0.156161  1
  H  H35  1  0.614036  0.768981  0.580732  1
  H  H36  1  0.582133  0.614219  0.769442  1
  H  H37  1  0.032457  0.918781  0.688018  1
