# generated using pymatgen
data_DyY2Al12(OsRh)2
_symmetry_space_group_name_H-M   'P 1'
_cell_length_a   8.77145717
_cell_length_b   8.81388601
_cell_length_c   9.56582900
_cell_angle_alpha   90.00000000
_cell_angle_beta   90.00000000
_cell_angle_gamma   119.43387490
_symmetry_Int_Tables_number   1
_chemical_formula_structural   DyY2Al12(OsRh)2
_chemical_formula_sum   'Dy2 Y4 Al24 Os4 Rh4'
_cell_volume   644.08288687
_cell_formula_units_Z   2
loop_
 _symmetry_equiv_pos_site_id
 _symmetry_equiv_pos_as_xyz
  1  'x, y, z'
loop_
 _atom_site_type_symbol
 _atom_site_label
 _atom_site_symmetry_multiplicity
 _atom_site_fract_x
 _atom_site_fract_y
 _atom_site_fract_z
 _atom_site_occupancy
  Dy  Dy0  1  0.198592  0.812582  0.250000  1
  Dy  Dy1  1  0.801408  0.187418  0.750000  1
  Y  Y2  1  0.190935  0.382599  0.250000  1
  Y  Y3  1  0.809065  0.617401  0.750000  1
  Y  Y4  1  0.613806  0.812619  0.250000  1
  Y  Y5  1  0.386194  0.187381  0.750000  1
  Al  Al6  1  0.333446  0.667617  0.023948  1
  Al  Al7  1  0.666554  0.332383  0.976052  1
  Al  Al8  1  0.666554  0.332383  0.523948  1
  Al  Al9  1  0.333446  0.667617  0.476052  1
  Al  Al10  1  0.162737  0.325592  0.577556  1
  Al  Al11  1  0.837263  0.674408  0.422444  1
  Al  Al12  1  0.672271  0.836916  0.576619  1
  Al  Al13  1  0.837263  0.674408  0.077556  1
  Al  Al14  1  0.327729  0.163084  0.423381  1
  Al  Al15  1  0.162737  0.325592  0.922444  1
  Al  Al16  1  0.164511  0.836711  0.576473  1
  Al  Al17  1  0.327729  0.163084  0.076619  1
  Al  Al18  1  0.835489  0.163289  0.423527  1
  Al  Al19  1  0.672271  0.836916  0.923381  1
  Al  Al20  1  0.835489  0.163289  0.076473  1
  Al  Al21  1  0.164511  0.836711  0.923527  1
  Al  Al22  1  0.562873  0.126625  0.250000  1
  Al  Al23  1  0.437127  0.873375  0.750000  1
  Al  Al24  1  0.878229  0.440230  0.250000  1
  Al  Al25  1  0.121771  0.559770  0.750000  1
  Al  Al26  1  0.561838  0.439604  0.250000  1
  Al  Al27  1  0.438162  0.560396  0.750000  1
  Al  Al28  1  0.001231  0.002155  0.250000  1
  Al  Al29  1  0.998769  0.997845  0.750000  1
  Os  Os30  1  0.500000  0.000000  0.000000  1
  Os  Os31  1  0.500000  0.000000  0.500000  1
  Os  Os32  1  0.000000  0.000000  0.000000  1
  Os  Os33  1  0.000000  0.000000  0.500000  1
  Rh  Rh34  1  0.000000  0.500000  0.000000  1
  Rh  Rh35  1  0.500000  0.500000  0.000000  1
  Rh  Rh36  1  0.000000  0.500000  0.500000  1
  Rh  Rh37  1  0.500000  0.500000  0.500000  1
