# generated using pymatgen
data_TmU3(WC2)4
_symmetry_space_group_name_H-M   'P 1'
_cell_length_a   3.26949300
_cell_length_b   5.65355018
_cell_length_c   10.92893236
_cell_angle_alpha   89.89406641
_cell_angle_beta   90.00000000
_cell_angle_gamma   90.00000000
_symmetry_Int_Tables_number   1
_chemical_formula_structural   TmU3(WC2)4
_chemical_formula_sum   'Tm1 U3 W4 C8'
_cell_volume   202.01269320
_cell_formula_units_Z   1
loop_
 _symmetry_equiv_pos_site_id
 _symmetry_equiv_pos_as_xyz
  1  'x, y, z'
loop_
 _atom_site_type_symbol
 _atom_site_label
 _atom_site_symmetry_multiplicity
 _atom_site_fract_x
 _atom_site_fract_y
 _atom_site_fract_z
 _atom_site_occupancy
  Tm  Tm0  1  0.250000  0.085585  0.858515  1
  U  U1  1  0.250000  0.579239  0.642920  1
  U  U2  1  0.750000  0.921663  0.137238  1
  U  U3  1  0.750000  0.418325  0.359467  1
  W  W4  1  0.250000  0.416542  0.102732  1
  W  W5  1  0.250000  0.918303  0.397562  1
  W  W6  1  0.750000  0.585953  0.896721  1
  W  W7  1  0.750000  0.080655  0.605041  1
  C  C8  1  0.250000  0.160088  0.245057  1
  C  C9  1  0.250000  0.660622  0.255423  1
  C  C10  1  0.750000  0.831094  0.749891  1
  C  C11  1  0.750000  0.342721  0.743243  1
  C  C12  1  0.250000  0.745395  0.994339  1
  C  C13  1  0.250000  0.248002  0.510016  1
  C  C14  1  0.750000  0.256126  0.010445  1
  C  C15  1  0.750000  0.749688  0.491392  1
