# generated using pymatgen
data_Nb2GaB2IrRu4
_symmetry_space_group_name_H-M   'P 1'
_cell_length_a   9.42768136
_cell_length_b   9.38821837
_cell_length_c   2.97049300
_cell_angle_alpha   90.00000000
_cell_angle_beta   90.00000000
_cell_angle_gamma   90.17009223
_symmetry_Int_Tables_number   1
_chemical_formula_structural   Nb2GaB2IrRu4
_chemical_formula_sum   'Nb4 Ga2 B4 Ir2 Ru8'
_cell_volume   262.91459646
_cell_formula_units_Z   2
loop_
 _symmetry_equiv_pos_site_id
 _symmetry_equiv_pos_as_xyz
  1  'x, y, z'
loop_
 _atom_site_type_symbol
 _atom_site_label
 _atom_site_symmetry_multiplicity
 _atom_site_fract_x
 _atom_site_fract_y
 _atom_site_fract_z
 _atom_site_occupancy
  Nb  Nb0  1  0.825470  0.676599  0.000000  1
  Nb  Nb1  1  0.174530  0.323401  0.000000  1
  Nb  Nb2  1  0.318741  0.822536  0.000000  1
  Nb  Nb3  1  0.681259  0.177464  0.000000  1
  Ga  Ga4  1  0.500000  0.500000  0.000000  1
  Ga  Ga5  1  0.000000  0.000000  0.000000  1
  B  B6  1  0.626871  0.880607  0.000000  1
  B  B7  1  0.373129  0.119393  0.000000  1
  B  B8  1  0.124400  0.623867  0.000000  1
  B  B9  1  0.875600  0.376133  0.000000  1
  Ir  Ir10  1  0.568891  0.717709  0.500000  1
  Ir  Ir11  1  0.431109  0.282291  0.500000  1
  Ru  Ru12  1  0.067940  0.783956  0.500000  1
  Ru  Ru13  1  0.932060  0.216044  0.500000  1
  Ru  Ru14  1  0.284251  0.567395  0.500000  1
  Ru  Ru15  1  0.715749  0.432605  0.500000  1
  Ru  Ru16  1  0.215298  0.068542  0.500000  1
  Ru  Ru17  1  0.784702  0.931458  0.500000  1
  Ru  Ru18  1  0.500000  0.000000  0.500000  1
  Ru  Ru19  1  0.000000  0.500000  0.500000  1
