# generated using pymatgen
data_Y16Cd4NiRu3
_symmetry_space_group_name_H-M   'P 1'
_cell_length_a   9.64837585
_cell_length_b   9.72109968
_cell_length_c   9.72126141
_cell_angle_alpha   59.67322439
_cell_angle_beta   59.40602990
_cell_angle_gamma   59.40567770
_symmetry_Int_Tables_number   1
_chemical_formula_structural   Y16Cd4NiRu3
_chemical_formula_sum   'Y16 Cd4 Ni1 Ru3'
_cell_volume   637.31432278
_cell_formula_units_Z   1
loop_
 _symmetry_equiv_pos_site_id
 _symmetry_equiv_pos_as_xyz
  1  'x, y, z'
loop_
 _atom_site_type_symbol
 _atom_site_label
 _atom_site_symmetry_multiplicity
 _atom_site_fract_x
 _atom_site_fract_y
 _atom_site_fract_z
 _atom_site_occupancy
  Y  Y0  1  0.350830  0.346454  0.346453  1
  Y  Y1  1  0.350851  0.346285  0.959461  1
  Y  Y2  1  0.350862  0.959461  0.346281  1
  Y  Y3  1  0.958472  0.347141  0.347145  1
  Y  Y4  1  0.810580  0.188483  0.188485  1
  Y  Y5  1  0.185465  0.810579  0.810583  1
  Y  Y6  1  0.188380  0.810823  0.189061  1
  Y  Y7  1  0.809087  0.189221  0.810139  1
  Y  Y8  1  0.188380  0.189060  0.810829  1
  Y  Y9  1  0.809083  0.810142  0.189223  1
  Y  Y10  1  0.939249  0.560489  0.560488  1
  Y  Y11  1  0.559615  0.936759  0.936763  1
  Y  Y12  1  0.558812  0.937617  0.566631  1
  Y  Y13  1  0.939763  0.559979  0.939419  1
  Y  Y14  1  0.558813  0.566620  0.937622  1
  Y  Y15  1  0.939773  0.939414  0.559973  1
  Cd  Cd16  1  0.578720  0.580923  0.580923  1
  Cd  Cd17  1  0.579282  0.580391  0.258331  1
  Cd  Cd18  1  0.579285  0.258327  0.580391  1
  Cd  Cd19  1  0.258039  0.580303  0.580305  1
  Ni  Ni20  1  0.578418  0.142147  0.142119  1
  Ru  Ru21  1  0.141748  0.139537  0.139538  1
  Ru  Ru22  1  0.143249  0.141543  0.578295  1
  Ru  Ru23  1  0.143242  0.578304  0.141539  1
