# generated using pymatgen
data_K2RbAs6Ru5Pt
_symmetry_space_group_name_H-M   'P 1'
_cell_length_a   9.19619234
_cell_length_b   9.19619282
_cell_length_c   7.37632814
_cell_angle_alpha   68.12108331
_cell_angle_beta   68.12108183
_cell_angle_gamma   36.80663045
_symmetry_Int_Tables_number   1
_chemical_formula_structural   K2RbAs6Ru5Pt
_chemical_formula_sum   'K2 Rb1 As6 Ru5 Pt1'
_cell_volume   343.70948678
_cell_formula_units_Z   1
loop_
 _symmetry_equiv_pos_site_id
 _symmetry_equiv_pos_as_xyz
  1  'x, y, z'
loop_
 _atom_site_type_symbol
 _atom_site_label
 _atom_site_symmetry_multiplicity
 _atom_site_fract_x
 _atom_site_fract_y
 _atom_site_fract_z
 _atom_site_occupancy
  K  K0  1  0.670635  0.665151  0.003750  1
  K  K1  1  0.334849  0.329365  0.996250  1
  Rb  Rb2  1  0.993605  0.006395  0.000000  1
  As  As3  1  0.890367  0.870554  0.697537  1
  As  As4  1  0.218052  0.218198  0.694098  1
  As  As5  1  0.543704  0.563111  0.698903  1
  As  As6  1  0.436889  0.456296  0.301097  1
  As  As7  1  0.781802  0.781948  0.305902  1
  As  As8  1  0.129446  0.109633  0.302463  1
  Ru  Ru9  1  0.082721  0.582147  0.499066  1
  Ru  Ru10  1  0.417853  0.917279  0.500934  1
  Ru  Ru11  1  0.584934  0.085402  0.499487  1
  Ru  Ru12  1  0.914598  0.415066  0.500513  1
  Ru  Ru13  1  0.250599  0.749401  0.500000  1
  Pt  Pt14  1  0.749947  0.250053  0.500000  1
