# generated using pymatgen
data_Nd6GaGeI6
_symmetry_space_group_name_H-M   'P 1'
_cell_length_a   10.87228299
_cell_length_b   10.87228366
_cell_length_c   10.85546824
_cell_angle_alpha   109.48408351
_cell_angle_beta   109.48408364
_cell_angle_gamma   109.50818823
_symmetry_Int_Tables_number   1
_chemical_formula_structural   Nd6GaGeI6
_chemical_formula_sum   'Nd12 Ga2 Ge2 I12'
_cell_volume   987.03305033
_cell_formula_units_Z   2
loop_
 _symmetry_equiv_pos_site_id
 _symmetry_equiv_pos_as_xyz
  1  'x, y, z'
loop_
 _atom_site_type_symbol
 _atom_site_label
 _atom_site_symmetry_multiplicity
 _atom_site_fract_x
 _atom_site_fract_y
 _atom_site_fract_z
 _atom_site_occupancy
  Nd  Nd0  1  0.468829  0.484672  0.233976  1
  Nd  Nd1  1  0.750695  0.234853  0.266024  1
  Nd  Nd2  1  0.750713  0.015489  0.485108  1
  Nd  Nd3  1  0.234395  0.469619  0.485108  1
  Nd  Nd4  1  0.265147  0.749305  0.233976  1
  Nd  Nd5  1  0.030381  0.265605  0.014892  1
  Nd  Nd6  1  0.015328  0.031171  0.266024  1
  Nd  Nd7  1  0.484511  0.749287  0.014892  1
  Nd  Nd8  1  0.485078  0.235078  0.470155  1
  Nd  Nd9  1  0.015878  0.484122  0.750000  1
  Nd  Nd10  1  0.264922  0.014922  0.029845  1
  Nd  Nd11  1  0.234122  0.265878  0.750000  1
  Ga  Ga12  1  0.249983  0.250017  0.250000  1
  Ga  Ga13  1  0.500017  0.999983  0.250000  1
  Ge  Ge14  1  0.999979  0.249979  0.499959  1
  Ge  Ge15  1  0.250021  0.500021  0.000041  1
  I  I16  1  0.249733  0.756654  0.742598  1
  I  I17  1  0.514056  0.507135  0.757402  1
  I  I18  1  0.985127  0.742134  0.992425  1
  I  I19  1  0.743346  0.250267  0.757402  1
  I  I20  1  0.992865  0.985944  0.742598  1
  I  I21  1  0.249709  0.992702  0.507575  1
  I  I22  1  0.757866  0.514873  0.507575  1
  I  I23  1  0.507298  0.250291  0.992425  1
  I  I24  1  0.757268  0.742732  0.250000  1
  I  I25  1  0.742867  0.992867  0.985734  1
  I  I26  1  0.992732  0.507268  0.250000  1
  I  I27  1  0.507133  0.757133  0.514266  1
