# generated using pymatgen
data_Cs2TlRh3F12
_symmetry_space_group_name_H-M   'P 1'
_cell_length_a   7.53270879
_cell_length_b   7.53271009
_cell_length_c   13.80407900
_cell_angle_alpha   74.82983971
_cell_angle_beta   74.82984491
_cell_angle_gamma   60.07770219
_symmetry_Int_Tables_number   1
_chemical_formula_structural   Cs2TlRh3F12
_chemical_formula_sum   'Cs4 Tl2 Rh6 F24'
_cell_volume   647.10034160
_cell_formula_units_Z   2
loop_
 _symmetry_equiv_pos_site_id
 _symmetry_equiv_pos_as_xyz
  1  'x, y, z'
loop_
 _atom_site_type_symbol
 _atom_site_label
 _atom_site_symmetry_multiplicity
 _atom_site_fract_x
 _atom_site_fract_y
 _atom_site_fract_z
 _atom_site_occupancy
  Cs  Cs0  1  0.898301  0.473883  0.684301  1
  Cs  Cs1  1  0.101699  0.526117  0.315699  1
  Cs  Cs2  1  0.526117  0.101699  0.815699  1
  Cs  Cs3  1  0.473883  0.898301  0.184301  1
  Tl  Tl4  1  0.224758  0.775242  0.750000  1
  Tl  Tl5  1  0.775242  0.224758  0.250000  1
  Rh  Rh6  1  0.500000  0.000000  0.500000  1
  Rh  Rh7  1  0.000000  0.500000  0.000000  1
  Rh  Rh8  1  0.000000  0.000000  0.500000  1
  Rh  Rh9  1  0.000000  0.000000  0.000000  1
  Rh  Rh10  1  0.500000  0.500000  0.500000  1
  Rh  Rh11  1  0.500000  0.500000  0.000000  1
  F  F12  1  0.885756  0.970316  0.647547  1
  F  F13  1  0.523659  0.893931  0.647168  1
  F  F14  1  0.286541  0.395004  0.033094  1
  F  F15  1  0.691246  0.190449  0.030725  1
  F  F16  1  0.893931  0.523659  0.147168  1
  F  F17  1  0.106069  0.476341  0.852832  1
  F  F18  1  0.476341  0.106069  0.352832  1
  F  F19  1  0.809551  0.308754  0.469275  1
  F  F20  1  0.114244  0.029684  0.352453  1
  F  F21  1  0.604996  0.713459  0.466906  1
  F  F22  1  0.448488  0.519538  0.146839  1
  F  F23  1  0.395004  0.286541  0.533094  1
  F  F24  1  0.519538  0.448488  0.646839  1
  F  F25  1  0.808591  0.920304  0.462120  1
  F  F26  1  0.191409  0.079696  0.537880  1
  F  F27  1  0.551512  0.480462  0.853161  1
  F  F28  1  0.920304  0.808591  0.962120  1
  F  F29  1  0.480462  0.551512  0.353161  1
  F  F30  1  0.713459  0.604996  0.966906  1
  F  F31  1  0.970316  0.885756  0.147547  1
  F  F32  1  0.079696  0.191409  0.037880  1
  F  F33  1  0.308754  0.809551  0.969275  1
  F  F34  1  0.029684  0.114244  0.852453  1
  F  F35  1  0.190449  0.691246  0.530725  1
