# generated using pymatgen
data_Lu10Tl7Cd
_symmetry_space_group_name_H-M   'P 1'
_cell_length_a   9.07039100
_cell_length_b   9.07039036
_cell_length_c   6.69339600
_cell_angle_alpha   90.00000000
_cell_angle_beta   90.00000000
_cell_angle_gamma   120.00000598
_symmetry_Int_Tables_number   1
_chemical_formula_structural   Lu10Tl7Cd
_chemical_formula_sum   'Lu10 Tl7 Cd1'
_cell_volume   476.90196527
_cell_formula_units_Z   1
loop_
 _symmetry_equiv_pos_site_id
 _symmetry_equiv_pos_as_xyz
  1  'x, y, z'
loop_
 _atom_site_type_symbol
 _atom_site_label
 _atom_site_symmetry_multiplicity
 _atom_site_fract_x
 _atom_site_fract_y
 _atom_site_fract_z
 _atom_site_occupancy
  Lu  Lu0  1  0.333333  0.666667  0.500000  1
  Lu  Lu1  1  0.666667  0.333333  0.500000  1
  Lu  Lu2  1  0.666667  0.333333  0.000000  1
  Lu  Lu3  1  0.333333  0.666667  0.000000  1
  Lu  Lu4  1  0.288655  0.000000  0.748362  1
  Lu  Lu5  1  0.711345  0.000000  0.251638  1
  Lu  Lu6  1  0.000000  0.288655  0.748362  1
  Lu  Lu7  1  0.000000  0.711345  0.251638  1
  Lu  Lu8  1  0.711345  0.711345  0.748362  1
  Lu  Lu9  1  0.288655  0.288655  0.251638  1
  Tl  Tl10  1  0.000000  0.000000  0.000000  1
  Tl  Tl11  1  0.627789  0.000000  0.748145  1
  Tl  Tl12  1  0.372211  0.000000  0.251855  1
  Tl  Tl13  1  0.000000  0.627789  0.748145  1
  Tl  Tl14  1  0.000000  0.372211  0.251855  1
  Tl  Tl15  1  0.372211  0.372211  0.748145  1
  Tl  Tl16  1  0.627789  0.627789  0.251855  1
  Cd  Cd17  1  0.000000  0.000000  0.500000  1
