# generated using pymatgen
data_Zr2InCoAu
_symmetry_space_group_name_H-M   'P 1'
_cell_length_a   7.53822672
_cell_length_b   7.53822660
_cell_length_c   3.36106200
_cell_angle_alpha   90.00000000
_cell_angle_beta   90.00000000
_cell_angle_gamma   88.18447926
_symmetry_Int_Tables_number   1
_chemical_formula_structural   Zr2InCoAu
_chemical_formula_sum   'Zr4 In2 Co2 Au2'
_cell_volume   190.89600640
_cell_formula_units_Z   2
loop_
 _symmetry_equiv_pos_site_id
 _symmetry_equiv_pos_as_xyz
  1  'x, y, z'
loop_
 _atom_site_type_symbol
 _atom_site_label
 _atom_site_symmetry_multiplicity
 _atom_site_fract_x
 _atom_site_fract_y
 _atom_site_fract_z
 _atom_site_occupancy
  Zr  Zr0  1  0.193388  0.306612  0.000000  1
  Zr  Zr1  1  0.806612  0.693388  0.000000  1
  Zr  Zr2  1  0.650207  0.150207  0.000000  1
  Zr  Zr3  1  0.349793  0.849793  0.000000  1
  In  In4  1  0.000000  0.000000  0.500000  1
  In  In5  1  0.500000  0.500000  0.500000  1
  Co  Co6  1  0.374499  0.125501  0.500000  1
  Co  Co7  1  0.625501  0.874499  0.500000  1
  Au  Au8  1  0.870164  0.370164  0.500000  1
  Au  Au9  1  0.129836  0.629836  0.500000  1
