# generated using pymatgen
data_Dy4Al18Ru3RhAu2
_symmetry_space_group_name_H-M   'P 1'
_cell_length_a   7.62452893
_cell_length_b   7.62453022
_cell_length_c   9.52512127
_cell_angle_alpha   90.04810943
_cell_angle_beta   90.04810627
_cell_angle_gamma   119.33777622
_symmetry_Int_Tables_number   1
_chemical_formula_structural   Dy4Al18Ru3RhAu2
_chemical_formula_sum   'Dy4 Al18 Ru3 Rh1 Au2'
_cell_volume   482.70988680
_cell_formula_units_Z   1
loop_
 _symmetry_equiv_pos_site_id
 _symmetry_equiv_pos_as_xyz
  1  'x, y, z'
loop_
 _atom_site_type_symbol
 _atom_site_label
 _atom_site_symmetry_multiplicity
 _atom_site_fract_x
 _atom_site_fract_y
 _atom_site_fract_z
 _atom_site_occupancy
  Dy  Dy0  1  0.997086  0.678235  0.749273  1
  Dy  Dy1  1  0.003702  0.322594  0.250614  1
  Dy  Dy2  1  0.677406  0.996298  0.749386  1
  Dy  Dy3  1  0.321765  0.002914  0.250727  1
  Al  Al4  1  0.144928  0.144184  0.749913  1
  Al  Al5  1  0.855816  0.855072  0.250087  1
  Al  Al6  1  0.002286  0.347727  0.576817  1
  Al  Al7  1  0.997863  0.651771  0.423342  1
  Al  Al8  1  0.999500  0.654236  0.078035  1
  Al  Al9  1  0.345764  0.000500  0.921965  1
  Al  Al10  1  0.003479  0.347789  0.922483  1
  Al  Al11  1  0.652211  0.996521  0.077517  1
  Al  Al12  1  0.652273  0.997714  0.423183  1
  Al  Al13  1  0.348229  0.002137  0.576658  1
  Al  Al14  1  0.342307  0.344855  0.055703  1
  Al  Al15  1  0.655145  0.657693  0.944297  1
  Al  Al16  1  0.655814  0.655450  0.554292  1
  Al  Al17  1  0.344550  0.344186  0.445708  1
  Al  Al18  1  0.337782  0.555985  0.749761  1
  Al  Al19  1  0.662761  0.444761  0.251082  1
  Al  Al20  1  0.555239  0.337239  0.748918  1
  Al  Al21  1  0.444015  0.662218  0.250239  1
  Ru  Ru22  1  0.672358  0.327642  0.500000  1
  Ru  Ru23  1  0.328021  0.671979  0.500000  1
  Ru  Ru24  1  0.327549  0.672451  0.000000  1
  Rh  Rh25  1  0.672054  0.327946  0.000000  1
  Au  Au26  1  0.000126  0.999874  0.500000  1
  Au  Au27  1  0.999970  0.000030  0.000000  1
