# generated using pymatgen
data_Na2MgIrO6
_symmetry_space_group_name_H-M   'P 1'
_cell_length_a   5.42625822
_cell_length_b   5.52023516
_cell_length_c   7.73447498
_cell_angle_alpha   90.01885705
_cell_angle_beta   89.88000013
_cell_angle_gamma   89.98029579
_symmetry_Int_Tables_number   1
_chemical_formula_structural   Na2MgIrO6
_chemical_formula_sum   'Na4 Mg2 Ir2 O12'
_cell_volume   231.67964165
_cell_formula_units_Z   2
loop_
 _symmetry_equiv_pos_site_id
 _symmetry_equiv_pos_as_xyz
  1  'x, y, z'
loop_
 _atom_site_type_symbol
 _atom_site_label
 _atom_site_symmetry_multiplicity
 _atom_site_fract_x
 _atom_site_fract_y
 _atom_site_fract_z
 _atom_site_occupancy
  Na  Na0  1  0.010389  0.959515  0.249119  1
  Na  Na1  1  0.489557  0.459268  0.250732  1
  Na  Na2  1  0.510443  0.540732  0.749268  1
  Na  Na3  1  0.989611  0.040485  0.750881  1
  Mg  Mg4  1  0.000000  0.500000  0.000000  1
  Mg  Mg5  1  0.500000  0.000000  0.500000  1
  Ir  Ir6  1  0.000000  0.500000  0.500000  1
  Ir  Ir7  1  0.500000  0.000000  0.000000  1
  O  O8  1  0.075108  0.484489  0.738408  1
  O  O9  1  0.220983  0.199872  0.037649  1
  O  O10  1  0.196767  0.222106  0.459894  1
  O  O11  1  0.303280  0.722184  0.039994  1
  O  O12  1  0.278869  0.699671  0.462441  1
  O  O13  1  0.424855  0.984526  0.761596  1
  O  O14  1  0.575145  0.015474  0.238404  1
  O  O15  1  0.721131  0.300329  0.537559  1
  O  O16  1  0.696720  0.277816  0.960006  1
  O  O17  1  0.779017  0.800128  0.962351  1
  O  O18  1  0.803233  0.777894  0.540106  1
  O  O19  1  0.924892  0.515511  0.261592  1
