# generated using pymatgen
data_TmLu3(Si3Rh)2
_symmetry_space_group_name_H-M   'P 1'
_cell_length_a   8.11155800
_cell_length_b   8.11155775
_cell_length_c   7.71213500
_cell_angle_alpha   90.00000000
_cell_angle_beta   90.00000000
_cell_angle_gamma   120.00000103
_symmetry_Int_Tables_number   1
_chemical_formula_structural   TmLu3(Si3Rh)2
_chemical_formula_sum   'Tm2 Lu6 Si12 Rh4'
_cell_volume   439.45437513
_cell_formula_units_Z   2
loop_
 _symmetry_equiv_pos_site_id
 _symmetry_equiv_pos_as_xyz
  1  'x, y, z'
loop_
 _atom_site_type_symbol
 _atom_site_label
 _atom_site_symmetry_multiplicity
 _atom_site_fract_x
 _atom_site_fract_y
 _atom_site_fract_z
 _atom_site_occupancy
  Tm  Tm0  1  0.000000  0.000000  0.750000  1
  Tm  Tm1  1  0.000000  0.000000  0.250000  1
  Lu  Lu2  1  0.981336  0.490668  0.250000  1
  Lu  Lu3  1  0.509332  0.490668  0.250000  1
  Lu  Lu4  1  0.490668  0.981336  0.750000  1
  Lu  Lu5  1  0.018664  0.509332  0.750000  1
  Lu  Lu6  1  0.490668  0.509332  0.750000  1
  Lu  Lu7  1  0.509332  0.018664  0.250000  1
  Si  Si8  1  0.167005  0.832995  0.499923  1
  Si  Si9  1  0.167005  0.334010  0.499923  1
  Si  Si10  1  0.665990  0.832995  0.499923  1
  Si  Si11  1  0.334010  0.167005  0.999923  1
  Si  Si12  1  0.832995  0.665990  0.500077  1
  Si  Si13  1  0.832995  0.167005  0.999923  1
  Si  Si14  1  0.832995  0.665990  0.999923  1
  Si  Si15  1  0.167005  0.334010  0.000077  1
  Si  Si16  1  0.665990  0.832995  0.000077  1
  Si  Si17  1  0.334010  0.167005  0.500077  1
  Si  Si18  1  0.832995  0.167005  0.500077  1
  Si  Si19  1  0.167005  0.832995  0.000077  1
  Rh  Rh20  1  0.333333  0.666667  0.034974  1
  Rh  Rh21  1  0.666667  0.333333  0.965026  1
  Rh  Rh22  1  0.666667  0.333333  0.534974  1
  Rh  Rh23  1  0.333333  0.666667  0.465026  1
