# generated using pymatgen
data_SmHo4In4PdRh
_symmetry_space_group_name_H-M   'P 1'
_cell_length_a   3.62676400
_cell_length_b   8.12322930
_cell_length_c   18.32506015
_cell_angle_alpha   90.00843433
_cell_angle_beta   90.00000000
_cell_angle_gamma   90.00000000
_symmetry_Int_Tables_number   1
_chemical_formula_structural   SmHo4In4PdRh
_chemical_formula_sum   'Sm2 Ho8 In8 Pd2 Rh2'
_cell_volume   539.87524355
_cell_formula_units_Z   2
loop_
 _symmetry_equiv_pos_site_id
 _symmetry_equiv_pos_as_xyz
  1  'x, y, z'
loop_
 _atom_site_type_symbol
 _atom_site_label
 _atom_site_symmetry_multiplicity
 _atom_site_fract_x
 _atom_site_fract_y
 _atom_site_fract_z
 _atom_site_occupancy
  Sm  Sm0  1  0.000000  0.500000  0.500000  1
  Sm  Sm1  1  0.000000  0.000000  0.000000  1
  Ho  Ho2  1  0.000000  0.731342  0.278189  1
  Ho  Ho3  1  0.000000  0.268658  0.721811  1
  Ho  Ho4  1  0.000000  0.747861  0.780039  1
  Ho  Ho5  1  0.000000  0.252139  0.219961  1
  Ho  Ho6  1  0.000000  0.613863  0.087267  1
  Ho  Ho7  1  0.000000  0.386137  0.912733  1
  Ho  Ho8  1  0.000000  0.883938  0.584616  1
  Ho  Ho9  1  0.000000  0.116062  0.415384  1
  In  In10  1  0.500000  0.707258  0.930811  1
  In  In11  1  0.500000  0.292742  0.069189  1
  In  In12  1  0.500000  0.792947  0.431186  1
  In  In13  1  0.500000  0.207053  0.568814  1
  In  In14  1  0.500000  0.579071  0.650409  1
  In  In15  1  0.500000  0.420929  0.349591  1
  In  In16  1  0.500000  0.920301  0.150809  1
  In  In17  1  0.500000  0.079699  0.849191  1
  Pd  Pd18  1  0.500000  0.978864  0.696247  1
  Pd  Pd19  1  0.500000  0.021136  0.303753  1
  Rh  Rh20  1  0.500000  0.521261  0.195102  1
  Rh  Rh21  1  0.500000  0.478739  0.804898  1
