# generated using pymatgen
data_Cs2Ca(SeO3)2
_symmetry_space_group_name_H-M   'P 1'
_cell_length_a   6.00946582
_cell_length_b   7.95297847
_cell_length_c   9.96894876
_cell_angle_alpha   69.97640907
_cell_angle_beta   90.02923346
_cell_angle_gamma   90.03799465
_symmetry_Int_Tables_number   1
_chemical_formula_structural   Cs2Ca(SeO3)2
_chemical_formula_sum   'Cs4 Ca2 Se4 O12'
_cell_volume   447.64693527
_cell_formula_units_Z   2
loop_
 _symmetry_equiv_pos_site_id
 _symmetry_equiv_pos_as_xyz
  1  'x, y, z'
loop_
 _atom_site_type_symbol
 _atom_site_label
 _atom_site_symmetry_multiplicity
 _atom_site_fract_x
 _atom_site_fract_y
 _atom_site_fract_z
 _atom_site_occupancy
  Cs  Cs0  1  0.999926  0.598787  0.799526  1
  Cs  Cs1  1  0.499927  0.098787  0.299526  1
  Cs  Cs2  1  0.000074  0.401214  0.200474  1
  Cs  Cs3  1  0.500073  0.901214  0.700474  1
  Ca  Ca4  1  0.500000  0.500000  0.500000  1
  Ca  Ca5  1  0.000000  0.000000  0.000000  1
  Se  Se6  1  0.000031  0.257721  0.629084  1
  Se  Se7  1  0.500029  0.757718  0.129084  1
  Se  Se8  1  0.999969  0.742279  0.370916  1
  Se  Se9  1  0.499971  0.242282  0.870916  1
  O  O10  1  0.227821  0.731961  0.479880  1
  O  O11  1  0.727818  0.231963  0.979879  1
  O  O12  1  0.772180  0.268040  0.520120  1
  O  O13  1  0.272182  0.768038  0.020121  1
  O  O14  1  0.227459  0.267926  0.520250  1
  O  O15  1  0.727460  0.767925  0.020246  1
  O  O16  1  0.772541  0.732074  0.479750  1
  O  O17  1  0.272540  0.232075  0.979753  1
  O  O18  1  0.999896  0.959784  0.252239  1
  O  O19  1  0.499896  0.459788  0.752239  1
  O  O20  1  0.000104  0.040217  0.747762  1
  O  O21  1  0.500104  0.540212  0.247762  1
