# generated using pymatgen
data_Ho16Al4IrPt3
_symmetry_space_group_name_H-M   'P 1'
_cell_length_a   9.55330272
_cell_length_b   9.55324971
_cell_length_c   9.58353947
_cell_angle_alpha   60.10463806
_cell_angle_beta   60.10469361
_cell_angle_gamma   60.00006993
_symmetry_Int_Tables_number   1
_chemical_formula_structural   Ho16Al4IrPt3
_chemical_formula_sum   'Ho16 Al4 Ir1 Pt3'
_cell_volume   619.44263421
_cell_formula_units_Z   1
loop_
 _symmetry_equiv_pos_site_id
 _symmetry_equiv_pos_as_xyz
  1  'x, y, z'
loop_
 _atom_site_type_symbol
 _atom_site_label
 _atom_site_symmetry_multiplicity
 _atom_site_fract_x
 _atom_site_fract_y
 _atom_site_fract_z
 _atom_site_occupancy
  Ho  Ho0  1  0.437173  0.437166  0.062061  1
  Ho  Ho1  1  0.645429  0.645431  0.063712  1
  Ho  Ho2  1  0.189022  0.807777  0.195421  1
  Ho  Ho3  1  0.063592  0.437173  0.062059  1
  Ho  Ho4  1  0.193450  0.806332  0.806769  1
  Ho  Ho5  1  0.062413  0.439374  0.435805  1
  Ho  Ho6  1  0.807778  0.189021  0.195425  1
  Ho  Ho7  1  0.647882  0.647878  0.643959  1
  Ho  Ho8  1  0.806337  0.193446  0.806772  1
  Ho  Ho9  1  0.193444  0.193448  0.806766  1
  Ho  Ho10  1  0.060289  0.647875  0.643958  1
  Ho  Ho11  1  0.437164  0.063608  0.062055  1
  Ho  Ho12  1  0.062409  0.062414  0.435809  1
  Ho  Ho13  1  0.647878  0.060286  0.643961  1
  Ho  Ho14  1  0.807781  0.807782  0.195416  1
  Ho  Ho15  1  0.439375  0.062410  0.435803  1
  Al  Al16  1  0.422307  0.422307  0.421828  1
  Al  Al17  1  0.421400  0.421399  0.735803  1
  Al  Al18  1  0.422307  0.733557  0.421829  1
  Al  Al19  1  0.733554  0.422308  0.421829  1
  Ir  Ir20  1  0.856857  0.856855  0.429429  1
  Pt  Pt21  1  0.429694  0.856229  0.857843  1
  Pt  Pt22  1  0.856233  0.856227  0.857845  1
  Pt  Pt23  1  0.856232  0.429696  0.857844  1
