# generated using pymatgen
data_Sr3Al11Zn
_symmetry_space_group_name_H-M   'P 1'
_cell_length_a   8.86280118
_cell_length_b   8.86279863
_cell_length_c   8.86279873
_cell_angle_alpha   150.10255563
_cell_angle_beta   100.48657321
_cell_angle_gamma   87.19573529
_symmetry_Int_Tables_number   1
_chemical_formula_structural   Sr3Al11Zn
_chemical_formula_sum   'Sr3 Al11 Zn1'
_cell_volume   332.68495528
_cell_formula_units_Z   1
loop_
 _symmetry_equiv_pos_site_id
 _symmetry_equiv_pos_as_xyz
  1  'x, y, z'
loop_
 _atom_site_type_symbol
 _atom_site_label
 _atom_site_symmetry_multiplicity
 _atom_site_fract_x
 _atom_site_fract_y
 _atom_site_fract_z
 _atom_site_occupancy
  Sr  Sr0  1  0.000242  0.000000  0.000242  1
  Sr  Sr1  1  0.333823  0.332515  0.001308  1
  Sr  Sr2  1  0.668794  0.667485  0.001308  1
  Al  Al3  1  0.389510  0.000000  0.389510  1
  Al  Al4  1  0.254799  0.500000  0.754799  1
  Al  Al5  1  0.744203  0.500000  0.244203  1
  Al  Al6  1  0.590698  0.836811  0.753886  1
  Al  Al7  1  0.917076  0.163189  0.753886  1
  Al  Al8  1  0.284941  0.667712  0.617229  1
  Al  Al9  1  0.949518  0.332288  0.617229  1
  Al  Al10  1  0.050529  0.666324  0.384205  1
  Al  Al11  1  0.717879  0.333676  0.384205  1
  Al  Al12  1  0.081957  0.835075  0.246883  1
  Al  Al13  1  0.411806  0.164925  0.246883  1
  Zn  Zn14  1  0.615226  0.000000  0.615226  1
