# generated using pymatgen
data_Dy4Al16Co3Si2Ir3
_symmetry_space_group_name_H-M   'P 1'
_cell_length_a   7.46752722
_cell_length_b   7.46752743
_cell_length_c   9.30704503
_cell_angle_alpha   89.91953214
_cell_angle_beta   89.91953560
_cell_angle_gamma   119.62792912
_symmetry_Int_Tables_number   1
_chemical_formula_structural   Dy4Al16Co3Si2Ir3
_chemical_formula_sum   'Dy4 Al16 Co3 Si2 Ir3'
_cell_volume   451.13911766
_cell_formula_units_Z   1
loop_
 _symmetry_equiv_pos_site_id
 _symmetry_equiv_pos_as_xyz
  1  'x, y, z'
loop_
 _atom_site_type_symbol
 _atom_site_label
 _atom_site_symmetry_multiplicity
 _atom_site_fract_x
 _atom_site_fract_y
 _atom_site_fract_z
 _atom_site_occupancy
  Dy  Dy0  1  0.996572  0.674775  0.749597  1
  Dy  Dy1  1  0.007556  0.328687  0.250392  1
  Dy  Dy2  1  0.671313  0.992444  0.749608  1
  Dy  Dy3  1  0.325225  0.003428  0.250403  1
  Al  Al4  1  0.993352  0.330160  0.573193  1
  Al  Al5  1  0.993277  0.664934  0.426617  1
  Al  Al6  1  0.996880  0.669735  0.075363  1
  Al  Al7  1  0.330265  0.003120  0.924637  1
  Al  Al8  1  0.000858  0.329188  0.925047  1
  Al  Al9  1  0.670812  0.999142  0.074953  1
  Al  Al10  1  0.669840  0.006648  0.426807  1
  Al  Al11  1  0.335066  0.006723  0.573383  1
  Al  Al12  1  0.330754  0.330337  0.053519  1
  Al  Al13  1  0.669663  0.669246  0.946481  1
  Al  Al14  1  0.669538  0.665901  0.551234  1
  Al  Al15  1  0.334099  0.330462  0.448766  1
  Al  Al16  1  0.335373  0.543346  0.749235  1
  Al  Al17  1  0.663757  0.446211  0.256163  1
  Al  Al18  1  0.553789  0.336243  0.743837  1
  Al  Al19  1  0.456654  0.664627  0.250765  1
  Co  Co20  1  0.670464  0.329536  0.500000  1
  Co  Co21  1  0.999298  0.000702  0.500000  1
  Co  Co22  1  0.999847  0.000153  0.000000  1
  Si  Si23  1  0.118971  0.119952  0.748903  1
  Si  Si24  1  0.880048  0.881029  0.251097  1
  Ir  Ir25  1  0.327181  0.672819  0.500000  1
  Ir  Ir26  1  0.327956  0.672044  0.000000  1
  Ir  Ir27  1  0.671594  0.328406  0.000000  1
