# generated using pymatgen
data_Er4Mn11(Fe3P4)3
_symmetry_space_group_name_H-M   'P 1'
_cell_length_a   3.63150700
_cell_length_b   10.35695198
_cell_length_c   12.08834335
_cell_angle_alpha   89.72987856
_cell_angle_beta   90.00000000
_cell_angle_gamma   90.00000000
_symmetry_Int_Tables_number   1
_chemical_formula_structural   Er4Mn11(Fe3P4)3
_chemical_formula_sum   'Er4 Mn11 Fe9 P12'
_cell_volume   454.65378259
_cell_formula_units_Z   1
loop_
 _symmetry_equiv_pos_site_id
 _symmetry_equiv_pos_as_xyz
  1  'x, y, z'
loop_
 _atom_site_type_symbol
 _atom_site_label
 _atom_site_symmetry_multiplicity
 _atom_site_fract_x
 _atom_site_fract_y
 _atom_site_fract_z
 _atom_site_occupancy
  Er  Er0  1  0.250000  0.580430  0.708845  1
  Er  Er1  1  0.250000  0.915471  0.212042  1
  Er  Er2  1  0.750000  0.423908  0.291058  1
  Er  Er3  1  0.750000  0.079665  0.789672  1
  Mn  Mn4  1  0.250000  0.706057  0.988729  1
  Mn  Mn5  1  0.250000  0.793976  0.492437  1
  Mn  Mn6  1  0.750000  0.291341  0.010680  1
  Mn  Mn7  1  0.750000  0.207945  0.511048  1
  Mn  Mn8  1  0.250000  0.411935  0.490767  1
  Mn  Mn9  1  0.250000  0.091672  0.993101  1
  Mn  Mn10  1  0.750000  0.594188  0.507534  1
  Mn  Mn11  1  0.750000  0.905282  0.009119  1
  Mn  Mn12  1  0.250000  0.219022  0.173804  1
  Mn  Mn13  1  0.250000  0.279800  0.672490  1
  Mn  Mn14  1  0.750000  0.779879  0.827554  1
  Fe  Fe15  1  0.750000  0.724190  0.327156  1
  Fe  Fe16  1  0.250000  0.873007  0.700555  1
  Fe  Fe17  1  0.250000  0.622635  0.194960  1
  Fe  Fe18  1  0.750000  0.127505  0.300160  1
  Fe  Fe19  1  0.750000  0.372823  0.801098  1
  Fe  Fe20  1  0.250000  0.460754  0.934300  1
  Fe  Fe21  1  0.250000  0.039002  0.433338  1
  Fe  Fe22  1  0.750000  0.536778  0.063948  1
  Fe  Fe23  1  0.750000  0.961940  0.565518  1
  P  P24  1  0.250000  0.426121  0.113088  1
  P  P25  1  0.250000  0.071331  0.612085  1
  P  P26  1  0.750000  0.571863  0.885681  1
  P  P27  1  0.750000  0.926100  0.387513  1
  P  P28  1  0.250000  0.264845  0.866764  1
  P  P29  1  0.250000  0.235760  0.367800  1
  P  P30  1  0.750000  0.730554  0.137819  1
  P  P31  1  0.750000  0.766614  0.633293  1
  P  P32  1  0.250000  0.605158  0.380500  1
  P  P33  1  0.250000  0.904433  0.886513  1
  P  P34  1  0.750000  0.404785  0.614320  1
  P  P35  1  0.750000  0.093234  0.114712  1
