# generated using pymatgen
data_Ce8Si12Ir3Ru
_symmetry_space_group_name_H-M   'P 1'
_cell_length_a   8.22263600
_cell_length_b   8.22263666
_cell_length_c   8.23205200
_cell_angle_alpha   90.00000000
_cell_angle_beta   90.00000000
_cell_angle_gamma   119.99998930
_symmetry_Int_Tables_number   1
_chemical_formula_structural   Ce8Si12Ir3Ru
_chemical_formula_sum   'Ce8 Si12 Ir3 Ru1'
_cell_volume   482.01543909
_cell_formula_units_Z   1
loop_
 _symmetry_equiv_pos_site_id
 _symmetry_equiv_pos_as_xyz
  1  'x, y, z'
loop_
 _atom_site_type_symbol
 _atom_site_label
 _atom_site_symmetry_multiplicity
 _atom_site_fract_x
 _atom_site_fract_y
 _atom_site_fract_z
 _atom_site_occupancy
  Ce  Ce0  1  0.000000  0.000000  0.249897  1
  Ce  Ce1  1  0.000000  0.000000  0.749888  1
  Ce  Ce2  1  0.498920  0.501080  0.252278  1
  Ce  Ce3  1  0.498920  0.997841  0.252278  1
  Ce  Ce4  1  0.002159  0.501080  0.252278  1
  Ce  Ce5  1  0.499005  0.500995  0.748120  1
  Ce  Ce6  1  0.499005  0.998009  0.748120  1
  Ce  Ce7  1  0.001991  0.500995  0.748120  1
  Si  Si8  1  0.165720  0.834280  0.502785  1
  Si  Si9  1  0.165720  0.331441  0.502785  1
  Si  Si10  1  0.668559  0.834280  0.502785  1
  Si  Si11  1  0.835029  0.164971  0.498269  1
  Si  Si12  1  0.835029  0.670057  0.498269  1
  Si  Si13  1  0.329943  0.164971  0.498269  1
  Si  Si14  1  0.834325  0.165675  0.002048  1
  Si  Si15  1  0.834325  0.668650  0.002048  1
  Si  Si16  1  0.331350  0.165675  0.002048  1
  Si  Si17  1  0.165315  0.834685  0.997432  1
  Si  Si18  1  0.165315  0.330632  0.997432  1
  Si  Si19  1  0.669368  0.834685  0.997432  1
  Ir  Ir20  1  0.666667  0.333333  0.503675  1
  Ir  Ir21  1  0.666667  0.333333  0.996881  1
  Ir  Ir22  1  0.333333  0.666667  0.005862  1
  Ru  Ru23  1  0.333333  0.666667  0.490997  1
