# generated using pymatgen
data_Lu12Si12Ir3Ru
_symmetry_space_group_name_H-M   'P 1'
_cell_length_a   4.17671800
_cell_length_b   10.46726137
_cell_length_c   12.03966901
_cell_angle_alpha   90.03192585
_cell_angle_beta   90.00000000
_cell_angle_gamma   90.00000000
_symmetry_Int_Tables_number   1
_chemical_formula_structural   Lu12Si12Ir3Ru
_chemical_formula_sum   'Lu12 Si12 Ir3 Ru1'
_cell_volume   526.35978775
_cell_formula_units_Z   1
loop_
 _symmetry_equiv_pos_site_id
 _symmetry_equiv_pos_as_xyz
  1  'x, y, z'
loop_
 _atom_site_type_symbol
 _atom_site_label
 _atom_site_symmetry_multiplicity
 _atom_site_fract_x
 _atom_site_fract_y
 _atom_site_fract_z
 _atom_site_occupancy
  Lu  Lu0  1  0.250000  0.878008  0.019111  1
  Lu  Lu1  1  0.250000  0.620895  0.520207  1
  Lu  Lu2  1  0.750000  0.120928  0.980713  1
  Lu  Lu3  1  0.750000  0.378246  0.480774  1
  Lu  Lu4  1  0.250000  0.920306  0.603244  1
  Lu  Lu5  1  0.250000  0.580169  0.103866  1
  Lu  Lu6  1  0.750000  0.079474  0.396268  1
  Lu  Lu7  1  0.750000  0.420308  0.896977  1
  Lu  Lu8  1  0.250000  0.659422  0.798716  1
  Lu  Lu9  1  0.250000  0.840420  0.299543  1
  Lu  Lu10  1  0.750000  0.341185  0.200164  1
  Lu  Lu11  1  0.750000  0.159086  0.700508  1
  Si  Si12  1  0.250000  0.013047  0.821353  1
  Si  Si13  1  0.250000  0.487144  0.321509  1
  Si  Si14  1  0.750000  0.986929  0.178817  1
  Si  Si15  1  0.750000  0.511965  0.679668  1
  Si  Si16  1  0.250000  0.249741  0.840861  1
  Si  Si17  1  0.250000  0.251125  0.341304  1
  Si  Si18  1  0.750000  0.751675  0.158273  1
  Si  Si19  1  0.750000  0.749511  0.658307  1
  Si  Si20  1  0.250000  0.197567  0.544467  1
  Si  Si21  1  0.250000  0.302125  0.044413  1
  Si  Si22  1  0.750000  0.803160  0.455557  1
  Si  Si23  1  0.750000  0.696266  0.955196  1
  Ir  Ir24  1  0.250000  0.109021  0.178588  1
  Ir  Ir25  1  0.750000  0.610089  0.321240  1
  Ir  Ir26  1  0.750000  0.890648  0.821779  1
  Ru  Ru27  1  0.250000  0.391537  0.678578  1
