# generated using pymatgen
data_Tb2HoZr(Co4P3)2
_symmetry_space_group_name_H-M   'P 1'
_cell_length_a   3.73566500
_cell_length_b   10.72313900
_cell_length_c   12.45497400
_cell_angle_alpha   90.00000000
_cell_angle_beta   90.00000000
_cell_angle_gamma   90.00000000
_symmetry_Int_Tables_number   1
_chemical_formula_structural   Tb2HoZr(Co4P3)2
_chemical_formula_sum   'Tb4 Ho2 Zr2 Co16 P12'
_cell_volume   498.92203417
_cell_formula_units_Z   2
loop_
 _symmetry_equiv_pos_site_id
 _symmetry_equiv_pos_as_xyz
  1  'x, y, z'
loop_
 _atom_site_type_symbol
 _atom_site_label
 _atom_site_symmetry_multiplicity
 _atom_site_fract_x
 _atom_site_fract_y
 _atom_site_fract_z
 _atom_site_occupancy
  Tb  Tb0  1  0.000000  0.500000  0.529326  1
  Tb  Tb1  1  0.500000  0.000000  0.470304  1
  Tb  Tb2  1  0.000000  0.678427  0.795126  1
  Tb  Tb3  1  0.000000  0.321573  0.795126  1
  Ho  Ho4  1  0.500000  0.821878  0.204717  1
  Ho  Ho5  1  0.500000  0.178122  0.204717  1
  Zr  Zr6  1  0.500000  0.500000  0.158040  1
  Zr  Zr7  1  0.000000  0.000000  0.842041  1
  Co  Co8  1  0.500000  0.500000  0.703716  1
  Co  Co9  1  0.000000  0.000000  0.295691  1
  Co  Co10  1  0.000000  0.500000  0.986772  1
  Co  Co11  1  0.500000  0.000000  0.014588  1
  Co  Co12  1  0.500000  0.331750  0.993694  1
  Co  Co13  1  0.500000  0.668250  0.993694  1
  Co  Co14  1  0.000000  0.167820  0.007777  1
  Co  Co15  1  0.000000  0.832180  0.007777  1
  Co  Co16  1  0.500000  0.294966  0.432718  1
  Co  Co17  1  0.500000  0.705034  0.432718  1
  Co  Co18  1  0.000000  0.204750  0.566031  1
  Co  Co19  1  0.000000  0.795250  0.566031  1
  Co  Co20  1  0.500000  0.877936  0.700812  1
  Co  Co21  1  0.500000  0.122064  0.700812  1
  Co  Co22  1  0.000000  0.622616  0.298269  1
  Co  Co23  1  0.000000  0.377384  0.298269  1
  P  P24  1  0.500000  0.500000  0.884712  1
  P  P25  1  0.000000  0.000000  0.116669  1
  P  P26  1  0.500000  0.500000  0.362731  1
  P  P27  1  0.000000  0.000000  0.637089  1
  P  P28  1  0.500000  0.309150  0.614989  1
  P  P29  1  0.500000  0.690850  0.614989  1
  P  P30  1  0.000000  0.190252  0.383639  1
  P  P31  1  0.000000  0.809748  0.383639  1
  P  P32  1  0.500000  0.838527  0.894896  1
  P  P33  1  0.500000  0.161473  0.894896  1
  P  P34  1  0.000000  0.662106  0.106492  1
  P  P35  1  0.000000  0.337894  0.106492  1
