# generated using pymatgen
data_Dy4HoMg(P2Ru3)6
_symmetry_space_group_name_H-M   'P 1'
_cell_length_a   12.63346102
_cell_length_b   12.47324360
_cell_length_c   3.97960500
_cell_angle_alpha   90.00000000
_cell_angle_beta   90.00000000
_cell_angle_gamma   119.58178813
_symmetry_Int_Tables_number   1
_chemical_formula_structural   Dy4HoMg(P2Ru3)6
_chemical_formula_sum   'Dy4 Ho1 Mg1 P12 Ru18'
_cell_volume   545.36487221
_cell_formula_units_Z   1
loop_
 _symmetry_equiv_pos_site_id
 _symmetry_equiv_pos_as_xyz
  1  'x, y, z'
loop_
 _atom_site_type_symbol
 _atom_site_label
 _atom_site_symmetry_multiplicity
 _atom_site_fract_x
 _atom_site_fract_y
 _atom_site_fract_z
 _atom_site_occupancy
  Dy  Dy0  1  0.000006  0.181124  0.500000  1
  Dy  Dy1  1  0.816120  0.817807  0.500000  1
  Dy  Dy2  1  0.660672  0.328949  0.000000  1
  Dy  Dy3  1  0.339300  0.668274  0.000000  1
  Ho  Ho4  1  0.183855  0.001789  0.500000  1
  Mg  Mg5  1  0.000012  0.561427  0.000000  1
  P  P6  1  0.000098  0.812374  0.000000  1
  P  P7  1  0.183265  0.183610  0.000000  1
  P  P8  1  0.816795  0.000465  0.000000  1
  P  P9  1  0.691273  0.172022  0.500000  1
  P  P10  1  0.819058  0.518924  0.500000  1
  P  P11  1  0.475065  0.307090  0.500000  1
  P  P12  1  0.180965  0.699860  0.500000  1
  P  P13  1  0.524909  0.832020  0.500000  1
  P  P14  1  0.308695  0.480680  0.500000  1
  P  P15  1  0.000006  0.359842  0.000000  1
  P  P16  1  0.625688  0.625454  0.000000  1
  P  P17  1  0.374242  0.999752  0.000000  1
  Ru  Ru18  1  0.444686  0.444594  0.000000  1
  Ru  Ru19  1  0.555274  0.999926  0.000000  1
  Ru  Ru20  1  0.000123  0.717102  0.500000  1
  Ru  Ru21  1  0.281910  0.283269  0.500000  1
  Ru  Ru22  1  0.718031  0.001468  0.500000  1
  Ru  Ru23  1  0.805106  0.184177  0.000000  1
  Ru  Ru24  1  0.813636  0.620260  0.000000  1
  Ru  Ru25  1  0.373207  0.188913  0.000000  1
  Ru  Ru26  1  0.186415  0.806887  0.000000  1
  Ru  Ru27  1  0.626548  0.815748  0.000000  1
  Ru  Ru28  1  0.194917  0.379052  0.000000  1
  Ru  Ru29  1  0.875073  0.365592  0.500000  1
  Ru  Ru30  1  0.631313  0.509682  0.500000  1
  Ru  Ru31  1  0.492405  0.128599  0.500000  1
  Ru  Ru32  1  0.368655  0.878379  0.500000  1
  Ru  Ru33  1  0.507532  0.636130  0.500000  1
  Ru  Ru34  1  0.124908  0.490487  0.500000  1
  Ru  Ru35  1  0.000238  0.998273  0.000000  1
