# generated using pymatgen
data_La10CoRu3
_symmetry_space_group_name_H-M   'P 1'
_cell_length_a   9.15650717
_cell_length_b   9.14601410
_cell_length_c   7.35679982
_cell_angle_alpha   86.22768669
_cell_angle_beta   86.15699737
_cell_angle_gamma   43.11886677
_symmetry_Int_Tables_number   1
_chemical_formula_structural   La10CoRu3
_chemical_formula_sum   'La10 Co1 Ru3'
_cell_volume   420.03707775
_cell_formula_units_Z   1
loop_
 _symmetry_equiv_pos_site_id
 _symmetry_equiv_pos_as_xyz
  1  'x, y, z'
loop_
 _atom_site_type_symbol
 _atom_site_label
 _atom_site_symmetry_multiplicity
 _atom_site_fract_x
 _atom_site_fract_y
 _atom_site_fract_z
 _atom_site_occupancy
  La  La0  1  0.016973  0.797850  0.893834  1
  La  La1  1  0.199318  0.988203  0.592043  1
  La  La2  1  0.987599  0.196978  0.093028  1
  La  La3  1  0.805733  0.010463  0.404317  1
  La  La4  1  0.358569  0.214311  0.825143  1
  La  La5  1  0.782040  0.643284  0.678870  1
  La  La6  1  0.642598  0.788974  0.179041  1
  La  La7  1  0.211230  0.362842  0.331284  1
  La  La8  1  0.571309  0.426305  0.747937  1
  La  La9  1  0.425570  0.572640  0.250304  1
  Co  Co10  1  0.172366  0.601976  0.586551  1
  Ru  Ru11  1  0.392867  0.827673  0.918246  1
  Ru  Ru12  1  0.826362  0.398143  0.420423  1
  Ru  Ru13  1  0.607466  0.170358  0.078978  1
