# generated using pymatgen
data_Ho12FeCo3SnPd
_symmetry_space_group_name_H-M   'P 1'
_cell_length_a   8.28127332
_cell_length_b   8.28127311
_cell_length_c   8.28127238
_cell_angle_alpha   111.27187968
_cell_angle_beta   110.79310790
_cell_angle_gamma   106.39224718
_symmetry_Int_Tables_number   1
_chemical_formula_structural   Ho12FeCo3SnPd
_chemical_formula_sum   'Ho12 Fe1 Co3 Sn1 Pd1'
_cell_volume   436.24067652
_cell_formula_units_Z   1
loop_
 _symmetry_equiv_pos_site_id
 _symmetry_equiv_pos_as_xyz
  1  'x, y, z'
loop_
 _atom_site_type_symbol
 _atom_site_label
 _atom_site_symmetry_multiplicity
 _atom_site_fract_x
 _atom_site_fract_y
 _atom_site_fract_z
 _atom_site_occupancy
  Ho  Ho0  1  0.414818  0.214206  0.200611  1
  Ho  Ho1  1  0.584703  0.785369  0.799334  1
  Ho  Ho2  1  0.013964  0.214631  0.799334  1
  Ho  Ho3  1  0.986405  0.785794  0.200611  1
  Ho  Ho4  1  0.188339  0.291181  0.479519  1
  Ho  Ho5  1  0.811681  0.707599  0.519281  1
  Ho  Ho6  1  0.188339  0.708819  0.897159  1
  Ho  Ho7  1  0.811681  0.292401  0.104081  1
  Ho  Ho8  1  0.311249  0.617772  0.303208  1
  Ho  Ho9  1  0.685435  0.382228  0.693476  1
  Ho  Ho10  1  0.311249  0.008041  0.693476  1
  Ho  Ho11  1  0.685435  0.991959  0.303208  1
  Fe  Fe12  1  0.385958  0.000000  0.385958  1
  Co  Co13  1  0.622148  0.000000  0.622148  1
  Co  Co14  1  0.110585  0.611260  0.499325  1
  Co  Co15  1  0.888065  0.388740  0.499325  1
  Sn  Sn16  1  0.499876  0.500000  0.999876  1
  Pd  Pd17  1  0.000070  0.000000  0.000070  1
