# generated using pymatgen
data_Ac2CoRhO6
_symmetry_space_group_name_H-M   'P 1'
_cell_length_a   5.72857567
_cell_length_b   5.72856996
_cell_length_c   5.82493200
_cell_angle_alpha   120.69498884
_cell_angle_beta   120.69474554
_cell_angle_gamma   59.16535349
_symmetry_Int_Tables_number   1
_chemical_formula_structural   Ac2CoRhO6
_chemical_formula_sum   'Ac2 Co1 Rh1 O6'
_cell_volume   132.88326397
_cell_formula_units_Z   1
loop_
 _symmetry_equiv_pos_site_id
 _symmetry_equiv_pos_as_xyz
  1  'x, y, z'
loop_
 _atom_site_type_symbol
 _atom_site_label
 _atom_site_symmetry_multiplicity
 _atom_site_fract_x
 _atom_site_fract_y
 _atom_site_fract_z
 _atom_site_occupancy
  Ac  Ac0  1  0.249595  0.249593  0.244354  1
  Ac  Ac1  1  0.750405  0.750407  0.755646  1
  Co  Co2  1  0.500000  0.500000  0.000000  1
  Rh  Rh3  1  0.000000  0.000000  0.499999  1
  O  O4  1  0.708911  0.203824  0.208638  1
  O  O5  1  0.203826  0.708911  0.208638  1
  O  O6  1  0.753370  0.753369  0.330557  1
  O  O7  1  0.246630  0.246631  0.669441  1
  O  O8  1  0.796174  0.291088  0.791363  1
  O  O9  1  0.291088  0.796176  0.791363  1
