# generated using pymatgen
data_Sm3In3HgPtRh
_symmetry_space_group_name_H-M   'P 1'
_cell_length_a   7.90295500
_cell_length_b   7.90295356
_cell_length_c   3.94327200
_cell_angle_alpha   90.00000000
_cell_angle_beta   90.00000000
_cell_angle_gamma   119.99999346
_symmetry_Int_Tables_number   1
_chemical_formula_structural   Sm3In3HgPtRh
_chemical_formula_sum   'Sm3 In3 Hg1 Pt1 Rh1'
_cell_volume   213.28795700
_cell_formula_units_Z   1
loop_
 _symmetry_equiv_pos_site_id
 _symmetry_equiv_pos_as_xyz
  1  'x, y, z'
loop_
 _atom_site_type_symbol
 _atom_site_label
 _atom_site_symmetry_multiplicity
 _atom_site_fract_x
 _atom_site_fract_y
 _atom_site_fract_z
 _atom_site_occupancy
  Sm  Sm0  1  0.979189  0.391640  0.500000  1
  Sm  Sm1  1  0.608360  0.587548  0.500000  1
  Sm  Sm2  1  0.412452  0.020811  0.500000  1
  In  In3  1  0.250165  0.251033  0.000000  1
  In  In4  1  0.000868  0.749835  0.000000  1
  In  In5  1  0.748967  0.999132  0.000000  1
  Hg  Hg6  1  0.333333  0.666667  0.000000  1
  Pt  Pt7  1  0.666667  0.333333  0.000000  1
  Rh  Rh8  1  0.000000  0.000000  0.500000  1
