# generated using pymatgen
data_Er3CdAg2C
_symmetry_space_group_name_H-M   'P 1'
_cell_length_a   9.37514101
_cell_length_b   9.37498111
_cell_length_c   9.37483100
_cell_angle_alpha   119.99777177
_cell_angle_beta   90.00288461
_cell_angle_gamma   120.00031045
_symmetry_Int_Tables_number   1
_chemical_formula_structural   Er3CdAg2C
_chemical_formula_sum   'Er12 Cd4 Ag8 C4'
_cell_volume   582.63734157
_cell_formula_units_Z   4
loop_
 _symmetry_equiv_pos_site_id
 _symmetry_equiv_pos_as_xyz
  1  'x, y, z'
loop_
 _atom_site_type_symbol
 _atom_site_label
 _atom_site_symmetry_multiplicity
 _atom_site_fract_x
 _atom_site_fract_y
 _atom_site_fract_z
 _atom_site_occupancy
  Er  Er0  1  0.935388  0.370804  0.185400  1
  Er  Er1  1  0.935469  0.750035  0.185432  1
  Er  Er2  1  0.314595  0.750004  0.185416  1
  Er  Er3  1  0.685435  0.249985  0.435430  1
  Er  Er4  1  0.685430  0.870874  0.435418  1
  Er  Er5  1  0.064554  0.249992  0.435405  1
  Er  Er6  1  0.314560  0.129118  0.564591  1
  Er  Er7  1  0.314569  0.750020  0.564579  1
  Er  Er8  1  0.935449  0.749994  0.564592  1
  Er  Er9  1  0.685417  0.250023  0.814616  1
  Er  Er10  1  0.064595  0.629190  0.814589  1
  Er  Er11  1  0.064574  0.249999  0.814581  1
  Cd  Cd12  1  0.999979  0.999981  0.999974  1
  Cd  Cd13  1  0.499993  0.999995  0.999992  1
  Cd  Cd14  1  0.499959  0.499986  0.999983  1
  Cd  Cd15  1  0.499981  0.499998  0.500021  1
  Ag  Ag16  1  0.708944  0.917810  0.126713  1
  Ag  Ag17  1  0.291122  0.082164  0.208925  1
  Ag  Ag18  1  0.291088  0.417856  0.208905  1
  Ag  Ag19  1  0.626802  0.417872  0.208952  1
  Ag  Ag20  1  0.373218  0.582125  0.791032  1
  Ag  Ag21  1  0.708923  0.582138  0.791077  1
  Ag  Ag22  1  0.708890  0.917855  0.791101  1
  Ag  Ag23  1  0.291044  0.082165  0.873269  1
  C  C24  1  0.000013  0.500009  0.000005  1
  C  C25  1  0.000006  0.000000  0.499990  1
  C  C26  1  0.500014  0.000015  0.500018  1
  C  C27  1  0.999997  0.500005  0.500000  1
