# generated using pymatgen
data_Na5Zr3Cu16(As5P)2
_symmetry_space_group_name_H-M   'P 1'
_cell_length_a   13.15828734
_cell_length_b   13.16858873
_cell_length_c   3.97477700
_cell_angle_alpha   90.00000000
_cell_angle_beta   90.00000000
_cell_angle_gamma   120.02590287
_symmetry_Int_Tables_number   1
_chemical_formula_structural   Na5Zr3Cu16(As5P)2
_chemical_formula_sum   'Na5 Zr3 Cu16 As10 P2'
_cell_volume   596.30518239
_cell_formula_units_Z   1
loop_
 _symmetry_equiv_pos_site_id
 _symmetry_equiv_pos_as_xyz
  1  'x, y, z'
loop_
 _atom_site_type_symbol
 _atom_site_label
 _atom_site_symmetry_multiplicity
 _atom_site_fract_x
 _atom_site_fract_y
 _atom_site_fract_z
 _atom_site_occupancy
  Na  Na0  1  0.182953  0.180713  0.500000  1
  Na  Na1  1  0.817047  0.997760  0.500000  1
  Na  Na2  1  0.000000  0.817699  0.500000  1
  Na  Na3  1  0.333908  0.667615  0.000000  1
  Na  Na4  1  0.666092  0.333706  0.000000  1
  Zr  Zr5  1  0.567972  0.567858  0.000000  1
  Zr  Zr6  1  0.432028  0.999886  0.000000  1
  Zr  Zr7  1  0.000000  0.434206  0.000000  1
  Cu  Cu8  1  0.731914  0.731628  0.500000  1
  Cu  Cu9  1  0.268086  0.999714  0.500000  1
  Cu  Cu10  1  0.000000  0.274523  0.500000  1
  Cu  Cu11  1  0.180610  0.369297  0.000000  1
  Cu  Cu12  1  0.638290  0.812480  0.000000  1
  Cu  Cu13  1  0.187520  0.825216  0.000000  1
  Cu  Cu14  1  0.812480  0.637696  0.000000  1
  Cu  Cu15  1  0.819390  0.188687  0.000000  1
  Cu  Cu16  1  0.361710  0.174191  0.000000  1
  Cu  Cu17  1  0.359578  0.480338  0.500000  1
  Cu  Cu18  1  0.519172  0.878436  0.500000  1
  Cu  Cu19  1  0.121272  0.641667  0.500000  1
  Cu  Cu20  1  0.878728  0.520394  0.500000  1
  Cu  Cu21  1  0.640422  0.120758  0.500000  1
  Cu  Cu22  1  0.480828  0.359263  0.500000  1
  Cu  Cu23  1  0.000000  0.989815  0.000000  1
  As  As24  1  0.000000  0.171426  0.000000  1
  As  As25  1  0.170783  0.484574  0.500000  1
  As  As26  1  0.517097  0.687449  0.500000  1
  As  As27  1  0.312657  0.829867  0.500000  1
  As  As28  1  0.687343  0.517211  0.500000  1
  As  As29  1  0.829217  0.313792  0.500000  1
  As  As30  1  0.482903  0.170353  0.500000  1
  As  As31  1  0.362753  0.361411  0.000000  1
  As  As32  1  0.637247  0.998658  0.000000  1
  As  As33  1  0.000000  0.639305  0.000000  1
  P  P34  1  0.823150  0.822779  0.000000  1
  P  P35  1  0.176850  0.999629  0.000000  1
