# generated using pymatgen
data_KAlAsH
_symmetry_space_group_name_H-M   'P 1'
_cell_length_a   4.09549300
_cell_length_b   4.09549277
_cell_length_c   6.11706000
_cell_angle_alpha   90.00000000
_cell_angle_beta   90.00000000
_cell_angle_gamma   119.99999380
_symmetry_Int_Tables_number   1
_chemical_formula_structural   KAlAsH
_chemical_formula_sum   'K1 Al1 As1 H1'
_cell_volume   88.85579371
_cell_formula_units_Z   1
loop_
 _symmetry_equiv_pos_site_id
 _symmetry_equiv_pos_as_xyz
  1  'x, y, z'
loop_
 _atom_site_type_symbol
 _atom_site_label
 _atom_site_symmetry_multiplicity
 _atom_site_fract_x
 _atom_site_fract_y
 _atom_site_fract_z
 _atom_site_occupancy
  K  K0  1  0.000000  0.000000  0.028449  1
  Al  Al1  1  0.666667  0.333333  0.562925  1
  As  As2  1  0.333333  0.666667  0.429812  1
  H  H3  1  0.666667  0.333333  0.835915  1
