# generated using pymatgen
data_Pr16Nd3ThRh16
_symmetry_space_group_name_H-M   'P 1'
_cell_length_a   7.64925210
_cell_length_b   7.75844622
_cell_length_c   15.07264191
_cell_angle_alpha   90.08920982
_cell_angle_beta   90.15559048
_cell_angle_gamma   90.06306841
_symmetry_Int_Tables_number   1
_chemical_formula_structural   Pr16Nd3ThRh16
_chemical_formula_sum   'Pr16 Nd3 Th1 Rh16'
_cell_volume   894.50076658
_cell_formula_units_Z   1
loop_
 _symmetry_equiv_pos_site_id
 _symmetry_equiv_pos_as_xyz
  1  'x, y, z'
loop_
 _atom_site_type_symbol
 _atom_site_label
 _atom_site_symmetry_multiplicity
 _atom_site_fract_x
 _atom_site_fract_y
 _atom_site_fract_z
 _atom_site_occupancy
  Pr  Pr0  1  0.164443  0.332183  0.878286  1
  Pr  Pr1  1  0.336506  0.831810  0.122055  1
  Pr  Pr2  1  0.837636  0.668676  0.378622  1
  Pr  Pr3  1  0.336996  0.832861  0.379056  1
  Pr  Pr4  1  0.835740  0.668914  0.121989  1
  Pr  Pr5  1  0.663574  0.167015  0.878061  1
  Pr  Pr6  1  0.162322  0.332229  0.620916  1
  Pr  Pr7  1  0.512493  0.679804  0.594463  1
  Pr  Pr8  1  0.015927  0.817034  0.908071  1
  Pr  Pr9  1  0.486049  0.318807  0.093816  1
  Pr  Pr10  1  0.987209  0.182070  0.405459  1
  Pr  Pr11  1  0.487037  0.322221  0.405234  1
  Pr  Pr12  1  0.986464  0.180616  0.094111  1
  Pr  Pr13  1  0.513791  0.682675  0.906969  1
  Pr  Pr14  1  0.014821  0.818661  0.593106  1
  Pr  Pr15  1  0.827223  0.513589  0.751345  1
  Nd  Nd16  1  0.320080  0.987944  0.751039  1
  Nd  Nd17  1  0.174476  0.489786  0.249943  1
  Nd  Nd18  1  0.675077  0.011242  0.250074  1
  Th  Th19  1  0.662461  0.165173  0.621690  1
  Rh  Rh20  1  0.683221  0.974139  0.466029  1
  Rh  Rh21  1  0.175367  0.531102  0.041218  1
  Rh  Rh22  1  0.323313  0.030771  0.958558  1
  Rh  Rh23  1  0.815070  0.455903  0.540897  1
  Rh  Rh24  1  0.335841  0.034288  0.544587  1
  Rh  Rh25  1  0.824670  0.470978  0.958133  1
  Rh  Rh26  1  0.675198  0.970194  0.041966  1
  Rh  Rh27  1  0.171111  0.531215  0.458136  1
  Rh  Rh28  1  0.464005  0.387921  0.744799  1
  Rh  Rh29  1  0.949902  0.107176  0.743823  1
  Rh  Rh30  1  0.541575  0.601513  0.251079  1
  Rh  Rh31  1  0.041689  0.900355  0.250572  1
  Rh  Rh32  1  0.691498  0.861451  0.746006  1
  Rh  Rh33  1  0.204798  0.639171  0.749883  1
  Rh  Rh34  1  0.301897  0.144601  0.250012  1
  Rh  Rh35  1  0.800518  0.355913  0.249994  1
