# generated using pymatgen
data_Th2TiMn4(PRh)7
_symmetry_space_group_name_H-M   'P 1'
_cell_length_a   9.55972370
_cell_length_b   9.53062596
_cell_length_c   3.86481500
_cell_angle_alpha   90.00000000
_cell_angle_beta   90.00000000
_cell_angle_gamma   120.02721651
_symmetry_Int_Tables_number   1
_chemical_formula_structural   Th2TiMn4(PRh)7
_chemical_formula_sum   'Th2 Ti1 Mn4 P7 Rh7'
_cell_volume   304.86455634
_cell_formula_units_Z   1
loop_
 _symmetry_equiv_pos_site_id
 _symmetry_equiv_pos_as_xyz
  1  'x, y, z'
loop_
 _atom_site_type_symbol
 _atom_site_label
 _atom_site_symmetry_multiplicity
 _atom_site_fract_x
 _atom_site_fract_y
 _atom_site_fract_z
 _atom_site_occupancy
  Th  Th0  1  0.335038  0.668083  0.000000  1
  Th  Th1  1  0.998724  0.997938  0.500000  1
  Ti  Ti2  1  0.770412  0.543216  0.500000  1
  Mn  Mn3  1  0.552802  0.066835  0.000000  1
  Mn  Mn4  1  0.936245  0.485929  0.000000  1
  Mn  Mn5  1  0.504324  0.442793  0.000000  1
  Mn  Mn6  1  0.442384  0.215969  0.500000  1
  P  P7  1  0.769679  0.035617  0.000000  1
  P  P8  1  0.962388  0.732560  0.000000  1
  P  P9  1  0.262350  0.226040  0.000000  1
  P  P10  1  0.392509  0.944899  0.500000  1
  P  P11  1  0.059665  0.452442  0.500000  1
  P  P12  1  0.551314  0.609372  0.500000  1
  P  P13  1  0.665357  0.335397  0.000000  1
  Rh  Rh14  1  0.031332  0.268249  0.000000  1
  Rh  Rh15  1  0.731927  0.763983  0.000000  1
  Rh  Rh16  1  0.238455  0.969932  0.000000  1
  Rh  Rh17  1  0.612400  0.893840  0.500000  1
  Rh  Rh18  1  0.110308  0.721903  0.500000  1
  Rh  Rh19  1  0.277371  0.387795  0.500000  1
  Rh  Rh20  1  0.795017  0.237207  0.500000  1
