# generated using pymatgen
data_Mn2Ag(P2O7)2
_symmetry_space_group_name_H-M   'P 1'
_cell_length_a   4.97929512
_cell_length_b   6.96498891
_cell_length_c   8.01866669
_cell_angle_alpha   89.64980214
_cell_angle_beta   97.82577060
_cell_angle_gamma   105.18571544
_symmetry_Int_Tables_number   1
_chemical_formula_structural   Mn2Ag(P2O7)2
_chemical_formula_sum   'Mn2 Ag1 P4 O14'
_cell_volume   265.75615355
_cell_formula_units_Z   1
loop_
 _symmetry_equiv_pos_site_id
 _symmetry_equiv_pos_as_xyz
  1  'x, y, z'
loop_
 _atom_site_type_symbol
 _atom_site_label
 _atom_site_symmetry_multiplicity
 _atom_site_fract_x
 _atom_site_fract_y
 _atom_site_fract_z
 _atom_site_occupancy
  Mn  Mn0  1  0.500000  0.500000  0.500000  1
  Mn  Mn1  1  0.000000  0.000000  0.000000  1
  Ag  Ag2  1  0.000000  0.000000  0.500000  1
  P  P3  1  0.384091  0.766743  0.787106  1
  P  P4  1  0.615909  0.233257  0.212894  1
  P  P5  1  0.012611  0.629608  0.253910  1
  P  P6  1  0.987389  0.370392  0.746090  1
  O  O7  1  0.099902  0.795899  0.133426  1
  O  O8  1  0.900098  0.204101  0.866574  1
  O  O9  1  0.469372  0.741376  0.612137  1
  O  O10  1  0.530628  0.258624  0.387863  1
  O  O11  1  0.226840  0.546860  0.847004  1
  O  O12  1  0.773160  0.453140  0.152996  1
  O  O13  1  0.177239  0.899068  0.771014  1
  O  O14  1  0.822761  0.100932  0.228986  1
  O  O15  1  0.263117  0.545032  0.305990  1
  O  O16  1  0.736883  0.454968  0.694010  1
  O  O17  1  0.627615  0.829130  0.928951  1
  O  O18  1  0.372385  0.170870  0.071049  1
  O  O19  1  0.120116  0.306850  0.598550  1
  O  O20  1  0.879884  0.693150  0.401450  1
