# generated using pymatgen
data_Ho2(PaPt5)3
_symmetry_space_group_name_H-M   'P 1'
_cell_length_a   12.70809796
_cell_length_b   12.70809786
_cell_length_c   12.70809661
_cell_angle_alpha   26.45522408
_cell_angle_beta   26.45522575
_cell_angle_gamma   26.45522590
_symmetry_Int_Tables_number   1
_chemical_formula_structural   Ho2(PaPt5)3
_chemical_formula_sum   'Ho2 Pa3 Pt15'
_cell_volume   359.00941891
_cell_formula_units_Z   1
loop_
 _symmetry_equiv_pos_site_id
 _symmetry_equiv_pos_as_xyz
  1  'x, y, z'
loop_
 _atom_site_type_symbol
 _atom_site_label
 _atom_site_symmetry_multiplicity
 _atom_site_fract_x
 _atom_site_fract_y
 _atom_site_fract_z
 _atom_site_occupancy
  Ho  Ho0  1  0.400165  0.400165  0.400165  1
  Ho  Ho1  1  0.599835  0.599835  0.599835  1
  Pa  Pa2  1  0.130386  0.130386  0.130386  1
  Pa  Pa3  1  0.869614  0.869614  0.869614  1
  Pa  Pa4  1  0.000000  0.000000  0.000000  1
  Pt  Pt5  1  0.407515  0.896050  0.896050  1
  Pt  Pt6  1  0.896050  0.896050  0.407515  1
  Pt  Pt7  1  0.896050  0.407515  0.896050  1
  Pt  Pt8  1  0.103950  0.592485  0.103950  1
  Pt  Pt9  1  0.103950  0.103950  0.592485  1
  Pt  Pt10  1  0.592485  0.103950  0.103950  1
  Pt  Pt11  1  0.131694  0.636419  0.636419  1
  Pt  Pt12  1  0.636419  0.636419  0.131694  1
  Pt  Pt13  1  0.636419  0.131694  0.636419  1
  Pt  Pt14  1  0.363581  0.868306  0.363581  1
  Pt  Pt15  1  0.363581  0.363581  0.868306  1
  Pt  Pt16  1  0.868306  0.363581  0.363581  1
  Pt  Pt17  1  0.500000  0.500000  0.000000  1
  Pt  Pt18  1  0.500000  0.000000  0.500000  1
  Pt  Pt19  1  0.000000  0.500000  0.500000  1
