# generated using pymatgen
data_Tm8Sc2(IrAu)3
_symmetry_space_group_name_H-M   'P 1'
_cell_length_a   10.96706644
_cell_length_b   10.94044800
_cell_length_c   6.25061963
_cell_angle_alpha   90.00000000
_cell_angle_beta   89.62500772
_cell_angle_gamma   90.00000000
_symmetry_Int_Tables_number   1
_chemical_formula_structural   Tm8Sc2(IrAu)3
_chemical_formula_sum   'Tm16 Sc4 Ir6 Au6'
_cell_volume   749.96215897
_cell_formula_units_Z   2
loop_
 _symmetry_equiv_pos_site_id
 _symmetry_equiv_pos_as_xyz
  1  'x, y, z'
loop_
 _atom_site_type_symbol
 _atom_site_label
 _atom_site_symmetry_multiplicity
 _atom_site_fract_x
 _atom_site_fract_y
 _atom_site_fract_z
 _atom_site_occupancy
  Tm  Tm0  1  0.297617  0.089825  0.366611  1
  Tm  Tm1  1  0.297617  0.910175  0.866611  1
  Tm  Tm2  1  0.702179  0.083659  0.864030  1
  Tm  Tm3  1  0.702179  0.916341  0.364030  1
  Tm  Tm4  1  0.575857  0.789825  0.865272  1
  Tm  Tm5  1  0.575857  0.210175  0.365272  1
  Tm  Tm6  1  0.412546  0.791417  0.377232  1
  Tm  Tm7  1  0.412546  0.208583  0.877232  1
  Tm  Tm8  1  0.212841  0.418933  0.625750  1
  Tm  Tm9  1  0.212841  0.581067  0.125750  1
  Tm  Tm10  1  0.796825  0.416096  0.132398  1
  Tm  Tm11  1  0.796825  0.583904  0.632398  1
  Tm  Tm12  1  0.919468  0.703493  0.134121  1
  Tm  Tm13  1  0.919468  0.296507  0.634121  1
  Tm  Tm14  1  0.093167  0.701730  0.635686  1
  Tm  Tm15  1  0.093167  0.298270  0.135686  1
  Sc  Sc16  1  0.000129  0.999274  0.499766  1
  Sc  Sc17  1  0.000129  0.000726  0.999766  1
  Sc  Sc18  1  0.489345  0.498292  0.999073  1
  Sc  Sc19  1  0.489345  0.501708  0.499073  1
  Ir  Ir20  1  0.350752  0.350590  0.250366  1
  Ir  Ir21  1  0.350752  0.649410  0.750366  1
  Ir  Ir22  1  0.499914  0.999548  0.116333  1
  Ir  Ir23  1  0.499914  0.000452  0.616333  1
  Ir  Ir24  1  0.999382  0.499976  0.884398  1
  Ir  Ir25  1  0.999382  0.500024  0.384398  1
  Au  Au26  1  0.847610  0.151577  0.250385  1
  Au  Au27  1  0.847610  0.848423  0.750385  1
  Au  Au28  1  0.151609  0.151431  0.749982  1
  Au  Au29  1  0.151609  0.848569  0.249982  1
  Au  Au30  1  0.650759  0.350823  0.748598  1
  Au  Au31  1  0.650759  0.649177  0.248598  1
