# generated using pymatgen
data_Pr5ErTl5InO18
_symmetry_space_group_name_H-M   'P 1'
_cell_length_a   6.68739370
_cell_length_b   6.68268918
_cell_length_c   12.58876124
_cell_angle_alpha   90.12553669
_cell_angle_beta   89.76511655
_cell_angle_gamma   120.00926190
_symmetry_Int_Tables_number   1
_chemical_formula_structural   Pr5ErTl5InO18
_chemical_formula_sum   'Pr5 Er1 Tl5 In1 O18'
_cell_volume   487.16669192
_cell_formula_units_Z   1
loop_
 _symmetry_equiv_pos_site_id
 _symmetry_equiv_pos_as_xyz
  1  'x, y, z'
loop_
 _atom_site_type_symbol
 _atom_site_label
 _atom_site_symmetry_multiplicity
 _atom_site_fract_x
 _atom_site_fract_y
 _atom_site_fract_z
 _atom_site_occupancy
  Pr  Pr0  1  0.335629  0.670399  0.233472  1
  Pr  Pr1  1  0.995533  0.000313  0.265213  1
  Pr  Pr2  1  0.997728  0.999936  0.766268  1
  Pr  Pr3  1  0.338010  0.670270  0.726243  1
  Pr  Pr4  1  0.667851  0.329888  0.727987  1
  Er  Er5  1  0.665507  0.329238  0.229618  1
  Tl  Tl6  1  0.997219  0.664069  0.493078  1
  Tl  Tl7  1  0.999218  0.335510  0.997681  1
  Tl  Tl8  1  0.336663  0.332873  0.493070  1
  Tl  Tl9  1  0.665518  0.662703  0.997809  1
  Tl  Tl10  1  0.335589  0.001798  0.997522  1
  In  In11  1  0.666954  0.003033  0.493629  1
  O  O12  1  0.001948  0.692892  0.665081  1
  O  O13  1  0.984182  0.626865  0.323307  1
  O  O14  1  0.001220  0.361564  0.825084  1
  O  O15  1  0.987333  0.310072  0.172425  1
  O  O16  1  0.334238  0.667562  0.032824  1
  O  O17  1  0.983990  0.000147  0.460978  1
  O  O18  1  0.999385  0.999902  0.965045  1
  O  O19  1  0.348332  0.681765  0.520411  1
  O  O20  1  0.307613  0.308562  0.665029  1
  O  O21  1  0.372510  0.357183  0.323304  1
  O  O22  1  0.320486  0.013103  0.172153  1
  O  O23  1  0.639417  0.638525  0.825172  1
  O  O24  1  0.690402  0.677110  0.172645  1
  O  O25  1  0.359936  0.999797  0.824816  1
  O  O26  1  0.666909  0.318779  0.528082  1
  O  O27  1  0.666645  0.332220  0.034579  1
  O  O28  1  0.638795  0.015647  0.324778  1
  O  O29  1  0.695241  0.998277  0.665215  1
