# generated using pymatgen
data_CeEr3(Si5Os3)2
_symmetry_space_group_name_H-M   'P 1'
_cell_length_a   8.24679642
_cell_length_b   8.26086053
_cell_length_c   8.26086063
_cell_angle_alpha   139.94044880
_cell_angle_beta   108.36444870
_cell_angle_gamma   85.40935821
_symmetry_Int_Tables_number   1
_chemical_formula_structural   CeEr3(Si5Os3)2
_chemical_formula_sum   'Ce1 Er3 Si10 Os6'
_cell_volume   331.57545013
_cell_formula_units_Z   1
loop_
 _symmetry_equiv_pos_site_id
 _symmetry_equiv_pos_as_xyz
  1  'x, y, z'
loop_
 _atom_site_type_symbol
 _atom_site_label
 _atom_site_symmetry_multiplicity
 _atom_site_fract_x
 _atom_site_fract_y
 _atom_site_fract_z
 _atom_site_occupancy
  Ce  Ce0  1  0.906888  0.136654  0.770233  1
  Er  Er1  1  0.095427  0.864185  0.231243  1
  Er  Er2  1  0.631465  0.364688  0.266776  1
  Er  Er3  1  0.368961  0.635288  0.733674  1
  Si  Si4  1  0.002293  0.750514  0.752319  1
  Si  Si5  1  0.002293  0.249974  0.251779  1
  Si  Si6  1  0.708075  0.462023  0.753060  1
  Si  Si7  1  0.291052  0.046155  0.752948  1
  Si  Si8  1  0.291052  0.538104  0.244896  1
  Si  Si9  1  0.708075  0.955014  0.246052  1
  Si  Si10  1  0.233666  0.402553  0.831113  1
  Si  Si11  1  0.569975  0.903038  0.666938  1
  Si  Si12  1  0.428092  0.094890  0.333201  1
  Si  Si13  1  0.763139  0.596518  0.166622  1
  Os  Os14  1  0.757799  0.854442  0.903359  1
  Os  Os15  1  0.499665  0.249990  0.750221  1
  Os  Os16  1  0.945765  0.353062  0.592703  1
  Os  Os17  1  0.052443  0.647666  0.404777  1
  Os  Os18  1  0.244212  0.145798  0.098411  1
  Os  Os19  1  0.499665  0.749444  0.249675  1
