# generated using pymatgen
data_Ca11Yb(GdSn2)8
_symmetry_space_group_name_H-M   'P 1'
_cell_length_a   8.01044300
_cell_length_b   8.53054573
_cell_length_c   16.25808700
_cell_angle_alpha   90.00000000
_cell_angle_beta   90.00000000
_cell_angle_gamma   89.90102497
_symmetry_Int_Tables_number   1
_chemical_formula_structural   Ca11Yb(GdSn2)8
_chemical_formula_sum   'Ca11 Yb1 Gd8 Sn16'
_cell_volume   1110.96952258
_cell_formula_units_Z   1
loop_
 _symmetry_equiv_pos_site_id
 _symmetry_equiv_pos_as_xyz
  1  'x, y, z'
loop_
 _atom_site_type_symbol
 _atom_site_label
 _atom_site_symmetry_multiplicity
 _atom_site_fract_x
 _atom_site_fract_y
 _atom_site_fract_z
 _atom_site_occupancy
  Ca  Ca0  1  0.508573  0.686450  0.593707  1
  Ca  Ca1  1  0.008811  0.813565  0.905911  1
  Ca  Ca2  1  0.491237  0.312989  0.092445  1
  Ca  Ca3  1  0.990302  0.186379  0.407891  1
  Ca  Ca4  1  0.491237  0.312989  0.407555  1
  Ca  Ca5  1  0.990302  0.186379  0.092109  1
  Ca  Ca6  1  0.508573  0.686450  0.906293  1
  Ca  Ca7  1  0.008811  0.813565  0.594089  1
  Ca  Ca8  1  0.839758  0.511298  0.750000  1
  Ca  Ca9  1  0.340988  0.990074  0.750000  1
  Ca  Ca10  1  0.160537  0.489293  0.250000  1
  Yb  Yb11  1  0.659503  0.010819  0.250000  1
  Gd  Gd12  1  0.675769  0.166592  0.622388  1
  Gd  Gd13  1  0.176415  0.333247  0.877270  1
  Gd  Gd14  1  0.323934  0.833662  0.121569  1
  Gd  Gd15  1  0.823745  0.666473  0.378572  1
  Gd  Gd16  1  0.323934  0.833662  0.378431  1
  Gd  Gd17  1  0.823745  0.666473  0.121428  1
  Gd  Gd18  1  0.675769  0.166592  0.877612  1
  Gd  Gd19  1  0.176415  0.333247  0.622730  1
  Sn  Sn20  1  0.665261  0.962986  0.459098  1
  Sn  Sn21  1  0.165904  0.537203  0.039867  1
  Sn  Sn22  1  0.333945  0.036957  0.958211  1
  Sn  Sn23  1  0.834578  0.462471  0.541833  1
  Sn  Sn24  1  0.333945  0.036957  0.541789  1
  Sn  Sn25  1  0.834578  0.462471  0.958167  1
  Sn  Sn26  1  0.665261  0.962986  0.040902  1
  Sn  Sn27  1  0.165904  0.537203  0.460133  1
  Sn  Sn28  1  0.475134  0.376848  0.750000  1
  Sn  Sn29  1  0.974723  0.122564  0.750000  1
  Sn  Sn30  1  0.526743  0.624258  0.250000  1
  Sn  Sn31  1  0.024665  0.877027  0.250000  1
  Sn  Sn32  1  0.722140  0.874039  0.750000  1
  Sn  Sn33  1  0.222917  0.626773  0.750000  1
  Sn  Sn34  1  0.278099  0.126181  0.250000  1
  Sn  Sn35  1  0.777850  0.372885  0.250000  1
