# generated using pymatgen
data_Y7Th3(Pb3C)2
_symmetry_space_group_name_H-M   'P 1'
_cell_length_a   9.14926870
_cell_length_b   9.20006003
_cell_length_c   6.60902300
_cell_angle_alpha   90.00000000
_cell_angle_beta   90.00000000
_cell_angle_gamma   119.55782667
_symmetry_Int_Tables_number   1
_chemical_formula_structural   Y7Th3(Pb3C)2
_chemical_formula_sum   'Y7 Th3 Pb6 C2'
_cell_volume   483.90799974
_cell_formula_units_Z   1
loop_
 _symmetry_equiv_pos_site_id
 _symmetry_equiv_pos_as_xyz
  1  'x, y, z'
loop_
 _atom_site_type_symbol
 _atom_site_label
 _atom_site_symmetry_multiplicity
 _atom_site_fract_x
 _atom_site_fract_y
 _atom_site_fract_z
 _atom_site_occupancy
  Y  Y0  1  0.002326  0.785183  0.750000  1
  Y  Y1  1  0.780796  0.780304  0.250000  1
  Y  Y2  1  0.216964  0.214485  0.750000  1
  Y  Y3  1  0.332534  0.666472  0.999186  1
  Y  Y4  1  0.666684  0.333795  0.999288  1
  Y  Y5  1  0.666684  0.333795  0.500712  1
  Y  Y6  1  0.332534  0.666472  0.500814  1
  Th  Th7  1  0.214500  0.997282  0.250000  1
  Th  Th8  1  0.785363  0.999790  0.750000  1
  Th  Th9  1  0.998103  0.214822  0.250000  1
  Pb  Pb10  1  0.592546  0.996854  0.250000  1
  Pb  Pb11  1  0.402884  0.000401  0.750000  1
  Pb  Pb12  1  0.997257  0.593196  0.250000  1
  Pb  Pb13  1  0.003716  0.407476  0.750000  1
  Pb  Pb14  1  0.410028  0.409663  0.250000  1
  Pb  Pb15  1  0.596622  0.593337  0.750000  1
  C  C16  1  0.000229  0.003336  0.002465  1
  C  C17  1  0.000229  0.003336  0.497535  1
