# generated using pymatgen
data_Cs3ErSb2
_symmetry_space_group_name_H-M   'P 1'
_cell_length_a   10.51588810
_cell_length_b   10.51588815
_cell_length_c   10.51588884
_cell_angle_alpha   127.29058822
_cell_angle_beta   70.65088868
_cell_angle_gamma   136.50758580
_symmetry_Int_Tables_number   1
_chemical_formula_structural   Cs3ErSb2
_chemical_formula_sum   'Cs6 Er2 Sb4'
_cell_volume   624.19406070
_cell_formula_units_Z   2
loop_
 _symmetry_equiv_pos_site_id
 _symmetry_equiv_pos_as_xyz
  1  'x, y, z'
loop_
 _atom_site_type_symbol
 _atom_site_label
 _atom_site_symmetry_multiplicity
 _atom_site_fract_x
 _atom_site_fract_y
 _atom_site_fract_z
 _atom_site_occupancy
  Cs  Cs0  1  0.316110  0.701847  0.017957  1
  Cs  Cs1  1  0.183890  0.201847  0.385737  1
  Cs  Cs2  1  0.750000  0.250000  0.500000  1
  Cs  Cs3  1  0.250000  0.749999  0.499999  1
  Cs  Cs4  1  0.816110  0.798154  0.614264  1
  Cs  Cs5  1  0.683890  0.298154  0.982044  1
  Er  Er6  1  0.250000  0.250000  0.000000  1
  Er  Er7  1  0.750000  0.750000  0.000000  1
  Sb  Sb8  1  0.906532  0.183104  0.089635  1
  Sb  Sb9  1  0.593469  0.683105  0.276573  1
  Sb  Sb10  1  0.406531  0.316895  0.723426  1
  Sb  Sb11  1  0.093469  0.816895  0.910364  1
