# generated using pymatgen
data_Lu24Ag3HgTe8
_symmetry_space_group_name_H-M   'P 1'
_cell_length_a   3.99497400
_cell_length_b   11.38446570
_cell_length_c   21.43961120
_cell_angle_alpha   89.90491025
_cell_angle_beta   90.00000000
_cell_angle_gamma   90.00000000
_symmetry_Int_Tables_number   1
_chemical_formula_structural   Lu24Ag3HgTe8
_chemical_formula_sum   'Lu24 Ag3 Hg1 Te8'
_cell_volume   975.08599138
_cell_formula_units_Z   1
loop_
 _symmetry_equiv_pos_site_id
 _symmetry_equiv_pos_as_xyz
  1  'x, y, z'
loop_
 _atom_site_type_symbol
 _atom_site_label
 _atom_site_symmetry_multiplicity
 _atom_site_fract_x
 _atom_site_fract_y
 _atom_site_fract_z
 _atom_site_occupancy
  Lu  Lu0  1  0.750000  0.680831  0.891626  1
  Lu  Lu1  1  0.250000  0.377293  0.471850  1
  Lu  Lu2  1  0.750000  0.874242  0.027093  1
  Lu  Lu3  1  0.750000  0.970150  0.839954  1
  Lu  Lu4  1  0.250000  0.181821  0.608296  1
  Lu  Lu5  1  0.250000  0.741942  0.267752  1
  Lu  Lu6  1  0.750000  0.110547  0.490937  1
  Lu  Lu7  1  0.750000  0.562269  0.139365  1
  Lu  Lu8  1  0.250000  0.322164  0.109709  1
  Lu  Lu9  1  0.250000  0.028305  0.162551  1
  Lu  Lu10  1  0.250000  0.470341  0.660168  1
  Lu  Lu11  1  0.250000  0.758548  0.767412  1
  Lu  Lu12  1  0.750000  0.530296  0.340136  1
  Lu  Lu13  1  0.750000  0.937626  0.639946  1
  Lu  Lu14  1  0.250000  0.610842  0.008885  1
  Lu  Lu15  1  0.750000  0.259040  0.732538  1
  Lu  Lu16  1  0.750000  0.243936  0.232349  1
  Lu  Lu17  1  0.750000  0.621771  0.527917  1
  Lu  Lu18  1  0.750000  0.818543  0.391729  1
  Lu  Lu19  1  0.250000  0.121121  0.969464  1
  Lu  Lu20  1  0.250000  0.888947  0.508777  1
  Lu  Lu21  1  0.750000  0.389728  0.991472  1
  Lu  Lu22  1  0.250000  0.437941  0.860796  1
  Lu  Lu23  1  0.250000  0.062813  0.359940  1
  Ag  Ag24  1  0.250000  0.633758  0.424258  1
  Ag  Ag25  1  0.250000  0.865110  0.923690  1
  Ag  Ag26  1  0.750000  0.366137  0.576043  1
  Hg  Hg27  1  0.750000  0.130375  0.074994  1
  Te  Te28  1  0.250000  0.770330  0.126783  1
  Te  Te29  1  0.250000  0.730854  0.626828  1
  Te  Te30  1  0.250000  0.042398  0.736333  1
  Te  Te31  1  0.750000  0.269369  0.373039  1
  Te  Te32  1  0.750000  0.541820  0.763741  1
  Te  Te33  1  0.250000  0.459787  0.236471  1
  Te  Te34  1  0.750000  0.957798  0.264148  1
  Te  Te35  1  0.750000  0.231210  0.873014  1
