# generated using pymatgen
data_YLuCo9Tc3As7
_symmetry_space_group_name_H-M   'P 1'
_cell_length_a   3.83774700
_cell_length_b   9.38342798
_cell_length_c   9.38342900
_cell_angle_alpha   120.00000618
_cell_angle_beta   90.00000000
_cell_angle_gamma   90.00000000
_symmetry_Int_Tables_number   1
_chemical_formula_structural   YLuCo9Tc3As7
_chemical_formula_sum   'Y1 Lu1 Co9 Tc3 As7'
_cell_volume   292.63754371
_cell_formula_units_Z   1
loop_
 _symmetry_equiv_pos_site_id
 _symmetry_equiv_pos_as_xyz
  1  'x, y, z'
loop_
 _atom_site_type_symbol
 _atom_site_label
 _atom_site_symmetry_multiplicity
 _atom_site_fract_x
 _atom_site_fract_y
 _atom_site_fract_z
 _atom_site_occupancy
  Y  Y0  1  0.500000  0.333333  0.666667  1
  Lu  Lu1  1  0.000000  0.666667  0.333333  1
  Co  Co2  1  0.000000  0.568763  0.941572  1
  Co  Co3  1  0.000000  0.372808  0.431237  1
  Co  Co4  1  0.000000  0.058428  0.627192  1
  Co  Co5  1  0.000000  0.875086  0.157987  1
  Co  Co6  1  0.000000  0.282900  0.124914  1
  Co  Co7  1  0.000000  0.842013  0.717100  1
  Co  Co8  1  0.500000  0.944729  0.380466  1
  Co  Co9  1  0.500000  0.435736  0.055271  1
  Co  Co10  1  0.500000  0.619534  0.564264  1
  Tc  Tc11  1  0.500000  0.782443  0.900960  1
  Tc  Tc12  1  0.500000  0.118517  0.217557  1
  Tc  Tc13  1  0.500000  0.099040  0.881483  1
  As  As14  1  0.000000  0.000000  0.000000  1
  As  As15  1  0.500000  0.706315  0.118076  1
  As  As16  1  0.500000  0.411761  0.293685  1
  As  As17  1  0.500000  0.881924  0.588239  1
  As  As18  1  0.000000  0.587932  0.701931  1
  As  As19  1  0.000000  0.113999  0.412068  1
  As  As20  1  0.000000  0.298069  0.886001  1
