# generated using pymatgen
data_La2CuNi2As4Pd
_symmetry_space_group_name_H-M   'P 1'
_cell_length_a   4.32768200
_cell_length_b   4.32768200
_cell_length_c   9.73509400
_cell_angle_alpha   90.00000000
_cell_angle_beta   90.00000000
_cell_angle_gamma   90.00000000
_symmetry_Int_Tables_number   1
_chemical_formula_structural   La2CuNi2As4Pd
_chemical_formula_sum   'La2 Cu1 Ni2 As4 Pd1'
_cell_volume   182.32693510
_cell_formula_units_Z   1
loop_
 _symmetry_equiv_pos_site_id
 _symmetry_equiv_pos_as_xyz
  1  'x, y, z'
loop_
 _atom_site_type_symbol
 _atom_site_label
 _atom_site_symmetry_multiplicity
 _atom_site_fract_x
 _atom_site_fract_y
 _atom_site_fract_z
 _atom_site_occupancy
  La  La0  1  0.000000  0.500000  0.756352  1
  La  La1  1  0.500000  0.000000  0.243648  1
  Cu  Cu2  1  0.000000  0.000000  0.500000  1
  Ni  Ni3  1  0.000000  0.500000  0.110922  1
  Ni  Ni4  1  0.500000  0.000000  0.889078  1
  As  As5  1  0.000000  0.500000  0.356437  1
  As  As6  1  0.000000  0.000000  0.000000  1
  As  As7  1  0.500000  0.000000  0.643563  1
  As  As8  1  0.500000  0.500000  0.000000  1
  Pd  Pd9  1  0.500000  0.500000  0.500000  1
