# generated using pymatgen
data_Sr6CaMn2CdO12
_symmetry_space_group_name_H-M   'P 1'
_cell_length_a   6.79957805
_cell_length_b   6.79957833
_cell_length_c   6.79957932
_cell_angle_alpha   91.26846425
_cell_angle_beta   91.26846400
_cell_angle_gamma   91.26844828
_symmetry_Int_Tables_number   1
_chemical_formula_structural   Sr6CaMn2CdO12
_chemical_formula_sum   'Sr6 Ca1 Mn2 Cd1 O12'
_cell_volume   314.13895867
_cell_formula_units_Z   1
loop_
 _symmetry_equiv_pos_site_id
 _symmetry_equiv_pos_as_xyz
  1  'x, y, z'
loop_
 _atom_site_type_symbol
 _atom_site_label
 _atom_site_symmetry_multiplicity
 _atom_site_fract_x
 _atom_site_fract_y
 _atom_site_fract_z
 _atom_site_occupancy
  Sr  Sr0  1  0.750000  0.389014  0.110986  1
  Sr  Sr1  1  0.110986  0.750000  0.389014  1
  Sr  Sr2  1  0.250000  0.614096  0.885904  1
  Sr  Sr3  1  0.389014  0.110986  0.750000  1
  Sr  Sr4  1  0.614096  0.885904  0.250000  1
  Sr  Sr5  1  0.885904  0.250000  0.614096  1
  Ca  Ca6  1  0.250000  0.250000  0.250000  1
  Mn  Mn7  1  0.499490  0.499490  0.499490  1
  Mn  Mn8  1  0.000510  0.000510  0.000510  1
  Cd  Cd9  1  0.750000  0.750000  0.750000  1
  O  O10  1  0.080645  0.275402  0.949660  1
  O  O11  1  0.949660  0.080645  0.275402  1
  O  O12  1  0.275402  0.949660  0.080645  1
  O  O13  1  0.419355  0.550340  0.224598  1
  O  O14  1  0.224598  0.419355  0.550340  1
  O  O15  1  0.550340  0.224598  0.419355  1
  O  O16  1  0.921242  0.724744  0.052807  1
  O  O17  1  0.052807  0.921242  0.724744  1
  O  O18  1  0.724744  0.052807  0.921242  1
  O  O19  1  0.578758  0.447193  0.775256  1
  O  O20  1  0.447193  0.775256  0.578758  1
  O  O21  1  0.775256  0.578758  0.447193  1
