# generated using pymatgen
data_DyHo3(TcC2)2
_symmetry_space_group_name_H-M   'P 1'
_cell_length_a   5.08186600
_cell_length_b   6.56042953
_cell_length_c   9.84141502
_cell_angle_alpha   89.90372171
_cell_angle_beta   90.00000000
_cell_angle_gamma   90.00000000
_symmetry_Int_Tables_number   1
_chemical_formula_structural   DyHo3(TcC2)2
_chemical_formula_sum   'Dy2 Ho6 Tc4 C8'
_cell_volume   328.10467452
_cell_formula_units_Z   2
loop_
 _symmetry_equiv_pos_site_id
 _symmetry_equiv_pos_as_xyz
  1  'x, y, z'
loop_
 _atom_site_type_symbol
 _atom_site_label
 _atom_site_symmetry_multiplicity
 _atom_site_fract_x
 _atom_site_fract_y
 _atom_site_fract_z
 _atom_site_occupancy
  Dy  Dy0  1  0.750000  0.967686  0.715935  1
  Dy  Dy1  1  0.250000  0.032314  0.284065  1
  Ho  Ho2  1  0.250000  0.677531  0.557335  1
  Ho  Ho3  1  0.750000  0.322469  0.442665  1
  Ho  Ho4  1  0.750000  0.822409  0.057269  1
  Ho  Ho5  1  0.250000  0.177591  0.942731  1
  Ho  Ho6  1  0.250000  0.532313  0.216443  1
  Ho  Ho7  1  0.750000  0.467687  0.783557  1
  Tc  Tc8  1  0.250000  0.719057  0.866127  1
  Tc  Tc9  1  0.750000  0.280943  0.133873  1
  Tc  Tc10  1  0.750000  0.780323  0.366032  1
  Tc  Tc11  1  0.250000  0.219677  0.633968  1
  C  C12  1  0.250000  0.452481  0.758512  1
  C  C13  1  0.750000  0.547519  0.241488  1
  C  C14  1  0.750000  0.047606  0.258301  1
  C  C15  1  0.250000  0.952394  0.741699  1
  C  C16  1  0.250000  0.821415  0.049132  1
  C  C17  1  0.750000  0.178585  0.950868  1
  C  C18  1  0.750000  0.676911  0.549017  1
  C  C19  1  0.250000  0.323089  0.450983  1
