# generated using pymatgen
data_GdTeRhO6
_symmetry_space_group_name_H-M   'P 1'
_cell_length_a   5.26580160
_cell_length_b   5.27008526
_cell_length_c   9.93192148
_cell_angle_alpha   90.04082056
_cell_angle_beta   90.06341087
_cell_angle_gamma   120.07178653
_symmetry_Int_Tables_number   1
_chemical_formula_structural   GdTeRhO6
_chemical_formula_sum   'Gd2 Te2 Rh2 O12'
_cell_volume   238.52324062
_cell_formula_units_Z   2
loop_
 _symmetry_equiv_pos_site_id
 _symmetry_equiv_pos_as_xyz
  1  'x, y, z'
loop_
 _atom_site_type_symbol
 _atom_site_label
 _atom_site_symmetry_multiplicity
 _atom_site_fract_x
 _atom_site_fract_y
 _atom_site_fract_z
 _atom_site_occupancy
  Gd  Gd0  1  0.000005  0.000010  0.999998  1
  Gd  Gd1  1  0.000011  0.000000  0.500006  1
  Te  Te2  1  0.666777  0.333533  0.249999  1
  Te  Te3  1  0.333217  0.666463  0.750001  1
  Rh  Rh4  1  0.333786  0.666874  0.249904  1
  Rh  Rh5  1  0.666214  0.333124  0.750095  1
  O  O6  1  0.645112  0.634329  0.139839  1
  O  O7  1  0.364726  0.009843  0.140038  1
  O  O8  1  0.988809  0.354040  0.139915  1
  O  O9  1  0.365410  0.354814  0.359766  1
  O  O10  1  0.990365  0.635243  0.360070  1
  O  O11  1  0.645783  0.011614  0.360085  1
  O  O12  1  0.354215  0.988378  0.639918  1
  O  O13  1  0.634590  0.645193  0.640236  1
  O  O14  1  0.009635  0.364767  0.639923  1
  O  O15  1  0.011188  0.645950  0.860086  1
  O  O16  1  0.635262  0.990149  0.859960  1
  O  O17  1  0.354890  0.365678  0.860161  1
