# generated using pymatgen
data_Ta8Nb4As3P
_symmetry_space_group_name_H-M   'P 1'
_cell_length_a   10.38275944
_cell_length_b   10.38275944
_cell_length_c   5.13812300
_cell_angle_alpha   90.15196918
_cell_angle_beta   89.84803082
_cell_angle_gamma   89.97393317
_symmetry_Int_Tables_number   1
_chemical_formula_structural   Ta8Nb4As3P
_chemical_formula_sum   'Ta16 Nb8 As6 P2'
_cell_volume   553.89440574
_cell_formula_units_Z   2
loop_
 _symmetry_equiv_pos_site_id
 _symmetry_equiv_pos_as_xyz
  1  'x, y, z'
loop_
 _atom_site_type_symbol
 _atom_site_label
 _atom_site_symmetry_multiplicity
 _atom_site_fract_x
 _atom_site_fract_y
 _atom_site_fract_z
 _atom_site_occupancy
  Ta  Ta0  1  0.908631  0.590644  0.500227  1
  Ta  Ta1  1  0.909291  0.409599  0.000963  1
  Ta  Ta2  1  0.590401  0.090709  0.500963  1
  Ta  Ta3  1  0.797678  0.299129  0.500931  1
  Ta  Ta4  1  0.095237  0.411829  0.495003  1
  Ta  Ta5  1  0.095438  0.588811  0.004010  1
  Ta  Ta6  1  0.204389  0.303586  0.003634  1
  Ta  Ta7  1  0.302082  0.796752  0.993439  1
  Ta  Ta8  1  0.298075  0.200977  0.502441  1
  Ta  Ta9  1  0.700871  0.202322  0.000931  1
  Ta  Ta10  1  0.588171  0.904763  0.995003  1
  Ta  Ta11  1  0.696414  0.795611  0.503634  1
  Ta  Ta12  1  0.203248  0.697918  0.493439  1
  Ta  Ta13  1  0.409356  0.091369  0.000227  1
  Ta  Ta14  1  0.411189  0.904562  0.504010  1
  Ta  Ta15  1  0.799023  0.701925  0.002441  1
  Nb  Nb16  1  0.494443  0.648759  0.250499  1
  Nb  Nb17  1  0.851399  0.999492  0.749135  1
  Nb  Nb18  1  0.645580  0.506326  0.749495  1
  Nb  Nb19  1  0.000452  0.849609  0.250993  1
  Nb  Nb20  1  0.351241  0.505557  0.750499  1
  Nb  Nb21  1  0.000508  0.148601  0.249135  1
  Nb  Nb22  1  0.493674  0.354420  0.249495  1
  Nb  Nb23  1  0.150391  0.999548  0.750993  1
  As  As24  1  0.002844  0.791428  0.751461  1
  As  As25  1  0.499767  0.295654  0.750070  1
  As  As26  1  0.208572  0.997156  0.251461  1
  As  As27  1  0.791669  0.997108  0.248435  1
  As  As28  1  0.002892  0.208331  0.748435  1
  As  As29  1  0.704346  0.500233  0.250070  1
  P  P30  1  0.293927  0.501200  0.249264  1
  P  P31  1  0.498800  0.706073  0.749264  1
