# generated using pymatgen
data_Cs5Mn3S7
_symmetry_space_group_name_H-M   'P 1'
_cell_length_a   10.98911648
_cell_length_b   10.98911621
_cell_length_c   9.25864375
_cell_angle_alpha   74.95526271
_cell_angle_beta   74.95526614
_cell_angle_gamma   69.61524072
_symmetry_Int_Tables_number   1
_chemical_formula_structural   Cs5Mn3S7
_chemical_formula_sum   'Cs10 Mn6 S14'
_cell_volume   994.30805654
_cell_formula_units_Z   2
loop_
 _symmetry_equiv_pos_site_id
 _symmetry_equiv_pos_as_xyz
  1  'x, y, z'
loop_
 _atom_site_type_symbol
 _atom_site_label
 _atom_site_symmetry_multiplicity
 _atom_site_fract_x
 _atom_site_fract_y
 _atom_site_fract_z
 _atom_site_occupancy
  Cs  Cs0  1  0.024192  0.433981  0.727661  1
  Cs  Cs1  1  0.433981  0.024192  0.727661  1
  Cs  Cs2  1  0.975808  0.566019  0.272339  1
  Cs  Cs3  1  0.566019  0.975808  0.272339  1
  Cs  Cs4  1  0.284999  0.715001  0.000000  1
  Cs  Cs5  1  0.715001  0.284999  0.000000  1
  Cs  Cs6  1  0.845133  0.154867  0.500000  1
  Cs  Cs7  1  0.154867  0.845133  0.500000  1
  Cs  Cs8  1  0.423745  0.423745  0.704210  1
  Cs  Cs9  1  0.576255  0.576255  0.295790  1
  Mn  Mn10  1  0.210914  0.210914  0.181558  1
  Mn  Mn11  1  0.789086  0.789086  0.818442  1
  Mn  Mn12  1  0.072139  0.072139  0.058558  1
  Mn  Mn13  1  0.927861  0.927861  0.941442  1
  Mn  Mn14  1  0.342778  0.342778  0.335496  1
  Mn  Mn15  1  0.657222  0.657222  0.664504  1
  S  S16  1  0.999966  0.282990  0.119594  1
  S  S17  1  0.282990  0.999966  0.119594  1
  S  S18  1  0.000034  0.717010  0.880406  1
  S  S19  1  0.717010  0.000034  0.880406  1
  S  S20  1  0.211870  0.211870  0.432678  1
  S  S21  1  0.788130  0.788130  0.567322  1
  S  S22  1  0.060796  0.060796  0.817403  1
  S  S23  1  0.939204  0.939204  0.182597  1
  S  S24  1  0.347194  0.347194  0.090189  1
  S  S25  1  0.652806  0.652806  0.909811  1
  S  S26  1  0.261290  0.539159  0.397660  1
  S  S27  1  0.539159  0.261290  0.397660  1
  S  S28  1  0.738710  0.460841  0.602340  1
  S  S29  1  0.460841  0.738710  0.602340  1
