# generated using pymatgen
data_Yb3HoBi3
_symmetry_space_group_name_H-M   'P 1'
_cell_length_a   8.16764880
_cell_length_b   8.36187894
_cell_length_c   8.36187816
_cell_angle_alpha   109.93696184
_cell_angle_beta   109.00136828
_cell_angle_gamma   109.00136034
_symmetry_Int_Tables_number   1
_chemical_formula_structural   Yb3HoBi3
_chemical_formula_sum   'Yb6 Ho2 Bi6'
_cell_volume   442.14875901
_cell_formula_units_Z   2
loop_
 _symmetry_equiv_pos_site_id
 _symmetry_equiv_pos_as_xyz
  1  'x, y, z'
loop_
 _atom_site_type_symbol
 _atom_site_label
 _atom_site_symmetry_multiplicity
 _atom_site_fract_x
 _atom_site_fract_y
 _atom_site_fract_z
 _atom_site_occupancy
  Yb  Yb0  1  0.501010  0.999274  0.647227  1
  Yb  Yb1  1  0.353784  0.352047  0.352773  1
  Yb  Yb2  1  0.501736  0.000726  0.147953  1
  Yb  Yb3  1  0.001736  0.647953  0.500726  1
  Yb  Yb4  1  0.853784  0.852773  0.852047  1
  Yb  Yb5  1  0.001010  0.147227  0.499274  1
  Ho  Ho6  1  0.141642  0.500000  0.000000  1
  Ho  Ho7  1  0.641642  0.500000  0.000000  1
  Bi  Bi8  1  0.377157  0.622629  0.757016  1
  Bi  Bi9  1  0.877157  0.257016  0.122629  1
  Bi  Bi10  1  0.620142  0.742984  0.365613  1
  Bi  Bi11  1  0.120142  0.865613  0.242984  1
  Bi  Bi12  1  0.254528  0.134387  0.877371  1
  Bi  Bi13  1  0.754528  0.377371  0.634387  1
