# generated using pymatgen
data_Na2P7(IrRu)6
_symmetry_space_group_name_H-M   'P 1'
_cell_length_a   9.42669900
_cell_length_b   9.42669942
_cell_length_c   3.95592500
_cell_angle_alpha   90.00000000
_cell_angle_beta   90.00000000
_cell_angle_gamma   120.00000205
_symmetry_Int_Tables_number   1
_chemical_formula_structural   Na2P7(IrRu)6
_chemical_formula_sum   'Na2 P7 Ir6 Ru6'
_cell_volume   304.43737684
_cell_formula_units_Z   1
loop_
 _symmetry_equiv_pos_site_id
 _symmetry_equiv_pos_as_xyz
  1  'x, y, z'
loop_
 _atom_site_type_symbol
 _atom_site_label
 _atom_site_symmetry_multiplicity
 _atom_site_fract_x
 _atom_site_fract_y
 _atom_site_fract_z
 _atom_site_occupancy
  Na  Na0  1  0.666667  0.333333  0.000000  1
  Na  Na1  1  0.333333  0.666667  0.500000  1
  P  P2  1  0.120753  0.698134  0.000000  1
  P  P3  1  0.301866  0.422619  0.000000  1
  P  P4  1  0.577381  0.879247  0.000000  1
  P  P5  1  0.721039  0.596427  0.500000  1
  P  P6  1  0.403573  0.124613  0.500000  1
  P  P7  1  0.875387  0.278961  0.500000  1
  P  P8  1  0.000000  0.000000  0.000000  1
  Ir  Ir9  1  0.365628  0.935011  0.000000  1
  Ir  Ir10  1  0.064989  0.430618  0.000000  1
  Ir  Ir11  1  0.569382  0.634372  0.000000  1
  Ir  Ir12  1  0.950176  0.555152  0.500000  1
  Ir  Ir13  1  0.444848  0.395025  0.500000  1
  Ir  Ir14  1  0.604975  0.049824  0.500000  1
  Ru  Ru15  1  0.895179  0.729186  0.000000  1
  Ru  Ru16  1  0.270814  0.165993  0.000000  1
  Ru  Ru17  1  0.834008  0.104821  0.000000  1
  Ru  Ru18  1  0.131377  0.918277  0.500000  1
  Ru  Ru19  1  0.081723  0.213100  0.500000  1
  Ru  Ru20  1  0.786900  0.868623  0.500000  1
