# generated using pymatgen
data_Ho16Tm4Ir11Os
_symmetry_space_group_name_H-M   'P 1'
_cell_length_a   10.81215600
_cell_length_b   10.81215600
_cell_length_c   6.35902800
_cell_angle_alpha   90.00000000
_cell_angle_beta   90.00000000
_cell_angle_gamma   90.00000000
_symmetry_Int_Tables_number   1
_chemical_formula_structural   Ho16Tm4Ir11Os
_chemical_formula_sum   'Ho16 Tm4 Ir11 Os1'
_cell_volume   743.38765302
_cell_formula_units_Z   1
loop_
 _symmetry_equiv_pos_site_id
 _symmetry_equiv_pos_as_xyz
  1  'x, y, z'
loop_
 _atom_site_type_symbol
 _atom_site_label
 _atom_site_symmetry_multiplicity
 _atom_site_fract_x
 _atom_site_fract_y
 _atom_site_fract_z
 _atom_site_occupancy
  Ho  Ho0  1  0.292096  0.086862  0.375502  1
  Ho  Ho1  1  0.292378  0.913208  0.878566  1
  Ho  Ho2  1  0.707622  0.086792  0.878566  1
  Ho  Ho3  1  0.707904  0.913138  0.375502  1
  Ho  Ho4  1  0.586792  0.792378  0.878566  1
  Ho  Ho5  1  0.586862  0.207904  0.375502  1
  Ho  Ho6  1  0.413138  0.792096  0.375502  1
  Ho  Ho7  1  0.413208  0.207622  0.878566  1
  Ho  Ho8  1  0.209470  0.412350  0.622548  1
  Ho  Ho9  1  0.209435  0.587574  0.122462  1
  Ho  Ho10  1  0.790565  0.412426  0.122462  1
  Ho  Ho11  1  0.790530  0.587650  0.622548  1
  Ho  Ho12  1  0.912426  0.709435  0.122462  1
  Ho  Ho13  1  0.912350  0.290530  0.622548  1
  Ho  Ho14  1  0.087650  0.709470  0.622548  1
  Ho  Ho15  1  0.087574  0.290565  0.122462  1
  Tm  Tm16  1  0.000000  0.000000  0.499767  1
  Tm  Tm17  1  0.000000  0.000000  0.999810  1
  Tm  Tm18  1  0.500000  0.500000  0.999810  1
  Tm  Tm19  1  0.500000  0.500000  0.499767  1
  Ir  Ir20  1  0.848243  0.152808  0.250401  1
  Ir  Ir21  1  0.848330  0.847353  0.750092  1
  Ir  Ir22  1  0.151670  0.152647  0.750092  1
  Ir  Ir23  1  0.151757  0.847192  0.250401  1
  Ir  Ir24  1  0.652647  0.348330  0.750092  1
  Ir  Ir25  1  0.652808  0.651757  0.250401  1
  Ir  Ir26  1  0.347192  0.348243  0.250401  1
  Ir  Ir27  1  0.347353  0.651670  0.750092  1
  Ir  Ir28  1  0.500000  0.000000  0.622615  1
  Ir  Ir29  1  0.000000  0.500000  0.878038  1
  Ir  Ir30  1  0.000000  0.500000  0.378179  1
  Os  Os31  1  0.500000  0.000000  0.123727  1
