# generated using pymatgen
data_V4InP7O24
_symmetry_space_group_name_H-M   'P 1'
_cell_length_a   10.35411343
_cell_length_b   10.43615322
_cell_length_c   10.85818200
_cell_angle_alpha   108.19632406
_cell_angle_beta   111.98012035
_cell_angle_gamma   104.95357051
_symmetry_Int_Tables_number   1
_chemical_formula_structural   V4InP7O24
_chemical_formula_sum   'V8 In2 P14 O48'
_cell_volume   935.33352918
_cell_formula_units_Z   2
loop_
 _symmetry_equiv_pos_site_id
 _symmetry_equiv_pos_as_xyz
  1  'x, y, z'
loop_
 _atom_site_type_symbol
 _atom_site_label
 _atom_site_symmetry_multiplicity
 _atom_site_fract_x
 _atom_site_fract_y
 _atom_site_fract_z
 _atom_site_occupancy
  V  V0  1  0.499723  0.895001  0.746225  1
  V  V1  1  0.000556  0.385993  0.076787  1
  V  V2  1  0.511511  0.662069  0.888407  1
  V  V3  1  0.985948  0.828781  0.411460  1
  V  V4  1  0.014052  0.171219  0.588540  1
  V  V5  1  0.488489  0.337931  0.111593  1
  V  V6  1  0.999444  0.614007  0.923213  1
  V  V7  1  0.500277  0.104999  0.253775  1
  In  In8  1  0.537747  0.237214  0.660950  1
  In  In9  1  0.462253  0.762786  0.339050  1
  P  P10  1  0.768393  0.777299  0.768290  1
  P  P11  1  0.190953  0.622897  0.434824  1
  P  P12  1  0.195129  0.940561  0.259282  1
  P  P13  1  0.260990  0.033492  0.757295  1
  P  P14  1  0.250943  0.391222  0.523451  1
  P  P15  1  0.730899  0.176095  0.115065  1
  P  P16  1  0.753113  0.543379  0.053984  1
  P  P17  1  0.246887  0.456621  0.946016  1
  P  P18  1  0.269101  0.823905  0.884935  1
  P  P19  1  0.749057  0.608778  0.476549  1
  P  P20  1  0.739010  0.966508  0.242705  1
  P  P21  1  0.804871  0.059439  0.740718  1
  P  P22  1  0.809047  0.377103  0.565176  1
  P  P23  1  0.231607  0.222701  0.231710  1
  O  O24  1  0.879673  0.205455  0.879662  1
  O  O25  1  0.627655  0.988795  0.665150  1
  O  O26  1  0.642595  0.059361  0.953229  1
  O  O27  1  0.120081  0.264347  0.138913  1
  O  O28  1  0.365198  0.723536  0.538361  1
  O  O29  1  0.158498  0.562743  0.272794  1
  O  O30  1  0.657982  0.573116  0.926330  1
  O  O31  1  0.633245  0.777488  0.796949  1
  O  O32  1  0.154722  0.477237  0.466594  1
  O  O33  1  0.372356  0.003650  0.701924  1
  O  O34  1  0.312460  0.336851  0.406999  1
  O  O35  1  0.141890  0.061079  0.208917  1
  O  O36  1  0.144490  0.931881  0.371141  1
  O  O37  1  0.392854  0.493650  0.672254  1
  O  O38  1  0.871642  0.498670  0.010280  1
  O  O39  1  0.088712  0.693016  0.463925  1
  O  O40  1  0.863347  0.313039  0.154327  1
  O  O41  1  0.340165  0.174187  0.901062  1
  O  O42  1  0.188292  0.895234  0.783836  1
  O  O43  1  0.146856  0.250632  0.509576  1
  O  O44  1  0.119569  0.022106  0.627302  1
  O  O45  1  0.380613  0.783791  0.829301  1
  O  O46  1  0.359966  0.585683  0.946346  1
  O  O47  1  0.844478  0.680438  0.206515  1
  O  O48  1  0.155522  0.319562  0.793485  1
  O  O49  1  0.640034  0.414317  0.053654  1
  O  O50  1  0.619387  0.216209  0.170699  1
  O  O51  1  0.880431  0.977894  0.372698  1
  O  O52  1  0.853144  0.749368  0.490424  1
  O  O53  1  0.811708  0.104766  0.216164  1
  O  O54  1  0.659835  0.825813  0.098938  1
  O  O55  1  0.136653  0.686961  0.845673  1
  O  O56  1  0.911288  0.306984  0.536075  1
  O  O57  1  0.128358  0.501330  0.989720  1
  O  O58  1  0.607146  0.506350  0.327746  1
  O  O59  1  0.855510  0.068119  0.628859  1
  O  O60  1  0.858110  0.938921  0.791083  1
  O  O61  1  0.687540  0.663149  0.593001  1
  O  O62  1  0.627644  0.996350  0.298076  1
  O  O63  1  0.845278  0.522763  0.533406  1
  O  O64  1  0.366755  0.222512  0.203051  1
  O  O65  1  0.342018  0.426884  0.073670  1
  O  O66  1  0.841502  0.437257  0.727206  1
  O  O67  1  0.634802  0.276464  0.461639  1
  O  O68  1  0.879919  0.735653  0.861087  1
  O  O69  1  0.357405  0.940639  0.046771  1
  O  O70  1  0.372345  0.011205  0.334850  1
  O  O71  1  0.120327  0.794545  0.120338  1
