# generated using pymatgen
data_Dy3U5(P7Ir8)2
_symmetry_space_group_name_H-M   'P 1'
_cell_length_a   3.93962000
_cell_length_b   12.65280137
_cell_length_c   13.13549966
_cell_angle_alpha   81.44606749
_cell_angle_beta   90.00000000
_cell_angle_gamma   90.00000000
_symmetry_Int_Tables_number   1
_chemical_formula_structural   Dy3U5(P7Ir8)2
_chemical_formula_sum   'Dy3 U5 P14 Ir16'
_cell_volume   647.48481305
_cell_formula_units_Z   1
loop_
 _symmetry_equiv_pos_site_id
 _symmetry_equiv_pos_as_xyz
  1  'x, y, z'
loop_
 _atom_site_type_symbol
 _atom_site_label
 _atom_site_symmetry_multiplicity
 _atom_site_fract_x
 _atom_site_fract_y
 _atom_site_fract_z
 _atom_site_occupancy
  Dy  Dy0  1  0.750000  0.481079  0.708161  1
  Dy  Dy1  1  0.250000  0.209597  0.437069  1
  Dy  Dy2  1  0.750000  0.790760  0.561615  1
  U  U3  1  0.250000  0.105491  0.790595  1
  U  U4  1  0.750000  0.889538  0.207843  1
  U  U5  1  0.250000  0.277560  0.101718  1
  U  U6  1  0.750000  0.721318  0.900308  1
  U  U7  1  0.250000  0.513845  0.291730  1
  P  P8  1  0.250000  0.055093  0.100583  1
  P  P9  1  0.750000  0.944786  0.900160  1
  P  P10  1  0.250000  0.310929  0.690306  1
  P  P11  1  0.750000  0.681893  0.311437  1
  P  P12  1  0.250000  0.609308  0.567553  1
  P  P13  1  0.750000  0.391799  0.438770  1
  P  P14  1  0.250000  0.844150  0.719985  1
  P  P15  1  0.750000  0.159595  0.279202  1
  P  P16  1  0.750000  0.253327  0.920129  1
  P  P17  1  0.250000  0.748155  0.079088  1
  P  P18  1  0.750000  0.093651  0.587862  1
  P  P19  1  0.250000  0.906250  0.408790  1
  P  P20  1  0.750000  0.472694  0.126525  1
  P  P21  1  0.250000  0.527954  0.870082  1
  Ir  Ir22  1  0.250000  0.990135  0.575309  1
  Ir  Ir23  1  0.750000  0.009910  0.422760  1
  Ir  Ir24  1  0.250000  0.663475  0.730573  1
  Ir  Ir25  1  0.750000  0.343457  0.271523  1
  Ir  Ir26  1  0.250000  0.551105  0.047993  1
  Ir  Ir27  1  0.750000  0.448246  0.952272  1
  Ir  Ir28  1  0.250000  0.060084  0.273842  1
  Ir  Ir29  1  0.750000  0.943130  0.725571  1
  Ir  Ir30  1  0.250000  0.424429  0.529114  1
  Ir  Ir31  1  0.750000  0.576482  0.475540  1
  Ir  Ir32  1  0.250000  0.920048  0.995542  1
  Ir  Ir33  1  0.750000  0.082069  0.003797  1
  Ir  Ir34  1  0.250000  0.727670  0.395588  1
  Ir  Ir35  1  0.750000  0.271239  0.602092  1
  Ir  Ir36  1  0.250000  0.339033  0.860001  1
  Ir  Ir37  1  0.750000  0.660715  0.138972  1
