# generated using pymatgen
data_Ta3Ti(FeP)4
_symmetry_space_group_name_H-M   'P 1'
_cell_length_a   3.59060800
_cell_length_b   6.09970801
_cell_length_c   6.90310801
_cell_angle_alpha   90.00516050
_cell_angle_beta   90.00000000
_cell_angle_gamma   90.00000000
_symmetry_Int_Tables_number   1
_chemical_formula_structural   Ta3Ti(FeP)4
_chemical_formula_sum   'Ta3 Ti1 Fe4 P4'
_cell_volume   151.18952642
_cell_formula_units_Z   1
loop_
 _symmetry_equiv_pos_site_id
 _symmetry_equiv_pos_as_xyz
  1  'x, y, z'
loop_
 _atom_site_type_symbol
 _atom_site_label
 _atom_site_symmetry_multiplicity
 _atom_site_fract_x
 _atom_site_fract_y
 _atom_site_fract_z
 _atom_site_occupancy
  Ta  Ta0  1  0.250000  0.020138  0.822013  1
  Ta  Ta1  1  0.750000  0.977057  0.176441  1
  Ta  Ta2  1  0.750000  0.478989  0.324322  1
  Ti  Ti3  1  0.250000  0.521015  0.679046  1
  Fe  Fe4  1  0.750000  0.356413  0.936808  1
  Fe  Fe5  1  0.250000  0.143511  0.437767  1
  Fe  Fe6  1  0.750000  0.856971  0.562039  1
  Fe  Fe7  1  0.250000  0.644298  0.062150  1
  P  P8  1  0.250000  0.775566  0.384700  1
  P  P9  1  0.250000  0.278182  0.118159  1
  P  P10  1  0.750000  0.228245  0.620491  1
  P  P11  1  0.750000  0.719617  0.876063  1
