# generated using pymatgen
data_YbPH
_symmetry_space_group_name_H-M   'P 1'
_cell_length_a   4.38793200
_cell_length_b   4.01642834
_cell_length_c   5.93001459
_cell_angle_alpha   82.53553423
_cell_angle_beta   90.00000000
_cell_angle_gamma   90.00000000
_symmetry_Int_Tables_number   1
_chemical_formula_structural   YbPH
_chemical_formula_sum   'Yb2 P2 H2'
_cell_volume   103.62382376
_cell_formula_units_Z   2
loop_
 _symmetry_equiv_pos_site_id
 _symmetry_equiv_pos_as_xyz
  1  'x, y, z'
loop_
 _atom_site_type_symbol
 _atom_site_label
 _atom_site_symmetry_multiplicity
 _atom_site_fract_x
 _atom_site_fract_y
 _atom_site_fract_z
 _atom_site_occupancy
  Yb  Yb0  1  0.750000  0.740700  0.747644  1
  Yb  Yb1  1  0.250000  0.259300  0.252356  1
  P  P2  1  0.750000  0.764114  0.242074  1
  P  P3  1  0.250000  0.235886  0.757926  1
  H  H4  1  0.750000  0.451037  0.395977  1
  H  H5  1  0.250000  0.548963  0.604023  1
