# generated using pymatgen
data_YErBeCoSi4
_symmetry_space_group_name_H-M   'P 1'
_cell_length_a   8.46006534
_cell_length_b   8.46006614
_cell_length_c   3.91257200
_cell_angle_alpha   90.00000000
_cell_angle_beta   90.00000000
_cell_angle_gamma   152.57729575
_symmetry_Int_Tables_number   1
_chemical_formula_structural   YErBeCoSi4
_chemical_formula_sum   'Y1 Er1 Be1 Co1 Si4'
_cell_volume   128.96981402
_cell_formula_units_Z   1
loop_
 _symmetry_equiv_pos_site_id
 _symmetry_equiv_pos_as_xyz
  1  'x, y, z'
loop_
 _atom_site_type_symbol
 _atom_site_label
 _atom_site_symmetry_multiplicity
 _atom_site_fract_x
 _atom_site_fract_y
 _atom_site_fract_z
 _atom_site_occupancy
  Y  Y0  1  0.113018  0.886982  0.250000  1
  Er  Er1  1  0.898164  0.101836  0.750000  1
  Be  Be2  1  0.671176  0.328824  0.750000  1
  Co  Co3  1  0.319108  0.680892  0.250000  1
  Si  Si4  1  0.753918  0.246082  0.250000  1
  Si  Si5  1  0.251474  0.748526  0.750000  1
  Si  Si6  1  0.537873  0.462127  0.750000  1
  Si  Si7  1  0.455269  0.544731  0.250000  1
