# generated using pymatgen
data_Tb2Ho2GaOs7
_symmetry_space_group_name_H-M   'P 1'
_cell_length_a   5.30439307
_cell_length_b   5.30439368
_cell_length_c   8.83520800
_cell_angle_alpha   89.99102390
_cell_angle_beta   90.00897611
_cell_angle_gamma   118.71775417
_symmetry_Int_Tables_number   1
_chemical_formula_structural   Tb2Ho2GaOs7
_chemical_formula_sum   'Tb2 Ho2 Ga1 Os7'
_cell_volume   218.01505397
_cell_formula_units_Z   1
loop_
 _symmetry_equiv_pos_site_id
 _symmetry_equiv_pos_as_xyz
  1  'x, y, z'
loop_
 _atom_site_type_symbol
 _atom_site_label
 _atom_site_symmetry_multiplicity
 _atom_site_fract_x
 _atom_site_fract_y
 _atom_site_fract_z
 _atom_site_occupancy
  Tb  Tb0  1  0.334142  0.665858  0.436662  1
  Tb  Tb1  1  0.670084  0.329916  0.567440  1
  Ho  Ho2  1  0.669455  0.330545  0.932789  1
  Ho  Ho3  1  0.334001  0.665999  0.062451  1
  Ga  Ga4  1  0.828133  0.171867  0.249276  1
  Os  Os5  1  0.008335  0.991665  0.500428  1
  Os  Os6  1  0.007918  0.992082  0.999854  1
  Os  Os7  1  0.822218  0.659312  0.248721  1
  Os  Os8  1  0.340688  0.177782  0.248721  1
  Os  Os9  1  0.160539  0.839461  0.751003  1
  Os  Os10  1  0.177359  0.352873  0.751327  1
  Os  Os11  1  0.647127  0.822641  0.751327  1
