# generated using pymatgen
data_Zr4Ta2CrRe5
_symmetry_space_group_name_H-M   'P 1'
_cell_length_a   5.35758810
_cell_length_b   5.29504900
_cell_length_c   8.74860400
_cell_angle_alpha   90.00000000
_cell_angle_beta   90.00000000
_cell_angle_gamma   119.25907263
_symmetry_Int_Tables_number   1
_chemical_formula_structural   Zr4Ta2CrRe5
_chemical_formula_sum   'Zr4 Ta2 Cr1 Re5'
_cell_volume   216.52247978
_cell_formula_units_Z   1
loop_
 _symmetry_equiv_pos_site_id
 _symmetry_equiv_pos_as_xyz
  1  'x, y, z'
loop_
 _atom_site_type_symbol
 _atom_site_label
 _atom_site_symmetry_multiplicity
 _atom_site_fract_x
 _atom_site_fract_y
 _atom_site_fract_z
 _atom_site_occupancy
  Zr  Zr0  1  0.332081  0.665344  0.440471  1
  Zr  Zr1  1  0.668800  0.333980  0.942014  1
  Zr  Zr2  1  0.668800  0.333980  0.557986  1
  Zr  Zr3  1  0.332081  0.665344  0.059529  1
  Ta  Ta4  1  0.660361  0.830629  0.750000  1
  Ta  Ta5  1  0.341784  0.169345  0.250000  1
  Cr  Cr6  1  0.835195  0.173949  0.250000  1
  Re  Re7  1  0.165921  0.339602  0.750000  1
  Re  Re8  1  0.166026  0.828448  0.750000  1
  Re  Re9  1  0.834427  0.656818  0.250000  1
  Re  Re10  1  0.997263  0.001281  0.495017  1
  Re  Re11  1  0.997263  0.001281  0.004983  1
