# generated using pymatgen
data_Pu2ThS3
_symmetry_space_group_name_H-M   'P 1'
_cell_length_a   3.96406600
_cell_length_b   3.96406526
_cell_length_c   9.90012800
_cell_angle_alpha   90.00000000
_cell_angle_beta   90.00000000
_cell_angle_gamma   120.00000620
_symmetry_Int_Tables_number   1
_chemical_formula_structural   Pu2ThS3
_chemical_formula_sum   'Pu2 Th1 S3'
_cell_volume   134.72651818
_cell_formula_units_Z   1
loop_
 _symmetry_equiv_pos_site_id
 _symmetry_equiv_pos_as_xyz
  1  'x, y, z'
loop_
 _atom_site_type_symbol
 _atom_site_label
 _atom_site_symmetry_multiplicity
 _atom_site_fract_x
 _atom_site_fract_y
 _atom_site_fract_z
 _atom_site_occupancy
  Pu  Pu0  1  0.333333  0.666667  0.664820  1
  Pu  Pu1  1  0.666667  0.333333  0.335180  1
  Th  Th2  1  0.000000  0.000000  0.000000  1
  S  S3  1  0.333333  0.666667  0.176262  1
  S  S4  1  0.666667  0.333333  0.823738  1
  S  S5  1  0.000000  0.000000  0.500000  1
