# generated using pymatgen
data_Pr4Ho(SnBi)2
_symmetry_space_group_name_H-M   'P 1'
_cell_length_a   8.39308400
_cell_length_b   8.47313300
_cell_length_c   16.20678900
_cell_angle_alpha   90.00000000
_cell_angle_beta   90.00000000
_cell_angle_gamma   90.00000000
_symmetry_Int_Tables_number   1
_chemical_formula_structural   Pr4Ho(SnBi)2
_chemical_formula_sum   'Pr16 Ho4 Sn8 Bi8'
_cell_volume   1152.55742020
_cell_formula_units_Z   4
loop_
 _symmetry_equiv_pos_site_id
 _symmetry_equiv_pos_as_xyz
  1  'x, y, z'
loop_
 _atom_site_type_symbol
 _atom_site_label
 _atom_site_symmetry_multiplicity
 _atom_site_fract_x
 _atom_site_fract_y
 _atom_site_fract_z
 _atom_site_occupancy
  Pr  Pr0  1  0.390608  0.836620  0.879118  1
  Pr  Pr1  1  0.890608  0.663380  0.620882  1
  Pr  Pr2  1  0.609392  0.163380  0.379118  1
  Pr  Pr3  1  0.109392  0.336620  0.120882  1
  Pr  Pr4  1  0.609392  0.163380  0.120882  1
  Pr  Pr5  1  0.109392  0.336620  0.379118  1
  Pr  Pr6  1  0.390608  0.836620  0.620882  1
  Pr  Pr7  1  0.890608  0.663380  0.879118  1
  Pr  Pr8  1  0.549764  0.325570  0.890547  1
  Pr  Pr9  1  0.049764  0.174430  0.609453  1
  Pr  Pr10  1  0.450236  0.674430  0.390547  1
  Pr  Pr11  1  0.950236  0.825570  0.109453  1
  Pr  Pr12  1  0.450236  0.674430  0.109453  1
  Pr  Pr13  1  0.950236  0.825570  0.390547  1
  Pr  Pr14  1  0.549764  0.325570  0.609453  1
  Pr  Pr15  1  0.049764  0.174430  0.890547  1
  Ho  Ho16  1  0.218321  0.495058  0.750000  1
  Ho  Ho17  1  0.718321  0.004942  0.750000  1
  Ho  Ho18  1  0.781679  0.504942  0.250000  1
  Ho  Ho19  1  0.281679  0.995058  0.250000  1
  Sn  Sn20  1  0.587411  0.624414  0.750000  1
  Sn  Sn21  1  0.087411  0.875586  0.750000  1
  Sn  Sn22  1  0.412589  0.375586  0.250000  1
  Sn  Sn23  1  0.912589  0.124414  0.250000  1
  Sn  Sn24  1  0.352988  0.140527  0.750000  1
  Sn  Sn25  1  0.852988  0.359473  0.750000  1
  Sn  Sn26  1  0.647012  0.859473  0.250000  1
  Sn  Sn27  1  0.147012  0.640527  0.250000  1
  Bi  Bi28  1  0.269366  0.018951  0.047348  1
  Bi  Bi29  1  0.769366  0.481049  0.452652  1
  Bi  Bi30  1  0.730634  0.981049  0.547348  1
  Bi  Bi31  1  0.230634  0.518951  0.952652  1
  Bi  Bi32  1  0.730634  0.981049  0.952652  1
  Bi  Bi33  1  0.230634  0.518951  0.547348  1
  Bi  Bi34  1  0.269366  0.018951  0.452652  1
  Bi  Bi35  1  0.769366  0.481049  0.047348  1
