# generated using pymatgen
data_Ho2ThIn3Pt2Rh
_symmetry_space_group_name_H-M   'P 1'
_cell_length_a   7.77665205
_cell_length_b   7.73459220
_cell_length_c   3.84015500
_cell_angle_alpha   90.00000000
_cell_angle_beta   90.00000000
_cell_angle_gamma   119.82125024
_symmetry_Int_Tables_number   1
_chemical_formula_structural   Ho2ThIn3Pt2Rh
_chemical_formula_sum   'Ho2 Th1 In3 Pt2 Rh1'
_cell_volume   200.39593669
_cell_formula_units_Z   1
loop_
 _symmetry_equiv_pos_site_id
 _symmetry_equiv_pos_as_xyz
  1  'x, y, z'
loop_
 _atom_site_type_symbol
 _atom_site_label
 _atom_site_symmetry_multiplicity
 _atom_site_fract_x
 _atom_site_fract_y
 _atom_site_fract_z
 _atom_site_occupancy
  Ho  Ho0  1  0.594701  0.591184  0.500000  1
  Ho  Ho1  1  0.405299  0.996484  0.500000  1
  Th  Th2  1  0.000000  0.407484  0.500000  1
  In  In3  1  0.268643  0.255402  0.000000  1
  In  In4  1  0.000000  0.755946  0.000000  1
  In  In5  1  0.731357  0.986759  0.000000  1
  Pt  Pt6  1  0.326455  0.660355  0.000000  1
  Pt  Pt7  1  0.673545  0.333899  0.000000  1
  Rh  Rh8  1  0.000000  0.012486  0.500000  1
