# generated using pymatgen
data_TbPr3Mg2Ir3
_symmetry_space_group_name_H-M   'P 1'
_cell_length_a   7.64902700
_cell_length_b   7.60821056
_cell_length_c   4.22121300
_cell_angle_alpha   90.00000000
_cell_angle_beta   90.00000000
_cell_angle_gamma   120.17762068
_symmetry_Int_Tables_number   1
_chemical_formula_structural   TbPr3Mg2Ir3
_chemical_formula_sum   'Tb1 Pr3 Mg2 Ir3'
_cell_volume   212.36185939
_cell_formula_units_Z   1
loop_
 _symmetry_equiv_pos_site_id
 _symmetry_equiv_pos_as_xyz
  1  'x, y, z'
loop_
 _atom_site_type_symbol
 _atom_site_label
 _atom_site_symmetry_multiplicity
 _atom_site_fract_x
 _atom_site_fract_y
 _atom_site_fract_z
 _atom_site_occupancy
  Tb  Tb0  1  0.753616  0.000000  0.000000  1
  Pr  Pr1  1  0.393297  0.000000  0.500000  1
  Pr  Pr2  1  0.020022  0.435418  0.500000  1
  Pr  Pr3  1  0.584602  0.564582  0.500000  1
  Mg  Mg4  1  0.241910  0.244181  0.000000  1
  Mg  Mg5  1  0.997729  0.755818  0.000000  1
  Ir  Ir6  1  0.668966  0.330037  0.000000  1
  Ir  Ir7  1  0.338929  0.669963  0.000000  1
  Ir  Ir8  1  0.000929  0.000000  0.500000  1
