# generated using pymatgen
data_Yb3AlGaPt2
_symmetry_space_group_name_H-M   'P 1'
_cell_length_a   5.78074400
_cell_length_b   7.77183900
_cell_length_c   13.87792600
_cell_angle_alpha   90.00000000
_cell_angle_beta   90.00000000
_cell_angle_gamma   90.00000000
_symmetry_Int_Tables_number   1
_chemical_formula_structural   Yb3AlGaPt2
_chemical_formula_sum   'Yb12 Al4 Ga4 Pt8'
_cell_volume   623.49374333
_cell_formula_units_Z   4
loop_
 _symmetry_equiv_pos_site_id
 _symmetry_equiv_pos_as_xyz
  1  'x, y, z'
loop_
 _atom_site_type_symbol
 _atom_site_label
 _atom_site_symmetry_multiplicity
 _atom_site_fract_x
 _atom_site_fract_y
 _atom_site_fract_z
 _atom_site_occupancy
  Yb  Yb0  1  0.144269  0.604756  0.097334  1
  Yb  Yb1  1  0.144269  0.895244  0.902666  1
  Yb  Yb2  1  0.855731  0.104756  0.402666  1
  Yb  Yb3  1  0.855731  0.395244  0.597334  1
  Yb  Yb4  1  0.855731  0.395244  0.902666  1
  Yb  Yb5  1  0.855731  0.104756  0.097334  1
  Yb  Yb6  1  0.144269  0.895244  0.597334  1
  Yb  Yb7  1  0.144269  0.604756  0.402666  1
  Yb  Yb8  1  0.376654  0.252977  0.250000  1
  Yb  Yb9  1  0.376654  0.247023  0.750000  1
  Yb  Yb10  1  0.623346  0.752977  0.250000  1
  Yb  Yb11  1  0.623346  0.747023  0.750000  1
  Al  Al12  1  0.386836  0.250000  0.000000  1
  Al  Al13  1  0.613164  0.750000  0.500000  1
  Al  Al14  1  0.613164  0.750000  0.000000  1
  Al  Al15  1  0.386836  0.250000  0.500000  1
  Ga  Ga16  1  0.868481  0.403907  0.250000  1
  Ga  Ga17  1  0.868481  0.096093  0.750000  1
  Ga  Ga18  1  0.131519  0.903907  0.250000  1
  Ga  Ga19  1  0.131519  0.596093  0.750000  1
  Pt  Pt20  1  0.639964  0.467751  0.093961  1
  Pt  Pt21  1  0.639964  0.032249  0.906039  1
  Pt  Pt22  1  0.360036  0.967751  0.406039  1
  Pt  Pt23  1  0.360036  0.532249  0.593961  1
  Pt  Pt24  1  0.360036  0.532249  0.906039  1
  Pt  Pt25  1  0.360036  0.967751  0.093961  1
  Pt  Pt26  1  0.639964  0.032249  0.593961  1
  Pt  Pt27  1  0.639964  0.467751  0.406039  1
