# generated using pymatgen
data_Zr4Nb2Si3Mo2As
_symmetry_space_group_name_H-M   'P 1'
_cell_length_a   3.58956500
_cell_length_b   7.04253710
_cell_length_c   8.41552112
_cell_angle_alpha   90.01946222
_cell_angle_beta   90.00000000
_cell_angle_gamma   90.00000000
_symmetry_Int_Tables_number   1
_chemical_formula_structural   Zr4Nb2Si3Mo2As
_chemical_formula_sum   'Zr4 Nb2 Si3 Mo2 As1'
_cell_volume   212.74137156
_cell_formula_units_Z   1
loop_
 _symmetry_equiv_pos_site_id
 _symmetry_equiv_pos_as_xyz
  1  'x, y, z'
loop_
 _atom_site_type_symbol
 _atom_site_label
 _atom_site_symmetry_multiplicity
 _atom_site_fract_x
 _atom_site_fract_y
 _atom_site_fract_z
 _atom_site_occupancy
  Zr  Zr0  1  0.250000  0.049855  0.333388  1
  Zr  Zr1  1  0.250000  0.541199  0.163929  1
  Zr  Zr2  1  0.750000  0.958557  0.670259  1
  Zr  Zr3  1  0.750000  0.457579  0.832417  1
  Nb  Nb4  1  0.250000  0.130055  0.940012  1
  Nb  Nb5  1  0.250000  0.629103  0.562258  1
  Si  Si6  1  0.250000  0.256019  0.636486  1
  Si  Si7  1  0.250000  0.755005  0.864056  1
  Si  Si8  1  0.750000  0.244484  0.141779  1
  Mo  Mo9  1  0.750000  0.868039  0.059342  1
  Mo  Mo10  1  0.750000  0.364033  0.438808  1
  As  As11  1  0.750000  0.746071  0.357267  1
