# generated using pymatgen
data_Hf6Ti6Ga10Ir4Rh3
_symmetry_space_group_name_H-M   'P 1'
_cell_length_a   8.85334388
_cell_length_b   8.80454767
_cell_length_c   8.79980764
_cell_angle_alpha   59.64220608
_cell_angle_beta   59.79853902
_cell_angle_gamma   59.81649809
_symmetry_Int_Tables_number   1
_chemical_formula_structural   Hf6Ti6Ga10Ir4Rh3
_chemical_formula_sum   'Hf6 Ti6 Ga10 Ir4 Rh3'
_cell_volume   482.30481351
_cell_formula_units_Z   1
loop_
 _symmetry_equiv_pos_site_id
 _symmetry_equiv_pos_as_xyz
  1  'x, y, z'
loop_
 _atom_site_type_symbol
 _atom_site_label
 _atom_site_symmetry_multiplicity
 _atom_site_fract_x
 _atom_site_fract_y
 _atom_site_fract_z
 _atom_site_occupancy
  Hf  Hf0  1  0.686131  0.692163  0.312238  1
  Hf  Hf1  1  0.309469  0.692163  0.312238  1
  Hf  Hf2  1  0.691591  0.307966  0.308853  1
  Hf  Hf3  1  0.309880  0.311769  0.691777  1
  Hf  Hf4  1  0.686575  0.311769  0.691777  1
  Hf  Hf5  1  0.311123  0.689468  0.688286  1
  Ti  Ti6  1  0.876840  0.881588  0.364732  1
  Ti  Ti7  1  0.877164  0.364425  0.881248  1
  Ti  Ti8  1  0.369644  0.879458  0.878526  1
  Ti  Ti9  1  0.872373  0.879458  0.878526  1
  Ti  Ti10  1  0.123786  0.125146  0.627280  1
  Ti  Ti11  1  0.123024  0.628489  0.125462  1
  Ga  Ga12  1  0.647107  0.118254  0.117834  1
  Ga  Ga13  1  0.116805  0.118254  0.117834  1
  Ga  Ga14  1  0.659144  0.656473  0.025238  1
  Ga  Ga15  1  0.658488  0.025638  0.657385  1
  Ga  Ga16  1  0.023582  0.657526  0.659488  1
  Ga  Ga17  1  0.659405  0.657526  0.659488  1
  Ga  Ga18  1  0.339712  0.340154  0.980424  1
  Ga  Ga19  1  0.340344  0.980067  0.339246  1
  Ga  Ga20  1  0.972207  0.342825  0.341207  1
  Ga  Ga21  1  0.343762  0.342825  0.341207  1
  Ir  Ir22  1  0.012545  0.986982  0.987929  1
  Ir  Ir23  1  0.998855  0.999183  0.506575  1
  Ir  Ir24  1  0.495387  0.999183  0.506575  1
  Ir  Ir25  1  0.999348  0.500702  0.500601  1
  Rh  Rh26  1  0.495930  0.505743  0.999422  1
  Rh  Rh27  1  0.998905  0.505743  0.999422  1
  Rh  Rh28  1  0.500877  0.999062  0.999184  1
