# generated using pymatgen
data_Dy3YEr2Ta2O14
_symmetry_space_group_name_H-M   'P 1'
_cell_length_a   6.48880855
_cell_length_b   6.48884565
_cell_length_c   7.45966901
_cell_angle_alpha   89.95389156
_cell_angle_beta   89.96515756
_cell_angle_gamma   108.52810895
_symmetry_Int_Tables_number   1
_chemical_formula_structural   Dy3YEr2Ta2O14
_chemical_formula_sum   'Dy3 Y1 Er2 Ta2 O14'
_cell_volume   297.80835527
_cell_formula_units_Z   1
loop_
 _symmetry_equiv_pos_site_id
 _symmetry_equiv_pos_as_xyz
  1  'x, y, z'
loop_
 _atom_site_type_symbol
 _atom_site_label
 _atom_site_symmetry_multiplicity
 _atom_site_fract_x
 _atom_site_fract_y
 _atom_site_fract_z
 _atom_site_occupancy
  Dy  Dy0  1  0.538242  0.537253  0.499202  1
  Dy  Dy1  1  0.000018  0.465074  0.741346  1
  Dy  Dy2  1  0.534919  0.000039  0.758742  1
  Y  Y3  1  0.463400  0.462448  0.000830  1
  Er  Er4  1  0.000689  0.535257  0.240948  1
  Er  Er5  1  0.464729  0.999377  0.258968  1
  Ta  Ta6  1  0.002372  0.002807  0.498851  1
  Ta  Ta7  1  0.997368  0.997790  0.001142  1
  O  O8  1  0.931989  0.068022  0.749974  1
  O  O9  1  0.639734  0.360438  0.749690  1
  O  O10  1  0.308533  0.050724  0.543172  1
  O  O11  1  0.949301  0.691492  0.956819  1
  O  O12  1  0.630480  0.369662  0.250286  1
  O  O13  1  0.917214  0.670996  0.522942  1
  O  O14  1  0.328656  0.081849  0.976986  1
  O  O15  1  0.081320  0.328383  0.026194  1
  O  O16  1  0.671290  0.917783  0.473875  1
  O  O17  1  0.370898  0.629235  0.749721  1
  O  O18  1  0.693010  0.953051  0.047332  1
  O  O19  1  0.046967  0.307012  0.452673  1
  O  O20  1  0.358219  0.641942  0.250281  1
  O  O21  1  0.070654  0.929364  0.250026  1
