# generated using pymatgen
data_YbTm3Pt2(RhO7)2
_symmetry_space_group_name_H-M   'P 1'
_cell_length_a   7.19991812
_cell_length_b   7.20168238
_cell_length_c   7.24135600
_cell_angle_alpha   59.81758864
_cell_angle_beta   59.80942280
_cell_angle_gamma   59.58532251
_symmetry_Int_Tables_number   1
_chemical_formula_structural   YbTm3Pt2(RhO7)2
_chemical_formula_sum   'Yb1 Tm3 Pt2 Rh2 O14'
_cell_volume   263.91528665
_cell_formula_units_Z   1
loop_
 _symmetry_equiv_pos_site_id
 _symmetry_equiv_pos_as_xyz
  1  'x, y, z'
loop_
 _atom_site_type_symbol
 _atom_site_label
 _atom_site_symmetry_multiplicity
 _atom_site_fract_x
 _atom_site_fract_y
 _atom_site_fract_z
 _atom_site_occupancy
  Yb  Yb0  1  0.125000  0.625000  0.625000  1
  Tm  Tm1  1  0.625000  0.625000  0.125000  1
  Tm  Tm2  1  0.625000  0.625000  0.625000  1
  Tm  Tm3  1  0.625000  0.125000  0.625000  1
  Pt  Pt4  1  0.625000  0.125000  0.125000  1
  Pt  Pt5  1  0.125000  0.625000  0.125000  1
  Rh  Rh6  1  0.125000  0.125000  0.125000  1
  Rh  Rh7  1  0.125000  0.125000  0.625000  1
  O  O8  1  0.033592  0.461296  0.462093  1
  O  O9  1  0.781628  0.782896  0.217739  1
  O  O10  1  0.785056  0.212568  0.215013  1
  O  O11  1  0.464944  0.037432  0.462637  1
  O  O12  1  0.035384  0.048512  0.458051  1
  O  O13  1  0.033592  0.461296  0.043018  1
  O  O14  1  0.738841  0.753239  0.753961  1
  O  O15  1  0.511159  0.496761  0.496039  1
  O  O16  1  0.785056  0.212568  0.787363  1
  O  O17  1  0.216408  0.788704  0.206982  1
  O  O18  1  0.214616  0.201488  0.791949  1
  O  O19  1  0.464944  0.037432  0.034987  1
  O  O20  1  0.468372  0.467104  0.032261  1
  O  O21  1  0.216408  0.788704  0.787907  1
