# generated using pymatgen
data_Er5ScCo5
_symmetry_space_group_name_H-M   'P 1'
_cell_length_a   5.58426193
_cell_length_b   5.58426293
_cell_length_c   20.91889500
_cell_angle_alpha   90.00000000
_cell_angle_beta   90.00000000
_cell_angle_gamma   138.42515010
_symmetry_Int_Tables_number   1
_chemical_formula_structural   Er5ScCo5
_chemical_formula_sum   'Er10 Sc2 Co10'
_cell_volume   432.88783667
_cell_formula_units_Z   2
loop_
 _symmetry_equiv_pos_site_id
 _symmetry_equiv_pos_as_xyz
  1  'x, y, z'
loop_
 _atom_site_type_symbol
 _atom_site_label
 _atom_site_symmetry_multiplicity
 _atom_site_fract_x
 _atom_site_fract_y
 _atom_site_fract_z
 _atom_site_occupancy
  Er  Er0  1  0.289710  0.710290  0.250000  1
  Er  Er1  1  0.291024  0.708976  0.071125  1
  Er  Er2  1  0.993338  0.006662  0.838130  1
  Er  Er3  1  0.710290  0.289710  0.750000  1
  Er  Er4  1  0.708976  0.291024  0.571125  1
  Er  Er5  1  0.006662  0.993338  0.338130  1
  Er  Er6  1  0.993338  0.006662  0.661870  1
  Er  Er7  1  0.708976  0.291024  0.928875  1
  Er  Er8  1  0.006662  0.993338  0.161870  1
  Er  Er9  1  0.291024  0.708976  0.428875  1
  Sc  Sc10  1  0.000000  0.000000  0.500000  1
  Sc  Sc11  1  0.000000  0.000000  0.000000  1
  Co  Co12  1  0.290574  0.709426  0.656776  1
  Co  Co13  1  0.587590  0.412410  0.436242  1
  Co  Co14  1  0.411845  0.588155  0.750000  1
  Co  Co15  1  0.412410  0.587590  0.936242  1
  Co  Co16  1  0.588155  0.411845  0.250000  1
  Co  Co17  1  0.412410  0.587590  0.563758  1
  Co  Co18  1  0.709426  0.290574  0.343224  1
  Co  Co19  1  0.709426  0.290574  0.156776  1
  Co  Co20  1  0.587590  0.412410  0.063758  1
  Co  Co21  1  0.290574  0.709426  0.843224  1
