# generated using pymatgen
data_V2Te3O11
_symmetry_space_group_name_H-M   'P 1'
_cell_length_a   6.77883367
_cell_length_b   7.93707908
_cell_length_c   10.87829222
_cell_angle_alpha   68.78601555
_cell_angle_beta   91.21578145
_cell_angle_gamma   78.66559067
_symmetry_Int_Tables_number   1
_chemical_formula_structural   V2Te3O11
_chemical_formula_sum   'V4 Te6 O22'
_cell_volume   532.25654556
_cell_formula_units_Z   2
loop_
 _symmetry_equiv_pos_site_id
 _symmetry_equiv_pos_as_xyz
  1  'x, y, z'
loop_
 _atom_site_type_symbol
 _atom_site_label
 _atom_site_symmetry_multiplicity
 _atom_site_fract_x
 _atom_site_fract_y
 _atom_site_fract_z
 _atom_site_occupancy
  V  V0  1  0.308873  0.296076  0.109037  1
  V  V1  1  0.691127  0.703924  0.890963  1
  V  V2  1  0.194919  0.715620  0.396501  1
  V  V3  1  0.805081  0.284380  0.603499  1
  Te  Te4  1  0.684596  0.776859  0.476438  1
  Te  Te5  1  0.315404  0.223141  0.523562  1
  Te  Te6  1  0.807551  0.333923  0.202998  1
  Te  Te7  1  0.192449  0.666077  0.797002  1
  Te  Te8  1  0.762950  0.950462  0.165064  1
  Te  Te9  1  0.237050  0.049538  0.834936  1
  O  O10  1  0.197934  0.422841  0.941727  1
  O  O11  1  0.802066  0.577159  0.058273  1
  O  O12  1  0.743573  0.035715  0.312564  1
  O  O13  1  0.256427  0.964285  0.687436  1
  O  O14  1  0.478071  0.402294  0.153274  1
  O  O15  1  0.521929  0.597706  0.846726  1
  O  O16  1  0.700176  0.721899  0.318270  1
  O  O17  1  0.299824  0.278101  0.681730  1
  O  O18  1  0.074689  0.837744  0.237360  1
  O  O19  1  0.925311  0.162256  0.762640  1
  O  O20  1  0.011021  0.700709  0.505037  1
  O  O21  1  0.988979  0.299291  0.494963  1
  O  O22  1  0.823807  0.212430  0.078480  1
  O  O23  1  0.176193  0.787570  0.921520  1
  O  O24  1  0.442869  0.081815  0.117621  1
  O  O25  1  0.557131  0.918185  0.882379  1
  O  O26  1  0.368132  0.828740  0.439706  1
  O  O27  1  0.631868  0.171260  0.560294  1
  O  O28  1  0.120128  0.277628  0.220974  1
  O  O29  1  0.879872  0.722372  0.779026  1
  O  O30  1  0.317419  0.487745  0.414437  1
  O  O31  1  0.682581  0.512255  0.585563  1
