# generated using pymatgen
data_TmSc2Ni9
_symmetry_space_group_name_H-M   'P 1'
_cell_length_a   4.85374530
_cell_length_b   4.85374571
_cell_length_c   8.40171799
_cell_angle_alpha   73.21062569
_cell_angle_beta   73.21062727
_cell_angle_gamma   59.99999536
_symmetry_Int_Tables_number   1
_chemical_formula_structural   TmSc2Ni9
_chemical_formula_sum   'Tm1 Sc2 Ni9'
_cell_volume   161.60052214
_cell_formula_units_Z   1
loop_
 _symmetry_equiv_pos_site_id
 _symmetry_equiv_pos_as_xyz
  1  'x, y, z'
loop_
 _atom_site_type_symbol
 _atom_site_label
 _atom_site_symmetry_multiplicity
 _atom_site_fract_x
 _atom_site_fract_y
 _atom_site_fract_z
 _atom_site_occupancy
  Tm  Tm0  1  0.000000  0.000000  0.000000  1
  Sc  Sc1  1  0.140647  0.140647  0.578060  1
  Sc  Sc2  1  0.859353  0.859353  0.421940  1
  Ni  Ni3  1  0.081263  0.585770  0.747198  1
  Ni  Ni4  1  0.585770  0.585770  0.747198  1
  Ni  Ni5  1  0.585770  0.081263  0.747198  1
  Ni  Ni6  1  0.918737  0.414230  0.252802  1
  Ni  Ni7  1  0.414230  0.414230  0.252802  1
  Ni  Ni8  1  0.414230  0.918737  0.252802  1
  Ni  Ni9  1  0.333529  0.333529  0.999414  1
  Ni  Ni10  1  0.666471  0.666471  0.000586  1
  Ni  Ni11  1  0.500000  0.500000  0.500000  1
