# generated using pymatgen
data_Tb3CdIr8
_symmetry_space_group_name_H-M   'P 1'
_cell_length_a   5.35126000
_cell_length_b   5.35125941
_cell_length_c   8.69676800
_cell_angle_alpha   90.00000000
_cell_angle_beta   90.00000000
_cell_angle_gamma   119.99999127
_symmetry_Int_Tables_number   1
_chemical_formula_structural   Tb3CdIr8
_chemical_formula_sum   'Tb3 Cd1 Ir8'
_cell_volume   215.67539976
_cell_formula_units_Z   1
loop_
 _symmetry_equiv_pos_site_id
 _symmetry_equiv_pos_as_xyz
  1  'x, y, z'
loop_
 _atom_site_type_symbol
 _atom_site_label
 _atom_site_symmetry_multiplicity
 _atom_site_fract_x
 _atom_site_fract_y
 _atom_site_fract_z
 _atom_site_occupancy
  Tb  Tb0  1  0.333333  0.666667  0.081629  1
  Tb  Tb1  1  0.666667  0.333333  0.557087  1
  Tb  Tb2  1  0.666667  0.333333  0.929228  1
  Cd  Cd3  1  0.333333  0.666667  0.442961  1
  Ir  Ir4  1  0.000000  0.000000  0.996476  1
  Ir  Ir5  1  0.000000  0.000000  0.497195  1
  Ir  Ir6  1  0.830657  0.661314  0.248918  1
  Ir  Ir7  1  0.170325  0.829675  0.749556  1
  Ir  Ir8  1  0.659351  0.829675  0.749556  1
  Ir  Ir9  1  0.338686  0.169343  0.248918  1
  Ir  Ir10  1  0.830657  0.169343  0.248918  1
  Ir  Ir11  1  0.170325  0.340649  0.749556  1
