# generated using pymatgen
data_Th3SnGe2Rh3
_symmetry_space_group_name_H-M   'P 1'
_cell_length_a   7.40522485
_cell_length_b   7.43843107
_cell_length_c   4.04071800
_cell_angle_alpha   90.00000000
_cell_angle_beta   90.00000000
_cell_angle_gamma   120.14845042
_symmetry_Int_Tables_number   1
_chemical_formula_structural   Th3SnGe2Rh3
_chemical_formula_sum   'Th3 Sn1 Ge2 Rh3'
_cell_volume   192.46739430
_cell_formula_units_Z   1
loop_
 _symmetry_equiv_pos_site_id
 _symmetry_equiv_pos_as_xyz
  1  'x, y, z'
loop_
 _atom_site_type_symbol
 _atom_site_label
 _atom_site_symmetry_multiplicity
 _atom_site_fract_x
 _atom_site_fract_y
 _atom_site_fract_z
 _atom_site_occupancy
  Th  Th0  1  0.421103  0.415218  0.500000  1
  Th  Th1  1  0.578897  0.994115  0.500000  1
  Th  Th2  1  0.000000  0.597243  0.500000  1
  Sn  Sn3  1  0.000000  0.246262  0.000000  1
  Ge  Ge4  1  0.749014  0.751411  0.000000  1
  Ge  Ge5  1  0.250986  0.002397  0.000000  1
  Rh  Rh6  1  0.661898  0.334674  0.000000  1
  Rh  Rh7  1  0.338102  0.672777  0.000000  1
  Rh  Rh8  1  0.000000  0.985903  0.500000  1
