# generated using pymatgen
data_LiPr5NdCo17P12
_symmetry_space_group_name_H-M   'P 1'
_cell_length_a   3.79265100
_cell_length_b   10.71238200
_cell_length_c   12.44680216
_cell_angle_alpha   89.95044083
_cell_angle_beta   90.00000000
_cell_angle_gamma   90.00000000
_symmetry_Int_Tables_number   1
_chemical_formula_structural   LiPr5NdCo17P12
_chemical_formula_sum   'Li1 Pr5 Nd1 Co17 P12'
_cell_volume   505.69255068
_cell_formula_units_Z   1
loop_
 _symmetry_equiv_pos_site_id
 _symmetry_equiv_pos_as_xyz
  1  'x, y, z'
loop_
 _atom_site_type_symbol
 _atom_site_label
 _atom_site_symmetry_multiplicity
 _atom_site_fract_x
 _atom_site_fract_y
 _atom_site_fract_z
 _atom_site_occupancy
  Li  Li0  1  0.500000  0.500004  0.148866  1
  Pr  Pr1  1  0.000000  0.500052  0.522379  1
  Pr  Pr2  1  0.500000  0.999935  0.479663  1
  Pr  Pr3  1  0.500000  0.818147  0.207002  1
  Pr  Pr4  1  0.500000  0.181799  0.206626  1
  Pr  Pr5  1  0.000000  0.317532  0.794097  1
  Nd  Nd6  1  0.000000  0.683040  0.794322  1
  Co  Co7  1  0.000000  0.999701  0.842367  1
  Co  Co8  1  0.500000  0.500875  0.706089  1
  Co  Co9  1  0.000000  0.999909  0.294431  1
  Co  Co10  1  0.000000  0.500403  0.986355  1
  Co  Co11  1  0.500000  0.999695  0.010587  1
  Co  Co12  1  0.500000  0.331098  0.995141  1
  Co  Co13  1  0.500000  0.669349  0.995035  1
  Co  Co14  1  0.000000  0.164188  0.001545  1
  Co  Co15  1  0.000000  0.835607  0.001453  1
  Co  Co16  1  0.500000  0.296247  0.431939  1
  Co  Co17  1  0.500000  0.703795  0.432527  1
  Co  Co18  1  0.000000  0.201869  0.571094  1
  Co  Co19  1  0.000000  0.797879  0.571782  1
  Co  Co20  1  0.500000  0.881976  0.711317  1
  Co  Co21  1  0.500000  0.117387  0.710906  1
  Co  Co22  1  0.000000  0.619821  0.293940  1
  Co  Co23  1  0.000000  0.380122  0.293643  1
  P  P24  1  0.500000  0.500735  0.887964  1
  P  P25  1  0.000000  0.999863  0.112131  1
  P  P26  1  0.500000  0.499907  0.340637  1
  P  P27  1  0.000000  0.999877  0.661518  1
  P  P28  1  0.500000  0.303909  0.614356  1
  P  P29  1  0.500000  0.695803  0.615405  1
  P  P30  1  0.000000  0.195239  0.387793  1
  P  P31  1  0.000000  0.804523  0.388229  1
  P  P32  1  0.500000  0.849123  0.893991  1
  P  P33  1  0.500000  0.150385  0.894295  1
  P  P34  1  0.000000  0.656336  0.100453  1
  P  P35  1  0.000000  0.343870  0.100129  1
