# generated using pymatgen
data_NdDySe2
_symmetry_space_group_name_H-M   'P 1'
_cell_length_a   7.27280324
_cell_length_b   7.27280330
_cell_length_c   7.27280309
_cell_angle_alpha   32.96468145
_cell_angle_beta   32.96468412
_cell_angle_gamma   32.96468221
_symmetry_Int_Tables_number   1
_chemical_formula_structural   NdDySe2
_chemical_formula_sum   'Nd1 Dy1 Se2'
_cell_volume   101.34938969
_cell_formula_units_Z   1
loop_
 _symmetry_equiv_pos_site_id
 _symmetry_equiv_pos_as_xyz
  1  'x, y, z'
loop_
 _atom_site_type_symbol
 _atom_site_label
 _atom_site_symmetry_multiplicity
 _atom_site_fract_x
 _atom_site_fract_y
 _atom_site_fract_z
 _atom_site_occupancy
  Nd  Nd0  1  0.500000  0.500000  0.500000  1
  Dy  Dy1  1  0.000000  0.000000  0.000000  1
  Se  Se2  1  0.745436  0.745436  0.745436  1
  Se  Se3  1  0.254564  0.254564  0.254564  1
