# generated using pymatgen
data_Th3HgPd11Pt
_symmetry_space_group_name_H-M   'P 1'
_cell_length_a   5.89495400
_cell_length_b   5.89237041
_cell_length_c   9.71697400
_cell_angle_alpha   90.00000000
_cell_angle_beta   90.00000000
_cell_angle_gamma   120.01449411
_symmetry_Int_Tables_number   1
_chemical_formula_structural   Th3HgPd11Pt
_chemical_formula_sum   'Th3 Hg1 Pd11 Pt1'
_cell_volume   292.25953183
_cell_formula_units_Z   1
loop_
 _symmetry_equiv_pos_site_id
 _symmetry_equiv_pos_as_xyz
  1  'x, y, z'
loop_
 _atom_site_type_symbol
 _atom_site_label
 _atom_site_symmetry_multiplicity
 _atom_site_fract_x
 _atom_site_fract_y
 _atom_site_fract_z
 _atom_site_occupancy
  Th  Th0  1  0.000167  0.000334  0.493219  1
  Th  Th1  1  0.000167  0.000334  0.006781  1
  Th  Th2  1  0.666488  0.332975  0.750000  1
  Hg  Hg3  1  0.333329  0.666658  0.250000  1
  Pd  Pd4  1  0.499781  0.500498  0.499154  1
  Pd  Pd5  1  0.499627  0.999255  0.499021  1
  Pd  Pd6  1  0.000717  0.500498  0.499154  1
  Pd  Pd7  1  0.499781  0.500498  0.000846  1
  Pd  Pd8  1  0.499627  0.999255  0.000979  1
  Pd  Pd9  1  0.000717  0.500498  0.000846  1
  Pd  Pd10  1  0.825364  0.650729  0.250000  1
  Pd  Pd11  1  0.348944  0.174496  0.250000  1
  Pd  Pd12  1  0.825551  0.174496  0.250000  1
  Pd  Pd13  1  0.654903  0.827482  0.750000  1
  Pd  Pd14  1  0.172578  0.827482  0.750000  1
  Pt  Pt15  1  0.172256  0.344512  0.750000  1
