# generated using pymatgen
data_Pr6Ga5GeRh12
_symmetry_space_group_name_H-M   'P 1'
_cell_length_a   5.67726200
_cell_length_b   5.67726053
_cell_length_c   15.83576000
_cell_angle_alpha   90.00000000
_cell_angle_beta   90.00000000
_cell_angle_gamma   119.99999689
_symmetry_Int_Tables_number   1
_chemical_formula_structural   Pr6Ga5GeRh12
_chemical_formula_sum   'Pr6 Ga5 Ge1 Rh12'
_cell_volume   442.02549398
_cell_formula_units_Z   1
loop_
 _symmetry_equiv_pos_site_id
 _symmetry_equiv_pos_as_xyz
  1  'x, y, z'
loop_
 _atom_site_type_symbol
 _atom_site_label
 _atom_site_symmetry_multiplicity
 _atom_site_fract_x
 _atom_site_fract_y
 _atom_site_fract_z
 _atom_site_occupancy
  Pr  Pr0  1  0.666667  0.333333  0.959349  1
  Pr  Pr1  1  0.666667  0.333333  0.540651  1
  Pr  Pr2  1  0.333333  0.666667  0.039615  1
  Pr  Pr3  1  0.666667  0.333333  0.750000  1
  Pr  Pr4  1  0.333333  0.666667  0.460385  1
  Pr  Pr5  1  0.333333  0.666667  0.250000  1
  Ga  Ga6  1  0.666667  0.333333  0.250000  1
  Ga  Ga7  1  0.000000  0.000000  0.500054  1
  Ga  Ga8  1  0.000000  0.000000  0.250000  1
  Ga  Ga9  1  0.000000  0.000000  0.750000  1
  Ga  Ga10  1  0.000000  0.000000  0.999946  1
  Ge  Ge11  1  0.333333  0.666667  0.750000  1
  Rh  Rh12  1  0.167787  0.335575  0.870717  1
  Rh  Rh13  1  0.167787  0.335575  0.629283  1
  Rh  Rh14  1  0.664425  0.832213  0.870717  1
  Rh  Rh15  1  0.335956  0.167977  0.372280  1
  Rh  Rh16  1  0.832023  0.664044  0.372280  1
  Rh  Rh17  1  0.832023  0.167977  0.372280  1
  Rh  Rh18  1  0.832023  0.167977  0.127720  1
  Rh  Rh19  1  0.335956  0.167977  0.127720  1
  Rh  Rh20  1  0.664425  0.832213  0.629283  1
  Rh  Rh21  1  0.167787  0.832213  0.629283  1
  Rh  Rh22  1  0.832023  0.664044  0.127720  1
  Rh  Rh23  1  0.167787  0.832213  0.870717  1
