# generated using pymatgen
data_Ca3Th(Sn5Pd3)2
_symmetry_space_group_name_H-M   'P 1'
_cell_length_a   13.73654016
_cell_length_b   13.73654079
_cell_length_c   7.47958400
_cell_angle_alpha   89.97645860
_cell_angle_beta   90.02354140
_cell_angle_gamma   161.15501129
_symmetry_Int_Tables_number   1
_chemical_formula_structural   Ca3Th(Sn5Pd3)2
_chemical_formula_sum   'Ca3 Th1 Sn10 Pd6'
_cell_volume   455.87590990
_cell_formula_units_Z   1
loop_
 _symmetry_equiv_pos_site_id
 _symmetry_equiv_pos_as_xyz
  1  'x, y, z'
loop_
 _atom_site_type_symbol
 _atom_site_label
 _atom_site_symmetry_multiplicity
 _atom_site_fract_x
 _atom_site_fract_y
 _atom_site_fract_z
 _atom_site_occupancy
  Ca  Ca0  1  0.173999  0.826001  0.757783  1
  Ca  Ca1  1  0.825703  0.174297  0.255227  1
  Ca  Ca2  1  0.476684  0.523316  0.733552  1
  Th  Th3  1  0.522646  0.477354  0.233583  1
  Sn  Sn4  1  0.880732  0.119268  0.732119  1
  Sn  Sn5  1  0.120008  0.879992  0.229766  1
  Sn  Sn6  1  0.704105  0.295895  0.053153  1
  Sn  Sn7  1  0.296815  0.703185  0.553870  1
  Sn  Sn8  1  0.598508  0.401492  0.610458  1
  Sn  Sn9  1  0.401773  0.598227  0.109707  1
  Sn  Sn10  1  0.951392  0.048608  0.400102  1
  Sn  Sn11  1  0.047104  0.952896  0.895693  1
  Sn  Sn12  1  0.290301  0.709699  0.977426  1
  Sn  Sn13  1  0.709774  0.290226  0.480131  1
  Pd  Pd14  1  0.050343  0.949657  0.515829  1
  Pd  Pd15  1  0.950548  0.049452  0.017263  1
  Pd  Pd16  1  0.777464  0.222536  0.770500  1
  Pd  Pd17  1  0.222308  0.777692  0.272827  1
  Pd  Pd18  1  0.394992  0.605008  0.475373  1
  Pd  Pd19  1  0.604799  0.395201  0.981634  1
