# generated using pymatgen
data_Mg2ScSiP2Ir3
_symmetry_space_group_name_H-M   'P 1'
_cell_length_a   6.45775000
_cell_length_b   6.42236265
_cell_length_c   3.80418100
_cell_angle_alpha   90.00000000
_cell_angle_beta   90.00000000
_cell_angle_gamma   120.18245866
_symmetry_Int_Tables_number   1
_chemical_formula_structural   Mg2ScSiP2Ir3
_chemical_formula_sum   'Mg2 Sc1 Si1 P2 Ir3'
_cell_volume   136.38494549
_cell_formula_units_Z   1
loop_
 _symmetry_equiv_pos_site_id
 _symmetry_equiv_pos_as_xyz
  1  'x, y, z'
loop_
 _atom_site_type_symbol
 _atom_site_label
 _atom_site_symmetry_multiplicity
 _atom_site_fract_x
 _atom_site_fract_y
 _atom_site_fract_z
 _atom_site_occupancy
  Mg  Mg0  1  0.999806  0.420238  0.500000  1
  Mg  Mg1  1  0.579568  0.579762  0.500000  1
  Sc  Sc2  1  0.420283  0.000000  0.500000  1
  Si  Si3  1  0.995492  0.000000  0.500000  1
  P  P4  1  0.667840  0.335056  0.000000  1
  P  P5  1  0.332783  0.664944  0.000000  1
  Ir  Ir6  1  0.002114  0.751427  0.000000  1
  Ir  Ir7  1  0.250687  0.248573  0.000000  1
  Ir  Ir8  1  0.751427  0.000000  0.000000  1
