# generated using pymatgen
data_LaTm2Ni2Rh7
_symmetry_space_group_name_H-M   'P 1'
_cell_length_a   5.29643342
_cell_length_b   5.29643437
_cell_length_c   8.95866796
_cell_angle_alpha   72.80625099
_cell_angle_beta   72.80624490
_cell_angle_gamma   59.99999776
_symmetry_Int_Tables_number   1
_chemical_formula_structural   LaTm2Ni2Rh7
_chemical_formula_sum   'La1 Tm2 Ni2 Rh7'
_cell_volume   204.57015392
_cell_formula_units_Z   1
loop_
 _symmetry_equiv_pos_site_id
 _symmetry_equiv_pos_as_xyz
  1  'x, y, z'
loop_
 _atom_site_type_symbol
 _atom_site_label
 _atom_site_symmetry_multiplicity
 _atom_site_fract_x
 _atom_site_fract_y
 _atom_site_fract_z
 _atom_site_occupancy
  La  La0  1  0.000000  0.000000  0.000000  1
  Tm  Tm1  1  0.140148  0.140148  0.579558  1
  Tm  Tm2  1  0.859852  0.859852  0.420442  1
  Ni  Ni3  1  0.333326  0.333326  0.000022  1
  Ni  Ni4  1  0.666674  0.666674  0.999978  1
  Rh  Rh5  1  0.078828  0.582542  0.756086  1
  Rh  Rh6  1  0.582542  0.582542  0.756086  1
  Rh  Rh7  1  0.582542  0.078828  0.756086  1
  Rh  Rh8  1  0.921172  0.417458  0.243914  1
  Rh  Rh9  1  0.417458  0.417458  0.243914  1
  Rh  Rh10  1  0.417458  0.921172  0.243914  1
  Rh  Rh11  1  0.500000  0.500000  0.500000  1
