# generated using pymatgen
data_Zr6ZnP5Ru6
_symmetry_space_group_name_H-M   'P 1'
_cell_length_a   7.56034951
_cell_length_b   7.56970571
_cell_length_c   7.56035043
_cell_angle_alpha   128.78169443
_cell_angle_beta   119.61475140
_cell_angle_gamma   83.04176837
_symmetry_Int_Tables_number   1
_chemical_formula_structural   Zr6ZnP5Ru6
_chemical_formula_sum   'Zr6 Zn1 P5 Ru6'
_cell_volume   281.67121975
_cell_formula_units_Z   1
loop_
 _symmetry_equiv_pos_site_id
 _symmetry_equiv_pos_as_xyz
  1  'x, y, z'
loop_
 _atom_site_type_symbol
 _atom_site_label
 _atom_site_symmetry_multiplicity
 _atom_site_fract_x
 _atom_site_fract_y
 _atom_site_fract_z
 _atom_site_occupancy
  Zr  Zr0  1  0.452297  0.660111  0.707814  1
  Zr  Zr1  1  0.529246  0.251391  0.222145  1
  Zr  Zr2  1  0.749403  0.831766  0.582363  1
  Zr  Zr3  1  0.249565  0.829600  0.080034  1
  Zr  Zr4  1  0.052118  0.253414  0.701297  1
  Zr  Zr5  1  0.966567  0.685392  0.218824  1
  Zn  Zn6  1  0.255721  0.235693  0.479973  1
  P  P7  1  0.746440  0.276261  0.029821  1
  P  P8  1  0.332808  0.587157  0.253244  1
  P  P9  1  0.667841  0.920430  0.255302  1
  P  P10  1  0.165128  0.920430  0.752589  1
  P  P11  1  0.833913  0.587157  0.754349  1
  Ru  Ru12  1  0.500285  0.501411  0.002332  1
  Ru  Ru13  1  0.999080  0.501411  0.501128  1
  Ru  Ru14  1  0.090285  0.254063  0.094250  1
  Ru  Ru15  1  0.849957  0.004925  0.105393  1
  Ru  Ru16  1  0.399532  0.004925  0.654969  1
  Ru  Ru17  1  0.659813  0.254063  0.663778  1
