# generated using pymatgen
data_Tb4Hf3O12
_symmetry_space_group_name_H-M   'P 1'
_cell_length_a   6.38608253
_cell_length_b   6.47944255
_cell_length_c   12.84147964
_cell_angle_alpha   99.16106977
_cell_angle_beta   99.30886100
_cell_angle_gamma   99.24291254
_symmetry_Int_Tables_number   1
_chemical_formula_structural   Tb4Hf3O12
_chemical_formula_sum   'Tb8 Hf6 O24'
_cell_volume   508.11134749
_cell_formula_units_Z   2
loop_
 _symmetry_equiv_pos_site_id
 _symmetry_equiv_pos_as_xyz
  1  'x, y, z'
loop_
 _atom_site_type_symbol
 _atom_site_label
 _atom_site_symmetry_multiplicity
 _atom_site_fract_x
 _atom_site_fract_y
 _atom_site_fract_z
 _atom_site_occupancy
  Tb  Tb0  1  0.294786  0.610599  0.818279  1
  Tb  Tb1  1  0.385646  0.865996  0.597888  1
  Tb  Tb2  1  0.858400  0.696236  0.947856  1
  Tb  Tb3  1  0.309270  0.612460  0.318193  1
  Tb  Tb4  1  0.141600  0.303764  0.052144  1
  Tb  Tb5  1  0.705214  0.389401  0.181721  1
  Tb  Tb6  1  0.690730  0.387540  0.681807  1
  Tb  Tb7  1  0.614354  0.134004  0.402112  1
  Hf  Hf8  1  0.008700  0.006858  0.254154  1
  Hf  Hf9  1  0.393055  0.856286  0.093467  1
  Hf  Hf10  1  0.991300  0.993142  0.745846  1
  Hf  Hf11  1  0.853078  0.670650  0.447878  1
  Hf  Hf12  1  0.146922  0.329350  0.552122  1
  Hf  Hf13  1  0.606945  0.143714  0.906533  1
  O  O14  1  0.315607  0.968935  0.796289  1
  O  O15  1  0.080455  0.924287  0.096630  1
  O  O16  1  0.318509  0.947477  0.285563  1
  O  O17  1  0.023165  0.882971  0.589750  1
  O  O18  1  0.563441  0.834378  0.962720  1
  O  O19  1  0.592814  0.817074  0.462327  1
  O  O20  1  0.188014  0.599007  0.972934  1
  O  O21  1  0.928659  0.684816  0.778364  1
  O  O22  1  0.429702  0.588257  0.157319  1
  O  O23  1  0.169924  0.575849  0.466153  1
  O  O24  1  0.927268  0.701841  0.295535  1
  O  O25  1  0.570298  0.411743  0.842681  1
  O  O26  1  0.402380  0.562943  0.656347  1
  O  O27  1  0.071341  0.315184  0.221636  1
  O  O28  1  0.811986  0.400993  0.027066  1
  O  O29  1  0.597620  0.437057  0.343653  1
  O  O30  1  0.072732  0.298159  0.704465  1
  O  O31  1  0.830076  0.424151  0.533847  1
  O  O32  1  0.436559  0.165622  0.037280  1
  O  O33  1  0.407186  0.182926  0.537673  1
  O  O34  1  0.919545  0.075713  0.903370  1
  O  O35  1  0.684393  0.031065  0.203711  1
  O  O36  1  0.976835  0.117029  0.410250  1
  O  O37  1  0.681491  0.052523  0.714437  1
