# generated using pymatgen
data_Ac3Ge5
_symmetry_space_group_name_H-M   'P 1'
_cell_length_a   12.03055659
_cell_length_b   10.01384071
_cell_length_c   8.03931215
_cell_angle_alpha   82.80233208
_cell_angle_beta   55.67048797
_cell_angle_gamma   41.52717508
_symmetry_Int_Tables_number   1
_chemical_formula_structural   Ac3Ge5
_chemical_formula_sum   'Ac6 Ge10'
_cell_volume   445.50862736
_cell_formula_units_Z   2
loop_
 _symmetry_equiv_pos_site_id
 _symmetry_equiv_pos_as_xyz
  1  'x, y, z'
loop_
 _atom_site_type_symbol
 _atom_site_label
 _atom_site_symmetry_multiplicity
 _atom_site_fract_x
 _atom_site_fract_y
 _atom_site_fract_z
 _atom_site_occupancy
  Ac  Ac0  1  0.478136  0.356909  0.136855  1
  Ac  Ac1  1  0.136855  0.028099  0.478136  1
  Ac  Ac2  1  0.893091  0.771864  0.221901  1
  Ac  Ac3  1  0.221901  0.113145  0.893091  1
  Ac  Ac4  1  0.552958  0.447042  0.552958  1
  Ac  Ac5  1  0.802958  0.697042  0.802958  1
  Ge  Ge6  1  0.465553  0.209142  0.810633  1
  Ge  Ge7  1  0.810633  0.514673  0.465553  1
  Ge  Ge8  1  0.040858  0.784447  0.735327  1
  Ge  Ge9  1  0.735327  0.439367  0.040858  1
  Ge  Ge10  1  0.612125  0.739851  0.321370  1
  Ge  Ge11  1  0.321370  0.326654  0.612125  1
  Ge  Ge12  1  0.510149  0.637875  0.923346  1
  Ge  Ge13  1  0.923346  0.928630  0.510149  1
  Ge  Ge14  1  0.980870  0.019130  0.980870  1
  Ge  Ge15  1  0.230870  0.269130  0.230870  1
