# generated using pymatgen
data_DyLu4(In2Ir)2
_symmetry_space_group_name_H-M   'P 1'
_cell_length_a   3.53675500
_cell_length_b   7.98654300
_cell_length_c   18.14421000
_cell_angle_alpha   90.00000000
_cell_angle_beta   90.00000000
_cell_angle_gamma   90.00000000
_symmetry_Int_Tables_number   1
_chemical_formula_structural   DyLu4(In2Ir)2
_chemical_formula_sum   'Dy2 Lu8 In8 Ir4'
_cell_volume   512.50944594
_cell_formula_units_Z   2
loop_
 _symmetry_equiv_pos_site_id
 _symmetry_equiv_pos_as_xyz
  1  'x, y, z'
loop_
 _atom_site_type_symbol
 _atom_site_label
 _atom_site_symmetry_multiplicity
 _atom_site_fract_x
 _atom_site_fract_y
 _atom_site_fract_z
 _atom_site_occupancy
  Dy  Dy0  1  0.000000  0.500000  0.000000  1
  Dy  Dy1  1  0.000000  0.000000  0.500000  1
  Lu  Lu2  1  0.000000  0.883167  0.087505  1
  Lu  Lu3  1  0.000000  0.755551  0.278871  1
  Lu  Lu4  1  0.000000  0.744449  0.778871  1
  Lu  Lu5  1  0.000000  0.383167  0.412495  1
  Lu  Lu6  1  0.000000  0.116833  0.912495  1
  Lu  Lu7  1  0.000000  0.244449  0.721129  1
  Lu  Lu8  1  0.000000  0.255551  0.221129  1
  Lu  Lu9  1  0.000000  0.616833  0.587505  1
  In  In10  1  0.500000  0.204974  0.066847  1
  In  In11  1  0.500000  0.426400  0.850374  1
  In  In12  1  0.500000  0.573600  0.149626  1
  In  In13  1  0.500000  0.073600  0.350374  1
  In  In14  1  0.500000  0.926400  0.649626  1
  In  In15  1  0.500000  0.795026  0.933153  1
  In  In16  1  0.500000  0.704974  0.433153  1
  In  In17  1  0.500000  0.295026  0.566847  1
  Ir  Ir18  1  0.500000  0.976245  0.196401  1
  Ir  Ir19  1  0.500000  0.023755  0.803599  1
  Ir  Ir20  1  0.500000  0.523755  0.696401  1
  Ir  Ir21  1  0.500000  0.476245  0.303599  1
