# generated using pymatgen
data_TbZnGa2Cu
_symmetry_space_group_name_H-M   'P 1'
_cell_length_a   4.12659100
_cell_length_b   4.12659100
_cell_length_c   10.54167300
_cell_angle_alpha   90.00000000
_cell_angle_beta   90.00000000
_cell_angle_gamma   90.00000000
_symmetry_Int_Tables_number   1
_chemical_formula_structural   TbZnGa2Cu
_chemical_formula_sum   'Tb2 Zn2 Ga4 Cu2'
_cell_volume   179.51154869
_cell_formula_units_Z   2
loop_
 _symmetry_equiv_pos_site_id
 _symmetry_equiv_pos_as_xyz
  1  'x, y, z'
loop_
 _atom_site_type_symbol
 _atom_site_label
 _atom_site_symmetry_multiplicity
 _atom_site_fract_x
 _atom_site_fract_y
 _atom_site_fract_z
 _atom_site_occupancy
  Tb  Tb0  1  0.000000  0.500000  0.257722  1
  Tb  Tb1  1  0.500000  0.000000  0.742278  1
  Zn  Zn2  1  0.000000  0.000000  0.000000  1
  Zn  Zn3  1  0.500000  0.500000  0.000000  1
  Ga  Ga4  1  0.000000  0.000000  0.500000  1
  Ga  Ga5  1  0.500000  0.500000  0.500000  1
  Ga  Ga6  1  0.000000  0.500000  0.854453  1
  Ga  Ga7  1  0.500000  0.000000  0.145547  1
  Cu  Cu8  1  0.000000  0.500000  0.629963  1
  Cu  Cu9  1  0.500000  0.000000  0.370037  1
