# generated using pymatgen
data_Pm2MgPtO6
_symmetry_space_group_name_H-M   'P 1'
_cell_length_a   5.47266048
_cell_length_b   5.47265879
_cell_length_c   5.47266051
_cell_angle_alpha   62.58752371
_cell_angle_beta   62.58752322
_cell_angle_gamma   62.58752842
_symmetry_Int_Tables_number   1
_chemical_formula_structural   Pm2MgPtO6
_chemical_formula_sum   'Pm2 Mg1 Pt1 O6'
_cell_volume   122.57796486
_cell_formula_units_Z   1
loop_
 _symmetry_equiv_pos_site_id
 _symmetry_equiv_pos_as_xyz
  1  'x, y, z'
loop_
 _atom_site_type_symbol
 _atom_site_label
 _atom_site_symmetry_multiplicity
 _atom_site_fract_x
 _atom_site_fract_y
 _atom_site_fract_z
 _atom_site_occupancy
  Pm  Pm0  1  0.249373  0.249373  0.249373  1
  Pm  Pm1  1  0.750627  0.750627  0.750626  1
  Mg  Mg2  1  0.500000  0.500000  0.500000  1
  Pt  Pt3  1  0.000000  0.000000  0.000000  1
  O  O4  1  0.750455  0.341764  0.156128  1
  O  O5  1  0.658235  0.843871  0.249545  1
  O  O6  1  0.156128  0.750455  0.341765  1
  O  O7  1  0.843872  0.249545  0.658235  1
  O  O8  1  0.341763  0.156128  0.750457  1
  O  O9  1  0.249544  0.658236  0.843871  1
