# generated using pymatgen
data_Ba3Sc2Br2O5
_symmetry_space_group_name_H-M   'P 1'
_cell_length_a   4.25464518
_cell_length_b   4.25472519
_cell_length_c   14.19005287
_cell_angle_alpha   98.63050210
_cell_angle_beta   98.63041359
_cell_angle_gamma   89.99710229
_symmetry_Int_Tables_number   1
_chemical_formula_structural   Ba3Sc2Br2O5
_chemical_formula_sum   'Ba3 Sc2 Br2 O5'
_cell_volume   251.02256536
_cell_formula_units_Z   1
loop_
 _symmetry_equiv_pos_site_id
 _symmetry_equiv_pos_as_xyz
  1  'x, y, z'
loop_
 _atom_site_type_symbol
 _atom_site_label
 _atom_site_symmetry_multiplicity
 _atom_site_fract_x
 _atom_site_fract_y
 _atom_site_fract_z
 _atom_site_occupancy
  Ba  Ba0  1  0.856898  0.856903  0.713845  1
  Ba  Ba1  1  0.143101  0.143105  0.286156  1
  Ba  Ba2  1  0.999995  0.000005  0.000000  1
  Sc  Sc3  1  0.428474  0.428545  0.857023  1
  Sc  Sc4  1  0.571528  0.571417  0.142977  1
  Br  Br5  1  0.306458  0.306462  0.613497  1
  Br  Br6  1  0.693545  0.693548  0.386504  1
  O  O7  1  0.080959  0.580951  0.161962  1
  O  O8  1  0.919042  0.419054  0.838037  1
  O  O9  1  0.419048  0.919050  0.838034  1
  O  O10  1  0.499999  0.500003  0.999998  1
  O  O11  1  0.580951  0.080957  0.161965  1
