# generated using pymatgen
data_CeMnSe2O
_symmetry_space_group_name_H-M   'P 1'
_cell_length_a   3.89828200
_cell_length_b   3.89828200
_cell_length_c   13.30071200
_cell_angle_alpha   90.00000000
_cell_angle_beta   90.00000000
_cell_angle_gamma   90.00000000
_symmetry_Int_Tables_number   1
_chemical_formula_structural   CeMnSe2O
_chemical_formula_sum   'Ce2 Mn2 Se4 O2'
_cell_volume   202.12563392
_cell_formula_units_Z   2
loop_
 _symmetry_equiv_pos_site_id
 _symmetry_equiv_pos_as_xyz
  1  'x, y, z'
loop_
 _atom_site_type_symbol
 _atom_site_label
 _atom_site_symmetry_multiplicity
 _atom_site_fract_x
 _atom_site_fract_y
 _atom_site_fract_z
 _atom_site_occupancy
  Ce  Ce0  1  0.500000  0.000000  0.403388  1
  Ce  Ce1  1  0.000000  0.500000  0.596612  1
  Mn  Mn2  1  0.000000  0.500000  0.099778  1
  Mn  Mn3  1  0.500000  0.000000  0.900222  1
  Se  Se4  1  0.500000  0.000000  0.101370  1
  Se  Se5  1  0.000000  0.500000  0.298519  1
  Se  Se6  1  0.500000  0.000000  0.701481  1
  Se  Se7  1  0.000000  0.500000  0.898630  1
  O  O8  1  0.000000  0.000000  0.500000  1
  O  O9  1  0.500000  0.500000  0.500000  1
