# generated using pymatgen
data_ThMgCdCu9
_symmetry_space_group_name_H-M   'P 1'
_cell_length_a   5.08822202
_cell_length_b   5.08716575
_cell_length_c   16.02133900
_cell_angle_alpha   90.00000000
_cell_angle_beta   90.00000000
_cell_angle_gamma   119.99574982
_symmetry_Int_Tables_number   1
_chemical_formula_structural   ThMgCdCu9
_chemical_formula_sum   'Th2 Mg2 Cd2 Cu18'
_cell_volume   359.16166880
_cell_formula_units_Z   2
loop_
 _symmetry_equiv_pos_site_id
 _symmetry_equiv_pos_as_xyz
  1  'x, y, z'
loop_
 _atom_site_type_symbol
 _atom_site_label
 _atom_site_symmetry_multiplicity
 _atom_site_fract_x
 _atom_site_fract_y
 _atom_site_fract_z
 _atom_site_occupancy
  Th  Th0  1  0.666679  0.333346  0.251471  1
  Th  Th1  1  0.333321  0.666654  0.751471  1
  Mg  Mg2  1  0.666680  0.333351  0.030573  1
  Mg  Mg3  1  0.333320  0.666649  0.530573  1
  Cd  Cd4  1  0.666653  0.333327  0.467681  1
  Cd  Cd5  1  0.333347  0.666673  0.967681  1
  Cu  Cu6  1  0.333245  0.666623  0.249991  1
  Cu  Cu7  1  0.666755  0.333377  0.749991  1
  Cu  Cu8  1  0.167918  0.832105  0.377156  1
  Cu  Cu9  1  0.167909  0.335810  0.377159  1
  Cu  Cu10  1  0.999909  0.999950  0.749662  1
  Cu  Cu11  1  0.000091  0.000050  0.249662  1
  Cu  Cu12  1  0.000000  0.999998  0.000402  1
  Cu  Cu13  1  0.000000  0.000002  0.500402  1
  Cu  Cu14  1  0.167735  0.335428  0.122924  1
  Cu  Cu15  1  0.832245  0.167687  0.622927  1
  Cu  Cu16  1  0.335478  0.167735  0.622899  1
  Cu  Cu17  1  0.664522  0.832265  0.122899  1
  Cu  Cu18  1  0.167755  0.832313  0.122927  1
  Cu  Cu19  1  0.832091  0.664190  0.877159  1
  Cu  Cu20  1  0.832082  0.167895  0.877156  1
  Cu  Cu21  1  0.832265  0.664572  0.622924  1
  Cu  Cu22  1  0.335801  0.167896  0.877156  1
  Cu  Cu23  1  0.664199  0.832104  0.377156  1
