# generated using pymatgen
data_Dy3Ga6Co6CuNi2
_symmetry_space_group_name_H-M   'P 1'
_cell_length_a   4.07382500
_cell_length_b   8.76229921
_cell_length_c   8.76229828
_cell_angle_alpha   59.58300508
_cell_angle_beta   90.00000000
_cell_angle_gamma   90.00000000
_symmetry_Int_Tables_number   1
_chemical_formula_structural   Dy3Ga6Co6CuNi2
_chemical_formula_sum   'Dy3 Ga6 Co6 Cu1 Ni2'
_cell_volume   269.72975880
_cell_formula_units_Z   1
loop_
 _symmetry_equiv_pos_site_id
 _symmetry_equiv_pos_as_xyz
  1  'x, y, z'
loop_
 _atom_site_type_symbol
 _atom_site_label
 _atom_site_symmetry_multiplicity
 _atom_site_fract_x
 _atom_site_fract_y
 _atom_site_fract_z
 _atom_site_occupancy
  Dy  Dy0  1  0.500000  0.329611  0.332826  1
  Dy  Dy1  1  0.500000  0.667174  0.670389  1
  Dy  Dy2  1  0.000000  0.000376  0.999624  1
  Ga  Ga3  1  0.000000  0.507157  0.492843  1
  Ga  Ga4  1  0.000000  0.491125  0.999621  1
  Ga  Ga5  1  0.000000  0.000379  0.508875  1
  Ga  Ga6  1  0.500000  0.273135  0.726865  1
  Ga  Ga7  1  0.500000  0.726679  0.996674  1
  Ga  Ga8  1  0.500000  0.003326  0.273321  1
  Co  Co9  1  0.000000  0.177836  0.185886  1
  Co  Co10  1  0.000000  0.186103  0.635961  1
  Co  Co11  1  0.000000  0.632696  0.178362  1
  Co  Co12  1  0.000000  0.814114  0.822164  1
  Co  Co13  1  0.000000  0.364039  0.813897  1
  Co  Co14  1  0.000000  0.821638  0.367304  1
  Cu  Cu15  1  0.500000  0.704193  0.295807  1
  Ni  Ni16  1  0.500000  0.299109  0.998791  1
  Ni  Ni17  1  0.500000  0.001209  0.700891  1
