# generated using pymatgen
data_Hf6Ti2Al14Fe7Ge
_symmetry_space_group_name_H-M   'P 1'
_cell_length_a   8.62144559
_cell_length_b   8.62050474
_cell_length_c   8.62320698
_cell_angle_alpha   120.21756246
_cell_angle_beta   119.85570497
_cell_angle_gamma   89.93232332
_symmetry_Int_Tables_number   1
_chemical_formula_structural   Hf6Ti2Al14Fe7Ge
_chemical_formula_sum   'Hf6 Ti2 Al14 Fe7 Ge1'
_cell_volume   452.93665515
_cell_formula_units_Z   1
loop_
 _symmetry_equiv_pos_site_id
 _symmetry_equiv_pos_as_xyz
  1  'x, y, z'
loop_
 _atom_site_type_symbol
 _atom_site_label
 _atom_site_symmetry_multiplicity
 _atom_site_fract_x
 _atom_site_fract_y
 _atom_site_fract_z
 _atom_site_occupancy
  Hf  Hf0  1  0.792198  0.284535  0.070720  1
  Hf  Hf1  1  0.213788  0.284432  0.492326  1
  Hf  Hf2  1  0.211353  0.711372  0.499948  1
  Hf  Hf3  1  0.213710  0.721428  0.929259  1
  Hf  Hf4  1  0.792137  0.721488  0.507688  1
  Hf  Hf5  1  0.782524  0.282436  0.500003  1
  Ti  Ti6  1  0.380716  0.121112  0.740428  1
  Ti  Ti7  1  0.380778  0.640347  0.259632  1
  Al  Al8  1  0.166332  0.336087  0.169802  1
  Al  Al9  1  0.166396  0.996546  0.830261  1
  Al  Al10  1  0.163563  0.337370  0.826175  1
  Al  Al11  1  0.511232  0.337266  0.173789  1
  Al  Al12  1  0.835444  0.663715  0.828240  1
  Al  Al13  1  0.835341  0.007205  0.171686  1
  Al  Al14  1  0.834631  0.663802  0.170924  1
  Al  Al15  1  0.492826  0.663837  0.829152  1
  Al  Al16  1  0.381588  0.120631  0.260855  1
  Al  Al17  1  0.859789  0.120637  0.739119  1
  Al  Al18  1  0.617780  0.876450  0.258508  1
  Al  Al19  1  0.617812  0.359222  0.741362  1
  Al  Al20  1  0.616628  0.878808  0.737943  1
  Al  Al21  1  0.140854  0.878776  0.262102  1
  Fe  Fe22  1  0.001952  0.000321  0.502213  1
  Fe  Fe23  1  0.498153  0.000285  0.998515  1
  Fe  Fe24  1  0.498166  0.498131  0.000000  1
  Fe  Fe25  1  0.498109  0.499725  0.497834  1
  Fe  Fe26  1  0.001819  0.499683  0.001567  1
  Fe  Fe27  1  0.001606  0.001614  0.999973  1
  Fe  Fe28  1  0.496925  0.996893  0.499991  1
  Ge  Ge29  1  0.995842  0.495840  0.499987  1
