# generated using pymatgen
data_TmPa(CuRh)2
_symmetry_space_group_name_H-M   'P 1'
_cell_length_a   3.74639200
_cell_length_b   7.02635732
_cell_length_c   8.24901963
_cell_angle_alpha   92.61219626
_cell_angle_beta   90.00000000
_cell_angle_gamma   90.00000000
_symmetry_Int_Tables_number   1
_chemical_formula_structural   TmPa(CuRh)2
_chemical_formula_sum   'Tm2 Pa2 Cu4 Rh4'
_cell_volume   216.91734123
_cell_formula_units_Z   2
loop_
 _symmetry_equiv_pos_site_id
 _symmetry_equiv_pos_as_xyz
  1  'x, y, z'
loop_
 _atom_site_type_symbol
 _atom_site_label
 _atom_site_symmetry_multiplicity
 _atom_site_fract_x
 _atom_site_fract_y
 _atom_site_fract_z
 _atom_site_occupancy
  Tm  Tm0  1  0.750000  0.940048  0.690008  1
  Tm  Tm1  1  0.250000  0.059952  0.309992  1
  Pa  Pa2  1  0.250000  0.552006  0.196600  1
  Pa  Pa3  1  0.750000  0.447994  0.803400  1
  Cu  Cu4  1  0.250000  0.621972  0.559108  1
  Cu  Cu5  1  0.750000  0.378028  0.440892  1
  Cu  Cu6  1  0.750000  0.895925  0.065468  1
  Cu  Cu7  1  0.250000  0.104075  0.934532  1
  Rh  Rh8  1  0.250000  0.717084  0.886246  1
  Rh  Rh9  1  0.750000  0.282916  0.113754  1
  Rh  Rh10  1  0.750000  0.752259  0.361707  1
  Rh  Rh11  1  0.250000  0.247741  0.638293  1
