# generated using pymatgen
data_Pa5Si7Pt9
_symmetry_space_group_name_H-M   'P 1'
_cell_length_a   10.13681700
_cell_length_b   10.13681718
_cell_length_c   4.27872000
_cell_angle_alpha   90.00000000
_cell_angle_beta   90.00000000
_cell_angle_gamma   119.99999654
_symmetry_Int_Tables_number   1
_chemical_formula_structural   Pa5Si7Pt9
_chemical_formula_sum   'Pa5 Si7 Pt9'
_cell_volume   380.75685793
_cell_formula_units_Z   1
loop_
 _symmetry_equiv_pos_site_id
 _symmetry_equiv_pos_as_xyz
  1  'x, y, z'
loop_
 _atom_site_type_symbol
 _atom_site_label
 _atom_site_symmetry_multiplicity
 _atom_site_fract_x
 _atom_site_fract_y
 _atom_site_fract_z
 _atom_site_occupancy
  Pa  Pa0  1  0.000000  0.000000  0.000000  1
  Pa  Pa1  1  0.333333  0.666667  0.500000  1
  Pa  Pa2  1  0.906067  0.452806  0.500000  1
  Pa  Pa3  1  0.546739  0.093933  0.500000  1
  Pa  Pa4  1  0.547194  0.453261  0.500000  1
  Si  Si5  1  0.252060  0.141651  0.500000  1
  Si  Si6  1  0.858349  0.110410  0.500000  1
  Si  Si7  1  0.889590  0.747940  0.500000  1
  Si  Si8  1  0.596028  0.688249  0.000000  1
  Si  Si9  1  0.311751  0.907779  0.000000  1
  Si  Si10  1  0.092221  0.403972  0.000000  1
  Si  Si11  1  0.666667  0.333333  0.000000  1
  Pt  Pt12  1  0.167467  0.868855  0.500000  1
  Pt  Pt13  1  0.131145  0.298612  0.500000  1
  Pt  Pt14  1  0.701388  0.832533  0.500000  1
  Pt  Pt15  1  0.349609  0.451526  0.000000  1
  Pt  Pt16  1  0.548474  0.898083  0.000000  1
  Pt  Pt17  1  0.101917  0.650391  0.000000  1
  Pt  Pt18  1  0.386824  0.191872  0.000000  1
  Pt  Pt19  1  0.808128  0.194952  0.000000  1
  Pt  Pt20  1  0.805048  0.613176  0.000000  1
