# generated using pymatgen
data_KTl2AsS3
_symmetry_space_group_name_H-M   'P 1'
_cell_length_a   9.38398900
_cell_length_b   9.38398900
_cell_length_c   9.38398900
_cell_angle_alpha   90.00000000
_cell_angle_beta   90.00000000
_cell_angle_gamma   90.00000000
_symmetry_Int_Tables_number   1
_chemical_formula_structural   KTl2AsS3
_chemical_formula_sum   'K4 Tl8 As4 S12'
_cell_volume   826.34702915
_cell_formula_units_Z   4
loop_
 _symmetry_equiv_pos_site_id
 _symmetry_equiv_pos_as_xyz
  1  'x, y, z'
loop_
 _atom_site_type_symbol
 _atom_site_label
 _atom_site_symmetry_multiplicity
 _atom_site_fract_x
 _atom_site_fract_y
 _atom_site_fract_z
 _atom_site_occupancy
  K  K0  1  0.321382  0.321382  0.321382  1
  K  K1  1  0.178618  0.678618  0.821382  1
  K  K2  1  0.821382  0.178618  0.678618  1
  K  K3  1  0.678618  0.821382  0.178618  1
  Tl  Tl4  1  0.807464  0.807464  0.807464  1
  Tl  Tl5  1  0.692536  0.192536  0.307464  1
  Tl  Tl6  1  0.307464  0.692536  0.192536  1
  Tl  Tl7  1  0.192536  0.307464  0.692536  1
  Tl  Tl8  1  0.583088  0.583088  0.583088  1
  Tl  Tl9  1  0.916912  0.416912  0.083088  1
  Tl  Tl10  1  0.083088  0.916912  0.416912  1
  Tl  Tl11  1  0.416912  0.083088  0.916912  1
  As  As12  1  0.038025  0.038025  0.038025  1
  As  As13  1  0.461975  0.961975  0.538025  1
  As  As14  1  0.538025  0.461975  0.961975  1
  As  As15  1  0.961975  0.538025  0.461975  1
  S  S16  1  0.192738  0.611735  0.489307  1
  S  S17  1  0.307262  0.388265  0.989307  1
  S  S18  1  0.692738  0.888265  0.510693  1
  S  S19  1  0.807262  0.111735  0.010693  1
  S  S20  1  0.489307  0.192738  0.611735  1
  S  S21  1  0.611735  0.489307  0.192738  1
  S  S22  1  0.010693  0.807262  0.111735  1
  S  S23  1  0.388265  0.989307  0.307262  1
  S  S24  1  0.989307  0.307262  0.388265  1
  S  S25  1  0.888265  0.510693  0.692738  1
  S  S26  1  0.510693  0.692738  0.888265  1
  S  S27  1  0.111735  0.010693  0.807262  1
