# generated using pymatgen
data_Ho12Ir2PdRh
_symmetry_space_group_name_H-M   'P 1'
_cell_length_a   6.37388849
_cell_length_b   7.15341293
_cell_length_c   9.31561200
_cell_angle_alpha   90.00000000
_cell_angle_beta   90.00000000
_cell_angle_gamma   90.17446841
_symmetry_Int_Tables_number   1
_chemical_formula_structural   Ho12Ir2PdRh
_chemical_formula_sum   'Ho12 Ir2 Pd1 Rh1'
_cell_volume   424.74388510
_cell_formula_units_Z   1
loop_
 _symmetry_equiv_pos_site_id
 _symmetry_equiv_pos_as_xyz
  1  'x, y, z'
loop_
 _atom_site_type_symbol
 _atom_site_label
 _atom_site_symmetry_multiplicity
 _atom_site_fract_x
 _atom_site_fract_y
 _atom_site_fract_z
 _atom_site_occupancy
  Ho  Ho0  1  0.333474  0.675346  0.059469  1
  Ho  Ho1  1  0.174340  0.183846  0.439662  1
  Ho  Ho2  1  0.673143  0.321179  0.562522  1
  Ho  Ho3  1  0.824550  0.821295  0.935129  1
  Ho  Ho4  1  0.673143  0.321179  0.937478  1
  Ho  Ho5  1  0.824550  0.821295  0.564871  1
  Ho  Ho6  1  0.333474  0.675346  0.440531  1
  Ho  Ho7  1  0.174340  0.183846  0.060338  1
  Ho  Ho8  1  0.864296  0.524909  0.250000  1
  Ho  Ho9  1  0.625944  0.037093  0.250000  1
  Ho  Ho10  1  0.130904  0.467772  0.750000  1
  Ho  Ho11  1  0.369387  0.964869  0.750000  1
  Ir  Ir12  1  0.448703  0.384433  0.250000  1
  Ir  Ir13  1  0.545259  0.615397  0.750000  1
  Pd  Pd14  1  0.051377  0.885703  0.250000  1
  Rh  Rh15  1  0.953116  0.116493  0.750000  1
