# generated using pymatgen
data_Er9Tm(PtPb3)2
_symmetry_space_group_name_H-M   'P 1'
_cell_length_a   9.14291900
_cell_length_b   9.14312959
_cell_length_c   6.77872300
_cell_angle_alpha   90.00000000
_cell_angle_beta   90.00000000
_cell_angle_gamma   119.99924170
_symmetry_Int_Tables_number   1
_chemical_formula_structural   Er9Tm(PtPb3)2
_chemical_formula_sum   'Er9 Tm1 Pt2 Pb6'
_cell_volume   490.75144313
_cell_formula_units_Z   1
loop_
 _symmetry_equiv_pos_site_id
 _symmetry_equiv_pos_as_xyz
  1  'x, y, z'
loop_
 _atom_site_type_symbol
 _atom_site_label
 _atom_site_symmetry_multiplicity
 _atom_site_fract_x
 _atom_site_fract_y
 _atom_site_fract_z
 _atom_site_occupancy
  Er  Er0  1  0.755800  0.755740  0.250000  1
  Er  Er1  1  0.000889  0.756665  0.750000  1
  Er  Er2  1  0.333534  0.666837  0.500142  1
  Er  Er3  1  0.243887  0.000000  0.250000  1
  Er  Er4  1  0.244224  0.243335  0.750000  1
  Er  Er5  1  0.000060  0.244260  0.250000  1
  Er  Er6  1  0.666698  0.333163  0.500142  1
  Er  Er7  1  0.333534  0.666837  0.999858  1
  Er  Er8  1  0.666698  0.333163  0.999858  1
  Tm  Tm9  1  0.756230  0.000000  0.750000  1
  Pt  Pt10  1  0.998914  0.000000  0.999407  1
  Pt  Pt11  1  0.998914  0.000000  0.500593  1
  Pb  Pb12  1  0.403641  0.000000  0.750000  1
  Pb  Pb13  1  0.597920  0.000000  0.250000  1
  Pb  Pb14  1  0.401667  0.401294  0.250000  1
  Pb  Pb15  1  0.000373  0.598706  0.250000  1
  Pb  Pb16  1  0.999347  0.401679  0.750000  1
  Pb  Pb17  1  0.597669  0.598321  0.750000  1
