# generated using pymatgen
data_Ac4IrPdAu2
_symmetry_space_group_name_H-M   'P 1'
_cell_length_a   4.99408700
_cell_length_b   6.07391714
_cell_length_c   7.73803900
_cell_angle_alpha   88.36987498
_cell_angle_beta   90.00000000
_cell_angle_gamma   90.00000000
_symmetry_Int_Tables_number   1
_chemical_formula_structural   Ac4IrPdAu2
_chemical_formula_sum   'Ac4 Ir1 Pd1 Au2'
_cell_volume   234.62813289
_cell_formula_units_Z   1
loop_
 _symmetry_equiv_pos_site_id
 _symmetry_equiv_pos_as_xyz
  1  'x, y, z'
loop_
 _atom_site_type_symbol
 _atom_site_label
 _atom_site_symmetry_multiplicity
 _atom_site_fract_x
 _atom_site_fract_y
 _atom_site_fract_z
 _atom_site_occupancy
  Ac  Ac0  1  0.250000  0.360037  0.674730  1
  Ac  Ac1  1  0.250000  0.135443  0.198538  1
  Ac  Ac2  1  0.750000  0.653139  0.329621  1
  Ac  Ac3  1  0.750000  0.858645  0.797247  1
  Ir  Ir4  1  0.250000  0.836191  0.540955  1
  Pd  Pd5  1  0.750000  0.158888  0.456649  1
  Au  Au6  1  0.250000  0.647942  0.040094  1
  Au  Au7  1  0.750000  0.349715  0.962169  1
