# generated using pymatgen
data_Tb4Os3RuO16
_symmetry_space_group_name_H-M   'P 1'
_cell_length_a   5.38560098
_cell_length_b   7.71607697
_cell_length_c   7.45899033
_cell_angle_alpha   79.44904971
_cell_angle_beta   91.33183008
_cell_angle_gamma   94.18606540
_symmetry_Int_Tables_number   1
_chemical_formula_structural   Tb4Os3RuO16
_chemical_formula_sum   'Tb4 Os3 Ru1 O16'
_cell_volume   303.89458946
_cell_formula_units_Z   1
loop_
 _symmetry_equiv_pos_site_id
 _symmetry_equiv_pos_as_xyz
  1  'x, y, z'
loop_
 _atom_site_type_symbol
 _atom_site_label
 _atom_site_symmetry_multiplicity
 _atom_site_fract_x
 _atom_site_fract_y
 _atom_site_fract_z
 _atom_site_occupancy
  Tb  Tb0  1  0.259742  0.111105  0.610878  1
  Tb  Tb1  1  0.734278  0.882883  0.393182  1
  Tb  Tb2  1  0.193426  0.170493  0.099380  1
  Tb  Tb3  1  0.804339  0.827173  0.895428  1
  Os  Os4  1  0.244937  0.663612  0.206559  1
  Os  Os5  1  0.753664  0.340635  0.792353  1
  Os  Os6  1  0.715252  0.336574  0.299713  1
  Ru  Ru7  1  0.283779  0.664206  0.699035  1
  O  O8  1  0.046747  0.468902  0.714196  1
  O  O9  1  0.949817  0.529623  0.285675  1
  O  O10  1  0.621766  0.328624  0.549784  1
  O  O11  1  0.384339  0.671521  0.446659  1
  O  O12  1  0.843080  0.321337  0.053496  1
  O  O13  1  0.151794  0.673503  0.950960  1
  O  O14  1  0.411374  0.443432  0.199924  1
  O  O15  1  0.593550  0.555549  0.806655  1
  O  O16  1  0.052910  0.884603  0.180892  1
  O  O17  1  0.951882  0.115513  0.824994  1
  O  O18  1  0.492242  0.112681  0.320872  1
  O  O19  1  0.511608  0.890557  0.674814  1
  O  O20  1  0.456075  0.197584  0.867313  1
  O  O21  1  0.545306  0.802871  0.129635  1
  O  O22  1  0.976306  0.166214  0.379096  1
  O  O23  1  0.021789  0.840807  0.618511  1
