# generated using pymatgen
data_Hf3Ti2Sn2Sb
_symmetry_space_group_name_H-M   'P 1'
_cell_length_a   8.24717626
_cell_length_b   8.24717718
_cell_length_c   5.53973200
_cell_angle_alpha   90.00000000
_cell_angle_beta   90.00000000
_cell_angle_gamma   119.22279709
_symmetry_Int_Tables_number   1
_chemical_formula_structural   Hf3Ti2Sn2Sb
_chemical_formula_sum   'Hf6 Ti4 Sn4 Sb2'
_cell_volume   328.83513528
_cell_formula_units_Z   2
loop_
 _symmetry_equiv_pos_site_id
 _symmetry_equiv_pos_as_xyz
  1  'x, y, z'
loop_
 _atom_site_type_symbol
 _atom_site_label
 _atom_site_symmetry_multiplicity
 _atom_site_fract_x
 _atom_site_fract_y
 _atom_site_fract_z
 _atom_site_occupancy
  Hf  Hf0  1  0.232223  0.995870  0.250000  1
  Hf  Hf1  1  0.767777  0.004130  0.750000  1
  Hf  Hf2  1  0.995870  0.232223  0.250000  1
  Hf  Hf3  1  0.004130  0.767777  0.750000  1
  Hf  Hf4  1  0.752302  0.752302  0.250000  1
  Hf  Hf5  1  0.247698  0.247698  0.750000  1
  Ti  Ti6  1  0.335382  0.664618  0.000000  1
  Ti  Ti7  1  0.664618  0.335382  0.000000  1
  Ti  Ti8  1  0.664618  0.335382  0.500000  1
  Ti  Ti9  1  0.335382  0.664618  0.500000  1
  Sn  Sn10  1  0.597183  0.000474  0.250000  1
  Sn  Sn11  1  0.402817  0.999526  0.750000  1
  Sn  Sn12  1  0.000474  0.597183  0.250000  1
  Sn  Sn13  1  0.999526  0.402817  0.750000  1
  Sb  Sb14  1  0.394006  0.394006  0.250000  1
  Sb  Sb15  1  0.605994  0.605994  0.750000  1
