# generated using pymatgen
data_La2ZnNi8Ge
_symmetry_space_group_name_H-M   'P 1'
_cell_length_a   4.97850546
_cell_length_b   4.97850574
_cell_length_c   8.11076900
_cell_angle_alpha   90.00000000
_cell_angle_beta   90.00000000
_cell_angle_gamma   117.96443426
_symmetry_Int_Tables_number   1
_chemical_formula_structural   La2ZnNi8Ge
_chemical_formula_sum   'La2 Zn1 Ni8 Ge1'
_cell_volume   177.55716112
_cell_formula_units_Z   1
loop_
 _symmetry_equiv_pos_site_id
 _symmetry_equiv_pos_as_xyz
  1  'x, y, z'
loop_
 _atom_site_type_symbol
 _atom_site_label
 _atom_site_symmetry_multiplicity
 _atom_site_fract_x
 _atom_site_fract_y
 _atom_site_fract_z
 _atom_site_occupancy
  La  La0  1  0.000000  0.000000  0.750993  1
  La  La1  1  0.000000  0.000000  0.249007  1
  Zn  Zn2  1  0.500000  0.500000  0.000000  1
  Ni  Ni3  1  0.670287  0.329713  0.750770  1
  Ni  Ni4  1  0.670287  0.329713  0.249230  1
  Ni  Ni5  1  0.329713  0.670287  0.750770  1
  Ni  Ni6  1  0.500000  0.000000  0.500000  1
  Ni  Ni7  1  0.000000  0.500000  0.000000  1
  Ni  Ni8  1  0.500000  0.000000  0.000000  1
  Ni  Ni9  1  0.329713  0.670287  0.249230  1
  Ni  Ni10  1  0.000000  0.500000  0.500000  1
  Ge  Ge11  1  0.500000  0.500000  0.500000  1
