# generated using pymatgen
data_Ho5P12Ru3Rh16
_symmetry_space_group_name_H-M   'P 1'
_cell_length_a   12.60900900
_cell_length_b   12.60900915
_cell_length_c   3.86963900
_cell_angle_alpha   90.00000000
_cell_angle_beta   90.00000000
_cell_angle_gamma   120.00000222
_symmetry_Int_Tables_number   1
_chemical_formula_structural   Ho5P12Ru3Rh16
_chemical_formula_sum   'Ho5 P12 Ru3 Rh16'
_cell_volume   532.79849345
_cell_formula_units_Z   1
loop_
 _symmetry_equiv_pos_site_id
 _symmetry_equiv_pos_as_xyz
  1  'x, y, z'
loop_
 _atom_site_type_symbol
 _atom_site_label
 _atom_site_symmetry_multiplicity
 _atom_site_fract_x
 _atom_site_fract_y
 _atom_site_fract_z
 _atom_site_occupancy
  Ho  Ho0  1  0.000000  0.185602  0.500000  1
  Ho  Ho1  1  0.814398  0.814398  0.500000  1
  Ho  Ho2  1  0.185602  0.000000  0.500000  1
  Ho  Ho3  1  0.666667  0.333333  0.000000  1
  Ho  Ho4  1  0.333333  0.666667  0.000000  1
  P  P5  1  0.000000  0.819896  0.000000  1
  P  P6  1  0.180104  0.180104  0.000000  1
  P  P7  1  0.819896  0.000000  0.000000  1
  P  P8  1  0.685449  0.166263  0.500000  1
  P  P9  1  0.833737  0.519186  0.500000  1
  P  P10  1  0.480814  0.314551  0.500000  1
  P  P11  1  0.166263  0.685449  0.500000  1
  P  P12  1  0.519186  0.833737  0.500000  1
  P  P13  1  0.314551  0.480814  0.500000  1
  P  P14  1  0.000000  0.362887  0.000000  1
  P  P15  1  0.637113  0.637113  0.000000  1
  P  P16  1  0.362887  0.000000  0.000000  1
  Ru  Ru17  1  0.000000  0.717838  0.500000  1
  Ru  Ru18  1  0.282162  0.282162  0.500000  1
  Ru  Ru19  1  0.717838  0.000000  0.500000  1
  Rh  Rh20  1  0.000000  0.546717  0.000000  1
  Rh  Rh21  1  0.453283  0.453283  0.000000  1
  Rh  Rh22  1  0.546717  0.000000  0.000000  1
  Rh  Rh23  1  0.805512  0.181290  0.000000  1
  Rh  Rh24  1  0.818710  0.624223  0.000000  1
  Rh  Rh25  1  0.375777  0.194488  0.000000  1
  Rh  Rh26  1  0.181290  0.805512  0.000000  1
  Rh  Rh27  1  0.624223  0.818710  0.000000  1
  Rh  Rh28  1  0.194488  0.375777  0.000000  1
  Rh  Rh29  1  0.869016  0.358912  0.500000  1
  Rh  Rh30  1  0.641088  0.510104  0.500000  1
  Rh  Rh31  1  0.489896  0.130984  0.500000  1
  Rh  Rh32  1  0.358912  0.869016  0.500000  1
  Rh  Rh33  1  0.510104  0.641088  0.500000  1
  Rh  Rh34  1  0.130984  0.489896  0.500000  1
  Rh  Rh35  1  0.000000  0.000000  0.000000  1
