# generated using pymatgen
data_YbTaNb4(B2Ru5)2
_symmetry_space_group_name_H-M   'P 1'
_cell_length_a   9.50498244
_cell_length_b   9.53143621
_cell_length_c   3.03991700
_cell_angle_alpha   90.00000000
_cell_angle_beta   90.00000000
_cell_angle_gamma   90.30882013
_symmetry_Int_Tables_number   1
_chemical_formula_structural   YbTaNb4(B2Ru5)2
_chemical_formula_sum   'Yb1 Ta1 Nb4 B4 Ru10'
_cell_volume   275.40072690
_cell_formula_units_Z   1
loop_
 _symmetry_equiv_pos_site_id
 _symmetry_equiv_pos_as_xyz
  1  'x, y, z'
loop_
 _atom_site_type_symbol
 _atom_site_label
 _atom_site_symmetry_multiplicity
 _atom_site_fract_x
 _atom_site_fract_y
 _atom_site_fract_z
 _atom_site_occupancy
  Yb  Yb0  1  0.825296  0.675016  0.000000  1
  Ta  Ta1  1  0.998242  0.996492  0.000000  1
  Nb  Nb2  1  0.177296  0.322464  0.000000  1
  Nb  Nb3  1  0.324669  0.823710  0.000000  1
  Nb  Nb4  1  0.676697  0.175125  0.000000  1
  Nb  Nb5  1  0.503696  0.501762  0.000000  1
  B  B6  1  0.619413  0.880460  0.000000  1
  B  B7  1  0.376760  0.123503  0.000000  1
  B  B8  1  0.122808  0.619186  0.000000  1
  B  B9  1  0.881094  0.377086  0.000000  1
  Ru  Ru10  1  0.556476  0.726063  0.500000  1
  Ru  Ru11  1  0.426285  0.283580  0.500000  1
  Ru  Ru12  1  0.083277  0.782848  0.500000  1
  Ru  Ru13  1  0.930836  0.215266  0.500000  1
  Ru  Ru14  1  0.284441  0.569399  0.500000  1
  Ru  Ru15  1  0.717326  0.416094  0.500000  1
  Ru  Ru16  1  0.216017  0.073275  0.500000  1
  Ru  Ru17  1  0.774702  0.943132  0.500000  1
  Ru  Ru18  1  0.495558  0.004777  0.500000  1
  Ru  Ru19  1  0.009112  0.490763  0.500000  1
