# generated using pymatgen
data_Tb2YLu2Pb3
_symmetry_space_group_name_H-M   'P 1'
_cell_length_a   9.04888243
_cell_length_b   9.04888327
_cell_length_c   6.56074700
_cell_angle_alpha   90.00000000
_cell_angle_beta   90.00000000
_cell_angle_gamma   120.03547599
_symmetry_Int_Tables_number   1
_chemical_formula_structural   Tb2YLu2Pb3
_chemical_formula_sum   'Tb4 Y2 Lu4 Pb6'
_cell_volume   465.07017744
_cell_formula_units_Z   2
loop_
 _symmetry_equiv_pos_site_id
 _symmetry_equiv_pos_as_xyz
  1  'x, y, z'
loop_
 _atom_site_type_symbol
 _atom_site_label
 _atom_site_symmetry_multiplicity
 _atom_site_fract_x
 _atom_site_fract_y
 _atom_site_fract_z
 _atom_site_occupancy
  Tb  Tb0  1  0.761702  0.761702  0.750000  1
  Tb  Tb1  1  0.238317  0.999969  0.750000  1
  Tb  Tb2  1  0.999969  0.238317  0.750000  1
  Tb  Tb3  1  0.238265  0.238265  0.250000  1
  Y  Y4  1  0.761669  0.999974  0.250000  1
  Y  Y5  1  0.999974  0.761669  0.250000  1
  Lu  Lu6  1  0.666696  0.333342  0.000052  1
  Lu  Lu7  1  0.333342  0.666696  0.000052  1
  Lu  Lu8  1  0.333342  0.666696  0.499948  1
  Lu  Lu9  1  0.666696  0.333342  0.499948  1
  Pb  Pb10  1  0.396315  0.396315  0.750000  1
  Pb  Pb11  1  0.603682  0.999983  0.750000  1
  Pb  Pb12  1  0.999983  0.603682  0.750000  1
  Pb  Pb13  1  0.603882  0.603882  0.250000  1
  Pb  Pb14  1  0.396252  0.999913  0.250000  1
  Pb  Pb15  1  0.999913  0.396252  0.250000  1
