# generated using pymatgen
data_LiTb6Cr(RuC6)2
_symmetry_space_group_name_H-M   'P 1'
_cell_length_a   8.30138000
_cell_length_b   8.30137940
_cell_length_c   5.04543100
_cell_angle_alpha   90.00000000
_cell_angle_beta   90.00000000
_cell_angle_gamma   120.00001301
_symmetry_Int_Tables_number   1
_chemical_formula_structural   LiTb6Cr(RuC6)2
_chemical_formula_sum   'Li1 Tb6 Cr1 Ru2 C12'
_cell_volume   301.11292881
_cell_formula_units_Z   1
loop_
 _symmetry_equiv_pos_site_id
 _symmetry_equiv_pos_as_xyz
  1  'x, y, z'
loop_
 _atom_site_type_symbol
 _atom_site_label
 _atom_site_symmetry_multiplicity
 _atom_site_fract_x
 _atom_site_fract_y
 _atom_site_fract_z
 _atom_site_occupancy
  Li  Li0  1  0.000000  0.000000  0.500000  1
  Tb  Tb1  1  0.624629  0.688883  0.749296  1
  Tb  Tb2  1  0.935746  0.624629  0.250704  1
  Tb  Tb3  1  0.688883  0.064254  0.250704  1
  Tb  Tb4  1  0.311117  0.935746  0.749296  1
  Tb  Tb5  1  0.064254  0.375371  0.749296  1
  Tb  Tb6  1  0.375371  0.311117  0.250704  1
  Cr  Cr7  1  0.000000  0.000000  0.000000  1
  Ru  Ru8  1  0.666667  0.333333  0.736605  1
  Ru  Ru9  1  0.333333  0.666667  0.263395  1
  C  C10  1  0.965223  0.771171  0.773669  1
  C  C11  1  0.194054  0.965223  0.226331  1
  C  C12  1  0.771171  0.805946  0.226331  1
  C  C13  1  0.228829  0.194054  0.773669  1
  C  C14  1  0.805946  0.034777  0.773669  1
  C  C15  1  0.034777  0.228829  0.226331  1
  C  C16  1  0.874564  0.586489  0.753092  1
  C  C17  1  0.288075  0.874564  0.246908  1
  C  C18  1  0.586489  0.711925  0.246908  1
  C  C19  1  0.413511  0.288075  0.753092  1
  C  C20  1  0.125436  0.413511  0.246908  1
  C  C21  1  0.711925  0.125436  0.753092  1
