# generated using pymatgen
data_Dy2Sc2Al13Ga5Ir6
_symmetry_space_group_name_H-M   'P 1'
_cell_length_a   7.48743701
_cell_length_b   7.48828499
_cell_length_c   9.50106100
_cell_angle_alpha   90.00000000
_cell_angle_beta   90.00000000
_cell_angle_gamma   119.55599987
_symmetry_Int_Tables_number   1
_chemical_formula_structural   Dy2Sc2Al13Ga5Ir6
_chemical_formula_sum   'Dy2 Sc2 Al13 Ga5 Ir6'
_cell_volume   463.38716468
_cell_formula_units_Z   1
loop_
 _symmetry_equiv_pos_site_id
 _symmetry_equiv_pos_as_xyz
  1  'x, y, z'
loop_
 _atom_site_type_symbol
 _atom_site_label
 _atom_site_symmetry_multiplicity
 _atom_site_fract_x
 _atom_site_fract_y
 _atom_site_fract_z
 _atom_site_occupancy
  Dy  Dy0  1  0.995032  0.670090  0.750000  1
  Dy  Dy1  1  0.670434  0.996320  0.750000  1
  Sc  Sc2  1  0.000171  0.325376  0.250000  1
  Sc  Sc3  1  0.329519  0.005551  0.250000  1
  Al  Al4  1  0.003480  0.334818  0.567663  1
  Al  Al5  1  0.002655  0.665460  0.420798  1
  Al  Al6  1  0.002655  0.665460  0.079202  1
  Al  Al7  1  0.334897  0.002946  0.932439  1
  Al  Al8  1  0.003480  0.334818  0.932337  1
  Al  Al9  1  0.664995  0.001357  0.079319  1
  Al  Al10  1  0.664995  0.001357  0.420681  1
  Al  Al11  1  0.334897  0.002946  0.567561  1
  Al  Al12  1  0.330825  0.331107  0.066489  1
  Al  Al13  1  0.665165  0.665002  0.950024  1
  Al  Al14  1  0.665165  0.665002  0.549976  1
  Al  Al15  1  0.330825  0.331107  0.433511  1
  Al  Al16  1  0.443641  0.661527  0.250000  1
  Ga  Ga17  1  0.130050  0.130041  0.750000  1
  Ga  Ga18  1  0.874920  0.874356  0.250000  1
  Ga  Ga19  1  0.338712  0.546878  0.750000  1
  Ga  Ga20  1  0.660667  0.448258  0.250000  1
  Ga  Ga21  1  0.546690  0.339043  0.750000  1
  Ir  Ir22  1  0.673027  0.328091  0.498952  1
  Ir  Ir23  1  0.329385  0.672213  0.496836  1
  Ir  Ir24  1  0.329385  0.672213  0.003164  1
  Ir  Ir25  1  0.673027  0.328091  0.001048  1
  Ir  Ir26  1  0.000655  0.000287  0.498614  1
  Ir  Ir27  1  0.000655  0.000287  0.001386  1
