# generated using pymatgen
data_Li4Er3PaPt4
_symmetry_space_group_name_H-M   'P 1'
_cell_length_a   3.94446400
_cell_length_b   6.99365799
_cell_length_c   8.48321823
_cell_angle_alpha   89.58163598
_cell_angle_beta   90.00000000
_cell_angle_gamma   90.00000000
_symmetry_Int_Tables_number   1
_chemical_formula_structural   Li4Er3PaPt4
_chemical_formula_sum   'Li4 Er3 Pa1 Pt4'
_cell_volume   234.01378910
_cell_formula_units_Z   1
loop_
 _symmetry_equiv_pos_site_id
 _symmetry_equiv_pos_as_xyz
  1  'x, y, z'
loop_
 _atom_site_type_symbol
 _atom_site_label
 _atom_site_symmetry_multiplicity
 _atom_site_fract_x
 _atom_site_fract_y
 _atom_site_fract_z
 _atom_site_occupancy
  Li  Li0  1  0.250000  0.628483  0.561431  1
  Li  Li1  1  0.250000  0.121165  0.942281  1
  Li  Li2  1  0.750000  0.383701  0.441433  1
  Li  Li3  1  0.750000  0.870786  0.053065  1
  Er  Er4  1  0.250000  0.550243  0.177602  1
  Er  Er5  1  0.750000  0.953160  0.685494  1
  Er  Er6  1  0.750000  0.446281  0.818578  1
  Pa  Pa7  1  0.250000  0.047943  0.316513  1
  Pt  Pt8  1  0.250000  0.241652  0.613786  1
  Pt  Pt9  1  0.250000  0.735983  0.875865  1
  Pt  Pt10  1  0.750000  0.771365  0.376841  1
  Pt  Pt11  1  0.750000  0.249241  0.137112  1
