# generated using pymatgen
data_Li3Er3AgPt2
_symmetry_space_group_name_H-M   'P 1'
_cell_length_a   7.25299700
_cell_length_b   7.25299755
_cell_length_c   3.97413100
_cell_angle_alpha   90.00000000
_cell_angle_beta   90.00000000
_cell_angle_gamma   120.00000206
_symmetry_Int_Tables_number   1
_chemical_formula_structural   Li3Er3AgPt2
_chemical_formula_sum   'Li3 Er3 Ag1 Pt2'
_cell_volume   181.05387737
_cell_formula_units_Z   1
loop_
 _symmetry_equiv_pos_site_id
 _symmetry_equiv_pos_as_xyz
  1  'x, y, z'
loop_
 _atom_site_type_symbol
 _atom_site_label
 _atom_site_symmetry_multiplicity
 _atom_site_fract_x
 _atom_site_fract_y
 _atom_site_fract_z
 _atom_site_occupancy
  Li  Li0  1  0.754100  0.754100  0.000000  1
  Li  Li1  1  0.000000  0.245900  0.000000  1
  Li  Li2  1  0.245900  0.000000  0.000000  1
  Er  Er3  1  0.578085  0.000000  0.500000  1
  Er  Er4  1  0.421915  0.421915  0.500000  1
  Er  Er5  1  0.000000  0.578085  0.500000  1
  Ag  Ag6  1  0.000000  0.000000  0.500000  1
  Pt  Pt7  1  0.333333  0.666667  0.000000  1
  Pt  Pt8  1  0.666667  0.333333  0.000000  1
