# generated using pymatgen
data_Nd2Tm2ReB12Ru
_symmetry_space_group_name_H-M   'P 1'
_cell_length_a   3.70186100
_cell_length_b   9.19945533
_cell_length_c   11.65171628
_cell_angle_alpha   89.82034645
_cell_angle_beta   90.00000000
_cell_angle_gamma   90.00000000
_symmetry_Int_Tables_number   1
_chemical_formula_structural   Nd2Tm2ReB12Ru
_chemical_formula_sum   'Nd4 Tm4 Re2 B24 Ru2'
_cell_volume   396.79846996
_cell_formula_units_Z   2
loop_
 _symmetry_equiv_pos_site_id
 _symmetry_equiv_pos_as_xyz
  1  'x, y, z'
loop_
 _atom_site_type_symbol
 _atom_site_label
 _atom_site_symmetry_multiplicity
 _atom_site_fract_x
 _atom_site_fract_y
 _atom_site_fract_z
 _atom_site_occupancy
  Nd  Nd0  1  0.000000  0.323894  0.415438  1
  Nd  Nd1  1  0.000000  0.676106  0.584562  1
  Nd  Nd2  1  0.000000  0.821717  0.086340  1
  Nd  Nd3  1  0.000000  0.178283  0.913660  1
  Tm  Tm4  1  0.000000  0.943047  0.370382  1
  Tm  Tm5  1  0.000000  0.056953  0.629618  1
  Tm  Tm6  1  0.000000  0.443531  0.129909  1
  Tm  Tm7  1  0.000000  0.556469  0.870091  1
  Re  Re8  1  0.000000  0.640257  0.318281  1
  Re  Re9  1  0.000000  0.359743  0.681719  1
  B  B10  1  0.500000  0.555371  0.430336  1
  B  B11  1  0.500000  0.444629  0.569664  1
  B  B12  1  0.500000  0.056424  0.070044  1
  B  B13  1  0.500000  0.943576  0.929956  1
  B  B14  1  0.500000  0.750790  0.416027  1
  B  B15  1  0.500000  0.249210  0.583973  1
  B  B16  1  0.500000  0.250576  0.084023  1
  B  B17  1  0.500000  0.749424  0.915977  1
  B  B18  1  0.500000  0.791913  0.265546  1
  B  B19  1  0.500000  0.208087  0.734454  1
  B  B20  1  0.500000  0.290874  0.233868  1
  B  B21  1  0.500000  0.709126  0.766132  1
  B  B22  1  0.500000  0.630076  0.184935  1
  B  B23  1  0.500000  0.369924  0.815065  1
  B  B24  1  0.500000  0.129618  0.314127  1
  B  B25  1  0.500000  0.870382  0.685873  1
  B  B26  1  0.500000  0.985015  0.213452  1
  B  B27  1  0.500000  0.014985  0.786548  1
  B  B28  1  0.500000  0.484427  0.285868  1
  B  B29  1  0.500000  0.515573  0.714132  1
  B  B30  1  0.500000  0.598605  0.026585  1
  B  B31  1  0.500000  0.401395  0.973415  1
  B  B32  1  0.500000  0.097966  0.473267  1
  B  B33  1  0.500000  0.902034  0.526733  1
  Ru  Ru34  1  0.000000  0.139771  0.180998  1
  Ru  Ru35  1  0.000000  0.860229  0.819002  1
