# generated using pymatgen
data_CeYHf3Si4
_symmetry_space_group_name_H-M   'P 1'
_cell_length_a   7.31736200
_cell_length_b   7.31736200
_cell_length_c   13.44372000
_cell_angle_alpha   90.00000000
_cell_angle_beta   90.00000000
_cell_angle_gamma   90.00000000
_symmetry_Int_Tables_number   1
_chemical_formula_structural   CeYHf3Si4
_chemical_formula_sum   'Ce4 Y4 Hf12 Si16'
_cell_volume   719.82767532
_cell_formula_units_Z   4
loop_
 _symmetry_equiv_pos_site_id
 _symmetry_equiv_pos_as_xyz
  1  'x, y, z'
loop_
 _atom_site_type_symbol
 _atom_site_label
 _atom_site_symmetry_multiplicity
 _atom_site_fract_x
 _atom_site_fract_y
 _atom_site_fract_z
 _atom_site_occupancy
  Ce  Ce0  1  0.494902  0.153721  0.535835  1
  Ce  Ce1  1  0.505098  0.846279  0.035835  1
  Ce  Ce2  1  0.653721  0.005098  0.285835  1
  Ce  Ce3  1  0.346279  0.994902  0.785835  1
  Y  Y4  1  0.845826  0.504353  0.964746  1
  Y  Y5  1  0.154174  0.495647  0.464746  1
  Y  Y6  1  0.004353  0.654174  0.714746  1
  Y  Y7  1  0.995647  0.345826  0.214746  1
  Hf  Hf8  1  0.674090  0.321622  0.749039  1
  Hf  Hf9  1  0.325910  0.678378  0.249039  1
  Hf  Hf10  1  0.821622  0.825910  0.499039  1
  Hf  Hf11  1  0.178378  0.174090  0.999039  1
  Hf  Hf12  1  0.496047  0.350677  0.125255  1
  Hf  Hf13  1  0.503953  0.649323  0.625255  1
  Hf  Hf14  1  0.850677  0.003953  0.875255  1
  Hf  Hf15  1  0.149323  0.996047  0.375255  1
  Hf  Hf16  1  0.649320  0.501983  0.375493  1
  Hf  Hf17  1  0.350680  0.498017  0.875493  1
  Hf  Hf18  1  0.001983  0.850680  0.125493  1
  Hf  Hf19  1  0.998017  0.149320  0.625493  1
  Si  Si20  1  0.796988  0.139869  0.066176  1
  Si  Si21  1  0.203012  0.860131  0.566176  1
  Si  Si22  1  0.639869  0.703012  0.816176  1
  Si  Si23  1  0.360131  0.296988  0.316176  1
  Si  Si24  1  0.863290  0.204559  0.433858  1
  Si  Si25  1  0.136710  0.795441  0.933858  1
  Si  Si26  1  0.704559  0.636710  0.183858  1
  Si  Si27  1  0.295441  0.363290  0.683858  1
  Si  Si28  1  0.550877  0.208102  0.935468  1
  Si  Si29  1  0.449123  0.791898  0.435468  1
  Si  Si30  1  0.708102  0.949123  0.685468  1
  Si  Si31  1  0.291898  0.050877  0.185468  1
  Si  Si32  1  0.795010  0.450573  0.564129  1
  Si  Si33  1  0.204990  0.549427  0.064129  1
  Si  Si34  1  0.950573  0.704990  0.314129  1
  Si  Si35  1  0.049427  0.295010  0.814129  1
