# generated using pymatgen
data_La4PrIr2Os
_symmetry_space_group_name_H-M   'P 1'
_cell_length_a   11.41820100
_cell_length_b   11.41820100
_cell_length_c   6.65824000
_cell_angle_alpha   90.00000000
_cell_angle_beta   90.00000000
_cell_angle_gamma   90.00000000
_symmetry_Int_Tables_number   1
_chemical_formula_structural   La4PrIr2Os
_chemical_formula_sum   'La16 Pr4 Ir8 Os4'
_cell_volume   868.07013120
_cell_formula_units_Z   4
loop_
 _symmetry_equiv_pos_site_id
 _symmetry_equiv_pos_as_xyz
  1  'x, y, z'
loop_
 _atom_site_type_symbol
 _atom_site_label
 _atom_site_symmetry_multiplicity
 _atom_site_fract_x
 _atom_site_fract_y
 _atom_site_fract_z
 _atom_site_occupancy
  La  La0  1  0.294667  0.089378  0.387411  1
  La  La1  1  0.294667  0.910622  0.887411  1
  La  La2  1  0.705333  0.089378  0.887411  1
  La  La3  1  0.705333  0.910622  0.387411  1
  La  La4  1  0.589378  0.794667  0.887411  1
  La  La5  1  0.589378  0.205333  0.387411  1
  La  La6  1  0.410622  0.794667  0.387411  1
  La  La7  1  0.410622  0.205333  0.887411  1
  La  La8  1  0.205333  0.410622  0.612589  1
  La  La9  1  0.205333  0.589378  0.112589  1
  La  La10  1  0.794667  0.410622  0.112589  1
  La  La11  1  0.794667  0.589378  0.612589  1
  La  La12  1  0.910622  0.705333  0.112589  1
  La  La13  1  0.910622  0.294667  0.612589  1
  La  La14  1  0.089378  0.705333  0.612589  1
  La  La15  1  0.089378  0.294667  0.112589  1
  Pr  Pr16  1  0.000000  0.000000  0.500000  1
  Pr  Pr17  1  0.000000  0.000000  0.000000  1
  Pr  Pr18  1  0.500000  0.500000  0.000000  1
  Pr  Pr19  1  0.500000  0.500000  0.500000  1
  Ir  Ir20  1  0.847379  0.152621  0.250000  1
  Ir  Ir21  1  0.847379  0.847379  0.750000  1
  Ir  Ir22  1  0.152621  0.152621  0.750000  1
  Ir  Ir23  1  0.152621  0.847379  0.250000  1
  Ir  Ir24  1  0.652621  0.347379  0.750000  1
  Ir  Ir25  1  0.652621  0.652621  0.250000  1
  Ir  Ir26  1  0.347379  0.347379  0.250000  1
  Ir  Ir27  1  0.347379  0.652621  0.750000  1
  Os  Os28  1  0.500000  0.000000  0.124580  1
  Os  Os29  1  0.500000  0.000000  0.624580  1
  Os  Os30  1  0.000000  0.500000  0.875420  1
  Os  Os31  1  0.000000  0.500000  0.375420  1
