# generated using pymatgen
data_Tb2Dy6Ti3Si16Mo9
_symmetry_space_group_name_H-M   'P 1'
_cell_length_a   6.91786804
_cell_length_b   6.91816826
_cell_length_c   12.81928021
_cell_angle_alpha   90.00210776
_cell_angle_beta   89.99933619
_cell_angle_gamma   89.84521945
_symmetry_Int_Tables_number   1
_chemical_formula_structural   Tb2Dy6Ti3Si16Mo9
_chemical_formula_sum   'Tb2 Dy6 Ti3 Si16 Mo9'
_cell_volume   613.51537343
_cell_formula_units_Z   1
loop_
 _symmetry_equiv_pos_site_id
 _symmetry_equiv_pos_as_xyz
  1  'x, y, z'
loop_
 _atom_site_type_symbol
 _atom_site_label
 _atom_site_symmetry_multiplicity
 _atom_site_fract_x
 _atom_site_fract_y
 _atom_site_fract_z
 _atom_site_occupancy
  Tb  Tb0  1  0.997476  0.660475  0.031546  1
  Tb  Tb1  1  0.001040  0.340361  0.531319  1
  Dy  Dy2  1  0.660175  0.997886  0.968454  1
  Dy  Dy3  1  0.161129  0.503416  0.780941  1
  Dy  Dy4  1  0.838272  0.500282  0.282651  1
  Dy  Dy5  1  0.503373  0.161020  0.219073  1
  Dy  Dy6  1  0.500280  0.838398  0.717366  1
  Dy  Dy7  1  0.340744  0.000532  0.468681  1
  Ti  Ti8  1  0.829228  0.168835  0.748586  1
  Ti  Ti9  1  0.168929  0.829355  0.251480  1
  Ti  Ti10  1  0.330718  0.330671  0.999980  1
  Si  Si11  1  0.036613  0.713356  0.438304  1
  Si  Si12  1  0.958445  0.288788  0.936102  1
  Si  Si13  1  0.712614  0.036245  0.561607  1
  Si  Si14  1  0.209839  0.459892  0.186566  1
  Si  Si15  1  0.788242  0.542391  0.685265  1
  Si  Si16  1  0.460124  0.209516  0.813605  1
  Si  Si17  1  0.542095  0.788612  0.314936  1
  Si  Si18  1  0.289549  0.958811  0.063803  1
  Si  Si19  1  0.799605  0.871720  0.184317  1
  Si  Si20  1  0.303660  0.625991  0.565354  1
  Si  Si21  1  0.700134  0.371309  0.065879  1
  Si  Si22  1  0.625230  0.303296  0.434537  1
  Si  Si23  1  0.372115  0.700488  0.934008  1
  Si  Si24  1  0.127829  0.202350  0.315153  1
  Si  Si25  1  0.202815  0.127369  0.684916  1
  Si  Si26  1  0.871285  0.800103  0.815747  1
  Mo  Mo27  1  0.333682  0.504975  0.374862  1
  Mo  Mo28  1  0.843539  0.998060  0.373010  1
  Mo  Mo29  1  0.006770  0.159725  0.125576  1
  Mo  Mo30  1  0.998025  0.843659  0.626913  1
  Mo  Mo31  1  0.504736  0.333400  0.625111  1
  Mo  Mo32  1  0.159882  0.006671  0.874376  1
  Mo  Mo33  1  0.668597  0.668827  0.499988  1
  Mo  Mo34  1  0.493766  0.659680  0.124921  1
  Mo  Mo35  1  0.659447  0.493535  0.875071  1
