# generated using pymatgen
data_Tm5ThCoNi
_symmetry_space_group_name_H-M   'P 1'
_cell_length_a   6.21996200
_cell_length_b   6.81875000
_cell_length_c   9.42412900
_cell_angle_alpha   90.00000000
_cell_angle_beta   90.00000000
_cell_angle_gamma   90.00000000
_symmetry_Int_Tables_number   1
_chemical_formula_structural   Tm5ThCoNi
_chemical_formula_sum   'Tm10 Th2 Co2 Ni2'
_cell_volume   399.69960732
_cell_formula_units_Z   2
loop_
 _symmetry_equiv_pos_site_id
 _symmetry_equiv_pos_as_xyz
  1  'x, y, z'
loop_
 _atom_site_type_symbol
 _atom_site_label
 _atom_site_symmetry_multiplicity
 _atom_site_fract_x
 _atom_site_fract_y
 _atom_site_fract_z
 _atom_site_occupancy
  Tm  Tm0  1  0.328408  0.674824  0.067600  1
  Tm  Tm1  1  0.171592  0.174824  0.432400  1
  Tm  Tm2  1  0.675101  0.323959  0.568936  1
  Tm  Tm3  1  0.824899  0.823959  0.931064  1
  Tm  Tm4  1  0.675101  0.323959  0.931064  1
  Tm  Tm5  1  0.824899  0.823959  0.568936  1
  Tm  Tm6  1  0.328408  0.674824  0.432400  1
  Tm  Tm7  1  0.171592  0.174824  0.067600  1
  Tm  Tm8  1  0.143509  0.465831  0.750000  1
  Tm  Tm9  1  0.356491  0.965831  0.750000  1
  Th  Th10  1  0.850359  0.549178  0.250000  1
  Th  Th11  1  0.649641  0.049178  0.250000  1
  Co  Co12  1  0.037845  0.873399  0.250000  1
  Co  Co13  1  0.462155  0.373399  0.250000  1
  Ni  Ni14  1  0.945391  0.114029  0.750000  1
  Ni  Ni15  1  0.554609  0.614029  0.750000  1
