# generated using pymatgen
data_Ho8Hf11Si16Rh
_symmetry_space_group_name_H-M   'P 1'
_cell_length_a   7.25624135
_cell_length_b   7.25624108
_cell_length_c   13.21490821
_cell_angle_alpha   90.20558340
_cell_angle_beta   89.79441647
_cell_angle_gamma   89.93443413
_symmetry_Int_Tables_number   1
_chemical_formula_structural   Ho8Hf11Si16Rh
_chemical_formula_sum   'Ho8 Hf11 Si16 Rh1'
_cell_volume   695.79562097
_cell_formula_units_Z   1
loop_
 _symmetry_equiv_pos_site_id
 _symmetry_equiv_pos_as_xyz
  1  'x, y, z'
loop_
 _atom_site_type_symbol
 _atom_site_label
 _atom_site_symmetry_multiplicity
 _atom_site_fract_x
 _atom_site_fract_y
 _atom_site_fract_z
 _atom_site_occupancy
  Ho  Ho0  1  0.343399  0.005324  0.465330  1
  Ho  Ho1  1  0.495214  0.845612  0.717335  1
  Ho  Ho2  1  0.501431  0.155844  0.211517  1
  Ho  Ho3  1  0.845612  0.495214  0.282665  1
  Ho  Ho4  1  0.155844  0.501431  0.788483  1
  Ho  Ho5  1  0.652137  0.998352  0.966973  1
  Ho  Ho6  1  0.005324  0.343399  0.534670  1
  Ho  Ho7  1  0.998352  0.652137  0.033027  1
  Hf  Hf8  1  0.176789  0.824503  0.248383  1
  Hf  Hf9  1  0.824503  0.176789  0.751617  1
  Hf  Hf10  1  0.674771  0.674771  0.500000  1
  Hf  Hf11  1  0.146825  0.003498  0.877283  1
  Hf  Hf12  1  0.497061  0.647051  0.122233  1
  Hf  Hf13  1  0.502714  0.353207  0.627679  1
  Hf  Hf14  1  0.647051  0.497061  0.877767  1
  Hf  Hf15  1  0.353207  0.502714  0.372321  1
  Hf  Hf16  1  0.852585  0.997722  0.374197  1
  Hf  Hf17  1  0.003498  0.146825  0.122717  1
  Hf  Hf18  1  0.997722  0.852585  0.625803  1
  Si  Si19  1  0.205018  0.140834  0.684233  1
  Si  Si20  1  0.363355  0.709861  0.931343  1
  Si  Si21  1  0.638405  0.292893  0.431888  1
  Si  Si22  1  0.709861  0.363355  0.068657  1
  Si  Si23  1  0.292893  0.638405  0.568112  1
  Si  Si24  1  0.794448  0.860646  0.180983  1
  Si  Si25  1  0.140834  0.205018  0.315767  1
  Si  Si26  1  0.860646  0.794448  0.819017  1
  Si  Si27  1  0.292396  0.945870  0.063472  1
  Si  Si28  1  0.548584  0.797448  0.314281  1
  Si  Si29  1  0.444186  0.207204  0.818635  1
  Si  Si30  1  0.797448  0.548584  0.685719  1
  Si  Si31  1  0.207204  0.444186  0.181365  1
  Si  Si32  1  0.702611  0.049022  0.565346  1
  Si  Si33  1  0.945870  0.292396  0.936528  1
  Si  Si34  1  0.049022  0.702611  0.434654  1
  Rh  Rh35  1  0.333181  0.333181  0.000000  1
