# generated using pymatgen
data_Sm4B4I5
_symmetry_space_group_name_H-M   'P 1'
_cell_length_a   9.73659062
_cell_length_b   9.73659098
_cell_length_c   9.98553535
_cell_angle_alpha   75.60138320
_cell_angle_beta   75.60138232
_cell_angle_gamma   25.66296775
_symmetry_Int_Tables_number   1
_chemical_formula_structural   Sm4B4I5
_chemical_formula_sum   'Sm4 B4 I5'
_cell_volume   396.41101364
_cell_formula_units_Z   1
loop_
 _symmetry_equiv_pos_site_id
 _symmetry_equiv_pos_as_xyz
  1  'x, y, z'
loop_
 _atom_site_type_symbol
 _atom_site_label
 _atom_site_symmetry_multiplicity
 _atom_site_fract_x
 _atom_site_fract_y
 _atom_site_fract_z
 _atom_site_occupancy
  Sm  Sm0  1  0.503678  0.503678  0.753403  1
  Sm  Sm1  1  0.498455  0.498455  0.245161  1
  Sm  Sm2  1  0.132126  0.132126  0.934677  1
  Sm  Sm3  1  0.869908  0.869908  0.064016  1
  B  B4  1  0.315827  0.686269  0.999300  1
  B  B5  1  0.686269  0.315827  0.999300  1
  B  B6  1  0.001024  0.001024  0.095051  1
  B  B7  1  0.000980  0.000980  0.903593  1
  I  I8  1  0.675217  0.675217  0.685820  1
  I  I9  1  0.326583  0.326583  0.312375  1
  I  I10  1  0.327807  0.327807  0.852653  1
  I  I11  1  0.673951  0.673951  0.146625  1
  I  I12  1  0.002475  0.002475  0.498227  1
