# generated using pymatgen
data_SmCr(BO2)5
_symmetry_space_group_name_H-M   'P 1'
_cell_length_a   8.53134332
_cell_length_b   7.88121700
_cell_length_c   9.57854200
_cell_angle_alpha   90.00000000
_cell_angle_beta   92.58186040
_cell_angle_gamma   90.00000000
_symmetry_Int_Tables_number   1
_chemical_formula_structural   SmCr(BO2)5
_chemical_formula_sum   'Sm4 Cr4 B20 O40'
_cell_volume   643.38218094
_cell_formula_units_Z   4
loop_
 _symmetry_equiv_pos_site_id
 _symmetry_equiv_pos_as_xyz
  1  'x, y, z'
loop_
 _atom_site_type_symbol
 _atom_site_label
 _atom_site_symmetry_multiplicity
 _atom_site_fract_x
 _atom_site_fract_y
 _atom_site_fract_z
 _atom_site_occupancy
  Sm  Sm0  1  0.185960  0.174324  0.234802  1
  Sm  Sm1  1  0.314040  0.674323  0.265198  1
  Sm  Sm2  1  0.685960  0.325677  0.734802  1
  Sm  Sm3  1  0.814040  0.825677  0.765198  1
  Cr  Cr4  1  0.591577  0.402685  0.123378  1
  Cr  Cr5  1  0.908423  0.902686  0.376622  1
  Cr  Cr6  1  0.091577  0.097315  0.623378  1
  Cr  Cr7  1  0.408423  0.597315  0.876622  1
  B  B8  1  0.160194  0.394565  0.007671  1
  B  B9  1  0.776923  0.032648  0.059746  1
  B  B10  1  0.566198  0.817484  0.094452  1
  B  B11  1  0.017673  0.823598  0.100022  1
  B  B12  1  0.918649  0.572935  0.248812  1
  B  B13  1  0.581350  0.072935  0.251189  1
  B  B14  1  0.482326  0.323598  0.399978  1
  B  B15  1  0.933801  0.317484  0.405548  1
  B  B16  1  0.723076  0.532649  0.440254  1
  B  B17  1  0.339806  0.894565  0.492329  1
  B  B18  1  0.660194  0.105435  0.507671  1
  B  B19  1  0.276923  0.467352  0.559745  1
  B  B20  1  0.066198  0.682517  0.594452  1
  B  B21  1  0.517674  0.676402  0.600022  1
  B  B22  1  0.418649  0.927066  0.748811  1
  B  B23  1  0.081350  0.427066  0.751189  1
  B  B24  1  0.982326  0.176402  0.899978  1
  B  B25  1  0.433801  0.182516  0.905548  1
  B  B26  1  0.223076  0.967352  0.940254  1
  B  B27  1  0.839806  0.605436  0.992329  1
  O  O28  1  0.678411  0.882123  0.012033  1
  O  O29  1  0.049964  0.264628  0.022745  1
  O  O30  1  0.175079  0.890869  0.074039  1
  O  O31  1  0.499138  0.656899  0.077887  1
  O  O32  1  0.823279  0.532354  0.120583  1
  O  O33  1  0.249029  0.437615  0.123292  1
  O  O34  1  0.914395  0.965687  0.149341  1
  O  O35  1  0.681109  0.147150  0.143503  1
  O  O36  1  0.508995  0.910496  0.202656  1
  O  O37  1  0.039334  0.701253  0.218791  1
  O  O38  1  0.460667  0.201253  0.281209  1
  O  O39  1  0.991006  0.410497  0.297344  1
  O  O40  1  0.818891  0.647150  0.356498  1
  O  O41  1  0.585605  0.465687  0.350659  1
  O  O42  1  0.250970  0.937615  0.376708  1
  O  O43  1  0.676722  0.032354  0.379418  1
  O  O44  1  0.000862  0.156899  0.422113  1
  O  O45  1  0.324921  0.390869  0.425961  1
  O  O46  1  0.450036  0.764628  0.477255  1
  O  O47  1  0.821589  0.382122  0.487968  1
  O  O48  1  0.178411  0.617878  0.512033  1
  O  O49  1  0.549965  0.235372  0.522745  1
  O  O50  1  0.675078  0.609131  0.574040  1
  O  O51  1  0.999138  0.843101  0.577887  1
  O  O52  1  0.323279  0.967646  0.620583  1
  O  O53  1  0.749029  0.062385  0.623292  1
  O  O54  1  0.414395  0.534312  0.649341  1
  O  O55  1  0.181109  0.352850  0.643503  1
  O  O56  1  0.008994  0.589504  0.702655  1
  O  O57  1  0.539334  0.798748  0.718791  1
  O  O58  1  0.960666  0.298748  0.781209  1
  O  O59  1  0.491006  0.089504  0.797344  1
  O  O60  1  0.318892  0.852849  0.856498  1
  O  O61  1  0.085605  0.034312  0.850659  1
  O  O62  1  0.750971  0.562385  0.876708  1
  O  O63  1  0.176722  0.467647  0.879418  1
  O  O64  1  0.500862  0.343101  0.922113  1
  O  O65  1  0.824922  0.109131  0.925961  1
  O  O66  1  0.950035  0.735371  0.977255  1
  O  O67  1  0.321589  0.117878  0.987968  1
