# generated using pymatgen
data_Hf18Ti2Re6BP
_symmetry_space_group_name_H-M   'P 1'
_cell_length_a   8.55933800
_cell_length_b   8.55933874
_cell_length_c   8.52005200
_cell_angle_alpha   90.00000000
_cell_angle_beta   90.00000000
_cell_angle_gamma   119.99999715
_symmetry_Int_Tables_number   1
_chemical_formula_structural   Hf18Ti2Re6BP
_chemical_formula_sum   'Hf18 Ti2 Re6 B1 P1'
_cell_volume   540.57166815
_cell_formula_units_Z   1
loop_
 _symmetry_equiv_pos_site_id
 _symmetry_equiv_pos_as_xyz
  1  'x, y, z'
loop_
 _atom_site_type_symbol
 _atom_site_label
 _atom_site_symmetry_multiplicity
 _atom_site_fract_x
 _atom_site_fract_y
 _atom_site_fract_z
 _atom_site_occupancy
  Hf  Hf0  1  0.196130  0.803870  0.450178  1
  Hf  Hf1  1  0.196130  0.392262  0.450178  1
  Hf  Hf2  1  0.607738  0.803870  0.450178  1
  Hf  Hf3  1  0.798218  0.201782  0.556896  1
  Hf  Hf4  1  0.798218  0.596438  0.556896  1
  Hf  Hf5  1  0.403562  0.201782  0.556896  1
  Hf  Hf6  1  0.798218  0.201782  0.943104  1
  Hf  Hf7  1  0.798218  0.596438  0.943104  1
  Hf  Hf8  1  0.403562  0.201782  0.943104  1
  Hf  Hf9  1  0.196130  0.803870  0.049822  1
  Hf  Hf10  1  0.196130  0.392262  0.049822  1
  Hf  Hf11  1  0.607738  0.803870  0.049822  1
  Hf  Hf12  1  0.541503  0.458497  0.250000  1
  Hf  Hf13  1  0.541503  0.083005  0.250000  1
  Hf  Hf14  1  0.916995  0.458497  0.250000  1
  Hf  Hf15  1  0.459468  0.540532  0.750000  1
  Hf  Hf16  1  0.459468  0.918936  0.750000  1
  Hf  Hf17  1  0.081064  0.540532  0.750000  1
  Ti  Ti18  1  0.000000  0.000000  0.501011  1
  Ti  Ti19  1  0.000000  0.000000  0.998989  1
  Re  Re20  1  0.887911  0.112089  0.250000  1
  Re  Re21  1  0.887911  0.775823  0.250000  1
  Re  Re22  1  0.224177  0.112089  0.250000  1
  Re  Re23  1  0.111967  0.888033  0.750000  1
  Re  Re24  1  0.111967  0.223933  0.750000  1
  Re  Re25  1  0.776067  0.888033  0.750000  1
  B  B26  1  0.666667  0.333333  0.750000  1
  P  P27  1  0.333333  0.666667  0.250000  1
