# generated using pymatgen
data_PrHoPa2(Al3Rh)6
_symmetry_space_group_name_H-M   'P 1'
_cell_length_a   7.62026183
_cell_length_b   7.62248371
_cell_length_c   9.41024400
_cell_angle_alpha   90.00000000
_cell_angle_beta   90.00000000
_cell_angle_gamma   119.57140606
_symmetry_Int_Tables_number   1
_chemical_formula_structural   PrHoPa2(Al3Rh)6
_chemical_formula_sum   'Pr1 Ho1 Pa2 Al18 Rh6'
_cell_volume   475.39804376
_cell_formula_units_Z   1
loop_
 _symmetry_equiv_pos_site_id
 _symmetry_equiv_pos_as_xyz
  1  'x, y, z'
loop_
 _atom_site_type_symbol
 _atom_site_label
 _atom_site_symmetry_multiplicity
 _atom_site_fract_x
 _atom_site_fract_y
 _atom_site_fract_z
 _atom_site_occupancy
  Pr  Pr0  1  0.330143  0.006920  0.250000  1
  Ho  Ho1  1  0.671520  0.993613  0.750000  1
  Pa  Pa2  1  0.998151  0.672321  0.750000  1
  Pa  Pa3  1  0.002473  0.328461  0.250000  1
  Al  Al4  1  0.129681  0.126969  0.750000  1
  Al  Al5  1  0.866345  0.872336  0.250000  1
  Al  Al6  1  0.999553  0.332183  0.578240  1
  Al  Al7  1  0.997195  0.665530  0.424877  1
  Al  Al8  1  0.997195  0.665530  0.075123  1
  Al  Al9  1  0.339306  0.003051  0.921355  1
  Al  Al10  1  0.999553  0.332183  0.921760  1
  Al  Al11  1  0.664196  0.996932  0.071853  1
  Al  Al12  1  0.664196  0.996932  0.428147  1
  Al  Al13  1  0.339306  0.003051  0.578645  1
  Al  Al14  1  0.334390  0.334803  0.046897  1
  Al  Al15  1  0.665472  0.667030  0.945363  1
  Al  Al16  1  0.665472  0.667030  0.554637  1
  Al  Al17  1  0.334390  0.334803  0.453103  1
  Al  Al18  1  0.340037  0.549689  0.750000  1
  Al  Al19  1  0.661551  0.454162  0.250000  1
  Al  Al20  1  0.552476  0.343460  0.750000  1
  Al  Al21  1  0.449266  0.654769  0.250000  1
  Rh  Rh22  1  0.675829  0.330175  0.500716  1
  Rh  Rh23  1  0.324680  0.670116  0.501713  1
  Rh  Rh24  1  0.324680  0.670116  0.998287  1
  Rh  Rh25  1  0.675829  0.330175  0.999284  1
  Rh  Rh26  1  0.998560  0.998826  0.501843  1
  Rh  Rh27  1  0.998560  0.998826  0.998157  1
