# generated using pymatgen
data_PrTh3(SnPd2)2
_symmetry_space_group_name_H-M   'P 1'
_cell_length_a   7.93203228
_cell_length_b   7.93203212
_cell_length_c   3.86419300
_cell_angle_alpha   90.00000000
_cell_angle_beta   90.00000000
_cell_angle_gamma   89.38987549
_symmetry_Int_Tables_number   1
_chemical_formula_structural   PrTh3(SnPd2)2
_chemical_formula_sum   'Pr1 Th3 Sn2 Pd4'
_cell_volume   243.11016761
_cell_formula_units_Z   1
loop_
 _symmetry_equiv_pos_site_id
 _symmetry_equiv_pos_as_xyz
  1  'x, y, z'
loop_
 _atom_site_type_symbol
 _atom_site_label
 _atom_site_symmetry_multiplicity
 _atom_site_fract_x
 _atom_site_fract_y
 _atom_site_fract_z
 _atom_site_occupancy
  Pr  Pr0  1  0.676348  0.176348  0.500000  1
  Th  Th1  1  0.326124  0.826124  0.500000  1
  Th  Th2  1  0.824417  0.675111  0.500000  1
  Th  Th3  1  0.175111  0.324417  0.500000  1
  Sn  Sn4  1  0.997471  0.000852  0.000000  1
  Sn  Sn5  1  0.500852  0.497471  0.000000  1
  Pd  Pd6  1  0.364709  0.122620  0.000000  1
  Pd  Pd7  1  0.881394  0.381394  0.000000  1
  Pd  Pd8  1  0.130956  0.630956  0.000000  1
  Pd  Pd9  1  0.622620  0.864709  0.000000  1
