# generated using pymatgen
data_GaF10
_symmetry_space_group_name_H-M   'P 1'
_cell_length_a   3.91279391
_cell_length_b   3.91005415
_cell_length_c   11.22859197
_cell_angle_alpha   90.79271178
_cell_angle_beta   82.62129812
_cell_angle_gamma   89.91617097
_symmetry_Int_Tables_number   1
_chemical_formula_structural   GaF10
_chemical_formula_sum   'Ga1 F10'
_cell_volume   170.34907535
_cell_formula_units_Z   1
loop_
 _symmetry_equiv_pos_site_id
 _symmetry_equiv_pos_as_xyz
  1  'x, y, z'
loop_
 _atom_site_type_symbol
 _atom_site_label
 _atom_site_symmetry_multiplicity
 _atom_site_fract_x
 _atom_site_fract_y
 _atom_site_fract_z
 _atom_site_occupancy
  Ga  Ga0  1  0.644850  0.693215  0.275084  1
  F  F1  1  0.323127  0.115372  0.002401  1
  F  F2  1  0.082382  0.179676  0.920857  1
  F  F3  1  0.687879  0.637684  0.822581  1
  F  F4  1  0.104117  0.176070  0.629347  1
  F  F5  1  0.539664  0.686770  0.714702  1
  F  F6  1  0.024624  0.212690  0.510766  1
  F  F7  1  0.578088  0.701405  0.441288  1
  F  F8  1  0.647552  0.193667  0.277820  1
  F  F9  1  0.144929  0.691977  0.275724  1
  F  F10  1  0.709360  0.690374  0.109957  1
