# generated using pymatgen
data_Ho12Lu4MgHg3Rh4
_symmetry_space_group_name_H-M   'P 1'
_cell_length_a   9.54378744
_cell_length_b   9.51276345
_cell_length_c   9.54037900
_cell_angle_alpha   59.90391950
_cell_angle_beta   60.01180982
_cell_angle_gamma   60.02769310
_symmetry_Int_Tables_number   1
_chemical_formula_structural   Ho12Lu4MgHg3Rh4
_chemical_formula_sum   'Ho12 Lu4 Mg1 Hg3 Rh4'
_cell_volume   612.19689983
_cell_formula_units_Z   1
loop_
 _symmetry_equiv_pos_site_id
 _symmetry_equiv_pos_as_xyz
  1  'x, y, z'
loop_
 _atom_site_type_symbol
 _atom_site_label
 _atom_site_symmetry_multiplicity
 _atom_site_fract_x
 _atom_site_fract_y
 _atom_site_fract_z
 _atom_site_occupancy
  Ho  Ho0  1  0.184129  0.185789  0.815041  1
  Ho  Ho1  1  0.811221  0.812273  0.188253  1
  Ho  Ho2  1  0.937251  0.562725  0.562826  1
  Ho  Ho3  1  0.562196  0.937106  0.935916  1
  Ho  Ho4  1  0.562196  0.937106  0.564783  1
  Ho  Ho5  1  0.937251  0.562725  0.937198  1
  Ho  Ho6  1  0.563187  0.563528  0.936643  1
  Ho  Ho7  1  0.937297  0.938747  0.561978  1
  Ho  Ho8  1  0.351258  0.348931  0.346876  1
  Ho  Ho9  1  0.351258  0.348931  0.952935  1
  Ho  Ho10  1  0.352833  0.951333  0.347917  1
  Ho  Ho11  1  0.937539  0.354806  0.353827  1
  Lu  Lu12  1  0.810001  0.188490  0.189896  1
  Lu  Lu13  1  0.184613  0.813396  0.814250  1
  Lu  Lu14  1  0.184613  0.813396  0.187740  1
  Lu  Lu15  1  0.810001  0.188490  0.811614  1
  Mg  Mg16  1  0.285107  0.572140  0.571377  1
  Hg  Hg17  1  0.582518  0.585546  0.587951  1
  Hg  Hg18  1  0.582518  0.585546  0.243986  1
  Hg  Hg19  1  0.581574  0.243335  0.587546  1
  Rh  Rh20  1  0.137609  0.143215  0.146405  1
  Rh  Rh21  1  0.137609  0.143215  0.572770  1
  Rh  Rh22  1  0.141257  0.573956  0.142394  1
  Rh  Rh23  1  0.574968  0.145275  0.139878  1
