# generated using pymatgen
data_LaEr3(Si5Os3)2
_symmetry_space_group_name_H-M   'P 1'
_cell_length_a   8.25181427
_cell_length_b   8.30808473
_cell_length_c   8.30808474
_cell_angle_alpha   139.91184006
_cell_angle_beta   108.43953403
_cell_angle_gamma   85.42544815
_symmetry_Int_Tables_number   1
_chemical_formula_structural   LaEr3(Si5Os3)2
_chemical_formula_sum   'La1 Er3 Si10 Os6'
_cell_volume   335.46152353
_cell_formula_units_Z   1
loop_
 _symmetry_equiv_pos_site_id
 _symmetry_equiv_pos_as_xyz
  1  'x, y, z'
loop_
 _atom_site_type_symbol
 _atom_site_label
 _atom_site_symmetry_multiplicity
 _atom_site_fract_x
 _atom_site_fract_y
 _atom_site_fract_z
 _atom_site_occupancy
  La  La0  1  0.907121  0.137115  0.770005  1
  Er  Er1  1  0.089655  0.860735  0.228920  1
  Er  Er2  1  0.633198  0.368624  0.264574  1
  Er  Er3  1  0.370089  0.633636  0.736453  1
  Si  Si4  1  0.003271  0.751280  0.754515  1
  Si  Si5  1  0.003271  0.248756  0.251990  1
  Si  Si6  1  0.712621  0.476241  0.771335  1
  Si  Si7  1  0.287255  0.058486  0.760582  1
  Si  Si8  1  0.287255  0.526672  0.228769  1
  Si  Si9  1  0.712621  0.941287  0.236380  1
  Si  Si10  1  0.228365  0.401468  0.826897  1
  Si  Si11  1  0.570146  0.906402  0.663745  1
  Si  Si12  1  0.423252  0.088823  0.334428  1
  Si  Si13  1  0.769522  0.599163  0.170359  1
  Os  Os14  1  0.753973  0.856310  0.897665  1
  Os  Os15  1  0.498145  0.252218  0.751242  1
  Os  Os16  1  0.936251  0.349953  0.586298  1
  Os  Os17  1  0.065878  0.651228  0.414650  1
  Os  Os18  1  0.249966  0.144698  0.105266  1
  Os  Os19  1  0.498145  0.746904  0.245928  1
