# generated using pymatgen
data_DyY5Hf2(Co4P3)4
_symmetry_space_group_name_H-M   'P 1'
_cell_length_a   3.71508000
_cell_length_b   10.67706600
_cell_length_c   12.38629900
_cell_angle_alpha   89.99892679
_cell_angle_beta   90.00000000
_cell_angle_gamma   90.00000000
_symmetry_Int_Tables_number   1
_chemical_formula_structural   DyY5Hf2(Co4P3)4
_chemical_formula_sum   'Dy1 Y5 Hf2 Co16 P12'
_cell_volume   491.31684798
_cell_formula_units_Z   1
loop_
 _symmetry_equiv_pos_site_id
 _symmetry_equiv_pos_as_xyz
  1  'x, y, z'
loop_
 _atom_site_type_symbol
 _atom_site_label
 _atom_site_symmetry_multiplicity
 _atom_site_fract_x
 _atom_site_fract_y
 _atom_site_fract_z
 _atom_site_occupancy
  Dy  Dy0  1  0.000000  0.321814  0.795419  1
  Y  Y1  1  0.000000  0.499992  0.528361  1
  Y  Y2  1  0.500000  0.000001  0.471627  1
  Y  Y3  1  0.500000  0.821759  0.204583  1
  Y  Y4  1  0.500000  0.178210  0.204582  1
  Y  Y5  1  0.000000  0.678229  0.795433  1
  Hf  Hf6  1  0.500000  0.500025  0.157181  1
  Hf  Hf7  1  0.000000  0.000006  0.842798  1
  Co  Co8  1  0.500000  0.499922  0.703197  1
  Co  Co9  1  0.000000  0.999997  0.296846  1
  Co  Co10  1  0.000000  0.500000  0.986823  1
  Co  Co11  1  0.500000  0.999993  0.013156  1
  Co  Co12  1  0.500000  0.332116  0.993373  1
  Co  Co13  1  0.500000  0.667892  0.993398  1
  Co  Co14  1  0.000000  0.167910  0.006579  1
  Co  Co15  1  0.000000  0.832082  0.006601  1
  Co  Co16  1  0.500000  0.295194  0.432974  1
  Co  Co17  1  0.500000  0.704801  0.432959  1
  Co  Co18  1  0.000000  0.204826  0.567041  1
  Co  Co19  1  0.000000  0.795195  0.567032  1
  Co  Co20  1  0.500000  0.877946  0.703054  1
  Co  Co21  1  0.500000  0.122082  0.703065  1
  Co  Co22  1  0.000000  0.622062  0.296949  1
  Co  Co23  1  0.000000  0.377951  0.296959  1
  P  P24  1  0.500000  0.499933  0.883452  1
  P  P25  1  0.000000  0.000008  0.116537  1
  P  P26  1  0.500000  0.500005  0.361484  1
  P  P27  1  0.000000  0.999993  0.638525  1
  P  P28  1  0.500000  0.309941  0.615573  1
  P  P29  1  0.500000  0.690062  0.615521  1
  P  P30  1  0.000000  0.190050  0.384478  1
  P  P31  1  0.000000  0.809941  0.384480  1
  P  P32  1  0.500000  0.838730  0.893317  1
  P  P33  1  0.500000  0.161340  0.893283  1
  P  P34  1  0.000000  0.661276  0.106682  1
  P  P35  1  0.000000  0.338719  0.106677  1
