# generated using pymatgen
data_Y12In2Fe2Ru
_symmetry_space_group_name_H-M   'P 1'
_cell_length_a   8.44475222
_cell_length_b   8.44475279
_cell_length_c   8.44475200
_cell_angle_alpha   108.64664871
_cell_angle_beta   108.64664286
_cell_angle_gamma   111.13326074
_symmetry_Int_Tables_number   1
_chemical_formula_structural   Y12In2Fe2Ru
_chemical_formula_sum   'Y12 In2 Fe2 Ru1'
_cell_volume   463.30161336
_cell_formula_units_Z   1
loop_
 _symmetry_equiv_pos_site_id
 _symmetry_equiv_pos_as_xyz
  1  'x, y, z'
loop_
 _atom_site_type_symbol
 _atom_site_label
 _atom_site_symmetry_multiplicity
 _atom_site_fract_x
 _atom_site_fract_y
 _atom_site_fract_z
 _atom_site_occupancy
  Y  Y0  1  0.192296  0.431281  0.238985  1
  Y  Y1  1  0.807704  0.568719  0.761015  1
  Y  Y2  1  0.192296  0.953312  0.761015  1
  Y  Y3  1  0.953312  0.192296  0.761015  1
  Y  Y4  1  0.807704  0.046688  0.238985  1
  Y  Y5  1  0.046688  0.807704  0.238985  1
  Y  Y6  1  0.431281  0.192296  0.238985  1
  Y  Y7  1  0.568719  0.807704  0.761015  1
  Y  Y8  1  0.307675  0.307675  0.615351  1
  Y  Y9  1  0.692325  0.692325  0.384649  1
  Y  Y10  1  0.692325  0.307675  0.000000  1
  Y  Y11  1  0.307675  0.692325  0.000000  1
  In  In12  1  0.000000  0.500000  0.500000  1
  In  In13  1  0.500000  0.000000  0.500000  1
  Fe  Fe14  1  0.386411  0.386411  0.000000  1
  Fe  Fe15  1  0.613589  0.613589  0.000000  1
  Ru  Ru16  1  0.000000  0.000000  0.000000  1
