# generated using pymatgen
data_HoTm4Co(P2Ru3)6
_symmetry_space_group_name_H-M   'P 1'
_cell_length_a   12.45803123
_cell_length_b   12.45803114
_cell_length_c   3.95796700
_cell_angle_alpha   90.00000000
_cell_angle_beta   90.00000000
_cell_angle_gamma   120.02216994
_symmetry_Int_Tables_number   1
_chemical_formula_structural   HoTm4Co(P2Ru3)6
_chemical_formula_sum   'Ho1 Tm4 Co1 P12 Ru18'
_cell_volume   531.86885978
_cell_formula_units_Z   1
loop_
 _symmetry_equiv_pos_site_id
 _symmetry_equiv_pos_as_xyz
  1  'x, y, z'
loop_
 _atom_site_type_symbol
 _atom_site_label
 _atom_site_symmetry_multiplicity
 _atom_site_fract_x
 _atom_site_fract_y
 _atom_site_fract_z
 _atom_site_occupancy
  Ho  Ho0  1  0.182514  0.182514  0.500000  1
  Tm  Tm1  1  0.666681  0.333343  0.000000  1
  Tm  Tm2  1  0.333343  0.666681  0.000000  1
  Tm  Tm3  1  0.817442  0.999990  0.500000  1
  Tm  Tm4  1  0.999990  0.817442  0.500000  1
  Co  Co5  1  0.999697  0.999697  0.000000  1
  P  P6  1  0.372468  0.372468  0.000000  1
  P  P7  1  0.627656  0.999986  0.000000  1
  P  P8  1  0.999986  0.627656  0.000000  1
  P  P9  1  0.830452  0.307034  0.500000  1
  P  P10  1  0.693045  0.523539  0.500000  1
  P  P11  1  0.476519  0.169527  0.500000  1
  P  P12  1  0.307034  0.830452  0.500000  1
  P  P13  1  0.523539  0.693045  0.500000  1
  P  P14  1  0.169527  0.476519  0.500000  1
  P  P15  1  0.823842  0.823842  0.000000  1
  P  P16  1  0.176122  0.999715  0.000000  1
  P  P17  1  0.999715  0.176122  0.000000  1
  Ru  Ru18  1  0.815763  0.190235  0.000000  1
  Ru  Ru19  1  0.809732  0.625549  0.000000  1
  Ru  Ru20  1  0.374867  0.184119  0.000000  1
  Ru  Ru21  1  0.190235  0.815763  0.000000  1
  Ru  Ru22  1  0.625549  0.809732  0.000000  1
  Ru  Ru23  1  0.184119  0.374867  0.000000  1
  Ru  Ru24  1  0.556109  0.556109  0.000000  1
  Ru  Ru25  1  0.443952  0.999967  0.000000  1
  Ru  Ru26  1  0.999967  0.443952  0.000000  1
  Ru  Ru27  1  0.635043  0.126803  0.500000  1
  Ru  Ru28  1  0.873215  0.508293  0.500000  1
  Ru  Ru29  1  0.491836  0.365048  0.500000  1
  Ru  Ru30  1  0.126803  0.635043  0.500000  1
  Ru  Ru31  1  0.508293  0.873215  0.500000  1
  Ru  Ru32  1  0.365048  0.491836  0.500000  1
  Ru  Ru33  1  0.721634  0.721634  0.500000  1
  Ru  Ru34  1  0.278489  0.999773  0.500000  1
  Ru  Ru35  1  0.999773  0.278489  0.500000  1
