# generated using pymatgen
data_TbAl3Cu
_symmetry_space_group_name_H-M   'P 1'
_cell_length_a   4.13967847
_cell_length_b   4.14120044
_cell_length_c   6.10494744
_cell_angle_alpha   70.17383242
_cell_angle_beta   70.18143299
_cell_angle_gamma   90.00000093
_symmetry_Int_Tables_number   1
_chemical_formula_structural   TbAl3Cu
_chemical_formula_sum   'Tb1 Al3 Cu1'
_cell_volume   91.83843471
_cell_formula_units_Z   1
loop_
 _symmetry_equiv_pos_site_id
 _symmetry_equiv_pos_as_xyz
  1  'x, y, z'
loop_
 _atom_site_type_symbol
 _atom_site_label
 _atom_site_symmetry_multiplicity
 _atom_site_fract_x
 _atom_site_fract_y
 _atom_site_fract_z
 _atom_site_occupancy
  Tb  Tb0  1  0.994802  0.994802  0.010396  1
  Al  Al1  1  0.400952  0.400952  0.198097  1
  Al  Al2  1  0.742025  0.242025  0.515951  1
  Al  Al3  1  0.242163  0.742163  0.515674  1
  Cu  Cu4  1  0.620059  0.620059  0.759882  1
