# generated using pymatgen
data_LaYbDy5OsBr12
_symmetry_space_group_name_H-M   'P 1'
_cell_length_a   9.26406675
_cell_length_b   9.40922605
_cell_length_c   9.45864117
_cell_angle_alpha   106.88701643
_cell_angle_beta   106.65290173
_cell_angle_gamma   107.42390895
_symmetry_Int_Tables_number   1
_chemical_formula_structural   LaYbDy5OsBr12
_chemical_formula_sum   'La1 Yb1 Dy5 Os1 Br12'
_cell_volume   686.84187315
_cell_formula_units_Z   1
loop_
 _symmetry_equiv_pos_site_id
 _symmetry_equiv_pos_as_xyz
  1  'x, y, z'
loop_
 _atom_site_type_symbol
 _atom_site_label
 _atom_site_symmetry_multiplicity
 _atom_site_fract_x
 _atom_site_fract_y
 _atom_site_fract_z
 _atom_site_occupancy
  La  La0  1  0.693203  0.897282  0.976730  1
  Yb  Yb1  1  0.502657  0.498930  0.495321  1
  Dy  Dy2  1  0.292829  0.100657  0.024024  1
  Dy  Dy3  1  0.023118  0.318688  0.109454  1
  Dy  Dy4  1  0.109741  0.025414  0.317455  1
  Dy  Dy5  1  0.895968  0.976072  0.687081  1
  Dy  Dy6  1  0.971415  0.681053  0.891051  1
  Os  Os7  1  0.986865  0.996077  0.001935  1
  Br  Br8  1  0.685518  0.235491  0.076366  1
  Br  Br9  1  0.372249  0.451016  0.158283  1
  Br  Br10  1  0.074978  0.680930  0.215891  1
  Br  Br11  1  0.794818  0.933484  0.335183  1
  Br  Br12  1  0.454105  0.158393  0.367892  1
  Br  Br13  1  0.163103  0.376016  0.456450  1
  Br  Br14  1  0.845778  0.625837  0.545640  1
  Br  Br15  1  0.544673  0.835174  0.608482  1
  Br  Br16  1  0.221830  0.074163  0.690900  1
  Br  Br17  1  0.932977  0.321668  0.786511  1
  Br  Br18  1  0.622800  0.527485  0.824404  1
  Br  Br19  1  0.311380  0.786173  0.930951  1
