# generated using pymatgen
data_Eu4YTa3O14
_symmetry_space_group_name_H-M   'P 1'
_cell_length_a   7.62314193
_cell_length_b   7.62314187
_cell_length_c   7.62314185
_cell_angle_alpha   60.06806703
_cell_angle_beta   60.06807143
_cell_angle_gamma   60.06806771
_symmetry_Int_Tables_number   1
_chemical_formula_structural   Eu4YTa3O14
_chemical_formula_sum   'Eu4 Y1 Ta3 O14'
_cell_volume   313.73028778
_cell_formula_units_Z   1
loop_
 _symmetry_equiv_pos_site_id
 _symmetry_equiv_pos_as_xyz
  1  'x, y, z'
loop_
 _atom_site_type_symbol
 _atom_site_label
 _atom_site_symmetry_multiplicity
 _atom_site_fract_x
 _atom_site_fract_y
 _atom_site_fract_z
 _atom_site_occupancy
  Eu  Eu0  1  0.625000  0.125000  0.125000  1
  Eu  Eu1  1  0.125000  0.625000  0.125000  1
  Eu  Eu2  1  0.125000  0.125000  0.625000  1
  Eu  Eu3  1  0.125000  0.125000  0.125000  1
  Y  Y4  1  0.625000  0.625000  0.625000  1
  Ta  Ta5  1  0.125000  0.625000  0.625000  1
  Ta  Ta6  1  0.625000  0.125000  0.625000  1
  Ta  Ta7  1  0.625000  0.625000  0.125000  1
  O  O8  1  0.247198  0.247198  0.247198  1
  O  O9  1  0.002802  0.002802  0.002802  1
  O  O10  1  0.713538  0.713538  0.265571  1
  O  O11  1  0.316759  0.316759  0.701767  1
  O  O12  1  0.713538  0.265571  0.713538  1
  O  O13  1  0.316759  0.701767  0.316759  1
  O  O14  1  0.265571  0.713538  0.713538  1
  O  O15  1  0.701767  0.316759  0.316759  1
  O  O16  1  0.536462  0.536462  0.984429  1
  O  O17  1  0.933241  0.933241  0.548233  1
  O  O18  1  0.536462  0.984429  0.536462  1
  O  O19  1  0.933241  0.548233  0.933241  1
  O  O20  1  0.984429  0.536462  0.536462  1
  O  O21  1  0.548233  0.933241  0.933241  1
