# generated using pymatgen
data_Lu2Th3Pb3C
_symmetry_space_group_name_H-M   'P 1'
_cell_length_a   9.28799901
_cell_length_b   9.28739228
_cell_length_c   6.50748700
_cell_angle_alpha   89.99902663
_cell_angle_beta   90.00048131
_cell_angle_gamma   119.99784252
_symmetry_Int_Tables_number   1
_chemical_formula_structural   Lu2Th3Pb3C
_chemical_formula_sum   'Lu4 Th6 Pb6 C2'
_cell_volume   486.14892754
_cell_formula_units_Z   2
loop_
 _symmetry_equiv_pos_site_id
 _symmetry_equiv_pos_as_xyz
  1  'x, y, z'
loop_
 _atom_site_type_symbol
 _atom_site_label
 _atom_site_symmetry_multiplicity
 _atom_site_fract_x
 _atom_site_fract_y
 _atom_site_fract_z
 _atom_site_occupancy
  Lu  Lu0  1  0.666667  0.333340  0.500008  1
  Lu  Lu1  1  0.333333  0.666674  0.500008  1
  Lu  Lu2  1  0.333320  0.666662  0.000008  1
  Lu  Lu3  1  0.666680  0.333341  0.000008  1
  Th  Th4  1  0.779021  0.779047  0.249984  1
  Th  Th5  1  0.220979  0.000026  0.249984  1
  Th  Th6  1  0.000000  0.220993  0.249927  1
  Th  Th7  1  0.221004  0.220979  0.750050  1
  Th  Th8  1  0.778996  0.999976  0.750050  1
  Th  Th9  1  0.000000  0.778969  0.750042  1
  Pb  Pb10  1  0.406902  0.406896  0.250106  1
  Pb  Pb11  1  0.593098  0.999993  0.250106  1
  Pb  Pb12  1  0.000000  0.593028  0.250076  1
  Pb  Pb13  1  0.593079  0.593098  0.749889  1
  Pb  Pb14  1  0.406921  0.000020  0.749889  1
  Pb  Pb15  1  0.000000  0.406937  0.749857  1
  C  C16  1  0.000000  0.000013  0.500004  1
  C  C17  1  0.000000  0.000006  0.000005  1
