# generated using pymatgen
data_Ca3YAs6Rh7
_symmetry_space_group_name_H-M   'P 1'
_cell_length_a   7.31442986
_cell_length_b   7.28955819
_cell_length_c   7.28955931
_cell_angle_alpha   109.40199072
_cell_angle_beta   109.54035676
_cell_angle_gamma   109.54035985
_symmetry_Int_Tables_number   1
_chemical_formula_structural   Ca3YAs6Rh7
_chemical_formula_sum   'Ca3 Y1 As6 Rh7'
_cell_volume   298.94398287
_cell_formula_units_Z   1
loop_
 _symmetry_equiv_pos_site_id
 _symmetry_equiv_pos_as_xyz
  1  'x, y, z'
loop_
 _atom_site_type_symbol
 _atom_site_label
 _atom_site_symmetry_multiplicity
 _atom_site_fract_x
 _atom_site_fract_y
 _atom_site_fract_z
 _atom_site_occupancy
  Ca  Ca0  1  0.500000  0.500000  0.500000  1
  Ca  Ca1  1  0.000000  0.500000  0.000000  1
  Ca  Ca2  1  0.000000  0.000000  0.500000  1
  Y  Y3  1  0.500000  0.000000  0.000000  1
  As  As4  1  0.678779  0.000000  0.676730  1
  As  As5  1  0.678779  0.676730  0.000000  1
  As  As6  1  0.321221  0.323270  0.000000  1
  As  As7  1  0.997952  0.676730  0.676730  1
  As  As8  1  0.002048  0.323270  0.323270  1
  As  As9  1  0.321221  0.000000  0.323270  1
  Rh  Rh10  1  0.500000  0.751662  0.248338  1
  Rh  Rh11  1  0.748338  0.248338  0.496676  1
  Rh  Rh12  1  0.251662  0.751662  0.503324  1
  Rh  Rh13  1  0.251662  0.503324  0.751662  1
  Rh  Rh14  1  0.000000  0.000000  0.000000  1
  Rh  Rh15  1  0.500000  0.248338  0.751662  1
  Rh  Rh16  1  0.748338  0.496676  0.248338  1
