# generated using pymatgen
data_Pr2Y5(LuBi2)3
_symmetry_space_group_name_H-M   'P 1'
_cell_length_a   8.32097500
_cell_length_b   9.53574005
_cell_length_c   12.18095301
_cell_angle_alpha   90.00341241
_cell_angle_beta   90.00000000
_cell_angle_gamma   90.00000000
_symmetry_Int_Tables_number   1
_chemical_formula_structural   Pr2Y5(LuBi2)3
_chemical_formula_sum   'Pr4 Y10 Lu6 Bi12'
_cell_volume   966.51786882
_cell_formula_units_Z   2
loop_
 _symmetry_equiv_pos_site_id
 _symmetry_equiv_pos_as_xyz
  1  'x, y, z'
loop_
 _atom_site_type_symbol
 _atom_site_label
 _atom_site_symmetry_multiplicity
 _atom_site_fract_x
 _atom_site_fract_y
 _atom_site_fract_z
 _atom_site_occupancy
  Pr  Pr0  1  0.183981  0.749842  0.720513  1
  Pr  Pr1  1  0.683981  0.750158  0.779487  1
  Pr  Pr2  1  0.816356  0.249846  0.279698  1
  Pr  Pr3  1  0.316356  0.250154  0.220302  1
  Y  Y4  1  0.692209  0.936386  0.059722  1
  Y  Y5  1  0.192209  0.563614  0.440278  1
  Y  Y6  1  0.693403  0.562346  0.060464  1
  Y  Y7  1  0.193403  0.937654  0.439536  1
  Y  Y8  1  0.306805  0.062416  0.939714  1
  Y  Y9  1  0.806805  0.437584  0.560286  1
  Y  Y10  1  0.354116  0.750442  0.216887  1
  Y  Y11  1  0.854116  0.749558  0.283113  1
  Y  Y12  1  0.646716  0.249617  0.782730  1
  Y  Y13  1  0.146716  0.250383  0.717270  1
  Lu  Lu14  1  0.025059  0.749670  0.989316  1
  Lu  Lu15  1  0.525059  0.750330  0.510684  1
  Lu  Lu16  1  0.976241  0.250480  0.010345  1
  Lu  Lu17  1  0.476241  0.249520  0.489655  1
  Lu  Lu18  1  0.306357  0.432667  0.939690  1
  Lu  Lu19  1  0.806357  0.067333  0.560310  1
  Bi  Bi20  1  0.435276  0.008040  0.669734  1
  Bi  Bi21  1  0.935276  0.491960  0.830266  1
  Bi  Bi22  1  0.565142  0.508160  0.330141  1
  Bi  Bi23  1  0.065142  0.991840  0.169859  1
  Bi  Bi24  1  0.565395  0.991845  0.330551  1
  Bi  Bi25  1  0.065395  0.508155  0.169449  1
  Bi  Bi26  1  0.434400  0.491737  0.669719  1
  Bi  Bi27  1  0.934400  0.008263  0.830281  1
  Bi  Bi28  1  0.404499  0.745368  0.962138  1
  Bi  Bi29  1  0.904499  0.754632  0.537862  1
  Bi  Bi30  1  0.594043  0.250392  0.036831  1
  Bi  Bi31  1  0.094043  0.249608  0.463169  1
