# generated using pymatgen
data_Tm3Co(Ni3B)2
_symmetry_space_group_name_H-M   'P 1'
_cell_length_a   4.98923200
_cell_length_b   5.02270540
_cell_length_c   14.26635700
_cell_angle_alpha   90.00000000
_cell_angle_beta   90.00000000
_cell_angle_gamma   119.77979982
_symmetry_Int_Tables_number   1
_chemical_formula_structural   Tm3Co(Ni3B)2
_chemical_formula_sum   'Tm6 Co2 Ni12 B4'
_cell_volume   310.29480371
_cell_formula_units_Z   2
loop_
 _symmetry_equiv_pos_site_id
 _symmetry_equiv_pos_as_xyz
  1  'x, y, z'
loop_
 _atom_site_type_symbol
 _atom_site_label
 _atom_site_symmetry_multiplicity
 _atom_site_fract_x
 _atom_site_fract_y
 _atom_site_fract_z
 _atom_site_occupancy
  Tm  Tm0  1  0.333304  0.666610  0.533681  1
  Tm  Tm1  1  0.666696  0.333390  0.033681  1
  Tm  Tm2  1  0.666478  0.332955  0.468568  1
  Tm  Tm3  1  0.333522  0.667045  0.968568  1
  Tm  Tm4  1  0.333210  0.666422  0.749820  1
  Tm  Tm5  1  0.666790  0.333578  0.249820  1
  Co  Co6  1  0.164276  0.328552  0.149812  1
  Co  Co7  1  0.835724  0.671448  0.649812  1
  Ni  Ni8  1  0.000995  0.001991  0.000065  1
  Ni  Ni9  1  0.999005  0.998009  0.500065  1
  Ni  Ni10  1  0.668144  0.833400  0.147616  1
  Ni  Ni11  1  0.165256  0.833400  0.147616  1
  Ni  Ni12  1  0.834744  0.166600  0.647616  1
  Ni  Ni13  1  0.331856  0.166600  0.647616  1
  Ni  Ni14  1  0.833887  0.667774  0.851997  1
  Ni  Ni15  1  0.833858  0.165323  0.851672  1
  Ni  Ni16  1  0.331466  0.165323  0.851672  1
  Ni  Ni17  1  0.668534  0.834677  0.351672  1
  Ni  Ni18  1  0.166142  0.834677  0.351672  1
  Ni  Ni19  1  0.166113  0.332226  0.351997  1
  B  B20  1  0.331245  0.662490  0.248679  1
  B  B21  1  0.668755  0.337510  0.748679  1
  B  B22  1  0.003084  0.006167  0.248800  1
  B  B23  1  0.996916  0.993833  0.748800  1
