# generated using pymatgen
data_Ho4Lu3CoI12
_symmetry_space_group_name_H-M   'P 1'
_cell_length_a   9.65981458
_cell_length_b   9.65981431
_cell_length_c   9.65981409
_cell_angle_alpha   106.82946770
_cell_angle_beta   106.82946505
_cell_angle_gamma   106.82947278
_symmetry_Int_Tables_number   1
_chemical_formula_structural   Ho4Lu3CoI12
_chemical_formula_sum   'Ho4 Lu3 Co1 I12'
_cell_volume   754.13997841
_cell_formula_units_Z   1
loop_
 _symmetry_equiv_pos_site_id
 _symmetry_equiv_pos_as_xyz
  1  'x, y, z'
loop_
 _atom_site_type_symbol
 _atom_site_label
 _atom_site_symmetry_multiplicity
 _atom_site_fract_x
 _atom_site_fract_y
 _atom_site_fract_z
 _atom_site_occupancy
  Ho  Ho0  1  0.499890  0.499890  0.499890  1
  Ho  Ho1  1  0.713916  0.909688  0.979442  1
  Ho  Ho2  1  0.979442  0.713916  0.909688  1
  Ho  Ho3  1  0.909688  0.979442  0.713916  1
  Lu  Lu4  1  0.282399  0.090241  0.022014  1
  Lu  Lu5  1  0.022014  0.282399  0.090241  1
  Lu  Lu6  1  0.090241  0.022014  0.282399  1
  Co  Co7  1  0.000662  0.000662  0.000662  1
  I  I8  1  0.462638  0.160523  0.386262  1
  I  I9  1  0.386262  0.462638  0.160523  1
  I  I10  1  0.160523  0.386262  0.462638  1
  I  I11  1  0.536614  0.839709  0.613362  1
  I  I12  1  0.613362  0.536614  0.839709  1
  I  I13  1  0.839709  0.613362  0.536614  1
  I  I14  1  0.323877  0.776973  0.929666  1
  I  I15  1  0.929666  0.323877  0.776973  1
  I  I16  1  0.776973  0.929666  0.323877  1
  I  I17  1  0.676471  0.224857  0.070794  1
  I  I18  1  0.070794  0.676471  0.224857  1
  I  I19  1  0.224857  0.070794  0.676471  1
