# generated using pymatgen
data_Th10CdSn3Sb4
_symmetry_space_group_name_H-M   'P 1'
_cell_length_a   9.64198100
_cell_length_b   9.64198119
_cell_length_c   6.56853900
_cell_angle_alpha   90.00000000
_cell_angle_beta   90.00000000
_cell_angle_gamma   119.99999591
_symmetry_Int_Tables_number   1
_chemical_formula_structural   Th10CdSn3Sb4
_chemical_formula_sum   'Th10 Cd1 Sn3 Sb4'
_cell_volume   528.84936085
_cell_formula_units_Z   1
loop_
 _symmetry_equiv_pos_site_id
 _symmetry_equiv_pos_as_xyz
  1  'x, y, z'
loop_
 _atom_site_type_symbol
 _atom_site_label
 _atom_site_symmetry_multiplicity
 _atom_site_fract_x
 _atom_site_fract_y
 _atom_site_fract_z
 _atom_site_occupancy
  Th  Th0  1  0.000000  0.718252  0.749245  1
  Th  Th1  1  0.281748  0.281748  0.749245  1
  Th  Th2  1  0.333333  0.666667  0.498647  1
  Th  Th3  1  0.666667  0.333333  0.498647  1
  Th  Th4  1  0.716561  0.716561  0.250422  1
  Th  Th5  1  0.718252  0.000000  0.749245  1
  Th  Th6  1  0.000000  0.283439  0.250422  1
  Th  Th7  1  0.283439  0.000000  0.250422  1
  Th  Th8  1  0.333333  0.666667  0.000714  1
  Th  Th9  1  0.666667  0.333333  0.000714  1
  Cd  Cd10  1  0.000000  0.000000  0.003128  1
  Sn  Sn11  1  0.622883  0.000000  0.248123  1
  Sn  Sn12  1  0.377117  0.377117  0.248123  1
  Sn  Sn13  1  0.000000  0.622883  0.248123  1
  Sb  Sb14  1  0.621320  0.621320  0.751852  1
  Sb  Sb15  1  0.000000  0.378680  0.751852  1
  Sb  Sb16  1  0.378680  0.000000  0.751852  1
  Sb  Sb17  1  0.000000  0.000000  0.499222  1
