# generated using pymatgen
data_Nd8Tm12Si15Ni
_symmetry_space_group_name_H-M   'P 1'
_cell_length_a   7.70340489
_cell_length_b   7.73039701
_cell_length_c   14.16884524
_cell_angle_alpha   89.77563172
_cell_angle_beta   89.76906829
_cell_angle_gamma   90.03146412
_symmetry_Int_Tables_number   1
_chemical_formula_structural   Nd8Tm12Si15Ni
_chemical_formula_sum   'Nd8 Tm12 Si15 Ni1'
_cell_volume   843.74663422
_cell_formula_units_Z   1
loop_
 _symmetry_equiv_pos_site_id
 _symmetry_equiv_pos_as_xyz
  1  'x, y, z'
loop_
 _atom_site_type_symbol
 _atom_site_label
 _atom_site_symmetry_multiplicity
 _atom_site_fract_x
 _atom_site_fract_y
 _atom_site_fract_z
 _atom_site_occupancy
  Nd  Nd0  1  0.640846  0.991717  0.462853  1
  Nd  Nd1  1  0.357508  0.005961  0.958360  1
  Nd  Nd2  1  0.990405  0.642256  0.538461  1
  Nd  Nd3  1  0.492865  0.855781  0.210002  1
  Nd  Nd4  1  0.507965  0.144021  0.707786  1
  Nd  Nd5  1  0.855738  0.494144  0.790416  1
  Nd  Nd6  1  0.143746  0.506358  0.291062  1
  Nd  Nd7  1  0.008886  0.355541  0.041106  1
  Tm  Tm8  1  0.491693  0.359186  0.124179  1
  Tm  Tm9  1  0.996037  0.140460  0.626465  1
  Tm  Tm10  1  0.859539  0.005555  0.873955  1
  Tm  Tm11  1  0.140914  0.987592  0.378834  1
  Tm  Tm12  1  0.505747  0.643306  0.621395  1
  Tm  Tm13  1  0.360950  0.494225  0.876297  1
  Tm  Tm14  1  0.639600  0.506631  0.376731  1
  Tm  Tm15  1  0.007424  0.861409  0.125623  1
  Tm  Tm16  1  0.315224  0.310319  0.501914  1
  Tm  Tm17  1  0.187039  0.825779  0.741716  1
  Tm  Tm18  1  0.819369  0.180542  0.252019  1
  Tm  Tm19  1  0.681851  0.682121  0.000111  1
  Si  Si20  1  0.710026  0.062660  0.062019  1
  Si  Si21  1  0.937006  0.291359  0.438354  1
  Si  Si22  1  0.436823  0.210881  0.311457  1
  Si  Si23  1  0.564021  0.789462  0.811205  1
  Si  Si24  1  0.210748  0.439576  0.689492  1
  Si  Si25  1  0.790296  0.562854  0.188293  1
  Si  Si26  1  0.061064  0.709779  0.936679  1
  Si  Si27  1  0.794358  0.851455  0.686893  1
  Si  Si28  1  0.204152  0.148746  0.189019  1
  Si  Si29  1  0.848640  0.794985  0.311496  1
  Si  Si30  1  0.350781  0.705444  0.439229  1
  Si  Si31  1  0.651458  0.296652  0.939481  1
  Si  Si32  1  0.707861  0.352349  0.562938  1
  Si  Si33  1  0.296089  0.650951  0.060958  1
  Si  Si34  1  0.148259  0.209508  0.813851  1
  Ni  Ni35  1  0.285072  0.930435  0.559350  1
