# generated using pymatgen
data_CaY3(SiPd2)4
_symmetry_space_group_name_H-M   'P 1'
_cell_length_a   5.56297702
_cell_length_b   7.00475200
_cell_length_c   7.36094203
_cell_angle_alpha   90.00000000
_cell_angle_beta   90.01069838
_cell_angle_gamma   90.00000000
_symmetry_Int_Tables_number   1
_chemical_formula_structural   CaY3(SiPd2)4
_chemical_formula_sum   'Ca1 Y3 Si4 Pd8'
_cell_volume   286.83584328
_cell_formula_units_Z   1
loop_
 _symmetry_equiv_pos_site_id
 _symmetry_equiv_pos_as_xyz
  1  'x, y, z'
loop_
 _atom_site_type_symbol
 _atom_site_label
 _atom_site_symmetry_multiplicity
 _atom_site_fract_x
 _atom_site_fract_y
 _atom_site_fract_z
 _atom_site_occupancy
  Ca  Ca0  1  0.137833  0.250000  0.972583  1
  Y  Y1  1  0.359482  0.250000  0.471849  1
  Y  Y2  1  0.639970  0.750000  0.527267  1
  Y  Y3  1  0.860893  0.750000  0.028318  1
  Si  Si4  1  0.361237  0.750000  0.877807  1
  Si  Si5  1  0.639099  0.250000  0.122286  1
  Si  Si6  1  0.858357  0.250000  0.621930  1
  Si  Si7  1  0.140123  0.750000  0.377360  1
  Pd  Pd8  1  0.095849  0.553640  0.674722  1
  Pd  Pd9  1  0.095849  0.946360  0.674722  1
  Pd  Pd10  1  0.407721  0.552763  0.178276  1
  Pd  Pd11  1  0.901212  0.448026  0.323672  1
  Pd  Pd12  1  0.596721  0.448674  0.823629  1
  Pd  Pd13  1  0.901212  0.051974  0.323672  1
  Pd  Pd14  1  0.407721  0.947237  0.178276  1
  Pd  Pd15  1  0.596721  0.051326  0.823629  1
