# generated using pymatgen
data_TbY12Th3(ZnRh)4
_symmetry_space_group_name_H-M   'P 1'
_cell_length_a   9.62486651
_cell_length_b   9.61490426
_cell_length_c   9.61538544
_cell_angle_alpha   59.99309974
_cell_angle_beta   59.97181525
_cell_angle_gamma   59.97339564
_symmetry_Int_Tables_number   1
_chemical_formula_structural   TbY12Th3(ZnRh)4
_chemical_formula_sum   'Tb1 Y12 Th3 Zn4 Rh4'
_cell_volume   628.91042400
_cell_formula_units_Z   1
loop_
 _symmetry_equiv_pos_site_id
 _symmetry_equiv_pos_as_xyz
  1  'x, y, z'
loop_
 _atom_site_type_symbol
 _atom_site_label
 _atom_site_symmetry_multiplicity
 _atom_site_fract_x
 _atom_site_fract_y
 _atom_site_fract_z
 _atom_site_occupancy
  Tb  Tb0  1  0.183027  0.606541  0.606580  1
  Y  Y1  1  0.060140  0.441281  0.441294  1
  Y  Y2  1  0.437584  0.062162  0.062135  1
  Y  Y3  1  0.438476  0.061231  0.439956  1
  Y  Y4  1  0.060216  0.439914  0.059341  1
  Y  Y5  1  0.438487  0.439953  0.061211  1
  Y  Y6  1  0.060205  0.059340  0.439938  1
  Y  Y7  1  0.187916  0.814827  0.814830  1
  Y  Y8  1  0.814595  0.185117  0.185108  1
  Y  Y9  1  0.816371  0.186320  0.815524  1
  Y  Y10  1  0.186918  0.813557  0.185886  1
  Y  Y11  1  0.816359  0.815487  0.186370  1
  Y  Y12  1  0.186961  0.185893  0.813539  1
  Th  Th13  1  0.601623  0.601874  0.601940  1
  Th  Th14  1  0.604256  0.604496  0.188629  1
  Th  Th15  1  0.604272  0.188622  0.604495  1
  Zn  Zn16  1  0.831110  0.830115  0.830059  1
  Zn  Zn17  1  0.830562  0.829793  0.506163  1
  Zn  Zn18  1  0.830576  0.506139  0.829777  1
  Zn  Zn19  1  0.504259  0.830567  0.830538  1
  Rh  Rh20  1  0.397596  0.394487  0.394447  1
  Rh  Rh21  1  0.396288  0.392508  0.815442  1
  Rh  Rh22  1  0.396240  0.815492  0.392594  1
  Rh  Rh23  1  0.815963  0.394282  0.394202  1
