# generated using pymatgen
data_TbErTm2(NiP)4
_symmetry_space_group_name_H-M   'P 1'
_cell_length_a   3.87884000
_cell_length_b   3.87884002
_cell_length_c   15.17983700
_cell_angle_alpha   90.00000000
_cell_angle_beta   90.00000000
_cell_angle_gamma   119.99999983
_symmetry_Int_Tables_number   1
_chemical_formula_structural   TbErTm2(NiP)4
_chemical_formula_sum   'Tb1 Er1 Tm2 Ni4 P4'
_cell_volume   197.78869906
_cell_formula_units_Z   1
loop_
 _symmetry_equiv_pos_site_id
 _symmetry_equiv_pos_as_xyz
  1  'x, y, z'
loop_
 _atom_site_type_symbol
 _atom_site_label
 _atom_site_symmetry_multiplicity
 _atom_site_fract_x
 _atom_site_fract_y
 _atom_site_fract_z
 _atom_site_occupancy
  Tb  Tb0  1  0.000000  0.000000  0.500000  1
  Er  Er1  1  0.000000  0.000000  0.000000  1
  Tm  Tm2  1  0.000000  0.000000  0.249337  1
  Tm  Tm3  1  0.000000  0.000000  0.750663  1
  Ni  Ni4  1  0.333333  0.666667  0.129747  1
  Ni  Ni5  1  0.666667  0.333333  0.870253  1
  Ni  Ni6  1  0.666667  0.333333  0.632752  1
  Ni  Ni7  1  0.333333  0.666667  0.367248  1
  P  P8  1  0.333333  0.666667  0.624467  1
  P  P9  1  0.666667  0.333333  0.375533  1
  P  P10  1  0.666667  0.333333  0.122438  1
  P  P11  1  0.333333  0.666667  0.877562  1
