# generated using pymatgen
data_As2N11F
_symmetry_space_group_name_H-M   'P 1'
_cell_length_a   6.42003230
_cell_length_b   5.93741378
_cell_length_c   10.99721565
_cell_angle_alpha   93.73441312
_cell_angle_beta   101.73848106
_cell_angle_gamma   104.26456640
_symmetry_Int_Tables_number   1
_chemical_formula_structural   As2N11F
_chemical_formula_sum   'As2 N11 F1'
_cell_volume   394.82964138
_cell_formula_units_Z   1
loop_
 _symmetry_equiv_pos_site_id
 _symmetry_equiv_pos_as_xyz
  1  'x, y, z'
loop_
 _atom_site_type_symbol
 _atom_site_label
 _atom_site_symmetry_multiplicity
 _atom_site_fract_x
 _atom_site_fract_y
 _atom_site_fract_z
 _atom_site_occupancy
  As  As0  1  0.818228  0.935862  0.941763  1
  As  As1  1  0.056238  0.696859  0.907167  1
  N  N2  1  0.426955  0.288272  0.746387  1
  N  N3  1  0.208572  0.239196  0.398172  1
  N  N4  1  0.109988  0.160142  0.302896  1
  N  N5  1  0.427285  0.773478  0.307903  1
  N  N6  1  0.845391  0.478596  0.578203  1
  N  N7  1  0.394563  0.105605  0.701731  1
  N  N8  1  0.945056  0.593552  0.523076  1
  N  N9  1  0.669522  0.393840  0.119134  1
  N  N10  1  0.948805  0.924940  0.814275  1
  N  N11  1  0.586551  0.891806  0.362313  1
  N  N12  1  0.688568  0.389859  0.221820  1
  F  F13  1  0.323105  0.882888  0.994626  1
