# generated using pymatgen
data_Nd7YCd2(Mo3O16)2
_symmetry_space_group_name_H-M   'P 1'
_cell_length_a   11.09137100
_cell_length_b   11.10229800
_cell_length_c   11.10623000
_cell_angle_alpha   90.00000000
_cell_angle_beta   90.00000000
_cell_angle_gamma   90.00000000
_symmetry_Int_Tables_number   1
_chemical_formula_structural   Nd7YCd2(Mo3O16)2
_chemical_formula_sum   'Nd14 Y2 Cd4 Mo12 O64'
_cell_volume   1367.61789775
_cell_formula_units_Z   2
loop_
 _symmetry_equiv_pos_site_id
 _symmetry_equiv_pos_as_xyz
  1  'x, y, z'
loop_
 _atom_site_type_symbol
 _atom_site_label
 _atom_site_symmetry_multiplicity
 _atom_site_fract_x
 _atom_site_fract_y
 _atom_site_fract_z
 _atom_site_occupancy
  Nd  Nd0  1  0.000000  0.758858  0.000000  1
  Nd  Nd1  1  0.000000  0.241142  0.000000  1
  Nd  Nd2  1  0.500000  0.260797  0.500000  1
  Nd  Nd3  1  0.500000  0.739203  0.500000  1
  Nd  Nd4  1  0.000000  0.000000  0.758871  1
  Nd  Nd5  1  0.000000  0.000000  0.241129  1
  Nd  Nd6  1  0.500000  0.500000  0.260798  1
  Nd  Nd7  1  0.500000  0.500000  0.739202  1
  Nd  Nd8  1  0.758975  0.000000  0.000000  1
  Nd  Nd9  1  0.241025  0.000000  0.000000  1
  Nd  Nd10  1  0.750700  0.251332  0.251269  1
  Nd  Nd11  1  0.249300  0.251332  0.748731  1
  Nd  Nd12  1  0.249300  0.748668  0.251269  1
  Nd  Nd13  1  0.750700  0.748668  0.748731  1
  Y  Y14  1  0.262926  0.500000  0.500000  1
  Y  Y15  1  0.737074  0.500000  0.500000  1
  Cd  Cd16  1  0.248975  0.748505  0.748478  1
  Cd  Cd17  1  0.751025  0.748505  0.251522  1
  Cd  Cd18  1  0.751025  0.251495  0.748478  1
  Cd  Cd19  1  0.248975  0.251495  0.251522  1
  Mo  Mo20  1  0.500000  0.749322  0.000000  1
  Mo  Mo21  1  0.500000  0.250678  0.000000  1
  Mo  Mo22  1  0.000000  0.500000  0.745765  1
  Mo  Mo23  1  0.000000  0.500000  0.254235  1
  Mo  Mo24  1  0.749365  0.000000  0.500000  1
  Mo  Mo25  1  0.250635  0.000000  0.500000  1
  Mo  Mo26  1  0.000000  0.746080  0.500000  1
  Mo  Mo27  1  0.000000  0.253920  0.500000  1
  Mo  Mo28  1  0.500000  0.000000  0.748745  1
  Mo  Mo29  1  0.500000  0.000000  0.251255  1
  Mo  Mo30  1  0.748762  0.500000  0.000000  1
  Mo  Mo31  1  0.251238  0.500000  0.000000  1
  O  O32  1  0.167854  0.079123  0.617707  1
  O  O33  1  0.832146  0.079123  0.382293  1
  O  O34  1  0.832146  0.920877  0.617707  1
  O  O35  1  0.167854  0.920877  0.382293  1
  O  O36  1  0.888871  0.573429  0.345759  1
  O  O37  1  0.111129  0.573429  0.654241  1
  O  O38  1  0.111129  0.426571  0.345759  1
  O  O39  1  0.888871  0.426571  0.654241  1
  O  O40  1  0.618155  0.168313  0.078834  1
  O  O41  1  0.381845  0.831687  0.078834  1
  O  O42  1  0.618155  0.831687  0.921166  1
  O  O43  1  0.381845  0.168313  0.921166  1
  O  O44  1  0.342431  0.891099  0.575795  1
  O  O45  1  0.657569  0.108901  0.575795  1
  O  O46  1  0.342431  0.108901  0.424205  1
  O  O47  1  0.657569  0.891099  0.424205  1
  O  O48  1  0.077446  0.618207  0.170449  1
  O  O49  1  0.077446  0.381793  0.829551  1
  O  O50  1  0.922554  0.618207  0.829551  1
  O  O51  1  0.922554  0.381793  0.170449  1
  O  O52  1  0.575327  0.342285  0.890352  1
  O  O53  1  0.575327  0.657715  0.109648  1
  O  O54  1  0.424673  0.342285  0.109648  1
  O  O55  1  0.424673  0.657715  0.890352  1
  O  O56  1  0.332204  0.420221  0.880969  1
  O  O57  1  0.667796  0.420221  0.119031  1
  O  O58  1  0.667796  0.579779  0.880969  1
  O  O59  1  0.332204  0.579779  0.119031  1
  O  O60  1  0.608790  0.925498  0.158746  1
  O  O61  1  0.391210  0.925498  0.841254  1
  O  O62  1  0.391210  0.074502  0.158746  1
  O  O63  1  0.608790  0.074502  0.841254  1
  O  O64  1  0.879698  0.335165  0.422082  1
  O  O65  1  0.120302  0.664835  0.422082  1
  O  O66  1  0.879698  0.664835  0.577918  1
  O  O67  1  0.120302  0.335165  0.577918  1
  O  O68  1  0.158568  0.608677  0.925486  1
  O  O69  1  0.841432  0.391323  0.925486  1
  O  O70  1  0.158568  0.391323  0.074514  1
  O  O71  1  0.841432  0.608677  0.074514  1
  O  O72  1  0.420636  0.880276  0.332105  1
  O  O73  1  0.420636  0.119724  0.667895  1
  O  O74  1  0.579364  0.880276  0.667895  1
  O  O75  1  0.579364  0.119724  0.332105  1
  O  O76  1  0.926327  0.160896  0.609214  1
  O  O77  1  0.926327  0.839104  0.390786  1
  O  O78  1  0.073673  0.160896  0.390786  1
  O  O79  1  0.073673  0.839104  0.609214  1
  O  O80  1  0.135506  0.864485  0.864364  1
  O  O81  1  0.864494  0.864485  0.135636  1
  O  O82  1  0.864494  0.135515  0.864364  1
  O  O83  1  0.135506  0.135515  0.135636  1
  O  O84  1  0.629327  0.375749  0.375699  1
  O  O85  1  0.370673  0.375749  0.624301  1
  O  O86  1  0.370673  0.624251  0.375699  1
  O  O87  1  0.629327  0.624251  0.624301  1
  O  O88  1  0.362829  0.632720  0.632580  1
  O  O89  1  0.637171  0.632720  0.367420  1
  O  O90  1  0.637171  0.367280  0.632580  1
  O  O91  1  0.362829  0.367280  0.367420  1
  O  O92  1  0.872434  0.127888  0.127728  1
  O  O93  1  0.127566  0.127888  0.872272  1
  O  O94  1  0.127566  0.872112  0.127728  1
  O  O95  1  0.872434  0.872112  0.872272  1
