# generated using pymatgen
data_Ta3Be2Nb(B2Ru5)2
_symmetry_space_group_name_H-M   'P 1'
_cell_length_a   9.15599500
_cell_length_b   9.15599500
_cell_length_c   2.97190900
_cell_angle_alpha   90.00000000
_cell_angle_beta   90.00000000
_cell_angle_gamma   89.99818526
_symmetry_Int_Tables_number   1
_chemical_formula_structural   Ta3Be2Nb(B2Ru5)2
_chemical_formula_sum   'Ta3 Be2 Nb1 B4 Ru10'
_cell_volume   249.14180168
_cell_formula_units_Z   1
loop_
 _symmetry_equiv_pos_site_id
 _symmetry_equiv_pos_as_xyz
  1  'x, y, z'
loop_
 _atom_site_type_symbol
 _atom_site_label
 _atom_site_symmetry_multiplicity
 _atom_site_fract_x
 _atom_site_fract_y
 _atom_site_fract_z
 _atom_site_occupancy
  Ta  Ta0  1  0.176274  0.323726  0.000000  1
  Ta  Ta1  1  0.323742  0.823813  0.000000  1
  Ta  Ta2  1  0.676187  0.176258  0.000000  1
  Be  Be3  1  0.500060  0.500046  0.000000  1
  Be  Be4  1  0.999954  0.999940  0.000000  1
  Nb  Nb5  1  0.823876  0.676124  0.000000  1
  B  B6  1  0.628372  0.871628  0.000000  1
  B  B7  1  0.371782  0.128218  0.000000  1
  B  B8  1  0.127899  0.628138  0.000000  1
  B  B9  1  0.871862  0.372101  0.000000  1
  Ru  Ru10  1  0.565020  0.708139  0.500000  1
  Ru  Ru11  1  0.433517  0.291979  0.500000  1
  Ru  Ru12  1  0.067229  0.791970  0.500000  1
  Ru  Ru13  1  0.933477  0.208122  0.500000  1
  Ru  Ru14  1  0.291878  0.566523  0.500000  1
  Ru  Ru15  1  0.708030  0.432771  0.500000  1
  Ru  Ru16  1  0.208021  0.066483  0.500000  1
  Ru  Ru17  1  0.791861  0.934980  0.500000  1
  Ru  Ru18  1  0.499920  0.000080  0.500000  1
  Ru  Ru19  1  0.001039  0.498961  0.500000  1
