# generated using pymatgen
data_CsScSn3O8
_symmetry_space_group_name_H-M   'P 1'
_cell_length_a   7.75023219
_cell_length_b   7.75023239
_cell_length_c   10.76730235
_cell_angle_alpha   46.89250067
_cell_angle_beta   46.89249838
_cell_angle_gamma   24.32751397
_symmetry_Int_Tables_number   1
_chemical_formula_structural   CsScSn3O8
_chemical_formula_sum   'Cs1 Sc1 Sn3 O8'
_cell_volume   190.51317480
_cell_formula_units_Z   1
loop_
 _symmetry_equiv_pos_site_id
 _symmetry_equiv_pos_as_xyz
  1  'x, y, z'
loop_
 _atom_site_type_symbol
 _atom_site_label
 _atom_site_symmetry_multiplicity
 _atom_site_fract_x
 _atom_site_fract_y
 _atom_site_fract_z
 _atom_site_occupancy
  Cs  Cs0  1  0.498116  0.498116  0.999042  1
  Sc  Sc1  1  0.349273  0.349273  0.813919  1
  Sn  Sn2  1  0.654222  0.654222  0.176944  1
  Sn  Sn3  1  0.162786  0.162786  0.488677  1
  Sn  Sn4  1  0.838454  0.838454  0.514886  1
  O  O5  1  0.149004  0.149004  0.058318  1
  O  O6  1  0.841473  0.841473  0.952263  1
  O  O7  1  0.208028  0.208028  0.636196  1
  O  O8  1  0.794997  0.794997  0.362683  1
  O  O9  1  0.543968  0.543968  0.622404  1
  O  O10  1  0.460235  0.460235  0.374561  1
  O  O11  1  0.164518  0.164518  0.295010  1
  O  O12  1  0.834927  0.834927  0.705096  1
