# generated using pymatgen
data_Er6Cd5GaC2
_symmetry_space_group_name_H-M   'P 1'
_cell_length_a   9.45872549
_cell_length_b   9.44373100
_cell_length_c   9.43370626
_cell_angle_alpha   119.92976567
_cell_angle_beta   90.06174321
_cell_angle_gamma   120.01460223
_symmetry_Int_Tables_number   1
_chemical_formula_structural   Er6Cd5GaC2
_chemical_formula_sum   'Er12 Cd10 Ga2 C4'
_cell_volume   596.03845035
_cell_formula_units_Z   2
loop_
 _symmetry_equiv_pos_site_id
 _symmetry_equiv_pos_as_xyz
  1  'x, y, z'
loop_
 _atom_site_type_symbol
 _atom_site_label
 _atom_site_symmetry_multiplicity
 _atom_site_fract_x
 _atom_site_fract_y
 _atom_site_fract_z
 _atom_site_occupancy
  Er  Er0  1  0.935734  0.371392  0.185583  1
  Er  Er1  1  0.938537  0.752808  0.185487  1
  Er  Er2  1  0.313863  0.752642  0.185725  1
  Er  Er3  1  0.685730  0.247234  0.432693  1
  Er  Er4  1  0.686691  0.873482  0.433744  1
  Er  Er5  1  0.061198  0.247337  0.433059  1
  Er  Er6  1  0.313194  0.126512  0.560234  1
  Er  Er7  1  0.313792  0.749793  0.563480  1
  Er  Er8  1  0.936514  0.749976  0.563502  1
  Er  Er9  1  0.686520  0.250035  0.813538  1
  Er  Er10  1  0.064360  0.628607  0.814177  1
  Er  Er11  1  0.063972  0.250188  0.813664  1
  Cd  Cd12  1  0.999933  0.000016  0.003703  1
  Cd  Cd13  1  0.499912  0.999980  0.003698  1
  Cd  Cd14  1  0.502459  0.504780  0.001838  1
  Cd  Cd15  1  0.291335  0.415952  0.207888  1
  Cd  Cd16  1  0.624360  0.415750  0.208358  1
  Cd  Cd17  1  0.497682  0.495224  0.497055  1
  Cd  Cd18  1  0.375408  0.584077  0.791939  1
  Cd  Cd19  1  0.708628  0.584226  0.792600  1
  Cd  Cd20  1  0.708009  0.916441  0.792266  1
  Cd  Cd21  1  0.291554  0.083545  0.875836  1
  Ga  Ga22  1  0.710051  0.919269  0.129248  1
  Ga  Ga23  1  0.290765  0.080700  0.210006  1
  C  C24  1  0.000068  0.500026  0.000272  1
  C  C25  1  0.999826  0.999972  0.500055  1
  C  C26  1  0.499874  0.000061  0.500106  1
  C  C27  1  0.000038  0.499988  0.500253  1
