# generated using pymatgen
data_NiSbWO6
_symmetry_space_group_name_H-M   'P 1'
_cell_length_a   4.69097600
_cell_length_b   10.56592137
_cell_length_c   9.38224900
_cell_angle_alpha   63.64383470
_cell_angle_beta   90.00002442
_cell_angle_gamma   90.00012680
_symmetry_Int_Tables_number   1
_chemical_formula_structural   NiSbWO6
_chemical_formula_sum   'Ni4 Sb4 W4 O24'
_cell_volume   416.68761674
_cell_formula_units_Z   4
loop_
 _symmetry_equiv_pos_site_id
 _symmetry_equiv_pos_as_xyz
  1  'x, y, z'
loop_
 _atom_site_type_symbol
 _atom_site_label
 _atom_site_symmetry_multiplicity
 _atom_site_fract_x
 _atom_site_fract_y
 _atom_site_fract_z
 _atom_site_occupancy
  Ni  Ni0  1  0.500058  0.498875  0.000560  1
  Ni  Ni1  1  0.999968  0.998880  0.500600  1
  Ni  Ni2  1  0.499969  0.498883  0.500588  1
  Ni  Ni3  1  0.000009  0.998880  0.000536  1
  Sb  Sb4  1  0.499951  0.832808  0.833614  1
  Sb  Sb5  1  0.499954  0.832799  0.333643  1
  Sb  Sb6  1  0.000051  0.332824  0.333614  1
  Sb  Sb7  1  0.000036  0.332835  0.833610  1
  W  W8  1  0.500044  0.165504  0.167255  1
  W  W9  1  0.500031  0.165501  0.667244  1
  W  W10  1  0.999957  0.665467  0.167267  1
  W  W11  1  0.999960  0.665479  0.667258  1
  O  O12  1  0.190602  0.500172  0.845242  1
  O  O13  1  0.190611  0.500176  0.345233  1
  O  O14  1  0.809405  0.500148  0.154590  1
  O  O15  1  0.809415  0.500139  0.654589  1
  O  O16  1  0.309389  0.000170  0.345239  1
  O  O17  1  0.309381  0.000166  0.845258  1
  O  O18  1  0.690601  0.000136  0.154594  1
  O  O19  1  0.690592  0.000138  0.654592  1
  O  O20  1  0.201532  0.172042  0.014742  1
  O  O21  1  0.201569  0.172027  0.514749  1
  O  O22  1  0.798471  0.172047  0.313183  1
  O  O23  1  0.798472  0.172042  0.813208  1
  O  O24  1  0.298452  0.672052  0.014730  1
  O  O25  1  0.298467  0.672026  0.514746  1
  O  O26  1  0.701520  0.672058  0.813191  1
  O  O27  1  0.701524  0.672048  0.313196  1
  O  O28  1  0.801652  0.829223  0.986215  1
  O  O29  1  0.801670  0.829210  0.486207  1
  O  O30  1  0.198327  0.829214  0.684563  1
  O  O31  1  0.198315  0.829211  0.184572  1
  O  O32  1  0.698330  0.329218  0.986212  1
  O  O33  1  0.698336  0.329194  0.486229  1
  O  O34  1  0.301699  0.329213  0.184558  1
  O  O35  1  0.301682  0.329198  0.684574  1
