# generated using pymatgen
data_Ho2P7Ru11Pt
_symmetry_space_group_name_H-M   'P 1'
_cell_length_a   9.35173044
_cell_length_b   9.46943156
_cell_length_c   3.95060600
_cell_angle_alpha   90.00000000
_cell_angle_beta   90.00000000
_cell_angle_gamma   119.32990252
_symmetry_Int_Tables_number   1
_chemical_formula_structural   Ho2P7Ru11Pt
_chemical_formula_sum   'Ho2 P7 Ru11 Pt1'
_cell_volume   305.00244498
_cell_formula_units_Z   1
loop_
 _symmetry_equiv_pos_site_id
 _symmetry_equiv_pos_as_xyz
  1  'x, y, z'
loop_
 _atom_site_type_symbol
 _atom_site_label
 _atom_site_symmetry_multiplicity
 _atom_site_fract_x
 _atom_site_fract_y
 _atom_site_fract_z
 _atom_site_occupancy
  Ho  Ho0  1  0.670658  0.336686  0.500000  1
  Ho  Ho1  1  0.328759  0.658726  0.000000  1
  P  P2  1  0.597965  0.704137  0.500000  1
  P  P3  1  0.997878  0.000549  0.000000  1
  P  P4  1  0.271560  0.877676  0.500000  1
  P  P5  1  0.117478  0.401451  0.500000  1
  P  P6  1  0.887747  0.580619  0.000000  1
  P  P7  1  0.426829  0.308898  0.000000  1
  P  P8  1  0.705865  0.127443  0.000000  1
  Ru  Ru9  1  0.389488  0.437811  0.500000  1
  Ru  Ru10  1  0.909614  0.128569  0.500000  1
  Ru  Ru11  1  0.211354  0.086379  0.500000  1
  Ru  Ru12  1  0.875885  0.793995  0.500000  1
  Ru  Ru13  1  0.724465  0.893619  0.000000  1
  Ru  Ru14  1  0.112004  0.840071  0.000000  1
  Ru  Ru15  1  0.162698  0.268878  0.000000  1
  Ru  Ru16  1  0.434705  0.068908  0.000000  1
  Ru  Ru17  1  0.939351  0.367085  0.000000  1
  Ru  Ru18  1  0.640205  0.574577  0.000000  1
  Ru  Ru19  1  0.051822  0.609461  0.500000  1
  Pt  Pt20  1  0.543670  0.934460  0.500000  1
