# generated using pymatgen
data_Li5Zr7Ir12
_symmetry_space_group_name_H-M   'P 1'
_cell_length_a   4.53622101
_cell_length_b   6.33509600
_cell_length_c   13.47691000
_cell_angle_alpha   89.99957492
_cell_angle_beta   89.99728439
_cell_angle_gamma   89.99994571
_symmetry_Int_Tables_number   1
_chemical_formula_structural   Li5Zr7Ir12
_chemical_formula_sum   'Li5 Zr7 Ir12'
_cell_volume   387.29129295
_cell_formula_units_Z   1
loop_
 _symmetry_equiv_pos_site_id
 _symmetry_equiv_pos_as_xyz
  1  'x, y, z'
loop_
 _atom_site_type_symbol
 _atom_site_label
 _atom_site_symmetry_multiplicity
 _atom_site_fract_x
 _atom_site_fract_y
 _atom_site_fract_z
 _atom_site_occupancy
  Li  Li0  1  0.499917  0.999994  0.167693  1
  Li  Li1  1  0.999900  0.499999  0.334937  1
  Li  Li2  1  0.500001  0.000000  0.500000  1
  Li  Li3  1  0.000102  0.500001  0.665063  1
  Li  Li4  1  0.500082  0.000005  0.832306  1
  Zr  Zr5  1  0.000001  0.500000  0.000001  1
  Zr  Zr6  1  0.000000  0.000000  0.000000  1
  Zr  Zr7  1  0.499933  0.500001  0.177625  1
  Zr  Zr8  1  0.999900  0.000000  0.336940  1
  Zr  Zr9  1  0.500000  0.500000  0.499999  1
  Zr  Zr10  1  0.000100  0.000000  0.663061  1
  Zr  Zr11  1  0.500069  0.499999  0.822375  1
  Ir  Ir12  1  0.500000  0.250817  0.000001  1
  Ir  Ir13  1  0.500001  0.749182  0.000000  1
  Ir  Ir14  1  0.999923  0.248677  0.168009  1
  Ir  Ir15  1  0.999925  0.751322  0.168009  1
  Ir  Ir16  1  0.499903  0.244553  0.335787  1
  Ir  Ir17  1  0.499893  0.755447  0.335788  1
  Ir  Ir18  1  0.000001  0.252745  0.499999  1
  Ir  Ir19  1  0.999999  0.747255  0.500000  1
  Ir  Ir20  1  0.500107  0.244553  0.664212  1
  Ir  Ir21  1  0.500097  0.755447  0.664212  1
  Ir  Ir22  1  0.000077  0.248677  0.831991  1
  Ir  Ir23  1  0.000079  0.751323  0.831991  1
