# generated using pymatgen
data_Tm2LuAl12Ru3Rh
_symmetry_space_group_name_H-M   'P 1'
_cell_length_a   8.74760200
_cell_length_b   8.74760226
_cell_length_c   9.54302400
_cell_angle_alpha   90.00000000
_cell_angle_beta   90.00000000
_cell_angle_gamma   119.81218054
_symmetry_Int_Tables_number   1
_chemical_formula_structural   Tm2LuAl12Ru3Rh
_chemical_formula_sum   'Tm4 Lu2 Al24 Ru6 Rh2'
_cell_volume   633.59760454
_cell_formula_units_Z   2
loop_
 _symmetry_equiv_pos_site_id
 _symmetry_equiv_pos_as_xyz
  1  'x, y, z'
loop_
 _atom_site_type_symbol
 _atom_site_label
 _atom_site_symmetry_multiplicity
 _atom_site_fract_x
 _atom_site_fract_y
 _atom_site_fract_z
 _atom_site_occupancy
  Tm  Tm0  1  0.386993  0.189714  0.750000  1
  Tm  Tm1  1  0.613007  0.810286  0.250000  1
  Tm  Tm2  1  0.810286  0.613007  0.750000  1
  Tm  Tm3  1  0.189714  0.386993  0.250000  1
  Lu  Lu4  1  0.804864  0.195136  0.750000  1
  Lu  Lu5  1  0.195136  0.804864  0.250000  1
  Al  Al6  1  0.667282  0.332718  0.978569  1
  Al  Al7  1  0.332718  0.667282  0.021431  1
  Al  Al8  1  0.332718  0.667282  0.478569  1
  Al  Al9  1  0.667282  0.332718  0.521431  1
  Al  Al10  1  0.836956  0.163044  0.421937  1
  Al  Al11  1  0.163044  0.836956  0.578063  1
  Al  Al12  1  0.324886  0.161449  0.421289  1
  Al  Al13  1  0.163044  0.836956  0.921937  1
  Al  Al14  1  0.675114  0.838551  0.578711  1
  Al  Al15  1  0.836956  0.163044  0.078063  1
  Al  Al16  1  0.838551  0.675114  0.421289  1
  Al  Al17  1  0.675114  0.838551  0.921289  1
  Al  Al18  1  0.161449  0.324886  0.578711  1
  Al  Al19  1  0.324886  0.161449  0.078711  1
  Al  Al20  1  0.161449  0.324886  0.921289  1
  Al  Al21  1  0.838551  0.675114  0.078711  1
  Al  Al22  1  0.438875  0.561125  0.750000  1
  Al  Al23  1  0.561125  0.438875  0.250000  1
  Al  Al24  1  0.123621  0.560919  0.750000  1
  Al  Al25  1  0.876379  0.439081  0.250000  1
  Al  Al26  1  0.439081  0.876379  0.750000  1
  Al  Al27  1  0.560919  0.123621  0.250000  1
  Al  Al28  1  0.000382  0.999618  0.750000  1
  Al  Al29  1  0.999618  0.000382  0.250000  1
  Ru  Ru30  1  0.000000  0.500000  0.000000  1
  Ru  Ru31  1  0.500000  0.000000  0.000000  1
  Ru  Ru32  1  0.000000  0.500000  0.500000  1
  Ru  Ru33  1  0.500000  0.000000  0.500000  1
  Ru  Ru34  1  0.000000  0.000000  0.000000  1
  Ru  Ru35  1  0.000000  0.000000  0.500000  1
  Rh  Rh36  1  0.500000  0.500000  0.000000  1
  Rh  Rh37  1  0.500000  0.500000  0.500000  1
