# generated using pymatgen
data_Ho8InNi2Hg
_symmetry_space_group_name_H-M   'P 1'
_cell_length_a   9.49094979
_cell_length_b   9.49094933
_cell_length_c   9.50388400
_cell_angle_alpha   59.95491426
_cell_angle_beta   59.95491586
_cell_angle_gamma   60.12636817
_symmetry_Int_Tables_number   1
_chemical_formula_structural   Ho8InNi2Hg
_chemical_formula_sum   'Ho16 In2 Ni4 Hg2'
_cell_volume   605.51045880
_cell_formula_units_Z   2
loop_
 _symmetry_equiv_pos_site_id
 _symmetry_equiv_pos_as_xyz
  1  'x, y, z'
loop_
 _atom_site_type_symbol
 _atom_site_label
 _atom_site_symmetry_multiplicity
 _atom_site_fract_x
 _atom_site_fract_y
 _atom_site_fract_z
 _atom_site_occupancy
  Ho  Ho0  1  0.348014  0.348014  0.347739  1
  Ho  Ho1  1  0.348014  0.348014  0.956232  1
  Ho  Ho2  1  0.350076  0.949378  0.350273  1
  Ho  Ho3  1  0.949378  0.350076  0.350273  1
  Ho  Ho4  1  0.811313  0.188791  0.189211  1
  Ho  Ho5  1  0.188791  0.811313  0.810685  1
  Ho  Ho6  1  0.188791  0.811313  0.189211  1
  Ho  Ho7  1  0.811313  0.188791  0.810685  1
  Ho  Ho8  1  0.189801  0.189801  0.810199  1
  Ho  Ho9  1  0.811717  0.811717  0.188283  1
  Ho  Ho10  1  0.935157  0.562287  0.563791  1
  Ho  Ho11  1  0.562287  0.935157  0.938765  1
  Ho  Ho12  1  0.562287  0.935157  0.563791  1
  Ho  Ho13  1  0.935157  0.562287  0.938765  1
  Ho  Ho14  1  0.563380  0.563380  0.936620  1
  Ho  Ho15  1  0.936243  0.936243  0.563757  1
  In  In16  1  0.581720  0.256151  0.581065  1
  In  In17  1  0.256151  0.581720  0.581065  1
  Ni  Ni18  1  0.141744  0.141744  0.144469  1
  Ni  Ni19  1  0.141744  0.141744  0.572044  1
  Ni  Ni20  1  0.141537  0.573948  0.142258  1
  Ni  Ni21  1  0.573948  0.141537  0.142258  1
  Hg  Hg22  1  0.585720  0.585720  0.586484  1
  Hg  Hg23  1  0.585720  0.585720  0.242077  1
