# generated using pymatgen
data_Y12Al2Ni3Os
_symmetry_space_group_name_H-M   'P 1'
_cell_length_a   8.41369701
_cell_length_b   8.41369718
_cell_length_c   8.41369768
_cell_angle_alpha   112.46619985
_cell_angle_beta   109.79522384
_cell_angle_gamma   106.21259825
_symmetry_Int_Tables_number   1
_chemical_formula_structural   Y12Al2Ni3Os
_chemical_formula_sum   'Y12 Al2 Ni3 Os1'
_cell_volume   457.13086131
_cell_formula_units_Z   1
loop_
 _symmetry_equiv_pos_site_id
 _symmetry_equiv_pos_as_xyz
  1  'x, y, z'
loop_
 _atom_site_type_symbol
 _atom_site_label
 _atom_site_symmetry_multiplicity
 _atom_site_fract_x
 _atom_site_fract_y
 _atom_site_fract_z
 _atom_site_occupancy
  Y  Y0  1  0.051595  0.746042  0.305554  1
  Y  Y1  1  0.962130  0.266952  0.695179  1
  Y  Y2  1  0.559512  0.253958  0.305554  1
  Y  Y3  1  0.428227  0.733048  0.695179  1
  Y  Y4  1  0.675756  0.863603  0.192772  1
  Y  Y5  1  0.329169  0.517015  0.192772  1
  Y  Y6  1  0.329169  0.136397  0.812154  1
  Y  Y7  1  0.675756  0.482985  0.812154  1
  Y  Y8  1  0.175017  0.221210  0.396229  1
  Y  Y9  1  0.814207  0.221805  0.036013  1
  Y  Y10  1  0.175017  0.778790  0.953807  1
  Y  Y11  1  0.814207  0.778195  0.592401  1
  Al  Al12  1  0.986163  0.500000  0.486163  1
  Al  Al13  1  0.505845  0.000000  0.505845  1
  Ni  Ni14  1  0.347465  0.500000  0.847465  1
  Ni  Ni15  1  0.884587  0.884579  0.000008  1
  Ni  Ni16  1  0.115430  0.115421  0.000008  1
  Os  Os17  1  0.670746  0.500000  0.170746  1
