# generated using pymatgen
data_PrZr3(Al3Ir)6
_symmetry_space_group_name_H-M   'P 1'
_cell_length_a   7.52296458
_cell_length_b   7.51063438
_cell_length_c   9.37082500
_cell_angle_alpha   90.00000000
_cell_angle_beta   90.00000000
_cell_angle_gamma   119.74483557
_symmetry_Int_Tables_number   1
_chemical_formula_structural   PrZr3(Al3Ir)6
_chemical_formula_sum   'Pr1 Zr3 Al18 Ir6'
_cell_volume   459.71113732
_cell_formula_units_Z   1
loop_
 _symmetry_equiv_pos_site_id
 _symmetry_equiv_pos_as_xyz
  1  'x, y, z'
loop_
 _atom_site_type_symbol
 _atom_site_label
 _atom_site_symmetry_multiplicity
 _atom_site_fract_x
 _atom_site_fract_y
 _atom_site_fract_z
 _atom_site_occupancy
  Pr  Pr0  1  0.329876  0.005960  0.750000  1
  Zr  Zr1  1  0.993711  0.670827  0.250000  1
  Zr  Zr2  1  0.005350  0.329874  0.750000  1
  Zr  Zr3  1  0.671951  0.994622  0.250000  1
  Al  Al4  1  0.122007  0.123902  0.250000  1
  Al  Al5  1  0.869194  0.875230  0.750000  1
  Al  Al6  1  0.997768  0.334541  0.076781  1
  Al  Al7  1  0.998186  0.661451  0.928906  1
  Al  Al8  1  0.998186  0.661451  0.571094  1
  Al  Al9  1  0.334942  0.998160  0.418062  1
  Al  Al10  1  0.997768  0.334541  0.423219  1
  Al  Al11  1  0.669380  0.001813  0.571218  1
  Al  Al12  1  0.669380  0.001813  0.928782  1
  Al  Al13  1  0.334942  0.998160  0.081938  1
  Al  Al14  1  0.331447  0.334917  0.551283  1
  Al  Al15  1  0.668112  0.668103  0.440832  1
  Al  Al16  1  0.668112  0.668103  0.059168  1
  Al  Al17  1  0.331447  0.334917  0.948717  1
  Al  Al18  1  0.338416  0.552832  0.250000  1
  Al  Al19  1  0.669317  0.455760  0.750000  1
  Al  Al20  1  0.554130  0.340314  0.250000  1
  Al  Al21  1  0.447264  0.653678  0.750000  1
  Ir  Ir22  1  0.672910  0.328782  0.002321  1
  Ir  Ir23  1  0.328498  0.672453  0.002501  1
  Ir  Ir24  1  0.328498  0.672453  0.497499  1
  Ir  Ir25  1  0.672910  0.328782  0.497679  1
  Ir  Ir26  1  0.998150  0.998280  0.002608  1
  Ir  Ir27  1  0.998150  0.998280  0.497392  1
