# generated using pymatgen
data_Dy5Er3(Si3Rh4)2
_symmetry_space_group_name_H-M   'P 1'
_cell_length_a   10.68792005
_cell_length_b   10.69153319
_cell_length_c   7.69755820
_cell_angle_alpha   71.26945364
_cell_angle_beta   71.27340825
_cell_angle_gamma   29.79147996
_symmetry_Int_Tables_number   1
_chemical_formula_structural   Dy5Er3(Si3Rh4)2
_chemical_formula_sum   'Dy5 Er3 Si6 Rh8'
_cell_volume   412.19882592
_cell_formula_units_Z   1
loop_
 _symmetry_equiv_pos_site_id
 _symmetry_equiv_pos_as_xyz
  1  'x, y, z'
loop_
 _atom_site_type_symbol
 _atom_site_label
 _atom_site_symmetry_multiplicity
 _atom_site_fract_x
 _atom_site_fract_y
 _atom_site_fract_z
 _atom_site_occupancy
  Dy  Dy0  1  0.209765  0.450209  0.399472  1
  Dy  Dy1  1  0.549622  0.789971  0.100945  1
  Dy  Dy2  1  0.450085  0.210349  0.898746  1
  Dy  Dy3  1  0.925494  0.209351  0.333157  1
  Dy  Dy4  1  0.791017  0.074475  0.166984  1
  Er  Er5  1  0.074992  0.789645  0.667488  1
  Er  Er6  1  0.210635  0.925040  0.831995  1
  Er  Er7  1  0.789083  0.550770  0.601279  1
  Si  Si8  1  0.636685  0.363749  0.749783  1
  Si  Si9  1  0.363289  0.636771  0.249986  1
  Si  Si10  1  0.296184  0.047452  0.446340  1
  Si  Si11  1  0.952387  0.703769  0.054256  1
  Si  Si12  1  0.703987  0.952211  0.555066  1
  Si  Si13  1  0.047296  0.296493  0.944113  1
  Rh  Rh14  1  0.297667  0.577398  0.017620  1
  Rh  Rh15  1  0.575604  0.298665  0.520742  1
  Rh  Rh16  1  0.701343  0.424801  0.978556  1
  Rh  Rh17  1  0.069651  0.371805  0.192615  1
  Rh  Rh18  1  0.629212  0.928384  0.308742  1
  Rh  Rh19  1  0.423471  0.701947  0.482392  1
  Rh  Rh20  1  0.930092  0.628016  0.807540  1
  Rh  Rh21  1  0.372439  0.068729  0.692184  1
