# generated using pymatgen
data_NdFeSb12IrOs2
_symmetry_space_group_name_H-M   'P 1'
_cell_length_a   8.09052242
_cell_length_b   8.12842802
_cell_length_c   8.11147125
_cell_angle_alpha   109.60405235
_cell_angle_beta   109.46011756
_cell_angle_gamma   109.54355011
_symmetry_Int_Tables_number   1
_chemical_formula_structural   NdFeSb12IrOs2
_chemical_formula_sum   'Nd1 Fe1 Sb12 Ir1 Os2'
_cell_volume   409.65274616
_cell_formula_units_Z   1
loop_
 _symmetry_equiv_pos_site_id
 _symmetry_equiv_pos_as_xyz
  1  'x, y, z'
loop_
 _atom_site_type_symbol
 _atom_site_label
 _atom_site_symmetry_multiplicity
 _atom_site_fract_x
 _atom_site_fract_y
 _atom_site_fract_z
 _atom_site_occupancy
  Nd  Nd0  1  0.000000  0.000000  0.000000  1
  Fe  Fe1  1  0.000000  0.500000  0.000000  1
  Sb  Sb2  1  0.155971  0.814082  0.659346  1
  Sb  Sb3  1  0.844029  0.185918  0.340654  1
  Sb  Sb4  1  0.845774  0.505340  0.671010  1
  Sb  Sb5  1  0.154226  0.494660  0.328990  1
  Sb  Sb6  1  0.822763  0.656621  0.151639  1
  Sb  Sb7  1  0.177237  0.343379  0.848361  1
  Sb  Sb8  1  0.503937  0.660686  0.843853  1
  Sb  Sb9  1  0.496063  0.339314  0.156147  1
  Sb  Sb10  1  0.671141  0.165273  0.825112  1
  Sb  Sb11  1  0.328859  0.834727  0.174888  1
  Sb  Sb12  1  0.657564  0.843225  0.503418  1
  Sb  Sb13  1  0.342436  0.156775  0.496582  1
  Ir  Ir14  1  0.000000  0.000000  0.500000  1
  Os  Os15  1  0.500000  0.000000  0.000000  1
  Os  Os16  1  0.500000  0.500000  0.500000  1
