# generated using pymatgen
data_Eu2Sb2PdRh
_symmetry_space_group_name_H-M   'P 1'
_cell_length_a   4.72373400
_cell_length_b   7.59562400
_cell_length_c   7.94515100
_cell_angle_alpha   90.00000000
_cell_angle_beta   90.00000000
_cell_angle_gamma   90.00000000
_symmetry_Int_Tables_number   1
_chemical_formula_structural   Eu2Sb2PdRh
_chemical_formula_sum   'Eu4 Sb4 Pd2 Rh2'
_cell_volume   285.06969265
_cell_formula_units_Z   2
loop_
 _symmetry_equiv_pos_site_id
 _symmetry_equiv_pos_as_xyz
  1  'x, y, z'
loop_
 _atom_site_type_symbol
 _atom_site_label
 _atom_site_symmetry_multiplicity
 _atom_site_fract_x
 _atom_site_fract_y
 _atom_site_fract_z
 _atom_site_occupancy
  Eu  Eu0  1  0.250000  0.011520  0.301096  1
  Eu  Eu1  1  0.250000  0.511520  0.198904  1
  Eu  Eu2  1  0.750000  0.989263  0.698183  1
  Eu  Eu3  1  0.750000  0.489263  0.801817  1
  Sb  Sb4  1  0.250000  0.687449  0.596286  1
  Sb  Sb5  1  0.250000  0.187449  0.903714  1
  Sb  Sb6  1  0.750000  0.309306  0.414326  1
  Sb  Sb7  1  0.750000  0.809306  0.085674  1
  Pd  Pd8  1  0.750000  0.689448  0.416472  1
  Pd  Pd9  1  0.750000  0.189448  0.083528  1
  Rh  Rh10  1  0.250000  0.313015  0.582072  1
  Rh  Rh11  1  0.250000  0.813015  0.917928  1
