# generated using pymatgen
data_KCuP2S5
_symmetry_space_group_name_H-M   'P 1'
_cell_length_a   7.58422000
_cell_length_b   10.36544962
_cell_length_c   12.77187301
_cell_angle_alpha   58.91279173
_cell_angle_beta   90.00000000
_cell_angle_gamma   90.00000000
_symmetry_Int_Tables_number   1
_chemical_formula_structural   KCuP2S5
_chemical_formula_sum   'K4 Cu4 P8 S20'
_cell_volume   859.84740317
_cell_formula_units_Z   4
loop_
 _symmetry_equiv_pos_site_id
 _symmetry_equiv_pos_as_xyz
  1  'x, y, z'
loop_
 _atom_site_type_symbol
 _atom_site_label
 _atom_site_symmetry_multiplicity
 _atom_site_fract_x
 _atom_site_fract_y
 _atom_site_fract_z
 _atom_site_occupancy
  K  K0  1  0.634509  0.622361  0.777003  1
  K  K1  1  0.365491  0.377639  0.222997  1
  K  K2  1  0.865491  0.622361  0.277003  1
  K  K3  1  0.134509  0.377639  0.722997  1
  Cu  Cu4  1  0.325834  0.858155  0.328641  1
  Cu  Cu5  1  0.825834  0.141845  0.171359  1
  Cu  Cu6  1  0.174166  0.858155  0.828641  1
  Cu  Cu7  1  0.674166  0.141845  0.671359  1
  P  P8  1  0.662332  0.187385  0.921615  1
  P  P9  1  0.934445  0.832949  0.457140  1
  P  P10  1  0.065555  0.167051  0.542860  1
  P  P11  1  0.837668  0.187385  0.421615  1
  P  P12  1  0.337668  0.812615  0.078385  1
  P  P13  1  0.162332  0.812615  0.578385  1
  P  P14  1  0.565555  0.832949  0.957140  1
  P  P15  1  0.434445  0.167051  0.042860  1
  S  S16  1  0.677516  0.631854  0.031105  1
  S  S17  1  0.587760  0.295010  0.746321  1
  S  S18  1  0.138980  0.720087  0.034702  1
  S  S19  1  0.477708  0.933633  0.781792  1
  S  S20  1  0.177516  0.368146  0.468895  1
  S  S21  1  0.361020  0.720087  0.534702  1
  S  S22  1  0.322484  0.368146  0.968895  1
  S  S23  1  0.977708  0.066367  0.718208  1
  S  S24  1  0.751728  0.960958  0.992152  1
  S  S25  1  0.251728  0.039042  0.507848  1
  S  S26  1  0.861020  0.279913  0.965298  1
  S  S27  1  0.748272  0.960958  0.492152  1
  S  S28  1  0.087760  0.704990  0.753679  1
  S  S29  1  0.022292  0.933633  0.281792  1
  S  S30  1  0.638980  0.279913  0.465298  1
  S  S31  1  0.412240  0.704990  0.253679  1
  S  S32  1  0.912240  0.295010  0.246321  1
  S  S33  1  0.522292  0.066367  0.218208  1
  S  S34  1  0.248272  0.039042  0.007848  1
  S  S35  1  0.822484  0.631854  0.531105  1
