# generated using pymatgen
data_Dy6AuO12
_symmetry_space_group_name_H-M   'P 1'
_cell_length_a   6.49785774
_cell_length_b   6.49785641
_cell_length_c   6.49785577
_cell_angle_alpha   98.90403357
_cell_angle_beta   98.90402783
_cell_angle_gamma   98.90404051
_symmetry_Int_Tables_number   1
_chemical_formula_structural   Dy6AuO12
_chemical_formula_sum   'Dy6 Au1 O12'
_cell_volume   263.25256774
_cell_formula_units_Z   1
loop_
 _symmetry_equiv_pos_site_id
 _symmetry_equiv_pos_as_xyz
  1  'x, y, z'
loop_
 _atom_site_type_symbol
 _atom_site_label
 _atom_site_symmetry_multiplicity
 _atom_site_fract_x
 _atom_site_fract_y
 _atom_site_fract_z
 _atom_site_occupancy
  Dy  Dy0  1  0.859117  0.389916  0.697135  1
  Dy  Dy1  1  0.610084  0.302865  0.140883  1
  Dy  Dy2  1  0.302865  0.140883  0.610084  1
  Dy  Dy3  1  0.697135  0.859117  0.389916  1
  Dy  Dy4  1  0.389916  0.697135  0.859117  1
  Dy  Dy5  1  0.140883  0.610084  0.302865  1
  Au  Au6  1  0.000000  0.000000  0.000000  1
  O  O7  1  0.938769  0.046641  0.691486  1
  O  O8  1  0.953359  0.308514  0.061231  1
  O  O9  1  0.589348  0.178064  0.438644  1
  O  O10  1  0.821936  0.561356  0.410652  1
  O  O11  1  0.308514  0.061231  0.953359  1
  O  O12  1  0.561356  0.410652  0.821936  1
  O  O13  1  0.438644  0.589348  0.178064  1
  O  O14  1  0.691486  0.938769  0.046641  1
  O  O15  1  0.178064  0.438644  0.589348  1
  O  O16  1  0.410652  0.821936  0.561356  1
  O  O17  1  0.046641  0.691486  0.938769  1
  O  O18  1  0.061231  0.953359  0.308514  1
