# generated using pymatgen
data_Lu2CuNi6B2Pt
_symmetry_space_group_name_H-M   'P 1'
_cell_length_a   4.98066700
_cell_length_b   4.98066786
_cell_length_c   7.09963000
_cell_angle_alpha   90.00000000
_cell_angle_beta   90.00000000
_cell_angle_gamma   120.00063031
_symmetry_Int_Tables_number   1
_chemical_formula_structural   Lu2CuNi6B2Pt
_chemical_formula_sum   'Lu2 Cu1 Ni6 B2 Pt1'
_cell_volume   152.52417239
_cell_formula_units_Z   1
loop_
 _symmetry_equiv_pos_site_id
 _symmetry_equiv_pos_as_xyz
  1  'x, y, z'
loop_
 _atom_site_type_symbol
 _atom_site_label
 _atom_site_symmetry_multiplicity
 _atom_site_fract_x
 _atom_site_fract_y
 _atom_site_fract_z
 _atom_site_occupancy
  Lu  Lu0  1  0.000000  0.000000  0.000000  1
  Lu  Lu1  1  0.000000  0.000000  0.500000  1
  Cu  Cu2  1  0.333331  0.666669  0.000000  1
  Ni  Ni3  1  0.499677  0.500323  0.699090  1
  Ni  Ni4  1  0.499678  0.999355  0.699071  1
  Ni  Ni5  1  0.000645  0.500322  0.699071  1
  Ni  Ni6  1  0.499677  0.500323  0.300910  1
  Ni  Ni7  1  0.499678  0.999355  0.300929  1
  Ni  Ni8  1  0.000645  0.500322  0.300929  1
  B  B9  1  0.666669  0.333331  0.500000  1
  B  B10  1  0.333332  0.666668  0.500000  1
  Pt  Pt11  1  0.666670  0.333330  0.000000  1
