# generated using pymatgen
data_SmHo9AlBi5
_symmetry_space_group_name_H-M   'P 1'
_cell_length_a   9.08538400
_cell_length_b   9.07067690
_cell_length_c   6.41024800
_cell_angle_alpha   90.00000000
_cell_angle_beta   90.00000000
_cell_angle_gamma   119.80101743
_symmetry_Int_Tables_number   1
_chemical_formula_structural   SmHo9AlBi5
_chemical_formula_sum   'Sm1 Ho9 Al1 Bi5'
_cell_volume   458.41176663
_cell_formula_units_Z   1
loop_
 _symmetry_equiv_pos_site_id
 _symmetry_equiv_pos_as_xyz
  1  'x, y, z'
loop_
 _atom_site_type_symbol
 _atom_site_label
 _atom_site_symmetry_multiplicity
 _atom_site_fract_x
 _atom_site_fract_y
 _atom_site_fract_z
 _atom_site_occupancy
  Sm  Sm0  1  0.000996  0.759377  0.250000  1
  Ho  Ho1  1  0.658279  0.336373  0.997585  1
  Ho  Ho2  1  0.334366  0.657405  0.997760  1
  Ho  Ho3  1  0.334366  0.657405  0.502240  1
  Ho  Ho4  1  0.658279  0.336373  0.502415  1
  Ho  Ho5  1  0.749379  0.749803  0.750000  1
  Ho  Ho6  1  0.245503  0.014330  0.750000  1
  Ho  Ho7  1  0.014202  0.243125  0.750000  1
  Ho  Ho8  1  0.241726  0.241361  0.250000  1
  Ho  Ho9  1  0.758008  0.999958  0.250000  1
  Al  Al10  1  0.394512  0.394613  0.750000  1
  Bi  Bi11  1  0.613082  0.002954  0.750000  1
  Bi  Bi12  1  0.002579  0.613145  0.750000  1
  Bi  Bi13  1  0.607615  0.609591  0.250000  1
  Bi  Bi14  1  0.392615  0.997766  0.250000  1
  Bi  Bi15  1  0.994492  0.386425  0.250000  1
