# generated using pymatgen
data_Tb3DyRe5Os3
_symmetry_space_group_name_H-M   'P 1'
_cell_length_a   5.35314452
_cell_length_b   5.27723982
_cell_length_c   9.08785200
_cell_angle_alpha   89.99961733
_cell_angle_beta   90.00310933
_cell_angle_gamma   119.53311226
_symmetry_Int_Tables_number   1
_chemical_formula_structural   Tb3DyRe5Os3
_chemical_formula_sum   'Tb3 Dy1 Re5 Os3'
_cell_volume   223.37353797
_cell_formula_units_Z   1
loop_
 _symmetry_equiv_pos_site_id
 _symmetry_equiv_pos_as_xyz
  1  'x, y, z'
loop_
 _atom_site_type_symbol
 _atom_site_label
 _atom_site_symmetry_multiplicity
 _atom_site_fract_x
 _atom_site_fract_y
 _atom_site_fract_z
 _atom_site_occupancy
  Tb  Tb0  1  0.333279  0.666630  0.437454  1
  Tb  Tb1  1  0.668958  0.334483  0.563727  1
  Tb  Tb2  1  0.668959  0.334487  0.936350  1
  Dy  Dy3  1  0.333244  0.666618  0.062670  1
  Re  Re4  1  0.830219  0.169119  0.249668  1
  Re  Re5  1  0.830199  0.661102  0.249664  1
  Re  Re6  1  0.342412  0.171189  0.249617  1
  Re  Re7  1  0.163863  0.830434  0.750281  1
  Re  Re8  1  0.163877  0.333413  0.750285  1
  Os  Os9  1  0.009016  0.004496  0.500133  1
  Os  Os10  1  0.009150  0.004574  0.999851  1
  Os  Os11  1  0.646820  0.823454  0.750300  1
