# generated using pymatgen
data_Na2ThTe3
_symmetry_space_group_name_H-M   'P 1'
_cell_length_a   7.95192313
_cell_length_b   7.95192253
_cell_length_c   7.95902305
_cell_angle_alpha   80.19673892
_cell_angle_beta   80.19673914
_cell_angle_gamma   119.88073806
_symmetry_Int_Tables_number   1
_chemical_formula_structural   Na2ThTe3
_chemical_formula_sum   'Na4 Th2 Te6'
_cell_volume   410.38674808
_cell_formula_units_Z   2
loop_
 _symmetry_equiv_pos_site_id
 _symmetry_equiv_pos_as_xyz
  1  'x, y, z'
loop_
 _atom_site_type_symbol
 _atom_site_label
 _atom_site_symmetry_multiplicity
 _atom_site_fract_x
 _atom_site_fract_y
 _atom_site_fract_z
 _atom_site_occupancy
  Na  Na0  1  0.340461  0.659539  0.500000  1
  Na  Na1  1  0.659539  0.340461  0.500000  1
  Na  Na2  1  0.000000  0.000000  0.500000  1
  Na  Na3  1  0.500000  0.500000  0.000000  1
  Th  Th4  1  0.167910  0.832090  0.000000  1
  Th  Th5  1  0.832090  0.167910  0.000000  1
  Te  Te6  1  0.769746  0.769746  0.238685  1
  Te  Te7  1  0.419519  0.069453  0.238677  1
  Te  Te8  1  0.069453  0.419519  0.238677  1
  Te  Te9  1  0.580481  0.930547  0.761323  1
  Te  Te10  1  0.930547  0.580481  0.761323  1
  Te  Te11  1  0.230254  0.230254  0.761315  1
