# generated using pymatgen
data_Ru3RhPb4O13
_symmetry_space_group_name_H-M   'P 1'
_cell_length_a   7.36526423
_cell_length_b   7.30341141
_cell_length_c   7.36526400
_cell_angle_alpha   59.71945004
_cell_angle_beta   60.00000105
_cell_angle_gamma   59.71944706
_symmetry_Int_Tables_number   1
_chemical_formula_structural   Ru3RhPb4O13
_chemical_formula_sum   'Ru3 Rh1 Pb4 O13'
_cell_volume   278.95407226
_cell_formula_units_Z   1
loop_
 _symmetry_equiv_pos_site_id
 _symmetry_equiv_pos_as_xyz
  1  'x, y, z'
loop_
 _atom_site_type_symbol
 _atom_site_label
 _atom_site_symmetry_multiplicity
 _atom_site_fract_x
 _atom_site_fract_y
 _atom_site_fract_z
 _atom_site_occupancy
  Ru  Ru0  1  0.875096  0.875121  0.374686  1
  Ru  Ru1  1  0.875096  0.875121  0.875096  1
  Ru  Ru2  1  0.374686  0.875121  0.875096  1
  Rh  Rh3  1  0.874919  0.375241  0.874919  1
  Pb  Pb4  1  0.879863  0.373022  0.373558  1
  Pb  Pb5  1  0.373558  0.373022  0.373558  1
  Pb  Pb6  1  0.373558  0.373022  0.879863  1
  Pb  Pb7  1  0.373051  0.880847  0.373051  1
  O  O8  1  0.198901  0.803690  0.798507  1
  O  O9  1  0.198901  0.803690  0.198901  1
  O  O10  1  0.554311  0.943017  0.948360  1
  O  O11  1  0.554311  0.943017  0.554311  1
  O  O12  1  0.948360  0.943017  0.554311  1
  O  O13  1  0.798507  0.803690  0.198901  1
  O  O14  1  0.546981  0.554001  0.949509  1
  O  O15  1  0.797759  0.199136  0.797759  1
  O  O16  1  0.797759  0.199136  0.205346  1
  O  O17  1  0.949509  0.554001  0.949509  1
  O  O18  1  0.949509  0.554001  0.546981  1
  O  O19  1  0.205346  0.199136  0.797759  1
  O  O20  1  0.500017  0.499948  0.500017  1
