# generated using pymatgen
data_Ho8MnSi16W11
_symmetry_space_group_name_H-M   'P 1'
_cell_length_a   6.85379681
_cell_length_b   6.85379696
_cell_length_c   12.71040010
_cell_angle_alpha   89.94471989
_cell_angle_beta   90.05528113
_cell_angle_gamma   89.95214253
_symmetry_Int_Tables_number   1
_chemical_formula_structural   Ho8MnSi16W11
_chemical_formula_sum   'Ho8 Mn1 Si16 W11'
_cell_volume   597.06432841
_cell_formula_units_Z   1
loop_
 _symmetry_equiv_pos_site_id
 _symmetry_equiv_pos_as_xyz
  1  'x, y, z'
loop_
 _atom_site_type_symbol
 _atom_site_label
 _atom_site_symmetry_multiplicity
 _atom_site_fract_x
 _atom_site_fract_y
 _atom_site_fract_z
 _atom_site_occupancy
  Ho  Ho0  1  0.338189  0.997315  0.468423  1
  Ho  Ho1  1  0.501326  0.836935  0.718116  1
  Ho  Ho2  1  0.498660  0.162129  0.220501  1
  Ho  Ho3  1  0.836935  0.501326  0.281884  1
  Ho  Ho4  1  0.162129  0.498660  0.779499  1
  Ho  Ho5  1  0.662811  0.002140  0.968909  1
  Ho  Ho6  1  0.997315  0.338189  0.531577  1
  Ho  Ho7  1  0.002140  0.662811  0.031091  1
  Mn  Mn8  1  0.668348  0.668348  0.500000  1
  Si  Si9  1  0.201829  0.126193  0.682760  1
  Si  Si10  1  0.374242  0.701433  0.933158  1
  Si  Si11  1  0.625614  0.304443  0.435889  1
  Si  Si12  1  0.701433  0.374242  0.066842  1
  Si  Si13  1  0.304443  0.625614  0.564111  1
  Si  Si14  1  0.796714  0.873294  0.184588  1
  Si  Si15  1  0.126193  0.201829  0.317240  1
  Si  Si16  1  0.873294  0.796714  0.815412  1
  Si  Si17  1  0.288457  0.964423  0.064049  1
  Si  Si18  1  0.540706  0.786449  0.318568  1
  Si  Si19  1  0.463045  0.209743  0.813771  1
  Si  Si20  1  0.786449  0.540706  0.681432  1
  Si  Si21  1  0.209743  0.463045  0.186229  1
  Si  Si22  1  0.711932  0.031306  0.562126  1
  Si  Si23  1  0.964423  0.288457  0.935951  1
  Si  Si24  1  0.031306  0.711932  0.437874  1
  W  W25  1  0.332607  0.332607  0.000000  1
  W  W26  1  0.167477  0.833311  0.250148  1
  W  W27  1  0.833311  0.167477  0.749852  1
  W  W28  1  0.163803  0.997936  0.872822  1
  W  W29  1  0.499329  0.664722  0.125597  1
  W  W30  1  0.499318  0.334852  0.624008  1
  W  W31  1  0.664722  0.499329  0.874403  1
  W  W32  1  0.334852  0.499318  0.375992  1
  W  W33  1  0.835291  0.003676  0.374134  1
  W  W34  1  0.997936  0.163803  0.127178  1
  W  W35  1  0.003676  0.835291  0.625866  1
