# generated using pymatgen
data_Nd13Ho7(Sn7Pb)2
_symmetry_space_group_name_H-M   'P 1'
_cell_length_a   8.20652081
_cell_length_b   8.34273507
_cell_length_c   15.88419236
_cell_angle_alpha   89.87261840
_cell_angle_beta   90.32253895
_cell_angle_gamma   90.27814319
_symmetry_Int_Tables_number   1
_chemical_formula_structural   Nd13Ho7(Sn7Pb)2
_chemical_formula_sum   'Nd13 Ho7 Sn14 Pb2'
_cell_volume   1087.47584661
_cell_formula_units_Z   1
loop_
 _symmetry_equiv_pos_site_id
 _symmetry_equiv_pos_as_xyz
  1  'x, y, z'
loop_
 _atom_site_type_symbol
 _atom_site_label
 _atom_site_symmetry_multiplicity
 _atom_site_fract_x
 _atom_site_fract_y
 _atom_site_fract_z
 _atom_site_occupancy
  Nd  Nd0  1  0.484033  0.681127  0.903557  1
  Nd  Nd1  1  0.864552  0.661585  0.122068  1
  Nd  Nd2  1  0.138748  0.335991  0.879503  1
  Nd  Nd3  1  0.480044  0.680406  0.598301  1
  Nd  Nd4  1  0.630390  0.159958  0.621048  1
  Nd  Nd5  1  0.865768  0.662395  0.375542  1
  Nd  Nd6  1  0.013587  0.179434  0.096709  1
  Nd  Nd7  1  0.984176  0.819079  0.901509  1
  Nd  Nd8  1  0.637675  0.163402  0.876970  1
  Nd  Nd9  1  0.515990  0.318647  0.098916  1
  Nd  Nd10  1  0.362355  0.836940  0.380362  1
  Nd  Nd11  1  0.984497  0.821238  0.598855  1
  Nd  Nd12  1  0.514996  0.319123  0.399760  1
  Ho  Ho13  1  0.025080  0.181071  0.400841  1
  Ho  Ho14  1  0.360397  0.837191  0.124962  1
  Ho  Ho15  1  0.137676  0.337498  0.624253  1
  Ho  Ho16  1  0.195808  0.501699  0.250733  1
  Ho  Ho17  1  0.694341  0.998052  0.248479  1
  Ho  Ho18  1  0.302980  0.002615  0.749196  1
  Ho  Ho19  1  0.806004  0.497800  0.750773  1
  Sn  Sn20  1  0.677278  0.851632  0.749496  1
  Sn  Sn21  1  0.202280  0.529334  0.458949  1
  Sn  Sn22  1  0.299601  0.033212  0.960143  1
  Sn  Sn23  1  0.826855  0.348808  0.251653  1
  Sn  Sn24  1  0.797079  0.464995  0.956163  1
  Sn  Sn25  1  0.557391  0.620482  0.249441  1
  Sn  Sn26  1  0.207737  0.540211  0.044946  1
  Sn  Sn27  1  0.438153  0.383100  0.747563  1
  Sn  Sn28  1  0.175491  0.645344  0.749071  1
  Sn  Sn29  1  0.941151  0.120534  0.748542  1
  Sn  Sn30  1  0.285408  0.043966  0.542297  1
  Sn  Sn31  1  0.692594  0.960448  0.043660  1
  Sn  Sn32  1  0.322217  0.144907  0.249432  1
  Sn  Sn33  1  0.061844  0.885608  0.248995  1
  Pb  Pb34  1  0.803006  0.462166  0.542852  1
  Pb  Pb35  1  0.712823  0.969999  0.454460  1
