# generated using pymatgen
data_Cr2P3Ru4
_symmetry_space_group_name_H-M   'P 1'
_cell_length_a   7.14822027
_cell_length_b   7.14822162
_cell_length_c   7.14822052
_cell_angle_alpha   127.63499819
_cell_angle_beta   121.53600368
_cell_angle_gamma   82.31867533
_symmetry_Int_Tables_number   1
_chemical_formula_structural   Cr2P3Ru4
_chemical_formula_sum   'Cr4 P6 Ru8'
_cell_volume   237.01525030
_cell_formula_units_Z   2
loop_
 _symmetry_equiv_pos_site_id
 _symmetry_equiv_pos_as_xyz
  1  'x, y, z'
loop_
 _atom_site_type_symbol
 _atom_site_label
 _atom_site_symmetry_multiplicity
 _atom_site_fract_x
 _atom_site_fract_y
 _atom_site_fract_z
 _atom_site_occupancy
  Cr  Cr0  1  0.207621  0.353586  0.145965  1
  Cr  Cr1  1  0.792379  0.938343  0.145965  1
  Cr  Cr2  1  0.500000  0.562475  0.062475  1
  Cr  Cr3  1  0.000000  0.624910  0.624910  1
  P  P4  1  0.397699  0.668573  0.729644  1
  P  P5  1  0.602301  0.331944  0.270873  1
  P  P6  1  0.938930  0.668573  0.270873  1
  P  P7  1  0.061070  0.331944  0.729644  1
  P  P8  1  0.500000  0.070215  0.570215  1
  P  P9  1  0.000000  0.970366  0.970366  1
  Ru  Ru10  1  0.792603  0.264702  0.057305  1
  Ru  Ru11  1  0.207397  0.264702  0.472098  1
  Ru  Ru12  1  0.844182  0.991090  0.576705  1
  Ru  Ru13  1  0.155818  0.732523  0.146907  1
  Ru  Ru14  1  0.414384  0.991090  0.146907  1
  Ru  Ru15  1  0.585616  0.732523  0.576705  1
  Ru  Ru16  1  0.692808  0.444881  0.752071  1
  Ru  Ru17  1  0.307192  0.059263  0.752071  1
