# generated using pymatgen
data_PrYEr4Ta2O14
_symmetry_space_group_name_H-M   'P 1'
_cell_length_a   6.46053435
_cell_length_b   6.46053566
_cell_length_c   7.52847701
_cell_angle_alpha   90.00363726
_cell_angle_beta   89.99636259
_cell_angle_gamma   109.10222039
_symmetry_Int_Tables_number   1
_chemical_formula_structural   PrYEr4Ta2O14
_chemical_formula_sum   'Pr1 Y1 Er4 Ta2 O14'
_cell_volume   296.92488440
_cell_formula_units_Z   1
loop_
 _symmetry_equiv_pos_site_id
 _symmetry_equiv_pos_as_xyz
  1  'x, y, z'
loop_
 _atom_site_type_symbol
 _atom_site_label
 _atom_site_symmetry_multiplicity
 _atom_site_fract_x
 _atom_site_fract_y
 _atom_site_fract_z
 _atom_site_occupancy
  Pr  Pr0  1  0.500000  0.500000  0.500000  1
  Y  Y1  1  0.500000  0.500000  0.000000  1
  Er  Er2  1  0.533601  0.001095  0.753170  1
  Er  Er3  1  0.001095  0.533601  0.246830  1
  Er  Er4  1  0.466399  0.998905  0.246830  1
  Er  Er5  1  0.998905  0.466399  0.753170  1
  Ta  Ta6  1  0.000000  0.000000  0.500000  1
  Ta  Ta7  1  0.000000  0.000000  0.000000  1
  O  O8  1  0.678080  0.931352  0.466312  1
  O  O9  1  0.931352  0.678080  0.533688  1
  O  O10  1  0.678716  0.930198  0.033483  1
  O  O11  1  0.930198  0.678716  0.966517  1
  O  O12  1  0.321920  0.068648  0.533688  1
  O  O13  1  0.068648  0.321920  0.466312  1
  O  O14  1  0.321284  0.069802  0.966517  1
  O  O15  1  0.069802  0.321284  0.033483  1
  O  O16  1  0.933149  0.066851  0.749597  1
  O  O17  1  0.066851  0.933149  0.250403  1
  O  O18  1  0.365233  0.634767  0.759553  1
  O  O19  1  0.634767  0.365233  0.240447  1
  O  O20  1  0.642222  0.357778  0.759354  1
  O  O21  1  0.357778  0.642222  0.240646  1
