# generated using pymatgen
data_Dy5Cu3(Ni4P3)4
_symmetry_space_group_name_H-M   'P 1'
_cell_length_a   12.07213400
_cell_length_b   12.07213474
_cell_length_c   3.77918300
_cell_angle_alpha   90.00000000
_cell_angle_beta   90.00000000
_cell_angle_gamma   120.00000345
_symmetry_Int_Tables_number   1
_chemical_formula_structural   Dy5Cu3(Ni4P3)4
_chemical_formula_sum   'Dy5 Cu3 Ni16 P12'
_cell_volume   476.97614637
_cell_formula_units_Z   1
loop_
 _symmetry_equiv_pos_site_id
 _symmetry_equiv_pos_as_xyz
  1  'x, y, z'
loop_
 _atom_site_type_symbol
 _atom_site_label
 _atom_site_symmetry_multiplicity
 _atom_site_fract_x
 _atom_site_fract_y
 _atom_site_fract_z
 _atom_site_occupancy
  Dy  Dy0  1  0.188639  0.188639  0.500000  1
  Dy  Dy1  1  0.811361  0.000000  0.500000  1
  Dy  Dy2  1  0.000000  0.811361  0.500000  1
  Dy  Dy3  1  0.333333  0.666667  0.000000  1
  Dy  Dy4  1  0.666667  0.333333  0.000000  1
  Cu  Cu5  1  0.556349  0.556349  0.000000  1
  Cu  Cu6  1  0.443651  0.000000  0.000000  1
  Cu  Cu7  1  0.000000  0.443651  0.000000  1
  Ni  Ni8  1  0.716830  0.716830  0.500000  1
  Ni  Ni9  1  0.283170  0.000000  0.500000  1
  Ni  Ni10  1  0.000000  0.283170  0.500000  1
  Ni  Ni11  1  0.181440  0.380127  0.000000  1
  Ni  Ni12  1  0.619873  0.801313  0.000000  1
  Ni  Ni13  1  0.198687  0.818560  0.000000  1
  Ni  Ni14  1  0.801313  0.619873  0.000000  1
  Ni  Ni15  1  0.818560  0.198687  0.000000  1
  Ni  Ni16  1  0.380127  0.181440  0.000000  1
  Ni  Ni17  1  0.363997  0.486934  0.500000  1
  Ni  Ni18  1  0.513066  0.877064  0.500000  1
  Ni  Ni19  1  0.122936  0.636003  0.500000  1
  Ni  Ni20  1  0.877064  0.513066  0.500000  1
  Ni  Ni21  1  0.636003  0.122936  0.500000  1
  Ni  Ni22  1  0.486934  0.363997  0.500000  1
  Ni  Ni23  1  0.000000  0.000000  0.000000  1
  P  P24  1  0.822137  0.822137  0.000000  1
  P  P25  1  0.177863  0.000000  0.000000  1
  P  P26  1  0.000000  0.177863  0.000000  1
  P  P27  1  0.171351  0.478018  0.500000  1
  P  P28  1  0.521982  0.693334  0.500000  1
  P  P29  1  0.306666  0.828649  0.500000  1
  P  P30  1  0.693334  0.521982  0.500000  1
  P  P31  1  0.828649  0.306666  0.500000  1
  P  P32  1  0.478018  0.171351  0.500000  1
  P  P33  1  0.365206  0.365206  0.000000  1
  P  P34  1  0.634794  0.000000  0.000000  1
  P  P35  1  0.000000  0.634794  0.000000  1
