# generated using pymatgen
data_Ca2Yb2DyIr2
_symmetry_space_group_name_H-M   'P 1'
_cell_length_a   6.60596504
_cell_length_b   7.35051536
_cell_length_c   8.58632085
_cell_angle_alpha   97.22500883
_cell_angle_beta   112.62385883
_cell_angle_gamma   89.99999049
_symmetry_Int_Tables_number   1
_chemical_formula_structural   Ca2Yb2DyIr2
_chemical_formula_sum   'Ca4 Yb4 Dy2 Ir4'
_cell_volume   381.25661699
_cell_formula_units_Z   2
loop_
 _symmetry_equiv_pos_site_id
 _symmetry_equiv_pos_as_xyz
  1  'x, y, z'
loop_
 _atom_site_type_symbol
 _atom_site_label
 _atom_site_symmetry_multiplicity
 _atom_site_fract_x
 _atom_site_fract_y
 _atom_site_fract_z
 _atom_site_occupancy
  Ca  Ca0  1  0.204687  0.181578  0.564595  1
  Ca  Ca1  1  0.640091  0.318422  0.435405  1
  Ca  Ca2  1  0.795313  0.818422  0.435405  1
  Ca  Ca3  1  0.359909  0.681578  0.564595  1
  Yb  Yb4  1  0.804965  0.080686  0.829667  1
  Yb  Yb5  1  0.975300  0.419314  0.170333  1
  Yb  Yb6  1  0.195035  0.919314  0.170333  1
  Yb  Yb7  1  0.024700  0.580686  0.829667  1
  Dy  Dy8  1  0.436955  0.250000  0.000000  1
  Dy  Dy9  1  0.563045  0.750000  0.000000  1
  Ir  Ir10  1  0.609984  0.424870  0.794764  1
  Ir  Ir11  1  0.815219  0.075130  0.205236  1
  Ir  Ir12  1  0.390016  0.575130  0.205236  1
  Ir  Ir13  1  0.184781  0.924870  0.794764  1
