# generated using pymatgen
data_Lu2CdPd5
_symmetry_space_group_name_H-M   'P 1'
_cell_length_a   4.23592800
_cell_length_b   5.81660700
_cell_length_c   11.47253800
_cell_angle_alpha   90.00000000
_cell_angle_beta   90.00000000
_cell_angle_gamma   90.00000000
_symmetry_Int_Tables_number   1
_chemical_formula_structural   Lu2CdPd5
_chemical_formula_sum   'Lu4 Cd2 Pd10'
_cell_volume   282.66874849
_cell_formula_units_Z   2
loop_
 _symmetry_equiv_pos_site_id
 _symmetry_equiv_pos_as_xyz
  1  'x, y, z'
loop_
 _atom_site_type_symbol
 _atom_site_label
 _atom_site_symmetry_multiplicity
 _atom_site_fract_x
 _atom_site_fract_y
 _atom_site_fract_z
 _atom_site_occupancy
  Lu  Lu0  1  0.500000  0.213136  0.137871  1
  Lu  Lu1  1  0.500000  0.786864  0.862129  1
  Lu  Lu2  1  0.500000  0.286864  0.637871  1
  Lu  Lu3  1  0.500000  0.713136  0.362129  1
  Cd  Cd4  1  0.000000  0.000000  0.500000  1
  Cd  Cd5  1  0.000000  0.500000  0.000000  1
  Pd  Pd6  1  0.500000  0.228095  0.383500  1
  Pd  Pd7  1  0.500000  0.771905  0.616500  1
  Pd  Pd8  1  0.500000  0.271905  0.883500  1
  Pd  Pd9  1  0.500000  0.728095  0.116500  1
  Pd  Pd10  1  0.000000  0.474096  0.249196  1
  Pd  Pd11  1  0.000000  0.525904  0.750804  1
  Pd  Pd12  1  0.000000  0.025904  0.749196  1
  Pd  Pd13  1  0.000000  0.974096  0.250804  1
  Pd  Pd14  1  0.000000  0.000000  0.000000  1
  Pd  Pd15  1  0.000000  0.500000  0.500000  1
