# generated using pymatgen
data_AcB2OsRh
_symmetry_space_group_name_H-M   'P 1'
_cell_length_a   6.97946780
_cell_length_b   6.06958689
_cell_length_c   5.64829100
_cell_angle_alpha   73.01445539
_cell_angle_beta   56.27374698
_cell_angle_gamma   50.50755538
_symmetry_Int_Tables_number   1
_chemical_formula_structural   AcB2OsRh
_chemical_formula_sum   'Ac2 B4 Os2 Rh2'
_cell_volume   152.87952056
_cell_formula_units_Z   2
loop_
 _symmetry_equiv_pos_site_id
 _symmetry_equiv_pos_as_xyz
  1  'x, y, z'
loop_
 _atom_site_type_symbol
 _atom_site_label
 _atom_site_symmetry_multiplicity
 _atom_site_fract_x
 _atom_site_fract_y
 _atom_site_fract_z
 _atom_site_occupancy
  Ac  Ac0  1  0.005357  0.005357  0.994643  1
  Ac  Ac1  1  0.244643  0.244643  0.255357  1
  B  B2  1  0.655433  0.327826  0.695746  1
  B  B3  1  0.327826  0.655433  0.320995  1
  B  B4  1  0.922174  0.594567  0.929005  1
  B  B5  1  0.594567  0.922174  0.554254  1
  Os  Os6  1  0.363531  0.363531  0.636469  1
  Os  Os7  1  0.886469  0.886469  0.613531  1
  Rh  Rh8  1  0.618411  0.618411  0.881589  1
  Rh  Rh9  1  0.631589  0.631589  0.368411  1
