# generated using pymatgen
data_Tb3(NdIr2)2
_symmetry_space_group_name_H-M   'P 1'
_cell_length_a   7.54549700
_cell_length_b   7.69838000
_cell_length_c   14.74353300
_cell_angle_alpha   90.00000000
_cell_angle_beta   90.00000000
_cell_angle_gamma   90.00000000
_symmetry_Int_Tables_number   1
_chemical_formula_structural   Tb3(NdIr2)2
_chemical_formula_sum   'Tb12 Nd8 Ir16'
_cell_volume   856.42386636
_cell_formula_units_Z   4
loop_
 _symmetry_equiv_pos_site_id
 _symmetry_equiv_pos_as_xyz
  1  'x, y, z'
loop_
 _atom_site_type_symbol
 _atom_site_label
 _atom_site_symmetry_multiplicity
 _atom_site_fract_x
 _atom_site_fract_y
 _atom_site_fract_z
 _atom_site_occupancy
  Tb  Tb0  1  0.325948  0.176182  0.622075  1
  Tb  Tb1  1  0.674052  0.823818  0.377925  1
  Tb  Tb2  1  0.656845  0.992796  0.750000  1
  Tb  Tb3  1  0.174052  0.676182  0.377925  1
  Tb  Tb4  1  0.825948  0.323818  0.877925  1
  Tb  Tb5  1  0.825948  0.323818  0.622075  1
  Tb  Tb6  1  0.843155  0.492796  0.250000  1
  Tb  Tb7  1  0.343155  0.007204  0.250000  1
  Tb  Tb8  1  0.325948  0.176182  0.877925  1
  Tb  Tb9  1  0.174052  0.676182  0.122075  1
  Tb  Tb10  1  0.674052  0.823818  0.122075  1
  Tb  Tb11  1  0.156845  0.507204  0.750000  1
  Nd  Nd12  1  0.025182  0.179382  0.403182  1
  Nd  Nd13  1  0.525182  0.320618  0.403182  1
  Nd  Nd14  1  0.474818  0.679382  0.903182  1
  Nd  Nd15  1  0.474818  0.679382  0.596818  1
  Nd  Nd16  1  0.974818  0.820618  0.596818  1
  Nd  Nd17  1  0.974818  0.820618  0.903182  1
  Nd  Nd18  1  0.525182  0.320618  0.096818  1
  Nd  Nd19  1  0.025182  0.179382  0.096818  1
  Ir  Ir20  1  0.279067  0.868948  0.750000  1
  Ir  Ir21  1  0.469456  0.614758  0.250000  1
  Ir  Ir22  1  0.030544  0.114758  0.750000  1
  Ir  Ir23  1  0.530544  0.385242  0.750000  1
  Ir  Ir24  1  0.158772  0.470933  0.542362  1
  Ir  Ir25  1  0.969456  0.885242  0.250000  1
  Ir  Ir26  1  0.720933  0.131052  0.250000  1
  Ir  Ir27  1  0.841228  0.529067  0.042362  1
  Ir  Ir28  1  0.341228  0.970933  0.042362  1
  Ir  Ir29  1  0.158772  0.470933  0.957638  1
  Ir  Ir30  1  0.658772  0.029067  0.542362  1
  Ir  Ir31  1  0.341228  0.970933  0.457638  1
  Ir  Ir32  1  0.841228  0.529067  0.457638  1
  Ir  Ir33  1  0.779067  0.631052  0.750000  1
  Ir  Ir34  1  0.220933  0.368948  0.250000  1
  Ir  Ir35  1  0.658772  0.029067  0.957638  1
