# generated using pymatgen
data_Cs4PaSe5
_symmetry_space_group_name_H-M   'P 1'
_cell_length_a   8.71779706
_cell_length_b   8.72238945
_cell_length_c   12.90422145
_cell_angle_alpha   101.11148001
_cell_angle_beta   109.86576385
_cell_angle_gamma   102.72954481
_symmetry_Int_Tables_number   1
_chemical_formula_structural   Cs4PaSe5
_chemical_formula_sum   'Cs8 Pa2 Se10'
_cell_volume   861.01475127
_cell_formula_units_Z   2
loop_
 _symmetry_equiv_pos_site_id
 _symmetry_equiv_pos_as_xyz
  1  'x, y, z'
loop_
 _atom_site_type_symbol
 _atom_site_label
 _atom_site_symmetry_multiplicity
 _atom_site_fract_x
 _atom_site_fract_y
 _atom_site_fract_z
 _atom_site_occupancy
  Cs  Cs0  1  0.573710  0.793599  0.094004  1
  Cs  Cs1  1  0.201441  0.589553  0.703611  1
  Cs  Cs2  1  0.596732  0.294870  0.596632  1
  Cs  Cs3  1  0.403268  0.705130  0.403368  1
  Cs  Cs4  1  0.426290  0.206401  0.905996  1
  Cs  Cs5  1  0.000000  0.000000  0.500000  1
  Cs  Cs6  1  0.000000  0.500000  0.000000  1
  Cs  Cs7  1  0.798559  0.410447  0.296389  1
  Pa  Pa8  1  0.181085  0.093989  0.186626  1
  Pa  Pa9  1  0.818915  0.906011  0.813374  1
  Se  Se10  1  0.357033  0.377990  0.157496  1
  Se  Se11  1  0.642967  0.622010  0.842504  1
  Se  Se12  1  0.175346  0.289524  0.381987  1
  Se  Se13  1  0.824654  0.710476  0.618013  1
  Se  Se14  1  0.975764  0.178673  0.764001  1
  Se  Se15  1  0.024236  0.821327  0.235999  1
  Se  Se16  1  0.854137  0.102554  0.034062  1
  Se  Se17  1  0.145863  0.897446  0.965938  1
  Se  Se18  1  0.501996  0.938282  0.698236  1
  Se  Se19  1  0.498004  0.061718  0.301764  1
