# generated using pymatgen
data_La4Zn3CuI2
_symmetry_space_group_name_H-M   'P 1'
_cell_length_a   4.41274700
_cell_length_b   4.41274725
_cell_length_c   16.83015000
_cell_angle_alpha   90.00000000
_cell_angle_beta   90.00000000
_cell_angle_gamma   120.00000564
_symmetry_Int_Tables_number   1
_chemical_formula_structural   La4Zn3CuI2
_chemical_formula_sum   'La4 Zn3 Cu1 I2'
_cell_volume   283.81586920
_cell_formula_units_Z   1
loop_
 _symmetry_equiv_pos_site_id
 _symmetry_equiv_pos_as_xyz
  1  'x, y, z'
loop_
 _atom_site_type_symbol
 _atom_site_label
 _atom_site_symmetry_multiplicity
 _atom_site_fract_x
 _atom_site_fract_y
 _atom_site_fract_z
 _atom_site_occupancy
  La  La0  1  0.000000  0.000000  0.109603  1
  La  La1  1  0.000000  0.000000  0.890870  1
  La  La2  1  0.000000  0.000000  0.613756  1
  La  La3  1  0.000000  0.000000  0.386169  1
  Zn  Zn4  1  0.333333  0.666667  0.502859  1
  Zn  Zn5  1  0.666667  0.333333  0.497067  1
  Zn  Zn6  1  0.666667  0.333333  0.001252  1
  Cu  Cu7  1  0.333333  0.666667  0.998960  1
  I  I8  1  0.333333  0.666667  0.250078  1
  I  I9  1  0.666667  0.333333  0.749388  1
