# generated using pymatgen
data_Ho16In6ReAu
_symmetry_space_group_name_H-M   'P 1'
_cell_length_a   10.45612300
_cell_length_b   10.45612313
_cell_length_c   6.98026800
_cell_angle_alpha   90.00000000
_cell_angle_beta   90.00000000
_cell_angle_gamma   120.00000276
_symmetry_Int_Tables_number   1
_chemical_formula_structural   Ho16In6ReAu
_chemical_formula_sum   'Ho16 In6 Re1 Au1'
_cell_volume   660.91268716
_cell_formula_units_Z   1
loop_
 _symmetry_equiv_pos_site_id
 _symmetry_equiv_pos_as_xyz
  1  'x, y, z'
loop_
 _atom_site_type_symbol
 _atom_site_label
 _atom_site_symmetry_multiplicity
 _atom_site_fract_x
 _atom_site_fract_y
 _atom_site_fract_z
 _atom_site_occupancy
  Ho  Ho0  1  0.524621  0.049240  0.512424  1
  Ho  Ho1  1  0.950760  0.475379  0.512424  1
  Ho  Ho2  1  0.524621  0.475379  0.512424  1
  Ho  Ho3  1  0.466265  0.932530  0.008516  1
  Ho  Ho4  1  0.067470  0.533735  0.008516  1
  Ho  Ho5  1  0.466265  0.533735  0.008516  1
  Ho  Ho6  1  0.175262  0.350522  0.718481  1
  Ho  Ho7  1  0.649478  0.824738  0.718481  1
  Ho  Ho8  1  0.175262  0.824738  0.718481  1
  Ho  Ho9  1  0.826538  0.653077  0.214517  1
  Ho  Ho10  1  0.346923  0.173462  0.214517  1
  Ho  Ho11  1  0.826538  0.173462  0.214517  1
  Ho  Ho12  1  0.666667  0.333333  0.873270  1
  Ho  Ho13  1  0.333333  0.666667  0.377704  1
  Ho  Ho14  1  0.000000  0.000000  0.489019  1
  Ho  Ho15  1  0.000000  0.000000  0.993478  1
  In  In16  1  0.836153  0.672307  0.748368  1
  In  In17  1  0.327693  0.163847  0.748368  1
  In  In18  1  0.836153  0.163847  0.748368  1
  In  In19  1  0.162228  0.324455  0.252579  1
  In  In20  1  0.675545  0.837772  0.252579  1
  In  In21  1  0.162228  0.837772  0.252579  1
  Re  Re22  1  0.333333  0.666667  0.777530  1
  Au  Au23  1  0.666667  0.333333  0.282387  1
