# generated using pymatgen
data_Ho5GaCo5
_symmetry_space_group_name_H-M   'P 1'
_cell_length_a   5.42640518
_cell_length_b   5.42640490
_cell_length_c   20.47668200
_cell_angle_alpha   90.00000000
_cell_angle_beta   90.00000000
_cell_angle_gamma   136.62069982
_symmetry_Int_Tables_number   1
_chemical_formula_structural   Ho5GaCo5
_chemical_formula_sum   'Ho10 Ga2 Co10'
_cell_volume   414.12369053
_cell_formula_units_Z   2
loop_
 _symmetry_equiv_pos_site_id
 _symmetry_equiv_pos_as_xyz
  1  'x, y, z'
loop_
 _atom_site_type_symbol
 _atom_site_label
 _atom_site_symmetry_multiplicity
 _atom_site_fract_x
 _atom_site_fract_y
 _atom_site_fract_z
 _atom_site_occupancy
  Ho  Ho0  1  0.287891  0.712109  0.250000  1
  Ho  Ho1  1  0.290683  0.709317  0.065810  1
  Ho  Ho2  1  0.999158  0.000842  0.843059  1
  Ho  Ho3  1  0.712109  0.287891  0.750000  1
  Ho  Ho4  1  0.709317  0.290683  0.565810  1
  Ho  Ho5  1  0.000842  0.999158  0.343059  1
  Ho  Ho6  1  0.999158  0.000842  0.656941  1
  Ho  Ho7  1  0.709317  0.290683  0.934190  1
  Ho  Ho8  1  0.000842  0.999158  0.156941  1
  Ho  Ho9  1  0.290683  0.709317  0.434190  1
  Ga  Ga10  1  0.000000  0.000000  0.500000  1
  Ga  Ga11  1  0.000000  0.000000  0.000000  1
  Co  Co12  1  0.295154  0.704846  0.654257  1
  Co  Co13  1  0.581248  0.418752  0.441557  1
  Co  Co14  1  0.414506  0.585494  0.750000  1
  Co  Co15  1  0.418752  0.581248  0.941557  1
  Co  Co16  1  0.585494  0.414506  0.250000  1
  Co  Co17  1  0.418752  0.581248  0.558443  1
  Co  Co18  1  0.704846  0.295154  0.345743  1
  Co  Co19  1  0.704846  0.295154  0.154257  1
  Co  Co20  1  0.581248  0.418752  0.058443  1
  Co  Co21  1  0.295154  0.704846  0.845743  1
