# generated using pymatgen
data_DyLu15(ZnCo)4
_symmetry_space_group_name_H-M   'P 1'
_cell_length_a   9.15447747
_cell_length_b   9.15447753
_cell_length_c   9.15764900
_cell_angle_alpha   59.98853561
_cell_angle_beta   59.98853537
_cell_angle_gamma   59.91314557
_symmetry_Int_Tables_number   1
_chemical_formula_structural   DyLu15(ZnCo)4
_chemical_formula_sum   'Dy1 Lu15 Zn4 Co4'
_cell_volume   542.21940442
_cell_formula_units_Z   1
loop_
 _symmetry_equiv_pos_site_id
 _symmetry_equiv_pos_as_xyz
  1  'x, y, z'
loop_
 _atom_site_type_symbol
 _atom_site_label
 _atom_site_symmetry_multiplicity
 _atom_site_fract_x
 _atom_site_fract_y
 _atom_site_fract_z
 _atom_site_occupancy
  Dy  Dy0  1  0.937151  0.937151  0.562849  1
  Lu  Lu1  1  0.350444  0.350444  0.349805  1
  Lu  Lu2  1  0.350444  0.350444  0.949305  1
  Lu  Lu3  1  0.350911  0.949457  0.349816  1
  Lu  Lu4  1  0.949457  0.350911  0.349816  1
  Lu  Lu5  1  0.809561  0.190615  0.189396  1
  Lu  Lu6  1  0.190615  0.809561  0.810428  1
  Lu  Lu7  1  0.190615  0.809561  0.189396  1
  Lu  Lu8  1  0.809561  0.190615  0.810428  1
  Lu  Lu9  1  0.190136  0.190136  0.809864  1
  Lu  Lu10  1  0.809903  0.809903  0.190097  1
  Lu  Lu11  1  0.937190  0.561529  0.562617  1
  Lu  Lu12  1  0.561529  0.937190  0.938664  1
  Lu  Lu13  1  0.561529  0.937190  0.562617  1
  Lu  Lu14  1  0.937190  0.561529  0.938664  1
  Lu  Lu15  1  0.562610  0.562610  0.937390  1
  Zn  Zn16  1  0.577543  0.577543  0.577265  1
  Zn  Zn17  1  0.577543  0.577543  0.267649  1
  Zn  Zn18  1  0.576473  0.269062  0.577232  1
  Zn  Zn19  1  0.269062  0.576473  0.577232  1
  Co  Co20  1  0.142403  0.142403  0.141199  1
  Co  Co21  1  0.142403  0.142403  0.573995  1
  Co  Co22  1  0.142184  0.573540  0.142139  1
  Co  Co23  1  0.573540  0.142184  0.142139  1
