# generated using pymatgen
data_Ce9Dy(Sn3Ge)2
_symmetry_space_group_name_H-M   'P 1'
_cell_length_a   6.40901601
_cell_length_b   9.53140890
_cell_length_c   9.51757630
_cell_angle_alpha   120.04809316
_cell_angle_beta   89.99718236
_cell_angle_gamma   90.00563275
_symmetry_Int_Tables_number   1
_chemical_formula_structural   Ce9Dy(Sn3Ge)2
_chemical_formula_sum   'Ce9 Dy1 Sn6 Ge2'
_cell_volume   503.26274624
_cell_formula_units_Z   1
loop_
 _symmetry_equiv_pos_site_id
 _symmetry_equiv_pos_as_xyz
  1  'x, y, z'
loop_
 _atom_site_type_symbol
 _atom_site_label
 _atom_site_symmetry_multiplicity
 _atom_site_fract_x
 _atom_site_fract_y
 _atom_site_fract_z
 _atom_site_occupancy
  Ce  Ce0  1  0.750016  0.737989  0.738311  1
  Ce  Ce1  1  0.750016  0.999677  0.261689  1
  Ce  Ce2  1  0.250006  0.740170  0.000000  1
  Ce  Ce3  1  0.249967  0.261310  0.260114  1
  Ce  Ce4  1  0.249967  0.001197  0.739886  1
  Ce  Ce5  1  0.498484  0.334046  0.666698  1
  Ce  Ce6  1  0.498484  0.667347  0.333302  1
  Ce  Ce7  1  0.001524  0.667390  0.333371  1
  Ce  Ce8  1  0.001524  0.334019  0.666629  1
  Dy  Dy9  1  0.749957  0.257522  0.000000  1
  Sn  Sn10  1  0.750075  0.611757  0.000000  1
  Sn  Sn11  1  0.749984  0.383279  0.381146  1
  Sn  Sn12  1  0.749984  0.002134  0.618854  1
  Sn  Sn13  1  0.249969  0.385183  0.000000  1
  Sn  Sn14  1  0.250053  0.616618  0.615762  1
  Sn  Sn15  1  0.250053  0.000855  0.384238  1
  Ge  Ge16  1  0.501620  0.999748  0.000000  1
  Ge  Ge17  1  0.998320  0.999758  0.000000  1
