# generated using pymatgen
data_Dy3Th(AlRh)4
_symmetry_space_group_name_H-M   'P 1'
_cell_length_a   4.22455300
_cell_length_b   6.93096141
_cell_length_c   8.03388301
_cell_angle_alpha   90.05890025
_cell_angle_beta   90.00000000
_cell_angle_gamma   90.00000000
_symmetry_Int_Tables_number   1
_chemical_formula_structural   Dy3Th(AlRh)4
_chemical_formula_sum   'Dy3 Th1 Al4 Rh4'
_cell_volume   235.23368784
_cell_formula_units_Z   1
loop_
 _symmetry_equiv_pos_site_id
 _symmetry_equiv_pos_as_xyz
  1  'x, y, z'
loop_
 _atom_site_type_symbol
 _atom_site_label
 _atom_site_symmetry_multiplicity
 _atom_site_fract_x
 _atom_site_fract_y
 _atom_site_fract_z
 _atom_site_occupancy
  Dy  Dy0  1  0.750000  0.457894  0.814054  1
  Dy  Dy1  1  0.750000  0.958586  0.680067  1
  Dy  Dy2  1  0.250000  0.040481  0.322662  1
  Th  Th3  1  0.250000  0.539375  0.176345  1
  Al  Al4  1  0.250000  0.633043  0.564841  1
  Al  Al5  1  0.750000  0.360717  0.444213  1
  Al  Al6  1  0.750000  0.876936  0.057925  1
  Al  Al7  1  0.250000  0.131692  0.936906  1
  Rh  Rh8  1  0.250000  0.760487  0.882493  1
  Rh  Rh9  1  0.750000  0.245052  0.122846  1
  Rh  Rh10  1  0.750000  0.735416  0.376352  1
  Rh  Rh11  1  0.250000  0.260321  0.621297  1
