# generated using pymatgen
data_Y6U2BePd24
_symmetry_space_group_name_H-M   'P 1'
_cell_length_a   8.32819910
_cell_length_b   8.32819905
_cell_length_c   8.32820100
_cell_angle_alpha   89.85115683
_cell_angle_beta   90.14883629
_cell_angle_gamma   90.14883030
_symmetry_Int_Tables_number   1
_chemical_formula_structural   Y6U2BePd24
_chemical_formula_sum   'Y6 U2 Be1 Pd24'
_cell_volume   577.62902241
_cell_formula_units_Z   1
loop_
 _symmetry_equiv_pos_site_id
 _symmetry_equiv_pos_as_xyz
  1  'x, y, z'
loop_
 _atom_site_type_symbol
 _atom_site_label
 _atom_site_symmetry_multiplicity
 _atom_site_fract_x
 _atom_site_fract_y
 _atom_site_fract_z
 _atom_site_occupancy
  Y  Y0  1  0.250891  0.251834  0.251834  1
  Y  Y1  1  0.749109  0.748166  0.748166  1
  Y  Y2  1  0.748166  0.749109  0.251834  1
  Y  Y3  1  0.748166  0.251834  0.749109  1
  Y  Y4  1  0.251834  0.250891  0.748166  1
  Y  Y5  1  0.251834  0.748166  0.250891  1
  U  U6  1  0.254194  0.745806  0.745806  1
  U  U7  1  0.745806  0.254194  0.254194  1
  Be  Be8  1  0.000000  0.000000  0.000000  1
  Pd  Pd9  1  0.253707  0.502742  0.995806  1
  Pd  Pd10  1  0.746293  0.497258  0.004194  1
  Pd  Pd11  1  0.995806  0.253707  0.497258  1
  Pd  Pd12  1  0.502742  0.253707  0.004194  1
  Pd  Pd13  1  0.004194  0.746293  0.502742  1
  Pd  Pd14  1  0.497258  0.746293  0.995806  1
  Pd  Pd15  1  0.502742  0.004194  0.253707  1
  Pd  Pd16  1  0.253707  0.995806  0.502742  1
  Pd  Pd17  1  0.497258  0.995806  0.746293  1
  Pd  Pd18  1  0.746293  0.004194  0.497258  1
  Pd  Pd19  1  0.995806  0.497258  0.253707  1
  Pd  Pd20  1  0.004194  0.502742  0.746293  1
  Pd  Pd21  1  0.251440  0.502020  0.502020  1
  Pd  Pd22  1  0.748560  0.497980  0.497980  1
  Pd  Pd23  1  0.502020  0.251440  0.497980  1
  Pd  Pd24  1  0.497980  0.748560  0.502020  1
  Pd  Pd25  1  0.502020  0.497980  0.251440  1
  Pd  Pd26  1  0.497980  0.502020  0.748560  1
  Pd  Pd27  1  0.267040  0.996962  0.996962  1
  Pd  Pd28  1  0.732960  0.003038  0.003038  1
  Pd  Pd29  1  0.996962  0.267040  0.003038  1
  Pd  Pd30  1  0.003038  0.732960  0.996962  1
  Pd  Pd31  1  0.996962  0.003038  0.267040  1
  Pd  Pd32  1  0.003038  0.996962  0.732960  1
