# generated using pymatgen
data_Tb14DyPa(CdCo)4
_symmetry_space_group_name_H-M   'P 1'
_cell_length_a   9.47123025
_cell_length_b   9.57392843
_cell_length_c   9.46798600
_cell_angle_alpha   60.36538786
_cell_angle_beta   60.01133738
_cell_angle_gamma   60.45299961
_symmetry_Int_Tables_number   1
_chemical_formula_structural   Tb14DyPa(CdCo)4
_chemical_formula_sum   'Tb14 Dy1 Pa1 Cd4 Co4'
_cell_volume   610.85046585
_cell_formula_units_Z   1
loop_
 _symmetry_equiv_pos_site_id
 _symmetry_equiv_pos_as_xyz
  1  'x, y, z'
loop_
 _atom_site_type_symbol
 _atom_site_label
 _atom_site_symmetry_multiplicity
 _atom_site_fract_x
 _atom_site_fract_y
 _atom_site_fract_z
 _atom_site_occupancy
  Tb  Tb0  1  0.687033  0.314161  0.687759  1
  Tb  Tb1  1  0.687033  0.314161  0.311046  1
  Tb  Tb2  1  0.940330  0.560801  0.559851  1
  Tb  Tb3  1  0.545428  0.148753  0.152909  1
  Tb  Tb4  1  0.153344  0.149399  0.543361  1
  Tb  Tb5  1  0.938282  0.934734  0.563493  1
  Tb  Tb6  1  0.310544  0.691900  0.309591  1
  Tb  Tb7  1  0.562745  0.935763  0.937817  1
  Tb  Tb8  1  0.562745  0.935763  0.563676  1
  Tb  Tb9  1  0.687291  0.692197  0.310256  1
  Tb  Tb10  1  0.558659  0.561644  0.939848  1
  Tb  Tb11  1  0.940330  0.560801  0.939019  1
  Tb  Tb12  1  0.310544  0.691900  0.687965  1
  Tb  Tb13  1  0.153344  0.149399  0.153896  1
  Dy  Dy14  1  0.310593  0.313195  0.688105  1
  Pa  Pa15  1  0.164997  0.505024  0.164989  1
  Cd  Cd16  1  0.919656  0.242258  0.919043  1
  Cd  Cd17  1  0.921079  0.916215  0.921051  1
  Cd  Cd18  1  0.921079  0.916215  0.241653  1
  Cd  Cd19  1  0.243041  0.915915  0.920522  1
  Co  Co20  1  0.342853  0.375634  0.937798  1
  Co  Co21  1  0.358147  0.922892  0.359481  1
  Co  Co22  1  0.938050  0.375641  0.343156  1
  Co  Co23  1  0.342853  0.375634  0.343718  1
