# generated using pymatgen
data_CaYInS4
_symmetry_space_group_name_H-M   'P 1'
_cell_length_a   13.88378300
_cell_length_b   8.13423300
_cell_length_c   6.61203300
_cell_angle_alpha   90.00000000
_cell_angle_beta   90.00000000
_cell_angle_gamma   90.00000000
_symmetry_Int_Tables_number   1
_chemical_formula_structural   CaYInS4
_chemical_formula_sum   'Ca4 Y4 In4 S16'
_cell_volume   746.72284450
_cell_formula_units_Z   4
loop_
 _symmetry_equiv_pos_site_id
 _symmetry_equiv_pos_as_xyz
  1  'x, y, z'
loop_
 _atom_site_type_symbol
 _atom_site_label
 _atom_site_symmetry_multiplicity
 _atom_site_fract_x
 _atom_site_fract_y
 _atom_site_fract_z
 _atom_site_occupancy
  Ca  Ca0  1  0.731025  0.750000  0.008447  1
  Ca  Ca1  1  0.231025  0.750000  0.491552  1
  Ca  Ca2  1  0.768976  0.250000  0.508448  1
  Ca  Ca3  1  0.268975  0.250000  0.991553  1
  Y  Y4  1  0.000000  0.000000  0.000000  1
  Y  Y5  1  0.000000  0.499999  0.000000  1
  Y  Y6  1  0.500000  0.000000  0.500001  1
  Y  Y7  1  0.500000  0.499999  0.500001  1
  In  In8  1  0.593067  0.250000  0.086404  1
  In  In9  1  0.093067  0.250000  0.413595  1
  In  In10  1  0.906934  0.750000  0.586405  1
  In  In11  1  0.406933  0.750000  0.913594  1
  S  S12  1  0.912670  0.750000  0.215627  1
  S  S13  1  0.165120  0.010567  0.235556  1
  S  S14  1  0.165120  0.489433  0.235556  1
  S  S15  1  0.929528  0.250000  0.240287  1
  S  S16  1  0.429528  0.250000  0.259714  1
  S  S17  1  0.665120  0.010567  0.264445  1
  S  S18  1  0.665120  0.489433  0.264445  1
  S  S19  1  0.412671  0.750000  0.284373  1
  S  S20  1  0.587330  0.250000  0.715628  1
  S  S21  1  0.334879  0.510568  0.735556  1
  S  S22  1  0.334879  0.989432  0.735556  1
  S  S23  1  0.570473  0.750000  0.740288  1
  S  S24  1  0.070473  0.750000  0.759714  1
  S  S25  1  0.834880  0.510568  0.764444  1
  S  S26  1  0.834880  0.989432  0.764444  1
  S  S27  1  0.087330  0.250000  0.784373  1
