# generated using pymatgen
data_Li6Ca(PaN3)2
_symmetry_space_group_name_H-M   'P 1'
_cell_length_a   6.14003900
_cell_length_b   6.14003860
_cell_length_c   5.47607500
_cell_angle_alpha   90.00000000
_cell_angle_beta   90.00000000
_cell_angle_gamma   120.00000756
_symmetry_Int_Tables_number   1
_chemical_formula_structural   Li6Ca(PaN3)2
_chemical_formula_sum   'Li6 Ca1 Pa2 N6'
_cell_volume   178.78958530
_cell_formula_units_Z   1
loop_
 _symmetry_equiv_pos_site_id
 _symmetry_equiv_pos_as_xyz
  1  'x, y, z'
loop_
 _atom_site_type_symbol
 _atom_site_label
 _atom_site_symmetry_multiplicity
 _atom_site_fract_x
 _atom_site_fract_y
 _atom_site_fract_z
 _atom_site_occupancy
  Li  Li0  1  0.985270  0.659205  0.605785  1
  Li  Li1  1  0.340795  0.326064  0.605785  1
  Li  Li2  1  0.673936  0.014730  0.605785  1
  Li  Li3  1  0.014730  0.340795  0.394215  1
  Li  Li4  1  0.659205  0.673936  0.394215  1
  Li  Li5  1  0.326064  0.985270  0.394215  1
  Ca  Ca6  1  0.000000  0.000000  0.000000  1
  Pa  Pa7  1  0.333333  0.666667  0.993441  1
  Pa  Pa8  1  0.666667  0.333333  0.006559  1
  N  N9  1  0.001838  0.642897  0.225402  1
  N  N10  1  0.357103  0.358942  0.225402  1
  N  N11  1  0.641058  0.998162  0.225402  1
  N  N12  1  0.998162  0.357103  0.774598  1
  N  N13  1  0.642897  0.641058  0.774598  1
  N  N14  1  0.358942  0.001838  0.774598  1
