# generated using pymatgen
data_CaCo5As3
_symmetry_space_group_name_H-M   'P 1'
_cell_length_a   3.77770800
_cell_length_b   12.28585500
_cell_length_c   10.71646500
_cell_angle_alpha   90.00000000
_cell_angle_beta   90.00000000
_cell_angle_gamma   90.00000000
_symmetry_Int_Tables_number   1
_chemical_formula_structural   CaCo5As3
_chemical_formula_sum   'Ca4 Co20 As12'
_cell_volume   497.37656782
_cell_formula_units_Z   4
loop_
 _symmetry_equiv_pos_site_id
 _symmetry_equiv_pos_as_xyz
  1  'x, y, z'
loop_
 _atom_site_type_symbol
 _atom_site_label
 _atom_site_symmetry_multiplicity
 _atom_site_fract_x
 _atom_site_fract_y
 _atom_site_fract_z
 _atom_site_occupancy
  Ca  Ca0  1  0.750000  0.703053  0.081814  1
  Ca  Ca1  1  0.250000  0.296947  0.918186  1
  Ca  Ca2  1  0.250000  0.796947  0.581814  1
  Ca  Ca3  1  0.750000  0.203053  0.418186  1
  Co  Co4  1  0.750000  0.696111  0.381652  1
  Co  Co5  1  0.250000  0.303889  0.618348  1
  Co  Co6  1  0.250000  0.803889  0.881652  1
  Co  Co7  1  0.750000  0.196111  0.118348  1
  Co  Co8  1  0.750000  0.987394  0.206526  1
  Co  Co9  1  0.250000  0.012606  0.793474  1
  Co  Co10  1  0.250000  0.512606  0.706526  1
  Co  Co11  1  0.750000  0.487394  0.293474  1
  Co  Co12  1  0.750000  0.676250  0.785345  1
  Co  Co13  1  0.250000  0.323750  0.214655  1
  Co  Co14  1  0.250000  0.823750  0.285345  1
  Co  Co15  1  0.750000  0.176250  0.714655  1
  Co  Co16  1  0.750000  0.934048  0.967181  1
  Co  Co17  1  0.250000  0.065952  0.032819  1
  Co  Co18  1  0.250000  0.565952  0.467181  1
  Co  Co19  1  0.750000  0.434048  0.532819  1
  Co  Co20  1  0.750000  0.989006  0.594266  1
  Co  Co21  1  0.250000  0.010994  0.405734  1
  Co  Co22  1  0.250000  0.510994  0.094266  1
  Co  Co23  1  0.750000  0.489005  0.905734  1
  As  As24  1  0.750000  0.615143  0.583811  1
  As  As25  1  0.250000  0.384857  0.416189  1
  As  As26  1  0.250000  0.884857  0.083811  1
  As  As27  1  0.750000  0.115143  0.916189  1
  As  As28  1  0.750000  0.891286  0.399783  1
  As  As29  1  0.250000  0.108714  0.600217  1
  As  As30  1  0.250000  0.608714  0.899783  1
  As  As31  1  0.750000  0.391286  0.100217  1
  As  As32  1  0.750000  0.868632  0.768120  1
  As  As33  1  0.250000  0.131368  0.231880  1
  As  As34  1  0.250000  0.631368  0.268120  1
  As  As35  1  0.750000  0.368632  0.731880  1
