# generated using pymatgen
data_Ca4ScTa2FeO12
_symmetry_space_group_name_H-M   'P 1'
_cell_length_a   5.66225612
_cell_length_b   5.50266148
_cell_length_c   9.59879254
_cell_angle_alpha   55.12389611
_cell_angle_beta   89.77545582
_cell_angle_gamma   89.98112426
_symmetry_Int_Tables_number   1
_chemical_formula_structural   Ca4ScTa2FeO12
_chemical_formula_sum   'Ca4 Sc1 Ta2 Fe1 O12'
_cell_volume   245.35503855
_cell_formula_units_Z   1
loop_
 _symmetry_equiv_pos_site_id
 _symmetry_equiv_pos_as_xyz
  1  'x, y, z'
loop_
 _atom_site_type_symbol
 _atom_site_label
 _atom_site_symmetry_multiplicity
 _atom_site_fract_x
 _atom_site_fract_y
 _atom_site_fract_z
 _atom_site_occupancy
  Ca  Ca0  1  0.447767  0.232731  0.755748  1
  Ca  Ca1  1  0.552233  0.767269  0.244252  1
  Ca  Ca2  1  0.952343  0.760072  0.753262  1
  Ca  Ca3  1  0.047657  0.239928  0.246738  1
  Sc  Sc4  1  0.500000  0.000000  0.500000  1
  Ta  Ta5  1  0.000000  0.500000  0.500000  1
  Ta  Ta6  1  0.500000  0.500000  0.000000  1
  Fe  Fe7  1  0.000000  0.000000  0.000000  1
  O  O8  1  0.029635  0.345444  0.747434  1
  O  O9  1  0.970365  0.654556  0.252566  1
  O  O10  1  0.531222  0.648317  0.757008  1
  O  O11  1  0.468778  0.351683  0.242992  1
  O  O12  1  0.705382  0.836163  0.954053  1
  O  O13  1  0.294618  0.163837  0.045947  1
  O  O14  1  0.194420  0.156924  0.549265  1
  O  O15  1  0.805580  0.843076  0.450735  1
  O  O16  1  0.212211  0.753087  0.950263  1
  O  O17  1  0.787789  0.246913  0.049737  1
  O  O18  1  0.708382  0.255872  0.552408  1
  O  O19  1  0.291618  0.744128  0.447592  1
