# generated using pymatgen
data_Ho8B24Ir3Ru
_symmetry_space_group_name_H-M   'P 1'
_cell_length_a   3.63989400
_cell_length_b   9.17796818
_cell_length_c   11.49177723
_cell_angle_alpha   90.02268441
_cell_angle_beta   90.00000000
_cell_angle_gamma   90.00000000
_symmetry_Int_Tables_number   1
_chemical_formula_structural   Ho8B24Ir3Ru
_chemical_formula_sum   'Ho8 B24 Ir3 Ru1'
_cell_volume   383.90383312
_cell_formula_units_Z   1
loop_
 _symmetry_equiv_pos_site_id
 _symmetry_equiv_pos_as_xyz
  1  'x, y, z'
loop_
 _atom_site_type_symbol
 _atom_site_label
 _atom_site_symmetry_multiplicity
 _atom_site_fract_x
 _atom_site_fract_y
 _atom_site_fract_z
 _atom_site_occupancy
  Ho  Ho0  1  0.000000  0.321035  0.413099  1
  Ho  Ho1  1  0.000000  0.680147  0.588228  1
  Ho  Ho2  1  0.000000  0.821335  0.085166  1
  Ho  Ho3  1  0.000000  0.176961  0.912808  1
  Ho  Ho4  1  0.000000  0.944228  0.374078  1
  Ho  Ho5  1  0.000000  0.054220  0.626849  1
  Ho  Ho6  1  0.000000  0.444262  0.125676  1
  Ho  Ho7  1  0.000000  0.557482  0.874413  1
  B  B8  1  0.500000  0.553644  0.434563  1
  B  B9  1  0.500000  0.446582  0.565773  1
  B  B10  1  0.500000  0.053108  0.065756  1
  B  B11  1  0.500000  0.946074  0.933427  1
  B  B12  1  0.500000  0.749519  0.421144  1
  B  B13  1  0.500000  0.250653  0.579006  1
  B  B14  1  0.500000  0.249069  0.078999  1
  B  B15  1  0.500000  0.752163  0.920085  1
  B  B16  1  0.500000  0.792955  0.265319  1
  B  B17  1  0.500000  0.207175  0.734023  1
  B  B18  1  0.500000  0.293411  0.234714  1
  B  B19  1  0.500000  0.708018  0.766173  1
  B  B20  1  0.500000  0.632332  0.184253  1
  B  B21  1  0.500000  0.367722  0.815702  1
  B  B22  1  0.500000  0.132755  0.315609  1
  B  B23  1  0.500000  0.867820  0.685425  1
  B  B24  1  0.500000  0.981878  0.213087  1
  B  B25  1  0.500000  0.016399  0.786583  1
  B  B26  1  0.500000  0.482141  0.286517  1
  B  B27  1  0.500000  0.517850  0.713897  1
  B  B28  1  0.500000  0.611535  0.030970  1
  B  B29  1  0.500000  0.387942  0.969394  1
  B  B30  1  0.500000  0.111534  0.469222  1
  B  B31  1  0.500000  0.888536  0.530340  1
  Ir  Ir32  1  0.000000  0.638016  0.322080  1
  Ir  Ir33  1  0.000000  0.362166  0.678475  1
  Ir  Ir34  1  0.000000  0.137514  0.177757  1
  Ru  Ru35  1  0.000000  0.861820  0.821389  1
