# generated using pymatgen
data_Sm8CdGaPd23
_symmetry_space_group_name_H-M   'P 1'
_cell_length_a   8.39864900
_cell_length_b   8.50116600
_cell_length_c   8.51806300
_cell_angle_alpha   90.00000000
_cell_angle_beta   90.00000000
_cell_angle_gamma   90.00000000
_symmetry_Int_Tables_number   1
_chemical_formula_structural   Sm8CdGaPd23
_chemical_formula_sum   'Sm8 Cd1 Ga1 Pd23'
_cell_volume   608.17529692
_cell_formula_units_Z   1
loop_
 _symmetry_equiv_pos_site_id
 _symmetry_equiv_pos_as_xyz
  1  'x, y, z'
loop_
 _atom_site_type_symbol
 _atom_site_label
 _atom_site_symmetry_multiplicity
 _atom_site_fract_x
 _atom_site_fract_y
 _atom_site_fract_z
 _atom_site_occupancy
  Sm  Sm0  1  0.251088  0.243416  0.262039  1
  Sm  Sm1  1  0.747874  0.746835  0.748471  1
  Sm  Sm2  1  0.747874  0.746835  0.251529  1
  Sm  Sm3  1  0.747874  0.253165  0.748471  1
  Sm  Sm4  1  0.251088  0.243416  0.737961  1
  Sm  Sm5  1  0.251088  0.756584  0.262039  1
  Sm  Sm6  1  0.251088  0.756584  0.737961  1
  Sm  Sm7  1  0.747874  0.253165  0.251529  1
  Cd  Cd8  1  0.265532  0.500000  0.000000  1
  Ga  Ga9  1  0.999502  0.000000  0.000000  1
  Pd  Pd10  1  0.740476  0.500000  0.000000  1
  Pd  Pd11  1  0.997713  0.260322  0.500000  1
  Pd  Pd12  1  0.496880  0.260063  0.000000  1
  Pd  Pd13  1  0.997713  0.739678  0.500000  1
  Pd  Pd14  1  0.496880  0.739937  0.000000  1
  Pd  Pd15  1  0.501792  0.000000  0.261138  1
  Pd  Pd16  1  0.260046  0.000000  0.500000  1
  Pd  Pd17  1  0.501792  0.000000  0.738862  1
  Pd  Pd18  1  0.739324  0.000000  0.500000  1
  Pd  Pd19  1  0.002919  0.500000  0.260504  1
  Pd  Pd20  1  0.002919  0.500000  0.739496  1
  Pd  Pd21  1  0.253046  0.500000  0.500000  1
  Pd  Pd22  1  0.747425  0.500000  0.500000  1
  Pd  Pd23  1  0.502037  0.253998  0.500000  1
  Pd  Pd24  1  0.502037  0.746002  0.500000  1
  Pd  Pd25  1  0.497128  0.500000  0.255892  1
  Pd  Pd26  1  0.497128  0.500000  0.744108  1
  Pd  Pd27  1  0.293484  0.000000  0.000000  1
  Pd  Pd28  1  0.705726  0.000000  0.000000  1
  Pd  Pd29  1  0.004421  0.290645  0.000000  1
  Pd  Pd30  1  0.004421  0.709355  0.000000  1
  Pd  Pd31  1  0.996904  0.000000  0.291228  1
  Pd  Pd32  1  0.996904  0.000000  0.708772  1
