# generated using pymatgen
data_TbEr3(Co3Si5)2
_symmetry_space_group_name_H-M   'P 1'
_cell_length_a   7.84574463
_cell_length_b   7.84778369
_cell_length_c   5.48216246
_cell_angle_alpha   70.81548059
_cell_angle_beta   70.83874636
_cell_angle_gamma   93.37982319
_symmetry_Int_Tables_number   1
_chemical_formula_structural   TbEr3(Co3Si5)2
_chemical_formula_sum   'Tb1 Er3 Co6 Si10'
_cell_volume   295.82744505
_cell_formula_units_Z   1
loop_
 _symmetry_equiv_pos_site_id
 _symmetry_equiv_pos_as_xyz
  1  'x, y, z'
loop_
 _atom_site_type_symbol
 _atom_site_label
 _atom_site_symmetry_multiplicity
 _atom_site_fract_x
 _atom_site_fract_y
 _atom_site_fract_z
 _atom_site_occupancy
  Tb  Tb0  1  0.597988  0.869804  0.262883  1
  Er  Er1  1  0.869624  0.597761  0.763553  1
  Er  Er2  1  0.402254  0.130170  0.736429  1
  Er  Er3  1  0.129911  0.402310  0.236806  1
  Co  Co4  1  0.538526  0.262554  0.125352  1
  Co  Co5  1  0.997355  0.003348  0.249835  1
  Co  Co6  1  0.261663  0.538264  0.626073  1
  Co  Co7  1  0.460823  0.737367  0.874981  1
  Co  Co8  1  0.738128  0.461405  0.374478  1
  Co  Co9  1  0.003553  0.996893  0.749881  1
  Si  Si10  1  0.771075  0.229657  0.749406  1
  Si  Si11  1  0.228348  0.770787  0.250230  1
  Si  Si12  1  0.510816  0.488644  0.750188  1
  Si  Si13  1  0.488670  0.510041  0.250500  1
  Si  Si14  1  0.214294  0.785411  0.749890  1
  Si  Si15  1  0.785735  0.215236  0.250069  1
  Si  Si16  1  0.064347  0.262424  0.834485  1
  Si  Si17  1  0.262321  0.064810  0.334331  1
  Si  Si18  1  0.936514  0.737085  0.165453  1
  Si  Si19  1  0.738055  0.936032  0.665179  1
