# generated using pymatgen
data_Ta6Be14SiNi8
_symmetry_space_group_name_H-M   'P 1'
_cell_length_a   7.55918144
_cell_length_b   7.55918182
_cell_length_c   7.55918100
_cell_angle_alpha   59.99999923
_cell_angle_beta   59.99999756
_cell_angle_gamma   59.99999752
_symmetry_Int_Tables_number   1
_chemical_formula_structural   Ta6Be14SiNi8
_chemical_formula_sum   'Ta6 Be14 Si1 Ni8'
_cell_volume   305.42831018
_cell_formula_units_Z   1
loop_
 _symmetry_equiv_pos_site_id
 _symmetry_equiv_pos_as_xyz
  1  'x, y, z'
loop_
 _atom_site_type_symbol
 _atom_site_label
 _atom_site_symmetry_multiplicity
 _atom_site_fract_x
 _atom_site_fract_y
 _atom_site_fract_z
 _atom_site_occupancy
  Ta  Ta0  1  0.701850  0.298150  0.298150  1
  Ta  Ta1  1  0.298150  0.701850  0.701850  1
  Ta  Ta2  1  0.298150  0.701850  0.298150  1
  Ta  Ta3  1  0.701850  0.298150  0.701850  1
  Ta  Ta4  1  0.298150  0.298150  0.701850  1
  Ta  Ta5  1  0.701850  0.701850  0.298150  1
  Be  Be6  1  0.326018  0.326018  0.326018  1
  Be  Be7  1  0.673982  0.673982  0.673982  1
  Be  Be8  1  0.326018  0.326018  0.021944  1
  Be  Be9  1  0.326018  0.021944  0.326018  1
  Be  Be10  1  0.673982  0.673982  0.978056  1
  Be  Be11  1  0.673982  0.978056  0.673982  1
  Be  Be12  1  0.021944  0.326018  0.326018  1
  Be  Be13  1  0.978056  0.673982  0.673982  1
  Be  Be14  1  0.500000  0.000000  0.000000  1
  Be  Be15  1  0.000000  0.500000  0.500000  1
  Be  Be16  1  0.000000  0.500000  0.000000  1
  Be  Be17  1  0.500000  0.000000  0.500000  1
  Be  Be18  1  0.000000  0.000000  0.500000  1
  Be  Be19  1  0.500000  0.500000  0.000000  1
  Si  Si20  1  0.000000  0.000000  0.000000  1
  Ni  Ni21  1  0.124043  0.124043  0.124043  1
  Ni  Ni22  1  0.875957  0.875958  0.875957  1
  Ni  Ni23  1  0.124043  0.124043  0.627872  1
  Ni  Ni24  1  0.124043  0.627872  0.124042  1
  Ni  Ni25  1  0.875957  0.875958  0.372128  1
  Ni  Ni26  1  0.875957  0.372128  0.875957  1
  Ni  Ni27  1  0.627872  0.124043  0.124043  1
  Ni  Ni28  1  0.372128  0.875957  0.875957  1
