# generated using pymatgen
data_Li8HoEr7Sn5Sb3
_symmetry_space_group_name_H-M   'P 1'
_cell_length_a   9.36626146
_cell_length_b   9.36377228
_cell_length_c   7.11608912
_cell_angle_alpha   90.07764855
_cell_angle_beta   89.92503827
_cell_angle_gamma   120.03084184
_symmetry_Int_Tables_number   1
_chemical_formula_structural   Li8HoEr7Sn5Sb3
_chemical_formula_sum   'Li8 Ho1 Er7 Sn5 Sb3'
_cell_volume   540.32313363
_cell_formula_units_Z   1
loop_
 _symmetry_equiv_pos_site_id
 _symmetry_equiv_pos_as_xyz
  1  'x, y, z'
loop_
 _atom_site_type_symbol
 _atom_site_label
 _atom_site_symmetry_multiplicity
 _atom_site_fract_x
 _atom_site_fract_y
 _atom_site_fract_z
 _atom_site_occupancy
  Li  Li0  1  0.165942  0.333479  0.215724  1
  Li  Li1  1  0.167043  0.833096  0.215356  1
  Li  Li2  1  0.666692  0.834037  0.215479  1
  Li  Li3  1  0.667226  0.332802  0.322804  1
  Li  Li4  1  0.833092  0.666166  0.716286  1
  Li  Li5  1  0.334066  0.166887  0.716521  1
  Li  Li6  1  0.833107  0.166956  0.716001  1
  Li  Li7  1  0.333408  0.666747  0.821973  1
  Ho  Ho8  1  0.999175  0.001040  0.996589  1
  Er  Er9  1  0.512268  0.022639  0.004060  1
  Er  Er10  1  0.510425  0.489591  0.003365  1
  Er  Er11  1  0.977409  0.487773  0.003980  1
  Er  Er12  1  0.999201  0.000820  0.501831  1
  Er  Er13  1  0.491900  0.979677  0.509476  1
  Er  Er14  1  0.020313  0.508187  0.509490  1
  Er  Er15  1  0.489392  0.510670  0.510720  1
  Sn  Sn16  1  0.833197  0.166716  0.267728  1
  Sn  Sn17  1  0.665943  0.333401  0.740763  1
  Sn  Sn18  1  0.167728  0.334699  0.765799  1
  Sn  Sn19  1  0.167287  0.832892  0.765105  1
  Sn  Sn20  1  0.665131  0.832331  0.765924  1
  Sb  Sb21  1  0.333589  0.666207  0.242436  1
  Sb  Sb22  1  0.832463  0.665811  0.265308  1
  Sb  Sb23  1  0.334001  0.167375  0.265268  1
