# generated using pymatgen
data_Yb6Si24TcRu7
_symmetry_space_group_name_H-M   'P 1'
_cell_length_a   10.15368525
_cell_length_b   10.15368435
_cell_length_c   8.16902920
_cell_angle_alpha   89.98978667
_cell_angle_beta   89.98979198
_cell_angle_gamma   132.53684073
_symmetry_Int_Tables_number   1
_chemical_formula_structural   Yb6Si24TcRu7
_chemical_formula_sum   'Yb6 Si24 Tc1 Ru7'
_cell_volume   620.57260036
_cell_formula_units_Z   1
loop_
 _symmetry_equiv_pos_site_id
 _symmetry_equiv_pos_as_xyz
  1  'x, y, z'
loop_
 _atom_site_type_symbol
 _atom_site_label
 _atom_site_symmetry_multiplicity
 _atom_site_fract_x
 _atom_site_fract_y
 _atom_site_fract_z
 _atom_site_occupancy
  Yb  Yb0  1  0.000164  0.999836  0.000000  1
  Yb  Yb1  1  0.499914  0.500086  0.500000  1
  Yb  Yb2  1  0.002826  0.503461  0.250383  1
  Yb  Yb3  1  0.996977  0.497652  0.750052  1
  Yb  Yb4  1  0.496539  0.997174  0.749617  1
  Yb  Yb5  1  0.502348  0.003023  0.249948  1
  Si  Si6  1  0.704736  0.295264  0.000000  1
  Si  Si7  1  0.294408  0.705592  0.000000  1
  Si  Si8  1  0.794434  0.205566  0.500000  1
  Si  Si9  1  0.205370  0.794630  0.500000  1
  Si  Si10  1  0.332772  0.333145  0.168075  1
  Si  Si11  1  0.666855  0.667228  0.831925  1
  Si  Si12  1  0.167542  0.167330  0.667614  1
  Si  Si13  1  0.832670  0.832458  0.332386  1
  Si  Si14  1  0.847654  0.615071  0.008605  1
  Si  Si15  1  0.152823  0.384972  0.990806  1
  Si  Si16  1  0.653170  0.886104  0.507905  1
  Si  Si17  1  0.113896  0.346830  0.492095  1
  Si  Si18  1  0.346904  0.113605  0.492464  1
  Si  Si19  1  0.886395  0.653096  0.507536  1
  Si  Si20  1  0.384929  0.152346  0.991395  1
  Si  Si21  1  0.615028  0.847177  0.009194  1
  Si  Si22  1  0.894921  0.126529  0.268605  1
  Si  Si23  1  0.106768  0.874059  0.730904  1
  Si  Si24  1  0.606444  0.373799  0.767942  1
  Si  Si25  1  0.626201  0.393556  0.232058  1
  Si  Si26  1  0.392891  0.626013  0.231235  1
  Si  Si27  1  0.373987  0.607109  0.768765  1
  Si  Si28  1  0.873471  0.105079  0.731395  1
  Si  Si29  1  0.125941  0.893232  0.269096  1
  Tc  Tc30  1  0.830250  0.169750  0.000000  1
  Ru  Ru31  1  0.169204  0.830796  0.000000  1
  Ru  Ru32  1  0.669334  0.330666  0.500000  1
  Ru  Ru33  1  0.330703  0.669297  0.500000  1
  Ru  Ru34  1  0.125961  0.125215  0.375490  1
  Ru  Ru35  1  0.874785  0.874039  0.624510  1
  Ru  Ru36  1  0.375591  0.374806  0.875404  1
  Ru  Ru37  1  0.625194  0.624409  0.124596  1
