# generated using pymatgen
data_MgS23
_symmetry_space_group_name_H-M   'P 1'
_cell_length_a   5.51784902
_cell_length_b   9.64772952
_cell_length_c   15.45065100
_cell_angle_alpha   89.51739091
_cell_angle_beta   84.84501947
_cell_angle_gamma   90.86978670
_symmetry_Int_Tables_number   1
_chemical_formula_structural   MgS23
_chemical_formula_sum   'Mg1 S23'
_cell_volume   819.05024749
_cell_formula_units_Z   1
loop_
 _symmetry_equiv_pos_site_id
 _symmetry_equiv_pos_as_xyz
  1  'x, y, z'
loop_
 _atom_site_type_symbol
 _atom_site_label
 _atom_site_symmetry_multiplicity
 _atom_site_fract_x
 _atom_site_fract_y
 _atom_site_fract_z
 _atom_site_occupancy
  Mg  Mg0  1  0.476902  0.357183  0.450289  1
  S  S1  1  0.512583  0.784084  0.391928  1
  S  S2  1  0.001623  0.300032  0.110726  1
  S  S3  1  0.795320  0.213316  0.494386  1
  S  S4  1  0.293170  0.759087  0.504907  1
  S  S5  1  0.198275  0.259072  0.993980  1
  S  S6  1  0.795959  0.739321  0.008101  1
  S  S7  1  0.194819  0.378355  0.344017  1
  S  S8  1  0.672871  0.588488  0.360463  1
  S  S9  1  0.799875  0.124933  0.150417  1
  S  S10  1  0.206474  0.870955  0.132642  1
  S  S11  1  0.701947  0.629398  0.628517  1
  S  S12  1  0.333033  0.343585  0.621249  1
  S  S13  1  0.203154  0.876523  0.856875  1
  S  S14  1  0.791624  0.127553  0.867558  1
  S  S15  1  0.001477  0.696055  0.110045  1
  S  S16  1  0.498374  0.802811  0.607428  1
  S  S17  1  0.548226  0.172852  0.601158  1
  S  S18  1  0.000884  0.700012  0.892590  1
  S  S19  1  0.991105  0.303311  0.892498  1
  S  S20  1  0.481312  0.482349  0.273563  1
  S  S21  1  0.010002  0.996696  0.219705  1
  S  S22  1  0.489696  0.490851  0.703650  1
  S  S23  1  0.001297  0.003179  0.783308  1
