# generated using pymatgen
data_Hf6Zr4Ga2Sn5Bi
_symmetry_space_group_name_H-M   'P 1'
_cell_length_a   8.70931409
_cell_length_b   8.70931441
_cell_length_c   5.87135800
_cell_angle_alpha   90.00000000
_cell_angle_beta   90.00000000
_cell_angle_gamma   119.92532894
_symmetry_Int_Tables_number   1
_chemical_formula_structural   Hf6Zr4Ga2Sn5Bi
_chemical_formula_sum   'Hf6 Zr4 Ga2 Sn5 Bi1'
_cell_volume   385.97875614
_cell_formula_units_Z   1
loop_
 _symmetry_equiv_pos_site_id
 _symmetry_equiv_pos_as_xyz
  1  'x, y, z'
loop_
 _atom_site_type_symbol
 _atom_site_label
 _atom_site_symmetry_multiplicity
 _atom_site_fract_x
 _atom_site_fract_y
 _atom_site_fract_z
 _atom_site_occupancy
  Hf  Hf0  1  0.729025  0.002716  0.250000  1
  Hf  Hf1  1  0.002716  0.729025  0.250000  1
  Hf  Hf2  1  0.670413  0.332163  0.003237  1
  Hf  Hf3  1  0.332163  0.670413  0.003237  1
  Hf  Hf4  1  0.332163  0.670413  0.496763  1
  Hf  Hf5  1  0.670413  0.332163  0.496763  1
  Zr  Zr6  1  0.740002  0.740002  0.750000  1
  Zr  Zr7  1  0.259303  0.993330  0.750000  1
  Zr  Zr8  1  0.993330  0.259303  0.750000  1
  Zr  Zr9  1  0.270128  0.270128  0.250000  1
  Ga  Ga10  1  0.998835  0.998835  0.012032  1
  Ga  Ga11  1  0.998835  0.998835  0.487968  1
  Sn  Sn12  1  0.607957  0.998755  0.750000  1
  Sn  Sn13  1  0.998755  0.607957  0.750000  1
  Sn  Sn14  1  0.616183  0.616183  0.250000  1
  Sn  Sn15  1  0.387759  0.001177  0.250000  1
  Sn  Sn16  1  0.001177  0.387759  0.250000  1
  Bi  Bi17  1  0.390843  0.390843  0.750000  1
