# generated using pymatgen
data_Na3SiS3F
_symmetry_space_group_name_H-M   'P 1'
_cell_length_a   7.68533447
_cell_length_b   7.68533457
_cell_length_c   5.85531800
_cell_angle_alpha   90.00000000
_cell_angle_beta   90.00000000
_cell_angle_gamma   101.43825243
_symmetry_Int_Tables_number   1
_chemical_formula_structural   Na3SiS3F
_chemical_formula_sum   'Na6 Si2 S6 F2'
_cell_volume   338.97190580
_cell_formula_units_Z   2
loop_
 _symmetry_equiv_pos_site_id
 _symmetry_equiv_pos_as_xyz
  1  'x, y, z'
loop_
 _atom_site_type_symbol
 _atom_site_label
 _atom_site_symmetry_multiplicity
 _atom_site_fract_x
 _atom_site_fract_y
 _atom_site_fract_z
 _atom_site_occupancy
  Na  Na0  1  0.905396  0.675815  0.252375  1
  Na  Na1  1  0.623046  0.376954  0.708748  1
  Na  Na2  1  0.376954  0.623046  0.208748  1
  Na  Na3  1  0.324185  0.094604  0.252375  1
  Na  Na4  1  0.094604  0.324185  0.752375  1
  Na  Na5  1  0.675815  0.905396  0.752375  1
  Si  Si6  1  0.793876  0.206124  0.173210  1
  Si  Si7  1  0.206124  0.793876  0.673210  1
  S  S8  1  0.055440  0.315384  0.265382  1
  S  S9  1  0.617878  0.382122  0.224967  1
  S  S10  1  0.382122  0.617878  0.724967  1
  S  S11  1  0.944560  0.684616  0.765382  1
  S  S12  1  0.684616  0.944560  0.265382  1
  S  S13  1  0.315384  0.055440  0.765382  1
  F  F14  1  0.803826  0.196174  0.875660  1
  F  F15  1  0.196174  0.803826  0.375659  1
