# generated using pymatgen
data_Er3Mn8NiP6
_symmetry_space_group_name_H-M   'P 1'
_cell_length_a   3.64212600
_cell_length_b   10.79219400
_cell_length_c   12.58548800
_cell_angle_alpha   90.00000000
_cell_angle_beta   90.00000000
_cell_angle_gamma   90.00000000
_symmetry_Int_Tables_number   1
_chemical_formula_structural   Er3Mn8NiP6
_chemical_formula_sum   'Er6 Mn16 Ni2 P12'
_cell_volume   494.69186622
_cell_formula_units_Z   2
loop_
 _symmetry_equiv_pos_site_id
 _symmetry_equiv_pos_as_xyz
  1  'x, y, z'
loop_
 _atom_site_type_symbol
 _atom_site_label
 _atom_site_symmetry_multiplicity
 _atom_site_fract_x
 _atom_site_fract_y
 _atom_site_fract_z
 _atom_site_occupancy
  Er  Er0  1  0.000000  0.500000  0.530234  1
  Er  Er1  1  0.500000  0.000000  0.469766  1
  Er  Er2  1  0.500000  0.820829  0.205939  1
  Er  Er3  1  0.500000  0.179171  0.205939  1
  Er  Er4  1  0.000000  0.679171  0.794061  1
  Er  Er5  1  0.000000  0.320829  0.794061  1
  Mn  Mn6  1  0.000000  0.500000  0.991581  1
  Mn  Mn7  1  0.500000  0.000000  0.008419  1
  Mn  Mn8  1  0.500000  0.298692  0.432739  1
  Mn  Mn9  1  0.500000  0.701308  0.432739  1
  Mn  Mn10  1  0.000000  0.201308  0.567261  1
  Mn  Mn11  1  0.000000  0.798692  0.567261  1
  Mn  Mn12  1  0.500000  0.881303  0.702312  1
  Mn  Mn13  1  0.500000  0.118697  0.702312  1
  Mn  Mn14  1  0.000000  0.618697  0.297688  1
  Mn  Mn15  1  0.000000  0.381303  0.297688  1
  Mn  Mn16  1  0.500000  0.332630  0.996870  1
  Mn  Mn17  1  0.500000  0.667370  0.996870  1
  Mn  Mn18  1  0.000000  0.167370  0.003130  1
  Mn  Mn19  1  0.000000  0.832630  0.003130  1
  Mn  Mn20  1  0.500000  0.500000  0.165882  1
  Mn  Mn21  1  0.000000  0.000000  0.834118  1
  Ni  Ni22  1  0.500000  0.500000  0.704652  1
  Ni  Ni23  1  0.000000  0.000000  0.295348  1
  P  P24  1  0.500000  0.316972  0.618357  1
  P  P25  1  0.500000  0.683028  0.618357  1
  P  P26  1  0.000000  0.183028  0.381643  1
  P  P27  1  0.000000  0.816972  0.381643  1
  P  P28  1  0.500000  0.500000  0.880615  1
  P  P29  1  0.000000  0.000000  0.119385  1
  P  P30  1  0.500000  0.845252  0.885120  1
  P  P31  1  0.500000  0.154748  0.885120  1
  P  P32  1  0.000000  0.654748  0.114880  1
  P  P33  1  0.000000  0.345252  0.114880  1
  P  P34  1  0.500000  0.500000  0.359494  1
  P  P35  1  0.000000  0.000000  0.640506  1
