# generated using pymatgen
data_KLiThS3
_symmetry_space_group_name_H-M   'P 1'
_cell_length_a   4.21321600
_cell_length_b   7.25515022
_cell_length_c   10.79325500
_cell_angle_alpha   90.00000000
_cell_angle_beta   90.00000000
_cell_angle_gamma   73.12046050
_symmetry_Int_Tables_number   1
_chemical_formula_structural   KLiThS3
_chemical_formula_sum   'K2 Li2 Th2 S6'
_cell_volume   315.70902198
_cell_formula_units_Z   2
loop_
 _symmetry_equiv_pos_site_id
 _symmetry_equiv_pos_as_xyz
  1  'x, y, z'
loop_
 _atom_site_type_symbol
 _atom_site_label
 _atom_site_symmetry_multiplicity
 _atom_site_fract_x
 _atom_site_fract_y
 _atom_site_fract_z
 _atom_site_occupancy
  K  K0  1  0.742962  0.514075  0.250000  1
  K  K1  1  0.257037  0.485925  0.750000  1
  Li  Li2  1  0.469759  0.060482  0.250000  1
  Li  Li3  1  0.530241  0.939517  0.750000  1
  Th  Th4  1  0.000000  0.000000  0.000000  1
  Th  Th5  1  0.000000  0.000000  0.500000  1
  S  S6  1  0.377276  0.245448  0.061533  1
  S  S7  1  0.059238  0.881524  0.250000  1
  S  S8  1  0.377276  0.245448  0.438467  1
  S  S9  1  0.622724  0.754552  0.561533  1
  S  S10  1  0.940762  0.118475  0.750000  1
  S  S11  1  0.622724  0.754552  0.938467  1
