# generated using pymatgen
data_Y6Zn4Pd13
_symmetry_space_group_name_H-M   'P 1'
_cell_length_a   8.27047221
_cell_length_b   8.27047196
_cell_length_c   8.27047200
_cell_angle_alpha   109.47122073
_cell_angle_beta   109.47122013
_cell_angle_gamma   109.47122175
_symmetry_Int_Tables_number   1
_chemical_formula_structural   Y6Zn4Pd13
_chemical_formula_sum   'Y6 Zn4 Pd13'
_cell_volume   435.48078929
_cell_formula_units_Z   1
loop_
 _symmetry_equiv_pos_site_id
 _symmetry_equiv_pos_as_xyz
  1  'x, y, z'
loop_
 _atom_site_type_symbol
 _atom_site_label
 _atom_site_symmetry_multiplicity
 _atom_site_fract_x
 _atom_site_fract_y
 _atom_site_fract_z
 _atom_site_occupancy
  Y  Y0  1  0.699085  0.699085  0.000000  1
  Y  Y1  1  0.300915  0.000000  0.300915  1
  Y  Y2  1  0.000000  0.300915  0.300915  1
  Y  Y3  1  0.300915  0.300915  0.000000  1
  Y  Y4  1  0.699085  0.000000  0.699085  1
  Y  Y5  1  0.000000  0.699085  0.699085  1
  Zn  Zn6  1  0.000000  0.000000  0.500000  1
  Zn  Zn7  1  0.000000  0.500000  0.000000  1
  Zn  Zn8  1  0.500000  0.000000  0.000000  1
  Zn  Zn9  1  0.500000  0.500000  0.500000  1
  Pd  Pd10  1  0.333029  0.333029  0.666060  1
  Pd  Pd11  1  0.666971  0.000000  0.333029  1
  Pd  Pd12  1  0.000000  0.666971  0.333029  1
  Pd  Pd13  1  0.666971  0.333029  0.000000  1
  Pd  Pd14  1  0.333029  0.666060  0.333029  1
  Pd  Pd15  1  0.000000  0.333029  0.666971  1
  Pd  Pd16  1  0.333029  0.666971  0.000000  1
  Pd  Pd17  1  0.333029  0.000000  0.666971  1
  Pd  Pd18  1  0.666060  0.333029  0.333029  1
  Pd  Pd19  1  0.666971  0.666971  0.333940  1
  Pd  Pd20  1  0.666971  0.333940  0.666971  1
  Pd  Pd21  1  0.333940  0.666971  0.666971  1
  Pd  Pd22  1  0.000000  0.000000  0.000000  1
