# generated using pymatgen
data_Fe5Si7(Mo3H)4
_symmetry_space_group_name_H-M   'P 1'
_cell_length_a   7.70155995
_cell_length_b   7.70155994
_cell_length_c   7.70156112
_cell_angle_alpha   60.40414568
_cell_angle_beta   60.40414755
_cell_angle_gamma   60.40415029
_symmetry_Int_Tables_number   1
_chemical_formula_structural   Fe5Si7(Mo3H)4
_chemical_formula_sum   'Fe5 Si7 Mo12 H4'
_cell_volume   325.96602063
_cell_formula_units_Z   1
loop_
 _symmetry_equiv_pos_site_id
 _symmetry_equiv_pos_as_xyz
  1  'x, y, z'
loop_
 _atom_site_type_symbol
 _atom_site_label
 _atom_site_symmetry_multiplicity
 _atom_site_fract_x
 _atom_site_fract_y
 _atom_site_fract_z
 _atom_site_occupancy
  Fe  Fe0  1  0.132499  0.619248  0.619248  1
  Fe  Fe1  1  0.619248  0.132499  0.619248  1
  Fe  Fe2  1  0.619248  0.619248  0.132499  1
  Fe  Fe3  1  0.624562  0.624562  0.624562  1
  Fe  Fe4  1  0.834478  0.834478  0.834478  1
  Si  Si5  1  0.759049  0.413303  0.413303  1
  Si  Si6  1  0.413303  0.759049  0.413303  1
  Si  Si7  1  0.413303  0.413303  0.759049  1
  Si  Si8  1  0.415409  0.415409  0.415409  1
  Si  Si9  1  0.500296  0.834925  0.834925  1
  Si  Si10  1  0.834925  0.500296  0.834925  1
  Si  Si11  1  0.834925  0.834925  0.500296  1
  Mo  Mo12  1  0.810371  0.810371  0.186811  1
  Mo  Mo13  1  0.189836  0.189836  0.812319  1
  Mo  Mo14  1  0.810371  0.186811  0.810371  1
  Mo  Mo15  1  0.189836  0.812319  0.189836  1
  Mo  Mo16  1  0.186811  0.810371  0.810371  1
  Mo  Mo17  1  0.812319  0.189836  0.189836  1
  Mo  Mo18  1  0.439427  0.439427  0.063586  1
  Mo  Mo19  1  0.050077  0.050077  0.452439  1
  Mo  Mo20  1  0.439427  0.063586  0.439427  1
  Mo  Mo21  1  0.050077  0.452439  0.050077  1
  Mo  Mo22  1  0.063586  0.439427  0.439427  1
  Mo  Mo23  1  0.452439  0.050077  0.050077  1
  H  H24  1  0.623513  0.125847  0.125847  1
  H  H25  1  0.125847  0.623513  0.125847  1
  H  H26  1  0.125847  0.125847  0.623513  1
  H  H27  1  0.128979  0.128979  0.128979  1
