# generated using pymatgen
data_Er2Zn8Cu9
_symmetry_space_group_name_H-M   'P 1'
_cell_length_a   6.56844100
_cell_length_b   6.56844054
_cell_length_c   6.56683330
_cell_angle_alpha   83.22942772
_cell_angle_beta   83.22942256
_cell_angle_gamma   82.79061190
_symmetry_Int_Tables_number   1
_chemical_formula_structural   Er2Zn8Cu9
_chemical_formula_sum   'Er2 Zn8 Cu9'
_cell_volume   277.58942473
_cell_formula_units_Z   1
loop_
 _symmetry_equiv_pos_site_id
 _symmetry_equiv_pos_as_xyz
  1  'x, y, z'
loop_
 _atom_site_type_symbol
 _atom_site_label
 _atom_site_symmetry_multiplicity
 _atom_site_fract_x
 _atom_site_fract_y
 _atom_site_fract_z
 _atom_site_occupancy
  Er  Er0  1  0.347777  0.347777  0.344096  1
  Er  Er1  1  0.652293  0.652293  0.655903  1
  Zn  Zn2  1  0.647054  0.647054  0.151184  1
  Zn  Zn3  1  0.353034  0.353034  0.848722  1
  Zn  Zn4  1  0.994210  0.302750  0.697612  1
  Zn  Zn5  1  0.697350  0.005794  0.302359  1
  Zn  Zn6  1  0.005794  0.697350  0.302359  1
  Zn  Zn7  1  0.302750  0.994210  0.697612  1
  Zn  Zn8  1  0.100132  0.100132  0.107309  1
  Zn  Zn9  1  0.899888  0.899888  0.892762  1
  Cu  Cu10  1  0.650280  0.157569  0.651295  1
  Cu  Cu11  1  0.157569  0.650280  0.651295  1
  Cu  Cu12  1  0.842425  0.349660  0.348647  1
  Cu  Cu13  1  0.349660  0.842425  0.348647  1
  Cu  Cu14  1  0.296469  0.703208  0.000050  1
  Cu  Cu15  1  0.703208  0.296469  0.000050  1
  Cu  Cu16  1  0.999899  0.999899  0.500675  1
  Cu  Cu17  1  0.499959  0.000251  0.999711  1
  Cu  Cu18  1  0.000251  0.499959  0.999711  1
