# generated using pymatgen
data_ThSc5Fe2
_symmetry_space_group_name_H-M   'P 1'
_cell_length_a   5.93477400
_cell_length_b   8.64950800
_cell_length_c   13.43811300
_cell_angle_alpha   90.00000000
_cell_angle_beta   90.00000000
_cell_angle_gamma   90.00000000
_symmetry_Int_Tables_number   1
_chemical_formula_structural   ThSc5Fe2
_chemical_formula_sum   'Th4 Sc20 Fe8'
_cell_volume   689.81697743
_cell_formula_units_Z   4
loop_
 _symmetry_equiv_pos_site_id
 _symmetry_equiv_pos_as_xyz
  1  'x, y, z'
loop_
 _atom_site_type_symbol
 _atom_site_label
 _atom_site_symmetry_multiplicity
 _atom_site_fract_x
 _atom_site_fract_y
 _atom_site_fract_z
 _atom_site_occupancy
  Th  Th0  1  0.567653  0.750000  0.351179  1
  Th  Th1  1  0.067653  0.250000  0.148821  1
  Th  Th2  1  0.432347  0.250000  0.648821  1
  Th  Th3  1  0.932347  0.750000  0.851179  1
  Sc  Sc4  1  0.785492  0.750000  0.105342  1
  Sc  Sc5  1  0.285492  0.250000  0.394658  1
  Sc  Sc6  1  0.214508  0.250000  0.894658  1
  Sc  Sc7  1  0.714508  0.750000  0.605342  1
  Sc  Sc8  1  0.411070  0.931922  0.791704  1
  Sc  Sc9  1  0.911070  0.068078  0.708296  1
  Sc  Sc10  1  0.588930  0.431922  0.208296  1
  Sc  Sc11  1  0.088930  0.568078  0.291704  1
  Sc  Sc12  1  0.588930  0.068078  0.208296  1
  Sc  Sc13  1  0.088930  0.931922  0.291704  1
  Sc  Sc14  1  0.411070  0.568078  0.791704  1
  Sc  Sc15  1  0.911070  0.431922  0.708296  1
  Sc  Sc16  1  0.234253  0.932625  0.536493  1
  Sc  Sc17  1  0.734253  0.067375  0.963507  1
  Sc  Sc18  1  0.765747  0.432625  0.463507  1
  Sc  Sc19  1  0.265747  0.567375  0.036493  1
  Sc  Sc20  1  0.765747  0.067375  0.463507  1
  Sc  Sc21  1  0.265747  0.932625  0.036493  1
  Sc  Sc22  1  0.234253  0.567375  0.536493  1
  Sc  Sc23  1  0.734253  0.432625  0.963507  1
  Fe  Fe24  1  0.939601  0.750000  0.443285  1
  Fe  Fe25  1  0.439601  0.250000  0.056715  1
  Fe  Fe26  1  0.060399  0.250000  0.556715  1
  Fe  Fe27  1  0.560399  0.750000  0.943285  1
  Fe  Fe28  1  0.388555  0.750000  0.188652  1
  Fe  Fe29  1  0.888555  0.250000  0.311348  1
  Fe  Fe30  1  0.611445  0.250000  0.811348  1
  Fe  Fe31  1  0.111445  0.750000  0.688652  1
