# generated using pymatgen
data_Tm3Lu5B24RhW3
_symmetry_space_group_name_H-M   'P 1'
_cell_length_a   3.56397000
_cell_length_b   9.17823753
_cell_length_c   11.56800001
_cell_angle_alpha   90.16574552
_cell_angle_beta   90.00000000
_cell_angle_gamma   90.00000000
_symmetry_Int_Tables_number   1
_chemical_formula_structural   Tm3Lu5B24RhW3
_chemical_formula_sum   'Tm3 Lu5 B24 Rh1 W3'
_cell_volume   378.39883952
_cell_formula_units_Z   1
loop_
 _symmetry_equiv_pos_site_id
 _symmetry_equiv_pos_as_xyz
  1  'x, y, z'
loop_
 _atom_site_type_symbol
 _atom_site_label
 _atom_site_symmetry_multiplicity
 _atom_site_fract_x
 _atom_site_fract_y
 _atom_site_fract_z
 _atom_site_occupancy
  Tm  Tm0  1  0.500000  0.317732  0.414455  1
  Tm  Tm1  1  0.500000  0.679835  0.588596  1
  Tm  Tm2  1  0.500000  0.179151  0.912582  1
  Lu  Lu3  1  0.500000  0.823897  0.082807  1
  Lu  Lu4  1  0.500000  0.444950  0.129028  1
  Lu  Lu5  1  0.500000  0.556055  0.873367  1
  Lu  Lu6  1  0.500000  0.053974  0.626582  1
  Lu  Lu7  1  0.500000  0.941905  0.371518  1
  B  B8  1  0.000000  0.099013  0.471416  1
  B  B9  1  0.000000  0.895201  0.526660  1
  B  B10  1  0.000000  0.399558  0.973036  1
  B  B11  1  0.000000  0.603317  0.030355  1
  B  B12  1  0.000000  0.130381  0.318792  1
  B  B13  1  0.000000  0.868106  0.682116  1
  B  B14  1  0.000000  0.369722  0.817163  1
  B  B15  1  0.000000  0.632460  0.183621  1
  B  B16  1  0.000000  0.051449  0.065130  1
  B  B17  1  0.000000  0.948977  0.935460  1
  B  B18  1  0.000000  0.449318  0.562914  1
  B  B19  1  0.000000  0.555151  0.433176  1
  B  B20  1  0.000000  0.483419  0.288219  1
  B  B21  1  0.000000  0.522490  0.713073  1
  B  B22  1  0.000000  0.021858  0.785934  1
  B  B23  1  0.000000  0.976357  0.212596  1
  B  B24  1  0.000000  0.253382  0.078845  1
  B  B25  1  0.000000  0.748271  0.923143  1
  B  B26  1  0.000000  0.246110  0.577021  1
  B  B27  1  0.000000  0.749525  0.420227  1
  B  B28  1  0.000000  0.297396  0.238113  1
  B  B29  1  0.000000  0.704045  0.764495  1
  B  B30  1  0.000000  0.204424  0.735527  1
  B  B31  1  0.000000  0.791441  0.264156  1
  Rh  Rh32  1  0.500000  0.639330  0.320268  1
  W  W33  1  0.500000  0.139803  0.181158  1
  W  W34  1  0.500000  0.860828  0.820489  1
  W  W35  1  0.500000  0.361168  0.677962  1
