# generated using pymatgen
data_SmEr18TmSn16
_symmetry_space_group_name_H-M   'P 1'
_cell_length_a   7.99183372
_cell_length_b   8.11658515
_cell_length_c   15.35418291
_cell_angle_alpha   90.01034545
_cell_angle_beta   89.74358101
_cell_angle_gamma   89.94395206
_symmetry_Int_Tables_number   1
_chemical_formula_structural   SmEr18TmSn16
_chemical_formula_sum   'Sm1 Er18 Tm1 Sn16'
_cell_volume   995.96008569
_cell_formula_units_Z   1
loop_
 _symmetry_equiv_pos_site_id
 _symmetry_equiv_pos_as_xyz
  1  'x, y, z'
loop_
 _atom_site_type_symbol
 _atom_site_label
 _atom_site_symmetry_multiplicity
 _atom_site_fract_x
 _atom_site_fract_y
 _atom_site_fract_z
 _atom_site_occupancy
  Sm  Sm0  1  0.018650  0.179390  0.904046  1
  Er  Er1  1  0.366704  0.836990  0.876770  1
  Er  Er2  1  0.868161  0.663291  0.621867  1
  Er  Er3  1  0.631472  0.162702  0.377264  1
  Er  Er4  1  0.133677  0.337598  0.123198  1
  Er  Er5  1  0.633596  0.162944  0.123296  1
  Er  Er6  1  0.131773  0.337103  0.377515  1
  Er  Er7  1  0.368745  0.836890  0.622364  1
  Er  Er8  1  0.867444  0.662672  0.877127  1
  Er  Er9  1  0.521725  0.322154  0.902963  1
  Er  Er10  1  0.023097  0.178700  0.597696  1
  Er  Er11  1  0.477613  0.678499  0.402745  1
  Er  Er12  1  0.979248  0.820273  0.097152  1
  Er  Er13  1  0.478606  0.678932  0.097181  1
  Er  Er14  1  0.977691  0.821592  0.402848  1
  Er  Er15  1  0.522280  0.321845  0.596367  1
  Er  Er16  1  0.198475  0.503392  0.749317  1
  Er  Er17  1  0.698160  0.996193  0.749150  1
  Er  Er18  1  0.801749  0.496609  0.250349  1
  Tm  Tm19  1  0.301880  0.003416  0.250451  1
  Sn  Sn20  1  0.296065  0.034965  0.042990  1
  Sn  Sn21  1  0.792017  0.463582  0.458357  1
  Sn  Sn22  1  0.708221  0.964608  0.541278  1
  Sn  Sn23  1  0.208013  0.538636  0.959020  1
  Sn  Sn24  1  0.702257  0.959602  0.959507  1
  Sn  Sn25  1  0.207860  0.536311  0.541306  1
  Sn  Sn26  1  0.292220  0.036119  0.458502  1
  Sn  Sn27  1  0.792987  0.463624  0.041659  1
  Sn  Sn28  1  0.564528  0.619250  0.749823  1
  Sn  Sn29  1  0.064608  0.879605  0.749494  1
  Sn  Sn30  1  0.435522  0.381446  0.250223  1
  Sn  Sn31  1  0.936066  0.118858  0.250343  1
  Sn  Sn32  1  0.333086  0.149281  0.749479  1
  Sn  Sn33  1  0.828932  0.352503  0.748338  1
  Sn  Sn34  1  0.668558  0.850648  0.249915  1
  Sn  Sn35  1  0.168313  0.649776  0.250102  1
