# generated using pymatgen
data_Er12ZnFe4Sn
_symmetry_space_group_name_H-M   'P 1'
_cell_length_a   8.29468698
_cell_length_b   8.29468698
_cell_length_c   8.29468610
_cell_angle_alpha   111.11079772
_cell_angle_beta   110.57049791
_cell_angle_gamma   106.76624500
_symmetry_Int_Tables_number   1
_chemical_formula_structural   Er12ZnFe4Sn
_chemical_formula_sum   'Er12 Zn1 Fe4 Sn1'
_cell_volume   438.57679568
_cell_formula_units_Z   1
loop_
 _symmetry_equiv_pos_site_id
 _symmetry_equiv_pos_as_xyz
  1  'x, y, z'
loop_
 _atom_site_type_symbol
 _atom_site_label
 _atom_site_symmetry_multiplicity
 _atom_site_fract_x
 _atom_site_fract_y
 _atom_site_fract_z
 _atom_site_occupancy
  Er  Er0  1  0.313192  0.613483  0.300290  1
  Er  Er1  1  0.686808  0.386518  0.699710  1
  Er  Er2  1  0.313192  0.012902  0.699710  1
  Er  Er3  1  0.686808  0.987098  0.300290  1
  Er  Er4  1  0.429527  0.223327  0.206200  1
  Er  Er5  1  0.570473  0.776673  0.793800  1
  Er  Er6  1  0.017127  0.223327  0.793800  1
  Er  Er7  1  0.982873  0.776673  0.206200  1
  Er  Er8  1  0.185704  0.287012  0.472715  1
  Er  Er9  1  0.814296  0.712988  0.527285  1
  Er  Er10  1  0.185704  0.712988  0.898693  1
  Er  Er11  1  0.814296  0.287012  0.101307  1
  Zn  Zn12  1  0.000000  0.000000  0.000000  1
  Fe  Fe13  1  0.109152  0.609152  0.500000  1
  Fe  Fe14  1  0.890849  0.390849  0.500000  1
  Fe  Fe15  1  0.383204  0.000000  0.383204  1
  Fe  Fe16  1  0.616796  0.000000  0.616796  1
  Sn  Sn17  1  0.500000  0.500000  0.000000  1
