# generated using pymatgen
data_TmBi5S9
_symmetry_space_group_name_H-M   'P 1'
_cell_length_a   4.05194900
_cell_length_b   10.97207665
_cell_length_c   18.41668679
_cell_angle_alpha   81.50470589
_cell_angle_beta   90.00000000
_cell_angle_gamma   90.00000000
_symmetry_Int_Tables_number   1
_chemical_formula_structural   TmBi5S9
_chemical_formula_sum   'Tm2 Bi10 S18'
_cell_volume   809.79090027
_cell_formula_units_Z   2
loop_
 _symmetry_equiv_pos_site_id
 _symmetry_equiv_pos_as_xyz
  1  'x, y, z'
loop_
 _atom_site_type_symbol
 _atom_site_label
 _atom_site_symmetry_multiplicity
 _atom_site_fract_x
 _atom_site_fract_y
 _atom_site_fract_z
 _atom_site_occupancy
  Tm  Tm0  1  0.250000  0.170603  0.277247  1
  Tm  Tm1  1  0.750000  0.829397  0.722753  1
  Bi  Bi2  1  0.250000  0.897412  0.913825  1
  Bi  Bi3  1  0.750000  0.102588  0.086175  1
  Bi  Bi4  1  0.250000  0.804074  0.224469  1
  Bi  Bi5  1  0.750000  0.195926  0.775531  1
  Bi  Bi6  1  0.250000  0.813271  0.541856  1
  Bi  Bi7  1  0.750000  0.186729  0.458144  1
  Bi  Bi8  1  0.250000  0.526354  0.905799  1
  Bi  Bi9  1  0.750000  0.473646  0.094201  1
  Bi  Bi10  1  0.250000  0.438570  0.604920  1
  Bi  Bi11  1  0.750000  0.561430  0.395080  1
  S  S12  1  0.250000  0.978194  0.766392  1
  S  S13  1  0.750000  0.021806  0.233608  1
  S  S14  1  0.250000  0.939982  0.076172  1
  S  S15  1  0.750000  0.060018  0.923828  1
  S  S16  1  0.250000  0.730558  0.375153  1
  S  S17  1  0.750000  0.269442  0.624847  1
  S  S18  1  0.250000  0.695428  0.680349  1
  S  S19  1  0.750000  0.304572  0.319651  1
  S  S20  1  0.250000  0.624104  0.030954  1
  S  S21  1  0.750000  0.375896  0.969046  1
  S  S22  1  0.250000  0.384096  0.468331  1
  S  S23  1  0.750000  0.615904  0.531669  1
  S  S24  1  0.250000  0.352370  0.786836  1
  S  S25  1  0.750000  0.647630  0.213164  1
  S  S26  1  0.250000  0.281935  0.136894  1
  S  S27  1  0.750000  0.718065  0.863106  1
  S  S28  1  0.250000  0.045464  0.415366  1
  S  S29  1  0.750000  0.954536  0.584634  1
