# generated using pymatgen
data_Y2ErMgIr8
_symmetry_space_group_name_H-M   'P 1'
_cell_length_a   5.32657300
_cell_length_b   5.32657315
_cell_length_c   8.65976800
_cell_angle_alpha   90.00000000
_cell_angle_beta   90.00000000
_cell_angle_gamma   119.99999283
_symmetry_Int_Tables_number   1
_chemical_formula_structural   Y2ErMgIr8
_chemical_formula_sum   'Y2 Er1 Mg1 Ir8'
_cell_volume   212.78092843
_cell_formula_units_Z   1
loop_
 _symmetry_equiv_pos_site_id
 _symmetry_equiv_pos_as_xyz
  1  'x, y, z'
loop_
 _atom_site_type_symbol
 _atom_site_label
 _atom_site_symmetry_multiplicity
 _atom_site_fract_x
 _atom_site_fract_y
 _atom_site_fract_z
 _atom_site_occupancy
  Y  Y0  1  0.333333  0.666667  0.078950  1
  Y  Y1  1  0.666667  0.333333  0.558894  1
  Er  Er2  1  0.666667  0.333333  0.930013  1
  Mg  Mg3  1  0.333333  0.666667  0.440654  1
  Ir  Ir4  1  0.000000  0.000000  0.997074  1
  Ir  Ir5  1  0.000000  0.000000  0.497366  1
  Ir  Ir6  1  0.830425  0.660850  0.250390  1
  Ir  Ir7  1  0.170529  0.829471  0.748627  1
  Ir  Ir8  1  0.658943  0.829471  0.748627  1
  Ir  Ir9  1  0.339150  0.169575  0.250390  1
  Ir  Ir10  1  0.830425  0.169575  0.250390  1
  Ir  Ir11  1  0.170529  0.341057  0.748627  1
