# generated using pymatgen
data_HfTiBe9W
_symmetry_space_group_name_H-M   'P 1'
_cell_length_a   7.52287550
_cell_length_b   7.52287536
_cell_length_c   7.52287441
_cell_angle_alpha   34.97966815
_cell_angle_beta   34.97965622
_cell_angle_gamma   34.97966341
_symmetry_Int_Tables_number   1
_chemical_formula_structural   HfTiBe9W
_chemical_formula_sum   'Hf1 Ti1 Be9 W1'
_cell_volume   124.93151776
_cell_formula_units_Z   1
loop_
 _symmetry_equiv_pos_site_id
 _symmetry_equiv_pos_as_xyz
  1  'x, y, z'
loop_
 _atom_site_type_symbol
 _atom_site_label
 _atom_site_symmetry_multiplicity
 _atom_site_fract_x
 _atom_site_fract_y
 _atom_site_fract_z
 _atom_site_occupancy
  Hf  Hf0  1  0.996645  0.996645  0.996645  1
  Ti  Ti1  1  0.143457  0.143457  0.143457  1
  Be  Be2  1  0.413473  0.921376  0.413473  1
  Be  Be3  1  0.413473  0.413473  0.921376  1
  Be  Be4  1  0.921376  0.413473  0.413473  1
  Be  Be5  1  0.588218  0.075227  0.588218  1
  Be  Be6  1  0.588218  0.588218  0.075227  1
  Be  Be7  1  0.075227  0.588218  0.588218  1
  Be  Be8  1  0.666868  0.666868  0.666868  1
  Be  Be9  1  0.336714  0.336714  0.336714  1
  Be  Be10  1  0.499747  0.499747  0.499747  1
  W  W11  1  0.856584  0.856584  0.856584  1
