# generated using pymatgen
data_La(GaCl4)3
_symmetry_space_group_name_H-M   'P 1'
_cell_length_a   10.21992600
_cell_length_b   10.21992603
_cell_length_c   18.17181000
_cell_angle_alpha   90.00000000
_cell_angle_beta   90.00000000
_cell_angle_gamma   120.00000637
_symmetry_Int_Tables_number   1
_chemical_formula_structural   La(GaCl4)3
_chemical_formula_sum   'La3 Ga9 Cl36'
_cell_volume   1643.70658426
_cell_formula_units_Z   3
loop_
 _symmetry_equiv_pos_site_id
 _symmetry_equiv_pos_as_xyz
  1  'x, y, z'
loop_
 _atom_site_type_symbol
 _atom_site_label
 _atom_site_symmetry_multiplicity
 _atom_site_fract_x
 _atom_site_fract_y
 _atom_site_fract_z
 _atom_site_occupancy
  La  La0  1  0.000000  0.728457  0.666667  1
  La  La1  1  0.271543  0.271543  0.000000  1
  La  La2  1  0.728457  0.000000  0.333333  1
  Ga  Ga3  1  0.368664  0.673550  0.053872  1
  Ga  Ga4  1  0.673550  0.368664  0.946128  1
  Ga  Ga5  1  0.326450  0.695114  0.387205  1
  Ga  Ga6  1  0.900420  0.900420  0.500000  1
  Ga  Ga7  1  0.695114  0.326450  0.612795  1
  Ga  Ga8  1  0.099580  0.000000  0.833333  1
  Ga  Ga9  1  0.304886  0.631336  0.720539  1
  Ga  Ga10  1  0.631336  0.304886  0.279461  1
  Ga  Ga11  1  0.000000  0.099580  0.166667  1
  Cl  Cl12  1  0.860094  0.577189  0.984106  1
  Cl  Cl13  1  0.422811  0.282905  0.317439  1
  Cl  Cl14  1  0.205344  0.971814  0.933719  1
  Cl  Cl15  1  0.083921  0.585901  0.776649  1
  Cl  Cl16  1  0.577189  0.860094  0.015894  1
  Cl  Cl17  1  0.494367  0.774313  0.788357  1
  Cl  Cl18  1  0.498020  0.414099  0.890018  1
  Cl  Cl19  1  0.279946  0.505633  0.455024  1
  Cl  Cl20  1  0.501980  0.916079  0.443315  1
  Cl  Cl21  1  0.794656  0.766470  0.399614  1
  Cl  Cl22  1  0.585901  0.083921  0.223351  1
  Cl  Cl23  1  0.765738  0.288876  0.375798  1
  Cl  Cl24  1  0.476862  0.711124  0.290869  1
  Cl  Cl25  1  0.288876  0.765738  0.624202  1
  Cl  Cl26  1  0.233530  0.028186  0.732948  1
  Cl  Cl27  1  0.720054  0.225687  0.878309  1
  Cl  Cl28  1  0.766470  0.794656  0.600386  1
  Cl  Cl29  1  0.804092  0.879854  0.197246  1
  Cl  Cl30  1  0.924238  0.120146  0.469421  1
  Cl  Cl31  1  0.505633  0.279946  0.544976  1
  Cl  Cl32  1  0.717095  0.139906  0.650772  1
  Cl  Cl33  1  0.711124  0.476862  0.709131  1
  Cl  Cl34  1  0.774313  0.494367  0.211643  1
  Cl  Cl35  1  0.971814  0.205344  0.066281  1
  Cl  Cl36  1  0.414099  0.498020  0.109982  1
  Cl  Cl37  1  0.195908  0.075762  0.136088  1
  Cl  Cl38  1  0.916079  0.501980  0.556685  1
  Cl  Cl39  1  0.075762  0.195908  0.863912  1
  Cl  Cl40  1  0.139906  0.717095  0.349228  1
  Cl  Cl41  1  0.879854  0.804092  0.802754  1
  Cl  Cl42  1  0.120146  0.924238  0.530579  1
  Cl  Cl43  1  0.028186  0.233530  0.267052  1
  Cl  Cl44  1  0.282905  0.422811  0.682561  1
  Cl  Cl45  1  0.234262  0.523138  0.957535  1
  Cl  Cl46  1  0.225687  0.720054  0.121691  1
  Cl  Cl47  1  0.523138  0.234262  0.042465  1
