# generated using pymatgen
data_MgMn2GaAs(PN2)6
_symmetry_space_group_name_H-M   'P 1'
_cell_length_a   7.21212495
_cell_length_b   7.17322278
_cell_length_c   7.21212600
_cell_angle_alpha   109.75529662
_cell_angle_beta   109.12553988
_cell_angle_gamma   109.75529474
_symmetry_Int_Tables_number   1
_chemical_formula_structural   MgMn2GaAs(PN2)6
_chemical_formula_sum   'Mg1 Mn2 Ga1 As1 P6 N12'
_cell_volume   286.42291058
_cell_formula_units_Z   1
loop_
 _symmetry_equiv_pos_site_id
 _symmetry_equiv_pos_as_xyz
  1  'x, y, z'
loop_
 _atom_site_type_symbol
 _atom_site_label
 _atom_site_symmetry_multiplicity
 _atom_site_fract_x
 _atom_site_fract_y
 _atom_site_fract_z
 _atom_site_occupancy
  Mg  Mg0  1  0.998164  0.000000  0.655222  1
  Mn  Mn1  1  0.336571  0.334124  0.336938  1
  Mn  Mn2  1  0.002447  0.665876  0.002814  1
  Ga  Ga3  1  0.656221  0.000000  0.999180  1
  As  As4  1  0.982154  0.000000  0.998936  1
  P  P5  1  0.502641  0.252447  0.752757  1
  P  P6  1  0.502145  0.751294  0.251041  1
  P  P7  1  0.750852  0.248706  0.499747  1
  P  P8  1  0.250720  0.499848  0.748309  1
  P  P9  1  0.750872  0.500152  0.248460  1
  P  P10  1  0.250195  0.747553  0.500309  1
  N  N11  1  0.001524  0.722400  0.442307  1
  N  N12  1  0.279461  0.719333  0.279000  1
  N  N13  1  0.289137  0.560904  0.561726  1
  N  N14  1  0.559998  0.558784  0.281041  1
  N  N15  1  0.560128  0.280667  0.559668  1
  N  N16  1  0.728699  0.000000  0.437217  1
  N  N17  1  0.440104  0.000000  0.734187  1
  N  N18  1  0.728233  0.439096  0.000824  1
  N  N19  1  0.279124  0.277600  0.719907  1
  N  N20  1  0.708330  0.267265  0.267708  1
  N  N21  1  0.001216  0.441216  0.722257  1
  N  N22  1  0.441065  0.732735  0.000442  1
