# generated using pymatgen
data_LaNd15Cd4IrRu3
_symmetry_space_group_name_H-M   'P 1'
_cell_length_a   9.95188082
_cell_length_b   9.95217108
_cell_length_c   9.95217132
_cell_angle_alpha   59.78493421
_cell_angle_beta   59.82102298
_cell_angle_gamma   59.82102621
_symmetry_Int_Tables_number   1
_chemical_formula_structural   LaNd15Cd4IrRu3
_chemical_formula_sum   'La1 Nd15 Cd4 Ir1 Ru3'
_cell_volume   693.96672157
_cell_formula_units_Z   1
loop_
 _symmetry_equiv_pos_site_id
 _symmetry_equiv_pos_as_xyz
  1  'x, y, z'
loop_
 _atom_site_type_symbol
 _atom_site_label
 _atom_site_symmetry_multiplicity
 _atom_site_fract_x
 _atom_site_fract_y
 _atom_site_fract_z
 _atom_site_occupancy
  La  La0  1  0.343932  0.346708  0.346708  1
  Nd  Nd1  1  0.345327  0.347186  0.958417  1
  Nd  Nd2  1  0.345327  0.958417  0.347186  1
  Nd  Nd3  1  0.959735  0.345782  0.345782  1
  Nd  Nd4  1  0.811804  0.190415  0.190415  1
  Nd  Nd5  1  0.189997  0.810280  0.810280  1
  Nd  Nd6  1  0.190367  0.810542  0.189658  1
  Nd  Nd7  1  0.811684  0.190454  0.807880  1
  Nd  Nd8  1  0.190367  0.189658  0.810542  1
  Nd  Nd9  1  0.811684  0.807880  0.190454  1
  Nd  Nd10  1  0.937478  0.562675  0.562675  1
  Nd  Nd11  1  0.559909  0.939355  0.939355  1
  Nd  Nd12  1  0.561030  0.937715  0.563241  1
  Nd  Nd13  1  0.938866  0.561422  0.939024  1
  Nd  Nd14  1  0.561030  0.563241  0.937715  1
  Nd  Nd15  1  0.938866  0.939024  0.561422  1
  Cd  Cd16  1  0.579899  0.579520  0.579520  1
  Cd  Cd17  1  0.580513  0.580308  0.260214  1
  Cd  Cd18  1  0.580513  0.260214  0.580308  1
  Cd  Cd19  1  0.260763  0.580190  0.580190  1
  Ir  Ir20  1  0.579149  0.140109  0.140109  1
  Ru  Ru21  1  0.139965  0.137305  0.137305  1
  Ru  Ru22  1  0.140894  0.138716  0.582882  1
  Ru  Ru23  1  0.140894  0.582882  0.138716  1
