# generated using pymatgen
data_Nd2Y3(Sn5Rh2)2
_symmetry_space_group_name_H-M   'P 1'
_cell_length_a   14.14361100
_cell_length_b   14.14361100
_cell_length_c   4.56808600
_cell_angle_alpha   90.00000000
_cell_angle_beta   90.00000000
_cell_angle_gamma   90.00000000
_symmetry_Int_Tables_number   1
_chemical_formula_structural   Nd2Y3(Sn5Rh2)2
_chemical_formula_sum   'Nd4 Y6 Sn20 Rh8'
_cell_volume   913.80783591
_cell_formula_units_Z   2
loop_
 _symmetry_equiv_pos_site_id
 _symmetry_equiv_pos_as_xyz
  1  'x, y, z'
loop_
 _atom_site_type_symbol
 _atom_site_label
 _atom_site_symmetry_multiplicity
 _atom_site_fract_x
 _atom_site_fract_y
 _atom_site_fract_z
 _atom_site_occupancy
  Nd  Nd0  1  0.888100  0.388100  0.500000  1
  Nd  Nd1  1  0.111900  0.611900  0.500000  1
  Nd  Nd2  1  0.388100  0.111900  0.500000  1
  Nd  Nd3  1  0.611900  0.888100  0.500000  1
  Y  Y4  1  0.500000  0.500000  0.000000  1
  Y  Y5  1  0.000000  0.000000  0.000000  1
  Y  Y6  1  0.677348  0.177348  0.500000  1
  Y  Y7  1  0.322652  0.822652  0.500000  1
  Y  Y8  1  0.177348  0.322652  0.500000  1
  Y  Y9  1  0.822652  0.677348  0.500000  1
  Sn  Sn10  1  0.570252  0.070252  0.000000  1
  Sn  Sn11  1  0.429748  0.929748  0.000000  1
  Sn  Sn12  1  0.070252  0.429748  0.000000  1
  Sn  Sn13  1  0.929748  0.570252  0.000000  1
  Sn  Sn14  1  0.654273  0.698165  0.000000  1
  Sn  Sn15  1  0.345727  0.301835  0.000000  1
  Sn  Sn16  1  0.154273  0.801835  0.000000  1
  Sn  Sn17  1  0.845727  0.198165  0.000000  1
  Sn  Sn18  1  0.301835  0.654273  0.000000  1
  Sn  Sn19  1  0.698165  0.345727  0.000000  1
  Sn  Sn20  1  0.198165  0.154273  0.000000  1
  Sn  Sn21  1  0.801835  0.845727  0.000000  1
  Sn  Sn22  1  0.661703  0.505627  0.500000  1
  Sn  Sn23  1  0.338297  0.494373  0.500000  1
  Sn  Sn24  1  0.161703  0.994373  0.500000  1
  Sn  Sn25  1  0.838297  0.005627  0.500000  1
  Sn  Sn26  1  0.494373  0.661703  0.500000  1
  Sn  Sn27  1  0.505627  0.338297  0.500000  1
  Sn  Sn28  1  0.005627  0.161703  0.500000  1
  Sn  Sn29  1  0.994373  0.838297  0.500000  1
  Rh  Rh30  1  0.746179  0.529135  0.000000  1
  Rh  Rh31  1  0.253821  0.470865  0.000000  1
  Rh  Rh32  1  0.246179  0.970865  0.000000  1
  Rh  Rh33  1  0.753821  0.029135  0.000000  1
  Rh  Rh34  1  0.470865  0.746179  0.000000  1
  Rh  Rh35  1  0.529135  0.253821  0.000000  1
  Rh  Rh36  1  0.029135  0.246179  0.000000  1
  Rh  Rh37  1  0.970865  0.753821  0.000000  1
