# generated using pymatgen
data_Tb8Cd2NiRu
_symmetry_space_group_name_H-M   'P 1'
_cell_length_a   9.61893000
_cell_length_b   9.61892908
_cell_length_c   9.66204400
_cell_angle_alpha   59.85160873
_cell_angle_beta   59.85161194
_cell_angle_gamma   59.76367094
_symmetry_Int_Tables_number   1
_chemical_formula_structural   Tb8Cd2NiRu
_chemical_formula_sum   'Tb16 Cd4 Ni2 Ru2'
_cell_volume   629.58093558
_cell_formula_units_Z   2
loop_
 _symmetry_equiv_pos_site_id
 _symmetry_equiv_pos_as_xyz
  1  'x, y, z'
loop_
 _atom_site_type_symbol
 _atom_site_label
 _atom_site_symmetry_multiplicity
 _atom_site_fract_x
 _atom_site_fract_y
 _atom_site_fract_z
 _atom_site_occupancy
  Tb  Tb0  1  0.349285  0.349285  0.344333  1
  Tb  Tb1  1  0.349285  0.349285  0.957098  1
  Tb  Tb2  1  0.351272  0.954692  0.347018  1
  Tb  Tb3  1  0.954692  0.351272  0.347018  1
  Tb  Tb4  1  0.810949  0.187275  0.189717  1
  Tb  Tb5  1  0.187275  0.810949  0.812059  1
  Tb  Tb6  1  0.187275  0.810949  0.189717  1
  Tb  Tb7  1  0.810949  0.187275  0.812059  1
  Tb  Tb8  1  0.188398  0.188398  0.811602  1
  Tb  Tb9  1  0.810432  0.810432  0.189568  1
  Tb  Tb10  1  0.938088  0.558961  0.565935  1
  Tb  Tb11  1  0.558961  0.938088  0.937016  1
  Tb  Tb12  1  0.558961  0.938088  0.565935  1
  Tb  Tb13  1  0.938088  0.558961  0.937016  1
  Tb  Tb14  1  0.565333  0.565333  0.934667  1
  Tb  Tb15  1  0.939759  0.939759  0.560241  1
  Cd  Cd16  1  0.579744  0.579744  0.582212  1
  Cd  Cd17  1  0.579744  0.579744  0.258300  1
  Cd  Cd18  1  0.580700  0.256380  0.581459  1
  Cd  Cd19  1  0.256380  0.580700  0.581459  1
  Ni  Ni20  1  0.142486  0.575208  0.141153  1
  Ni  Ni21  1  0.575208  0.142486  0.141153  1
  Ru  Ru22  1  0.143367  0.143367  0.138331  1
  Ru  Ru23  1  0.143367  0.143367  0.574934  1
