# generated using pymatgen
data_Ac6Si11I
_symmetry_space_group_name_H-M   'P 1'
_cell_length_a   4.44038796
_cell_length_b   4.38143429
_cell_length_c   24.81564723
_cell_angle_alpha   84.94838726
_cell_angle_beta   95.18953100
_cell_angle_gamma   89.99601298
_symmetry_Int_Tables_number   1
_chemical_formula_structural   Ac6Si11I
_chemical_formula_sum   'Ac6 Si11 I1'
_cell_volume   478.93276390
_cell_formula_units_Z   1
loop_
 _symmetry_equiv_pos_site_id
 _symmetry_equiv_pos_as_xyz
  1  'x, y, z'
loop_
 _atom_site_type_symbol
 _atom_site_label
 _atom_site_symmetry_multiplicity
 _atom_site_fract_x
 _atom_site_fract_y
 _atom_site_fract_z
 _atom_site_occupancy
  Ac  Ac0  1  0.392262  0.855556  0.285140  1
  Ac  Ac1  1  0.038556  0.211554  0.575779  1
  Ac  Ac2  1  0.686844  0.563362  0.872538  1
  Ac  Ac3  1  0.316279  0.431182  0.134735  1
  Ac  Ac4  1  0.966045  0.783136  0.430849  1
  Ac  Ac5  1  0.609574  0.140632  0.718451  1
  Si  Si6  1  0.917279  0.330548  0.334565  1
  Si  Si7  1  0.562672  0.687853  0.623917  1
  Si  Si8  1  0.205103  0.045935  0.908543  1
  Si  Si9  1  0.441272  0.306825  0.382076  1
  Si  Si10  1  0.085835  0.664933  0.671146  1
  Si  Si11  1  0.867278  0.379629  0.235829  1
  Si  Si12  1  0.514524  0.735502  0.527529  1
  Si  Si13  1  0.157514  0.092261  0.814831  1
  Si  Si14  1  0.843738  0.902671  0.188822  1
  Si  Si15  1  0.490210  0.259501  0.478770  1
  Si  Si16  1  0.134355  0.615672  0.768261  1
  I  I17  1  0.770661  0.993247  0.048222  1
