# generated using pymatgen
data_TbPr16(YIr4)3
_symmetry_space_group_name_H-M   'P 1'
_cell_length_a   11.27106000
_cell_length_b   11.27106000
_cell_length_c   6.56743800
_cell_angle_alpha   90.00000000
_cell_angle_beta   90.00000000
_cell_angle_gamma   90.00000000
_symmetry_Int_Tables_number   1
_chemical_formula_structural   TbPr16(YIr4)3
_chemical_formula_sum   'Tb1 Pr16 Y3 Ir12'
_cell_volume   834.30626519
_cell_formula_units_Z   1
loop_
 _symmetry_equiv_pos_site_id
 _symmetry_equiv_pos_as_xyz
  1  'x, y, z'
loop_
 _atom_site_type_symbol
 _atom_site_label
 _atom_site_symmetry_multiplicity
 _atom_site_fract_x
 _atom_site_fract_y
 _atom_site_fract_z
 _atom_site_occupancy
  Tb  Tb0  1  0.500000  0.500000  0.500000  1
  Pr  Pr1  1  0.289211  0.087988  0.381855  1
  Pr  Pr2  1  0.289207  0.911859  0.881759  1
  Pr  Pr3  1  0.710793  0.088141  0.881759  1
  Pr  Pr4  1  0.710789  0.912012  0.381855  1
  Pr  Pr5  1  0.588117  0.789261  0.881868  1
  Pr  Pr6  1  0.587951  0.210719  0.381768  1
  Pr  Pr7  1  0.412049  0.789281  0.381768  1
  Pr  Pr8  1  0.411883  0.210739  0.881868  1
  Pr  Pr9  1  0.210719  0.412049  0.618232  1
  Pr  Pr10  1  0.210739  0.588117  0.118132  1
  Pr  Pr11  1  0.789261  0.411883  0.118132  1
  Pr  Pr12  1  0.789281  0.587951  0.618232  1
  Pr  Pr13  1  0.911859  0.710793  0.118241  1
  Pr  Pr14  1  0.912012  0.289211  0.618145  1
  Pr  Pr15  1  0.087988  0.710789  0.618145  1
  Pr  Pr16  1  0.088141  0.289207  0.118241  1
  Y  Y17  1  0.000000  0.000000  0.500000  1
  Y  Y18  1  0.000000  0.000000  0.000000  1
  Y  Y19  1  0.500000  0.500000  0.000000  1
  Ir  Ir20  1  0.851016  0.148969  0.250030  1
  Ir  Ir21  1  0.851031  0.851016  0.749970  1
  Ir  Ir22  1  0.148969  0.148984  0.749970  1
  Ir  Ir23  1  0.148984  0.851031  0.250030  1
  Ir  Ir24  1  0.648940  0.351216  0.749591  1
  Ir  Ir25  1  0.648784  0.648940  0.250409  1
  Ir  Ir26  1  0.351216  0.351060  0.250409  1
  Ir  Ir27  1  0.351060  0.648784  0.749591  1
  Ir  Ir28  1  0.500000  0.000000  0.118428  1
  Ir  Ir29  1  0.500000  0.000000  0.618421  1
  Ir  Ir30  1  0.000000  0.500000  0.881572  1
  Ir  Ir31  1  0.000000  0.500000  0.381579  1
