# generated using pymatgen
data_Nd3SnBRh6
_symmetry_space_group_name_H-M   'P 1'
_cell_length_a   5.93744900
_cell_length_b   5.93744817
_cell_length_c   13.88241000
_cell_angle_alpha   90.00000000
_cell_angle_beta   90.00000000
_cell_angle_gamma   119.99999904
_symmetry_Int_Tables_number   1
_chemical_formula_structural   Nd3SnBRh6
_chemical_formula_sum   'Nd6 Sn2 B2 Rh12'
_cell_volume   423.83344716
_cell_formula_units_Z   2
loop_
 _symmetry_equiv_pos_site_id
 _symmetry_equiv_pos_as_xyz
  1  'x, y, z'
loop_
 _atom_site_type_symbol
 _atom_site_label
 _atom_site_symmetry_multiplicity
 _atom_site_fract_x
 _atom_site_fract_y
 _atom_site_fract_z
 _atom_site_occupancy
  Nd  Nd0  1  0.000000  0.000000  0.750000  1
  Nd  Nd1  1  0.000000  0.000000  0.250000  1
  Nd  Nd2  1  0.333333  0.666667  0.405972  1
  Nd  Nd3  1  0.666667  0.333333  0.905972  1
  Nd  Nd4  1  0.666667  0.333333  0.594028  1
  Nd  Nd5  1  0.333333  0.666667  0.094028  1
  Sn  Sn6  1  0.333333  0.666667  0.750000  1
  Sn  Sn7  1  0.666667  0.333333  0.250000  1
  B  B8  1  0.000000  0.000000  0.500000  1
  B  B9  1  0.000000  0.000000  0.000000  1
  Rh  Rh10  1  0.344067  0.172034  0.414752  1
  Rh  Rh11  1  0.827966  0.172034  0.414752  1
  Rh  Rh12  1  0.827966  0.655933  0.414752  1
  Rh  Rh13  1  0.172034  0.344067  0.914752  1
  Rh  Rh14  1  0.655933  0.827966  0.585248  1
  Rh  Rh15  1  0.655933  0.827966  0.914752  1
  Rh  Rh16  1  0.344067  0.172034  0.085248  1
  Rh  Rh17  1  0.172034  0.344067  0.585248  1
  Rh  Rh18  1  0.172034  0.827966  0.585248  1
  Rh  Rh19  1  0.827966  0.172034  0.085248  1
  Rh  Rh20  1  0.827966  0.655933  0.085248  1
  Rh  Rh21  1  0.172034  0.827966  0.914752  1
