# generated using pymatgen
data_Hf4V5Tc3
_symmetry_space_group_name_H-M   'P 1'
_cell_length_a   5.24690438
_cell_length_b   5.25036744
_cell_length_c   8.32826400
_cell_angle_alpha   90.00000000
_cell_angle_beta   90.00000000
_cell_angle_gamma   120.02183076
_symmetry_Int_Tables_number   1
_chemical_formula_structural   Hf4V5Tc3
_chemical_formula_sum   'Hf4 V5 Tc3'
_cell_volume   198.64717099
_cell_formula_units_Z   1
loop_
 _symmetry_equiv_pos_site_id
 _symmetry_equiv_pos_as_xyz
  1  'x, y, z'
loop_
 _atom_site_type_symbol
 _atom_site_label
 _atom_site_symmetry_multiplicity
 _atom_site_fract_x
 _atom_site_fract_y
 _atom_site_fract_z
 _atom_site_occupancy
  Hf  Hf0  1  0.334361  0.667181  0.439495  1
  Hf  Hf1  1  0.665265  0.332632  0.561162  1
  Hf  Hf2  1  0.665265  0.332632  0.938838  1
  Hf  Hf3  1  0.334361  0.667181  0.060505  1
  V  V4  1  0.834707  0.171912  0.250000  1
  V  V5  1  0.834707  0.662795  0.250000  1
  V  V6  1  0.345758  0.172879  0.250000  1
  V  V7  1  0.165867  0.828956  0.750000  1
  V  V8  1  0.165867  0.336911  0.750000  1
  Tc  Tc9  1  0.001519  0.000759  0.497126  1
  Tc  Tc10  1  0.001519  0.000759  0.002874  1
  Tc  Tc11  1  0.650805  0.825403  0.750000  1
