# generated using pymatgen
data_Ac2Y(Si3Pd10)2
_symmetry_space_group_name_H-M   'P 1'
_cell_length_a   8.77993410
_cell_length_b   8.77993403
_cell_length_c   8.77993400
_cell_angle_alpha   60.00000012
_cell_angle_beta   60.00000037
_cell_angle_gamma   59.99999782
_symmetry_Int_Tables_number   1
_chemical_formula_structural   Ac2Y(Si3Pd10)2
_chemical_formula_sum   'Ac2 Y1 Si6 Pd20'
_cell_volume   478.58464094
_cell_formula_units_Z   1
loop_
 _symmetry_equiv_pos_site_id
 _symmetry_equiv_pos_as_xyz
  1  'x, y, z'
loop_
 _atom_site_type_symbol
 _atom_site_label
 _atom_site_symmetry_multiplicity
 _atom_site_fract_x
 _atom_site_fract_y
 _atom_site_fract_z
 _atom_site_occupancy
  Ac  Ac0  1  0.750000  0.750000  0.750000  1
  Ac  Ac1  1  0.250000  0.250000  0.250000  1
  Y  Y2  1  0.000000  0.000000  0.000000  1
  Si  Si3  1  0.733845  0.733845  0.266155  1
  Si  Si4  1  0.266155  0.266155  0.733845  1
  Si  Si5  1  0.733845  0.266155  0.733845  1
  Si  Si6  1  0.266155  0.733845  0.266155  1
  Si  Si7  1  0.266155  0.733845  0.733845  1
  Si  Si8  1  0.733845  0.266155  0.266155  1
  Pd  Pd9  1  0.613516  0.613516  0.613516  1
  Pd  Pd10  1  0.386484  0.386484  0.386484  1
  Pd  Pd11  1  0.159453  0.613516  0.613516  1
  Pd  Pd12  1  0.613516  0.159453  0.613516  1
  Pd  Pd13  1  0.840547  0.386484  0.386484  1
  Pd  Pd14  1  0.386484  0.840547  0.386484  1
  Pd  Pd15  1  0.613516  0.613516  0.159453  1
  Pd  Pd16  1  0.386484  0.386484  0.840547  1
  Pd  Pd17  1  0.000000  0.000000  0.654731  1
  Pd  Pd18  1  0.000000  0.000000  0.345269  1
  Pd  Pd19  1  0.345269  0.654731  0.000000  1
  Pd  Pd20  1  0.654731  0.345269  0.000000  1
  Pd  Pd21  1  0.000000  0.654731  0.000000  1
  Pd  Pd22  1  0.654731  0.000000  0.345269  1
  Pd  Pd23  1  0.000000  0.345269  0.000000  1
  Pd  Pd24  1  0.345269  0.000000  0.654731  1
  Pd  Pd25  1  0.654731  0.000000  0.000000  1
  Pd  Pd26  1  0.345269  0.000000  0.000000  1
  Pd  Pd27  1  0.000000  0.654731  0.345269  1
  Pd  Pd28  1  0.000000  0.345269  0.654731  1
