# generated using pymatgen
data_Ho2UIn3Ir2Rh
_symmetry_space_group_name_H-M   'P 1'
_cell_length_a   7.55459961
_cell_length_b   7.79821607
_cell_length_c   3.77599800
_cell_angle_alpha   90.00000000
_cell_angle_beta   90.00000000
_cell_angle_gamma   121.07258341
_symmetry_Int_Tables_number   1
_chemical_formula_structural   Ho2UIn3Ir2Rh
_chemical_formula_sum   'Ho2 U1 In3 Ir2 Rh1'
_cell_volume   190.53423262
_cell_formula_units_Z   1
loop_
 _symmetry_equiv_pos_site_id
 _symmetry_equiv_pos_as_xyz
  1  'x, y, z'
loop_
 _atom_site_type_symbol
 _atom_site_label
 _atom_site_symmetry_multiplicity
 _atom_site_fract_x
 _atom_site_fract_y
 _atom_site_fract_z
 _atom_site_occupancy
  Ho  Ho0  1  0.594758  0.593418  0.500000  1
  Ho  Ho1  1  0.405242  0.998661  0.500000  1
  U  U2  1  0.000000  0.418972  0.500000  1
  In  In3  1  0.272169  0.258645  0.000000  1
  In  In4  1  0.000000  0.757465  0.000000  1
  In  In5  1  0.727831  0.986477  0.000000  1
  Ir  Ir6  1  0.295723  0.634149  0.000000  1
  Ir  Ir7  1  0.704277  0.338425  0.000000  1
  Rh  Rh8  1  0.000000  0.013787  0.500000  1
