# generated using pymatgen
data_DyTm2Al12Ru3Pt
_symmetry_space_group_name_H-M   'P 1'
_cell_length_a   8.80366120
_cell_length_b   8.80365949
_cell_length_c   9.52568113
_cell_angle_alpha   90.19849572
_cell_angle_beta   89.80150259
_cell_angle_gamma   120.03787275
_symmetry_Int_Tables_number   1
_chemical_formula_structural   DyTm2Al12Ru3Pt
_chemical_formula_sum   'Dy2 Tm4 Al24 Ru6 Pt2'
_cell_volume   639.12217843
_cell_formula_units_Z   2
loop_
 _symmetry_equiv_pos_site_id
 _symmetry_equiv_pos_as_xyz
  1  'x, y, z'
loop_
 _atom_site_type_symbol
 _atom_site_label
 _atom_site_symmetry_multiplicity
 _atom_site_fract_x
 _atom_site_fract_y
 _atom_site_fract_z
 _atom_site_occupancy
  Dy  Dy0  1  0.807925  0.192075  0.750589  1
  Dy  Dy1  1  0.192075  0.807925  0.249411  1
  Tm  Tm2  1  0.389668  0.195934  0.748701  1
  Tm  Tm3  1  0.610332  0.804066  0.251299  1
  Tm  Tm4  1  0.804066  0.610332  0.748701  1
  Tm  Tm5  1  0.195934  0.389668  0.251299  1
  Al  Al6  1  0.663978  0.336022  0.971503  1
  Al  Al7  1  0.336022  0.663978  0.028497  1
  Al  Al8  1  0.333018  0.666982  0.478100  1
  Al  Al9  1  0.666982  0.333018  0.521900  1
  Al  Al10  1  0.837681  0.162319  0.421370  1
  Al  Al11  1  0.162319  0.837681  0.578630  1
  Al  Al12  1  0.325526  0.162379  0.421753  1
  Al  Al13  1  0.161164  0.838836  0.919886  1
  Al  Al14  1  0.674474  0.837621  0.578247  1
  Al  Al15  1  0.838836  0.161164  0.080114  1
  Al  Al16  1  0.837621  0.674474  0.421753  1
  Al  Al17  1  0.675586  0.832881  0.921986  1
  Al  Al18  1  0.162379  0.325526  0.578247  1
  Al  Al19  1  0.324414  0.167119  0.078014  1
  Al  Al20  1  0.167119  0.324414  0.921986  1
  Al  Al21  1  0.832881  0.675586  0.078014  1
  Al  Al22  1  0.438802  0.561198  0.752193  1
  Al  Al23  1  0.561198  0.438802  0.247807  1
  Al  Al24  1  0.124715  0.562966  0.748192  1
  Al  Al25  1  0.875285  0.437034  0.251808  1
  Al  Al26  1  0.437034  0.875285  0.748192  1
  Al  Al27  1  0.562966  0.124715  0.251808  1
  Al  Al28  1  0.001029  0.998971  0.750016  1
  Al  Al29  1  0.998971  0.001029  0.249984  1
  Ru  Ru30  1  0.500000  0.500000  0.000000  1
  Ru  Ru31  1  0.500000  0.500000  0.500000  1
  Ru  Ru32  1  0.000000  0.500000  0.500000  1
  Ru  Ru33  1  0.500000  0.000000  0.500000  1
  Ru  Ru34  1  0.000000  0.000000  0.000000  1
  Ru  Ru35  1  0.000000  0.000000  0.500000  1
  Pt  Pt36  1  0.000000  0.500000  0.000000  1
  Pt  Pt37  1  0.500000  0.000000  0.000000  1
