# generated using pymatgen
data_Dy16CdIn2AgIr4
_symmetry_space_group_name_H-M   'P 1'
_cell_length_a   9.62810281
_cell_length_b   9.62763548
_cell_length_c   9.62763480
_cell_angle_alpha   59.88380870
_cell_angle_beta   59.89590386
_cell_angle_gamma   59.89590153
_symmetry_Int_Tables_number   1
_chemical_formula_structural   Dy16CdIn2AgIr4
_chemical_formula_sum   'Dy16 Cd1 In2 Ag1 Ir4'
_cell_volume   629.50361833
_cell_formula_units_Z   1
loop_
 _symmetry_equiv_pos_site_id
 _symmetry_equiv_pos_as_xyz
  1  'x, y, z'
loop_
 _atom_site_type_symbol
 _atom_site_label
 _atom_site_symmetry_multiplicity
 _atom_site_fract_x
 _atom_site_fract_y
 _atom_site_fract_z
 _atom_site_occupancy
  Dy  Dy0  1  0.599595  0.599139  0.599139  1
  Dy  Dy1  1  0.600016  0.600320  0.201327  1
  Dy  Dy2  1  0.600016  0.201327  0.600320  1
  Dy  Dy3  1  0.200777  0.599981  0.599981  1
  Dy  Dy4  1  0.057530  0.441898  0.441898  1
  Dy  Dy5  1  0.437878  0.060546  0.060546  1
  Dy  Dy6  1  0.441136  0.058878  0.440295  1
  Dy  Dy7  1  0.058855  0.439068  0.059390  1
  Dy  Dy8  1  0.441136  0.440295  0.058878  1
  Dy  Dy9  1  0.058855  0.059390  0.439068  1
  Dy  Dy10  1  0.188146  0.810697  0.810697  1
  Dy  Dy11  1  0.811507  0.188804  0.188804  1
  Dy  Dy12  1  0.812155  0.186413  0.811029  1
  Dy  Dy13  1  0.190364  0.810530  0.187103  1
  Dy  Dy14  1  0.812155  0.811029  0.186413  1
  Dy  Dy15  1  0.190364  0.187103  0.810530  1
  Cd  Cd16  1  0.505266  0.832035  0.832035  1
  In  In17  1  0.830673  0.832804  0.504500  1
  In  In18  1  0.830673  0.504500  0.832804  1
  Ag  Ag19  1  0.831854  0.833209  0.833209  1
  Ir  Ir20  1  0.391854  0.392225  0.392225  1
  Ir  Ir21  1  0.391748  0.392524  0.825424  1
  Ir  Ir22  1  0.391748  0.825424  0.392524  1
  Ir  Ir23  1  0.825700  0.391861  0.391861  1
