# generated using pymatgen
data_Tm10Lu2Ir3I16
_symmetry_space_group_name_H-M   'P 1'
_cell_length_a   9.54943674
_cell_length_b   12.15094634
_cell_length_c   12.85448015
_cell_angle_alpha   116.84177877
_cell_angle_beta   101.40708005
_cell_angle_gamma   101.00066743
_symmetry_Int_Tables_number   1
_chemical_formula_structural   Tm10Lu2Ir3I16
_chemical_formula_sum   'Tm10 Lu2 Ir3 I16'
_cell_volume   1235.85189290
_cell_formula_units_Z   1
loop_
 _symmetry_equiv_pos_site_id
 _symmetry_equiv_pos_as_xyz
  1  'x, y, z'
loop_
 _atom_site_type_symbol
 _atom_site_label
 _atom_site_symmetry_multiplicity
 _atom_site_fract_x
 _atom_site_fract_y
 _atom_site_fract_z
 _atom_site_occupancy
  Tm  Tm0  1  0.085175  0.267224  0.356057  1
  Tm  Tm1  1  0.914825  0.732776  0.643943  1
  Tm  Tm2  1  0.782295  0.534230  0.328348  1
  Tm  Tm3  1  0.217705  0.465770  0.671652  1
  Tm  Tm4  1  0.275594  0.733462  0.643475  1
  Tm  Tm5  1  0.724406  0.266538  0.356525  1
  Tm  Tm6  1  0.142169  0.534583  0.328187  1
  Tm  Tm7  1  0.857831  0.465417  0.671813  1
  Tm  Tm8  1  0.404416  0.356254  0.270789  1
  Tm  Tm9  1  0.595584  0.643746  0.729211  1
  Lu  Lu10  1  0.459255  0.312540  0.520116  1
  Lu  Lu11  1  0.540745  0.687460  0.479884  1
  Ir  Ir12  1  0.000000  0.500000  0.500000  1
  Ir  Ir13  1  0.341295  0.500166  0.499441  1
  Ir  Ir14  1  0.658706  0.499834  0.500559  1
  I  I15  1  0.395499  0.746851  0.893694  1
  I  I16  1  0.604501  0.253149  0.106306  1
  I  I17  1  0.192514  0.976146  0.789022  1
  I  I18  1  0.807486  0.023854  0.210978  1
  I  I19  1  0.334332  0.086887  0.247566  1
  I  I20  1  0.665668  0.913113  0.752434  1
  I  I21  1  0.559305  0.435468  0.804251  1
  I  I22  1  0.440695  0.564532  0.195749  1
  I  I23  1  0.306899  0.833967  0.461461  1
  I  I24  1  0.693101  0.166033  0.538539  1
  I  I25  1  0.162302  0.166041  0.535862  1
  I  I26  1  0.837698  0.833959  0.464138  1
  I  I27  1  0.924944  0.578793  0.153358  1
  I  I28  1  0.075056  0.421207  0.846642  1
  I  I29  1  0.932199  0.745563  0.894308  1
  I  I30  1  0.067801  0.254437  0.105692  1
