# generated using pymatgen
data_Nb8FeNiSe16
_symmetry_space_group_name_H-M   'P 1'
_cell_length_a   6.97061100
_cell_length_b   6.97061157
_cell_length_c   12.43991000
_cell_angle_alpha   90.00000000
_cell_angle_beta   90.00000000
_cell_angle_gamma   120.00001152
_symmetry_Int_Tables_number   1
_chemical_formula_structural   Nb8FeNiSe16
_chemical_formula_sum   'Nb8 Fe1 Ni1 Se16'
_cell_volume   523.46729096
_cell_formula_units_Z   1
loop_
 _symmetry_equiv_pos_site_id
 _symmetry_equiv_pos_as_xyz
  1  'x, y, z'
loop_
 _atom_site_type_symbol
 _atom_site_label
 _atom_site_symmetry_multiplicity
 _atom_site_fract_x
 _atom_site_fract_y
 _atom_site_fract_z
 _atom_site_occupancy
  Nb  Nb0  1  0.000000  0.000000  0.248653  1
  Nb  Nb1  1  0.000000  0.000000  0.751347  1
  Nb  Nb2  1  0.508916  0.017832  0.251642  1
  Nb  Nb3  1  0.982168  0.491084  0.251642  1
  Nb  Nb4  1  0.508916  0.491084  0.251642  1
  Nb  Nb5  1  0.491084  0.982168  0.748358  1
  Nb  Nb6  1  0.017832  0.508916  0.748358  1
  Nb  Nb7  1  0.491084  0.508916  0.748358  1
  Fe  Fe8  1  0.000000  0.000000  0.500000  1
  Ni  Ni9  1  0.000000  0.000000  0.000000  1
  Se  Se10  1  0.333333  0.666667  0.888819  1
  Se  Se11  1  0.666667  0.333333  0.111181  1
  Se  Se12  1  0.666667  0.333333  0.392400  1
  Se  Se13  1  0.333333  0.666667  0.607600  1
  Se  Se14  1  0.164627  0.835373  0.384290  1
  Se  Se15  1  0.164627  0.329254  0.384290  1
  Se  Se16  1  0.670746  0.835373  0.384290  1
  Se  Se17  1  0.835373  0.164627  0.615710  1
  Se  Se18  1  0.835373  0.670746  0.615710  1
  Se  Se19  1  0.329254  0.164627  0.615710  1
  Se  Se20  1  0.830865  0.169135  0.882652  1
  Se  Se21  1  0.830865  0.661730  0.882652  1
  Se  Se22  1  0.338270  0.169135  0.882652  1
  Se  Se23  1  0.169135  0.830865  0.117348  1
  Se  Se24  1  0.169135  0.338270  0.117348  1
  Se  Se25  1  0.661730  0.830865  0.117348  1
