# generated using pymatgen
data_U4Ge4As2Ru7
_symmetry_space_group_name_H-M   'P 1'
_cell_length_a   7.22226392
_cell_length_b   7.21915969
_cell_length_c   7.21916021
_cell_angle_alpha   109.49908842
_cell_angle_beta   109.44858838
_cell_angle_gamma   109.44859477
_symmetry_Int_Tables_number   1
_chemical_formula_structural   U4Ge4As2Ru7
_chemical_formula_sum   'U4 Ge4 As2 Ru7'
_cell_volume   289.81301271
_cell_formula_units_Z   1
loop_
 _symmetry_equiv_pos_site_id
 _symmetry_equiv_pos_as_xyz
  1  'x, y, z'
loop_
 _atom_site_type_symbol
 _atom_site_label
 _atom_site_symmetry_multiplicity
 _atom_site_fract_x
 _atom_site_fract_y
 _atom_site_fract_z
 _atom_site_occupancy
  U  U0  1  0.001174  0.000587  0.500587  1
  U  U1  1  0.504151  0.000735  0.000735  1
  U  U2  1  0.001174  0.500587  0.000587  1
  U  U3  1  0.504151  0.503416  0.503416  1
  Ge  Ge4  1  0.308252  0.002048  0.306204  1
  Ge  Ge5  1  0.003356  0.312353  0.312353  1
  Ge  Ge6  1  0.003356  0.691003  0.691003  1
  Ge  Ge7  1  0.308252  0.306204  0.002048  1
  As  As8  1  0.691028  0.689999  0.001029  1
  As  As9  1  0.691028  0.001029  0.689999  1
  Ru  Ru10  1  0.749037  0.499277  0.249759  1
  Ru  Ru11  1  0.496886  0.748443  0.248443  1
  Ru  Ru12  1  0.496886  0.248443  0.748443  1
  Ru  Ru13  1  0.749037  0.249759  0.499277  1
  Ru  Ru14  1  0.248752  0.750853  0.497899  1
  Ru  Ru15  1  0.248752  0.497899  0.750853  1
  Ru  Ru16  1  0.994730  0.997365  0.997365  1
