# generated using pymatgen
data_Cs4Ba3SrLi4(P2O7)4
_symmetry_space_group_name_H-M   'P 1'
_cell_length_a   10.98438700
_cell_length_b   7.18070844
_cell_length_c   10.88136600
_cell_angle_alpha   74.43818561
_cell_angle_beta   90.00000000
_cell_angle_gamma   90.00000000
_symmetry_Int_Tables_number   1
_chemical_formula_structural   Cs4Ba3SrLi4(P2O7)4
_chemical_formula_sum   'Cs4 Ba3 Sr1 Li4 P8 O28'
_cell_volume   826.81213484
_cell_formula_units_Z   1
loop_
 _symmetry_equiv_pos_site_id
 _symmetry_equiv_pos_as_xyz
  1  'x, y, z'
loop_
 _atom_site_type_symbol
 _atom_site_label
 _atom_site_symmetry_multiplicity
 _atom_site_fract_x
 _atom_site_fract_y
 _atom_site_fract_z
 _atom_site_occupancy
  Cs  Cs0  1  0.327976  0.244008  0.497143  1
  Cs  Cs1  1  0.830643  0.755491  0.004614  1
  Cs  Cs2  1  0.671344  0.755494  0.504065  1
  Cs  Cs3  1  0.166166  0.238815  0.991464  1
  Ba  Ba4  1  0.439259  0.804002  0.877073  1
  Ba  Ba5  1  0.057632  0.806412  0.380477  1
  Ba  Ba6  1  0.558596  0.195241  0.121372  1
  Sr  Sr7  1  0.935168  0.195835  0.622158  1
  Li  Li8  1  0.763946  0.336380  0.859418  1
  Li  Li9  1  0.260743  0.660169  0.639285  1
  Li  Li10  1  0.234824  0.665792  0.140465  1
  Li  Li11  1  0.739663  0.335641  0.360949  1
  P  P12  1  0.984010  0.624419  0.693283  1
  P  P13  1  0.488283  0.375816  0.801963  1
  P  P14  1  0.013415  0.374198  0.312010  1
  P  P15  1  0.514086  0.623232  0.196040  1
  P  P16  1  0.643087  0.159687  0.666261  1
  P  P17  1  0.133594  0.842679  0.829657  1
  P  P18  1  0.362575  0.837625  0.335266  1
  P  P19  1  0.863432  0.163488  0.166039  1
  O  O20  1  0.552758  0.342430  0.673190  1
  O  O21  1  0.045106  0.656642  0.824356  1
  O  O22  1  0.453526  0.656713  0.326271  1
  O  O23  1  0.955052  0.340296  0.180630  1
  O  O24  1  0.085372  0.540680  0.624943  1
  O  O25  1  0.587552  0.463345  0.870667  1
  O  O26  1  0.911832  0.463266  0.376891  1
  O  O27  1  0.412649  0.537930  0.128354  1
  O  O28  1  0.938829  0.822054  0.612025  1
  O  O29  1  0.443918  0.180330  0.886692  1
  O  O30  1  0.053572  0.179358  0.401429  1
  O  O31  1  0.558436  0.818255  0.110675  1
  O  O32  1  0.730776  0.123218  0.780384  1
  O  O33  1  0.226739  0.868741  0.721025  1
  O  O34  1  0.275007  0.874875  0.220934  1
  O  O35  1  0.774290  0.123824  0.278962  1
  O  O36  1  0.883271  0.474915  0.738998  1
  O  O37  1  0.385056  0.518242  0.751697  1
  O  O38  1  0.118179  0.514729  0.263390  1
  O  O39  1  0.616747  0.478738  0.244891  1
  O  O40  1  0.713592  0.236793  0.541119  1
  O  O41  1  0.195450  0.774616  0.960593  1
  O  O42  1  0.295056  0.757337  0.461519  1
  O  O43  1  0.798058  0.249012  0.038946  1
  O  O44  1  0.558197  0.991740  0.666775  1
  O  O45  1  0.049121  0.016037  0.816160  1
  O  O46  1  0.446360  0.007031  0.334783  1
  O  O47  1  0.947057  0.994429  0.164700  1
