# generated using pymatgen
data_Sr4Ho2RuPtO12
_symmetry_space_group_name_H-M   'P 1'
_cell_length_a   5.81836535
_cell_length_b   5.86116858
_cell_length_c   8.23739580
_cell_angle_alpha   90.05021067
_cell_angle_beta   90.37304582
_cell_angle_gamma   90.00938494
_symmetry_Int_Tables_number   1
_chemical_formula_structural   Sr4Ho2RuPtO12
_chemical_formula_sum   'Sr4 Ho2 Ru1 Pt1 O12'
_cell_volume   280.90906667
_cell_formula_units_Z   1
loop_
 _symmetry_equiv_pos_site_id
 _symmetry_equiv_pos_as_xyz
  1  'x, y, z'
loop_
 _atom_site_type_symbol
 _atom_site_label
 _atom_site_symmetry_multiplicity
 _atom_site_fract_x
 _atom_site_fract_y
 _atom_site_fract_z
 _atom_site_occupancy
  Sr  Sr0  1  0.507554  0.465170  0.247097  1
  Sr  Sr1  1  0.991862  0.966157  0.248898  1
  Sr  Sr2  1  0.008137  0.033842  0.751102  1
  Sr  Sr3  1  0.492445  0.534830  0.752903  1
  Ho  Ho4  1  0.000000  0.500001  0.000000  1
  Ho  Ho5  1  0.500000  0.000000  0.500000  1
  Ru  Ru6  1  0.000000  0.500001  0.500000  1
  Pt  Pt7  1  0.500000  0.000000  0.000000  1
  O  O8  1  0.773796  0.204500  0.038926  1
  O  O9  1  0.701224  0.724914  0.040128  1
  O  O10  1  0.425319  0.018156  0.239136  1
  O  O11  1  0.072525  0.517413  0.267376  1
  O  O12  1  0.803244  0.229815  0.460851  1
  O  O13  1  0.731626  0.699962  0.462272  1
  O  O14  1  0.268373  0.300038  0.537728  1
  O  O15  1  0.196755  0.770184  0.539149  1
  O  O16  1  0.927474  0.482589  0.732624  1
  O  O17  1  0.574681  0.981844  0.760864  1
  O  O18  1  0.298774  0.275085  0.959872  1
  O  O19  1  0.226203  0.795499  0.961074  1
