# generated using pymatgen
data_La6IrPd5Au2
_symmetry_space_group_name_H-M   'P 1'
_cell_length_a   8.39697011
_cell_length_b   8.30586232
_cell_length_c   8.33888327
_cell_angle_alpha   114.24466062
_cell_angle_beta   114.81846187
_cell_angle_gamma   114.51502271
_symmetry_Int_Tables_number   1
_chemical_formula_structural   La6IrPd5Au2
_chemical_formula_sum   'La6 Ir1 Pd5 Au2'
_cell_volume   339.11576269
_cell_formula_units_Z   1
loop_
 _symmetry_equiv_pos_site_id
 _symmetry_equiv_pos_as_xyz
  1  'x, y, z'
loop_
 _atom_site_type_symbol
 _atom_site_label
 _atom_site_symmetry_multiplicity
 _atom_site_fract_x
 _atom_site_fract_y
 _atom_site_fract_z
 _atom_site_occupancy
  La  La0  1  0.972372  0.598285  0.726511  1
  La  La1  1  0.727555  0.980641  0.603864  1
  La  La2  1  0.605090  0.721335  0.975216  1
  La  La3  1  0.026961  0.388768  0.269367  1
  La  La4  1  0.279922  0.033549  0.392082  1
  La  La5  1  0.379382  0.270331  0.028305  1
  Ir  Ir6  1  0.991092  0.991372  0.992119  1
  Pd  Pd7  1  0.503626  0.504887  0.504751  1
  Pd  Pd8  1  0.778609  0.437578  0.939049  1
  Pd  Pd9  1  0.061752  0.227416  0.563727  1
  Pd  Pd10  1  0.567106  0.061542  0.227202  1
  Pd  Pd11  1  0.228241  0.566566  0.065530  1
  Au  Au12  1  0.936182  0.773405  0.433094  1
  Au  Au13  1  0.442109  0.944324  0.779184  1
