# generated using pymatgen
data_V3Tc3Ge2
_symmetry_space_group_name_H-M   'P 1'
_cell_length_a   4.80366605
_cell_length_b   4.80366561
_cell_length_c   4.80366524
_cell_angle_alpha   90.23128770
_cell_angle_beta   89.76871028
_cell_angle_gamma   90.23128357
_symmetry_Int_Tables_number   1
_chemical_formula_structural   V3Tc3Ge2
_chemical_formula_sum   'V3 Tc3 Ge2'
_cell_volume   110.84285996
_cell_formula_units_Z   1
loop_
 _symmetry_equiv_pos_site_id
 _symmetry_equiv_pos_as_xyz
  1  'x, y, z'
loop_
 _atom_site_type_symbol
 _atom_site_label
 _atom_site_symmetry_multiplicity
 _atom_site_fract_x
 _atom_site_fract_y
 _atom_site_fract_z
 _atom_site_occupancy
  V  V0  1  0.001473  0.501634  0.250444  1
  V  V1  1  0.498366  0.749556  0.001473  1
  V  V2  1  0.250444  0.998527  0.498366  1
  Tc  Tc3  1  0.001978  0.502438  0.750626  1
  Tc  Tc4  1  0.497562  0.249374  0.001978  1
  Tc  Tc5  1  0.750626  0.998022  0.497562  1
  Ge  Ge6  1  0.001490  0.998510  0.001490  1
  Ge  Ge7  1  0.498062  0.501938  0.498062  1
