# generated using pymatgen
data_Yb2SmCu6Ni7B2
_symmetry_space_group_name_H-M   'P 1'
_cell_length_a   5.00922401
_cell_length_b   5.00922439
_cell_length_c   10.86927600
_cell_angle_alpha   90.00000000
_cell_angle_beta   90.00000000
_cell_angle_gamma   120.02961621
_symmetry_Int_Tables_number   1
_chemical_formula_structural   Yb2SmCu6Ni7B2
_chemical_formula_sum   'Yb2 Sm1 Cu6 Ni7 B2'
_cell_volume   236.12528949
_cell_formula_units_Z   1
loop_
 _symmetry_equiv_pos_site_id
 _symmetry_equiv_pos_as_xyz
  1  'x, y, z'
loop_
 _atom_site_type_symbol
 _atom_site_label
 _atom_site_symmetry_multiplicity
 _atom_site_fract_x
 _atom_site_fract_y
 _atom_site_fract_z
 _atom_site_occupancy
  Yb  Yb0  1  0.000000  0.000000  0.996030  1
  Yb  Yb1  1  0.000000  0.000000  0.681894  1
  Sm  Sm2  1  0.000000  0.000000  0.319031  1
  Cu  Cu3  1  0.500000  0.000000  0.501974  1
  Cu  Cu4  1  0.000000  0.500000  0.501974  1
  Cu  Cu5  1  0.663875  0.336125  0.686166  1
  Cu  Cu6  1  0.336125  0.663875  0.686166  1
  Cu  Cu7  1  0.334547  0.665453  0.314648  1
  Cu  Cu8  1  0.665453  0.334547  0.314648  1
  Ni  Ni9  1  0.500000  0.500000  0.500817  1
  Ni  Ni10  1  0.500000  0.500000  0.872588  1
  Ni  Ni11  1  0.500000  0.000000  0.872340  1
  Ni  Ni12  1  0.000000  0.500000  0.872340  1
  Ni  Ni13  1  0.500000  0.500000  0.126653  1
  Ni  Ni14  1  0.500000  0.000000  0.126938  1
  Ni  Ni15  1  0.000000  0.500000  0.126938  1
  B  B16  1  0.666958  0.333042  0.999428  1
  B  B17  1  0.333042  0.666958  0.999428  1
