# generated using pymatgen
data_CaDy(Al3Pt)6
_symmetry_space_group_name_H-M   'P 1'
_cell_length_a   10.41847807
_cell_length_b   10.41847786
_cell_length_c   10.41847900
_cell_angle_alpha   42.21991769
_cell_angle_beta   42.21991897
_cell_angle_gamma   42.21991827
_symmetry_Int_Tables_number   1
_chemical_formula_structural   CaDy(Al3Pt)6
_chemical_formula_sum   'Ca1 Dy1 Al18 Pt6'
_cell_volume   462.12254409
_cell_formula_units_Z   1
loop_
 _symmetry_equiv_pos_site_id
 _symmetry_equiv_pos_as_xyz
  1  'x, y, z'
loop_
 _atom_site_type_symbol
 _atom_site_label
 _atom_site_symmetry_multiplicity
 _atom_site_fract_x
 _atom_site_fract_y
 _atom_site_fract_z
 _atom_site_occupancy
  Ca  Ca0  1  0.833089  0.833089  0.833089  1
  Dy  Dy1  1  0.166790  0.166790  0.166790  1
  Al  Al2  1  0.106755  0.436867  0.764034  1
  Al  Al3  1  0.436867  0.764034  0.106755  1
  Al  Al4  1  0.565157  0.892150  0.235022  1
  Al  Al5  1  0.949204  0.949204  0.949204  1
  Al  Al6  1  0.050365  0.050365  0.050365  1
  Al  Al7  1  0.297412  0.704690  0.497909  1
  Al  Al8  1  0.892150  0.235022  0.565157  1
  Al  Al9  1  0.385342  0.385342  0.385342  1
  Al  Al10  1  0.497909  0.297412  0.704690  1
  Al  Al11  1  0.235022  0.565157  0.892150  1
  Al  Al12  1  0.717007  0.717007  0.717007  1
  Al  Al13  1  0.614851  0.614851  0.614851  1
  Al  Al14  1  0.333710  0.000180  0.666129  1
  Al  Al15  1  0.704690  0.497909  0.297412  1
  Al  Al16  1  0.666129  0.333710  0.000180  1
  Al  Al17  1  0.283314  0.283314  0.283314  1
  Al  Al18  1  0.000180  0.666129  0.333710  1
  Al  Al19  1  0.764034  0.106755  0.436867  1
  Pt  Pt20  1  0.417126  0.078198  0.760133  1
  Pt  Pt21  1  0.580372  0.241050  0.923143  1
  Pt  Pt22  1  0.078198  0.760133  0.417126  1
  Pt  Pt23  1  0.760133  0.417126  0.078198  1
  Pt  Pt24  1  0.923143  0.580372  0.241050  1
  Pt  Pt25  1  0.241050  0.923143  0.580372  1
