# generated using pymatgen
data_Li4PrSm3Si8
_symmetry_space_group_name_H-M   'P 1'
_cell_length_a   3.85948100
_cell_length_b   7.69566683
_cell_length_c   10.42538307
_cell_angle_alpha   89.88661551
_cell_angle_beta   90.00000000
_cell_angle_gamma   90.00000000
_symmetry_Int_Tables_number   1
_chemical_formula_structural   Li4PrSm3Si8
_chemical_formula_sum   'Li4 Pr1 Sm3 Si8'
_cell_volume   309.64661450
_cell_formula_units_Z   1
loop_
 _symmetry_equiv_pos_site_id
 _symmetry_equiv_pos_as_xyz
  1  'x, y, z'
loop_
 _atom_site_type_symbol
 _atom_site_label
 _atom_site_symmetry_multiplicity
 _atom_site_fract_x
 _atom_site_fract_y
 _atom_site_fract_z
 _atom_site_occupancy
  Li  Li0  1  0.250000  0.995350  0.390926  1
  Li  Li1  1  0.750000  0.007210  0.610275  1
  Li  Li2  1  0.250000  0.492426  0.108556  1
  Li  Li3  1  0.750000  0.506563  0.891472  1
  Pr  Pr4  1  0.750000  0.360513  0.364851  1
  Sm  Sm5  1  0.250000  0.136650  0.864670  1
  Sm  Sm6  1  0.750000  0.861120  0.134514  1
  Sm  Sm7  1  0.250000  0.638780  0.635460  1
  Si  Si8  1  0.750000  0.268570  0.067614  1
  Si  Si9  1  0.250000  0.727890  0.929556  1
  Si  Si10  1  0.750000  0.775129  0.429924  1
  Si  Si11  1  0.250000  0.227554  0.573519  1
  Si  Si12  1  0.750000  0.838048  0.821497  1
  Si  Si13  1  0.250000  0.159139  0.175411  1
  Si  Si14  1  0.750000  0.338872  0.680585  1
  Si  Si15  1  0.250000  0.666182  0.321172  1
