# generated using pymatgen
data_DyZn2SiAu
_symmetry_space_group_name_H-M   'P 1'
_cell_length_a   4.03840177
_cell_length_b   6.39042410
_cell_length_c   5.71252527
_cell_angle_alpha   63.34075061
_cell_angle_beta   44.86386205
_cell_angle_gamma   71.43066649
_symmetry_Int_Tables_number   1
_chemical_formula_structural   DyZn2SiAu
_chemical_formula_sum   'Dy1 Zn2 Si1 Au1'
_cell_volume   92.94052685
_cell_formula_units_Z   1
loop_
 _symmetry_equiv_pos_site_id
 _symmetry_equiv_pos_as_xyz
  1  'x, y, z'
loop_
 _atom_site_type_symbol
 _atom_site_label
 _atom_site_symmetry_multiplicity
 _atom_site_fract_x
 _atom_site_fract_y
 _atom_site_fract_z
 _atom_site_occupancy
  Dy  Dy0  1  0.712158  0.356589  0.301217  1
  Zn  Zn1  1  0.212876  0.808513  0.072471  1
  Zn  Zn2  1  0.210543  0.807109  0.576311  1
  Si  Si3  1  0.714200  0.534360  0.709946  1
  Au  Au4  1  0.708042  0.106421  0.926957  1
