# generated using pymatgen
data_Yb4Si3Pt4
_symmetry_space_group_name_H-M   'P 1'
_cell_length_a   10.68816746
_cell_length_b   10.68816700
_cell_length_c   7.75000211
_cell_angle_alpha   70.47413031
_cell_angle_beta   70.47412982
_cell_angle_gamma   31.38515670
_symmetry_Int_Tables_number   1
_chemical_formula_structural   Yb4Si3Pt4
_chemical_formula_sum   'Yb8 Si6 Pt8'
_cell_volume   432.39480907
_cell_formula_units_Z   2
loop_
 _symmetry_equiv_pos_site_id
 _symmetry_equiv_pos_as_xyz
  1  'x, y, z'
loop_
 _atom_site_type_symbol
 _atom_site_label
 _atom_site_symmetry_multiplicity
 _atom_site_fract_x
 _atom_site_fract_y
 _atom_site_fract_z
 _atom_site_occupancy
  Yb  Yb0  1  0.211518  0.445320  0.408354  1
  Yb  Yb1  1  0.554680  0.788482  0.091646  1
  Yb  Yb2  1  0.445320  0.211518  0.908354  1
  Yb  Yb3  1  0.927505  0.207408  0.330650  1
  Yb  Yb4  1  0.792592  0.072495  0.169350  1
  Yb  Yb5  1  0.072495  0.792592  0.669350  1
  Yb  Yb6  1  0.207408  0.927505  0.830650  1
  Yb  Yb7  1  0.788482  0.554680  0.591646  1
  Si  Si8  1  0.605978  0.394022  0.750000  1
  Si  Si9  1  0.394022  0.605978  0.250000  1
  Si  Si10  1  0.303825  0.043193  0.428897  1
  Si  Si11  1  0.956807  0.696175  0.071103  1
  Si  Si12  1  0.696175  0.956807  0.571103  1
  Si  Si13  1  0.043193  0.303825  0.928897  1
  Pt  Pt14  1  0.290098  0.583735  0.029612  1
  Pt  Pt15  1  0.583735  0.290098  0.529612  1
  Pt  Pt16  1  0.709902  0.416265  0.970388  1
  Pt  Pt17  1  0.077394  0.358700  0.181002  1
  Pt  Pt18  1  0.641300  0.922606  0.318998  1
  Pt  Pt19  1  0.416265  0.709902  0.470388  1
  Pt  Pt20  1  0.922606  0.641300  0.818998  1
  Pt  Pt21  1  0.358700  0.077394  0.681002  1
