# generated using pymatgen
data_Y(LuSn)4
_symmetry_space_group_name_H-M   'P 1'
_cell_length_a   7.92025800
_cell_length_b   8.04691900
_cell_length_c   15.21515600
_cell_angle_alpha   90.00000000
_cell_angle_beta   90.00000000
_cell_angle_gamma   90.00000000
_symmetry_Int_Tables_number   1
_chemical_formula_structural   Y(LuSn)4
_chemical_formula_sum   'Y4 Lu16 Sn16'
_cell_volume   969.71780127
_cell_formula_units_Z   4
loop_
 _symmetry_equiv_pos_site_id
 _symmetry_equiv_pos_as_xyz
  1  'x, y, z'
loop_
 _atom_site_type_symbol
 _atom_site_label
 _atom_site_symmetry_multiplicity
 _atom_site_fract_x
 _atom_site_fract_y
 _atom_site_fract_z
 _atom_site_occupancy
  Y  Y0  1  0.476882  0.679311  0.097325  1
  Y  Y1  1  0.976882  0.820689  0.402675  1
  Y  Y2  1  0.523118  0.320689  0.597325  1
  Y  Y3  1  0.023118  0.179311  0.902675  1
  Lu  Lu4  1  0.367477  0.836236  0.877502  1
  Lu  Lu5  1  0.867477  0.663764  0.622498  1
  Lu  Lu6  1  0.632523  0.163764  0.377502  1
  Lu  Lu7  1  0.132523  0.336236  0.122498  1
  Lu  Lu8  1  0.632445  0.163933  0.122311  1
  Lu  Lu9  1  0.132445  0.336067  0.377689  1
  Lu  Lu10  1  0.367555  0.836067  0.622311  1
  Lu  Lu11  1  0.867555  0.663933  0.877689  1
  Lu  Lu12  1  0.523457  0.320586  0.902128  1
  Lu  Lu13  1  0.023457  0.179414  0.597872  1
  Lu  Lu14  1  0.476543  0.679414  0.402128  1
  Lu  Lu15  1  0.976543  0.820586  0.097872  1
  Lu  Lu16  1  0.197815  0.503949  0.750081  1
  Lu  Lu17  1  0.697815  0.996051  0.749919  1
  Lu  Lu18  1  0.802185  0.496051  0.250081  1
  Lu  Lu19  1  0.302185  0.003949  0.249919  1
  Sn  Sn20  1  0.291960  0.035149  0.041953  1
  Sn  Sn21  1  0.791960  0.464851  0.458047  1
  Sn  Sn22  1  0.708040  0.964851  0.541953  1
  Sn  Sn23  1  0.208040  0.535149  0.958047  1
  Sn  Sn24  1  0.706410  0.964135  0.958717  1
  Sn  Sn25  1  0.206410  0.535865  0.541283  1
  Sn  Sn26  1  0.293590  0.035865  0.458717  1
  Sn  Sn27  1  0.793590  0.464135  0.041283  1
  Sn  Sn28  1  0.563843  0.621185  0.749961  1
  Sn  Sn29  1  0.063843  0.878815  0.750039  1
  Sn  Sn30  1  0.436157  0.378815  0.249961  1
  Sn  Sn31  1  0.936157  0.121185  0.250039  1
  Sn  Sn32  1  0.332031  0.148162  0.750431  1
  Sn  Sn33  1  0.832031  0.351838  0.749569  1
  Sn  Sn34  1  0.667969  0.851838  0.250431  1
  Sn  Sn35  1  0.167969  0.648162  0.249569  1
