# generated using pymatgen
data_PrEr3IrRh3O14
_symmetry_space_group_name_H-M   'P 1'
_cell_length_a   7.30012331
_cell_length_b   7.22128529
_cell_length_c   7.22128500
_cell_angle_alpha   59.99999673
_cell_angle_beta   60.35660451
_cell_angle_gamma   60.35660129
_symmetry_Int_Tables_number   1
_chemical_formula_structural   PrEr3IrRh3O14
_chemical_formula_sum   'Pr1 Er3 Ir1 Rh3 O14'
_cell_volume   270.62264592
_cell_formula_units_Z   1
loop_
 _symmetry_equiv_pos_site_id
 _symmetry_equiv_pos_as_xyz
  1  'x, y, z'
loop_
 _atom_site_type_symbol
 _atom_site_label
 _atom_site_symmetry_multiplicity
 _atom_site_fract_x
 _atom_site_fract_y
 _atom_site_fract_z
 _atom_site_occupancy
  Pr  Pr0  1  0.625000  0.125000  0.125000  1
  Er  Er1  1  0.125000  0.125000  0.625000  1
  Er  Er2  1  0.125000  0.125000  0.125000  1
  Er  Er3  1  0.125000  0.625000  0.125000  1
  Ir  Ir4  1  0.125000  0.625000  0.625000  1
  Rh  Rh5  1  0.625000  0.625000  0.625000  1
  Rh  Rh6  1  0.625000  0.125000  0.625000  1
  Rh  Rh7  1  0.625000  0.625000  0.125000  1
  O  O8  1  0.963632  0.539640  0.539640  1
  O  O9  1  0.286368  0.292913  0.710360  1
  O  O10  1  0.963632  0.539640  0.957087  1
  O  O11  1  0.725242  0.287636  0.287636  1
  O  O12  1  0.524758  0.550514  0.962364  1
  O  O13  1  0.524758  0.962364  0.550514  1
  O  O14  1  0.524758  0.962364  0.962364  1
  O  O15  1  0.234690  0.255103  0.255103  1
  O  O16  1  0.286368  0.710360  0.710360  1
  O  O17  1  0.725242  0.287636  0.699486  1
  O  O18  1  0.015310  0.994897  0.994897  1
  O  O19  1  0.963632  0.957087  0.539640  1
  O  O20  1  0.286368  0.710360  0.292913  1
  O  O21  1  0.725242  0.699486  0.287636  1
