# generated using pymatgen
data_La6NdIrPt2
_symmetry_space_group_name_H-M   'P 1'
_cell_length_a   6.58692510
_cell_length_b   10.28526826
_cell_length_c   10.28545606
_cell_angle_alpha   119.90791010
_cell_angle_beta   90.27935146
_cell_angle_gamma   89.71990000
_symmetry_Int_Tables_number   1
_chemical_formula_structural   La6NdIrPt2
_chemical_formula_sum   'La12 Nd2 Ir2 Pt4'
_cell_volume   604.01522572
_cell_formula_units_Z   2
loop_
 _symmetry_equiv_pos_site_id
 _symmetry_equiv_pos_as_xyz
  1  'x, y, z'
loop_
 _atom_site_type_symbol
 _atom_site_label
 _atom_site_symmetry_multiplicity
 _atom_site_fract_x
 _atom_site_fract_y
 _atom_site_fract_z
 _atom_site_occupancy
  La  La0  1  0.241739  0.127996  0.872011  1
  La  La1  1  0.248106  0.743541  0.871209  1
  La  La2  1  0.248108  0.128796  0.256453  1
  La  La3  1  0.742980  0.874646  0.125366  1
  La  La4  1  0.741483  0.252667  0.131326  1
  La  La5  1  0.741510  0.868667  0.747331  1
  La  La6  1  0.439930  0.536330  0.463681  1
  La  La7  1  0.442371  0.926174  0.460990  1
  La  La8  1  0.442358  0.539036  0.073845  1
  La  La9  1  0.936889  0.459196  0.540791  1
  La  La10  1  0.939198  0.077066  0.533985  1
  La  La11  1  0.939186  0.466004  0.922932  1
  Nd  Nd12  1  0.467445  0.334144  0.665838  1
  Nd  Nd13  1  0.961950  0.666344  0.333645  1
  Ir  Ir14  1  0.694901  0.624007  0.813232  1
  Ir  Ir15  1  0.694909  0.186765  0.375987  1
  Pt  Pt16  1  0.193806  0.811313  0.188699  1
  Pt  Pt17  1  0.195586  0.377220  0.187384  1
  Pt  Pt18  1  0.195566  0.812632  0.622785  1
  Pt  Pt19  1  0.693978  0.187456  0.812510  1
