# generated using pymatgen
data_CeU3(B2O5)4
_symmetry_space_group_name_H-M   'P 1'
_cell_length_a   7.29732440
_cell_length_b   4.61282099
_cell_length_c   9.14754500
_cell_angle_alpha   87.52367716
_cell_angle_beta   89.70094634
_cell_angle_gamma   90.42091702
_symmetry_Int_Tables_number   1
_chemical_formula_structural   CeU3(B2O5)4
_chemical_formula_sum   'Ce1 U3 B8 O20'
_cell_volume   307.61723864
_cell_formula_units_Z   1
loop_
 _symmetry_equiv_pos_site_id
 _symmetry_equiv_pos_as_xyz
  1  'x, y, z'
loop_
 _atom_site_type_symbol
 _atom_site_label
 _atom_site_symmetry_multiplicity
 _atom_site_fract_x
 _atom_site_fract_y
 _atom_site_fract_z
 _atom_site_occupancy
  Ce  Ce0  1  0.118034  0.007133  0.318255  1
  U  U1  1  0.615939  0.996920  0.175814  1
  U  U2  1  0.895004  0.993184  0.670238  1
  U  U3  1  0.388838  0.005320  0.824469  1
  B  B4  1  0.412728  0.468160  0.339835  1
  B  B5  1  0.737533  0.474712  0.919078  1
  B  B6  1  0.590191  0.532987  0.661325  1
  B  B7  1  0.261582  0.524770  0.080513  1
  B  B8  1  0.088798  0.467493  0.839639  1
  B  B9  1  0.237350  0.531192  0.579672  1
  B  B10  1  0.906732  0.528294  0.161536  1
  B  B11  1  0.760874  0.471408  0.420464  1
  O  O12  1  0.594474  0.223155  0.675016  1
  O  O13  1  0.350766  0.330159  0.195715  1
  O  O14  1  0.902101  0.346440  0.853869  1
  O  O15  1  0.282126  0.363333  0.452797  1
  O  O16  1  0.715230  0.646964  0.546320  1
  O  O17  1  0.609085  0.237427  0.961743  1
  O  O18  1  0.218048  0.353887  0.952329  1
  O  O19  1  0.094058  0.778734  0.827729  1
  O  O20  1  0.887484  0.239189  0.465748  1
  O  O21  1  0.155451  0.326626  0.698214  1
  O  O22  1  0.893103  0.218315  0.171904  1
  O  O23  1  0.841482  0.669674  0.301868  1
  O  O24  1  0.781068  0.646700  0.046499  1
  O  O25  1  0.417031  0.777375  0.325271  1
  O  O26  1  0.595737  0.337500  0.357580  1
  O  O27  1  0.095119  0.639371  0.146586  1
  O  O28  1  0.108964  0.764958  0.542371  1
  O  O29  1  0.656290  0.674872  0.802471  1
  O  O30  1  0.403393  0.654668  0.647995  1
  O  O31  1  0.385378  0.769078  0.037138  1
