# generated using pymatgen
data_Yb10BiPt4Pb
_symmetry_space_group_name_H-M   'P 1'
_cell_length_a   9.13616806
_cell_length_b   9.13616909
_cell_length_c   9.13616793
_cell_angle_alpha   129.58113381
_cell_angle_beta   129.58113637
_cell_angle_gamma   74.07728160
_symmetry_Int_Tables_number   1
_chemical_formula_structural   Yb10BiPt4Pb
_chemical_formula_sum   'Yb10 Bi1 Pt4 Pb1'
_cell_volume   441.72594360
_cell_formula_units_Z   1
loop_
 _symmetry_equiv_pos_site_id
 _symmetry_equiv_pos_as_xyz
  1  'x, y, z'
loop_
 _atom_site_type_symbol
 _atom_site_label
 _atom_site_symmetry_multiplicity
 _atom_site_fract_x
 _atom_site_fract_y
 _atom_site_fract_z
 _atom_site_occupancy
  Yb  Yb0  1  0.000421  0.000421  0.000000  1
  Yb  Yb1  1  0.499579  0.499579  0.000000  1
  Yb  Yb2  1  0.794956  0.293377  0.831470  1
  Yb  Yb3  1  0.206623  0.705044  0.168530  1
  Yb  Yb4  1  0.461907  0.963486  0.168530  1
  Yb  Yb5  1  0.293377  0.461907  0.498421  1
  Yb  Yb6  1  0.038093  0.206623  0.501579  1
  Yb  Yb7  1  0.536514  0.038093  0.831470  1
  Yb  Yb8  1  0.705044  0.536514  0.498421  1
  Yb  Yb9  1  0.963486  0.794956  0.501579  1
  Bi  Bi10  1  0.750000  0.750000  0.000000  1
  Pt  Pt11  1  0.132664  0.632664  0.765329  1
  Pt  Pt12  1  0.867336  0.367336  0.234671  1
  Pt  Pt13  1  0.632664  0.867336  0.500000  1
  Pt  Pt14  1  0.367336  0.132664  0.500000  1
  Pb  Pb15  1  0.250000  0.250000  0.000000  1
