# generated using pymatgen
data_NaPrCuPt3
_symmetry_space_group_name_H-M   'P 1'
_cell_length_a   5.50188499
_cell_length_b   5.50188475
_cell_length_c   5.29077832
_cell_angle_alpha   58.67107209
_cell_angle_beta   58.67107264
_cell_angle_gamma   60.00000079
_symmetry_Int_Tables_number   1
_chemical_formula_structural   NaPrCuPt3
_chemical_formula_sum   'Na1 Pr1 Cu1 Pt3'
_cell_volume   110.91888184
_cell_formula_units_Z   1
loop_
 _symmetry_equiv_pos_site_id
 _symmetry_equiv_pos_as_xyz
  1  'x, y, z'
loop_
 _atom_site_type_symbol
 _atom_site_label
 _atom_site_symmetry_multiplicity
 _atom_site_fract_x
 _atom_site_fract_y
 _atom_site_fract_z
 _atom_site_occupancy
  Na  Na0  1  0.252835  0.252835  0.241495  1
  Pr  Pr1  1  0.002336  0.002336  0.992992  1
  Cu  Cu2  1  0.623199  0.623199  0.130403  1
  Pt  Pt3  1  0.623227  0.125175  0.628369  1
  Pt  Pt4  1  0.125175  0.623227  0.628369  1
  Pt  Pt5  1  0.623227  0.623227  0.628369  1
