# generated using pymatgen
data_Tb4Lu(SiBi)2
_symmetry_space_group_name_H-M   'P 1'
_cell_length_a   8.66750855
_cell_length_b   8.66750840
_cell_length_c   7.92127600
_cell_angle_alpha   90.00000000
_cell_angle_beta   90.00000000
_cell_angle_gamma   125.77516246
_symmetry_Int_Tables_number   1
_chemical_formula_structural   Tb4Lu(SiBi)2
_chemical_formula_sum   'Tb8 Lu2 Si4 Bi4'
_cell_volume   482.80798368
_cell_formula_units_Z   2
loop_
 _symmetry_equiv_pos_site_id
 _symmetry_equiv_pos_as_xyz
  1  'x, y, z'
loop_
 _atom_site_type_symbol
 _atom_site_label
 _atom_site_symmetry_multiplicity
 _atom_site_fract_x
 _atom_site_fract_y
 _atom_site_fract_z
 _atom_site_occupancy
  Tb  Tb0  1  0.044239  0.289345  0.333367  1
  Tb  Tb1  1  0.955761  0.710655  0.666633  1
  Tb  Tb2  1  0.455761  0.210655  0.833367  1
  Tb  Tb3  1  0.789345  0.544239  0.166633  1
  Tb  Tb4  1  0.544239  0.789345  0.166633  1
  Tb  Tb5  1  0.210655  0.455761  0.833367  1
  Tb  Tb6  1  0.710655  0.955761  0.666633  1
  Tb  Tb7  1  0.289345  0.044239  0.333367  1
  Lu  Lu8  1  0.000000  0.000000  0.000000  1
  Lu  Lu9  1  0.500000  0.500000  0.500000  1
  Si  Si10  1  0.367015  0.367015  0.131958  1
  Si  Si11  1  0.632985  0.632985  0.868042  1
  Si  Si12  1  0.132985  0.132985  0.631958  1
  Si  Si13  1  0.867015  0.867015  0.368042  1
  Bi  Bi14  1  0.793542  0.206458  0.000000  1
  Bi  Bi15  1  0.206458  0.793542  0.000000  1
  Bi  Bi16  1  0.706458  0.293542  0.500000  1
  Bi  Bi17  1  0.293542  0.706458  0.500000  1
