# generated using pymatgen
data_Ca9Yb3(AlN2)8
_symmetry_space_group_name_H-M   'P 1'
_cell_length_a   5.81075322
_cell_length_b   9.56288699
_cell_length_c   9.59154335
_cell_angle_alpha   68.38440184
_cell_angle_beta   90.03113446
_cell_angle_gamma   90.01374795
_symmetry_Int_Tables_number   1
_chemical_formula_structural   Ca9Yb3(AlN2)8
_chemical_formula_sum   'Ca9 Yb3 Al8 N16'
_cell_volume   495.49766593
_cell_formula_units_Z   1
loop_
 _symmetry_equiv_pos_site_id
 _symmetry_equiv_pos_as_xyz
  1  'x, y, z'
loop_
 _atom_site_type_symbol
 _atom_site_label
 _atom_site_symmetry_multiplicity
 _atom_site_fract_x
 _atom_site_fract_y
 _atom_site_fract_z
 _atom_site_occupancy
  Ca  Ca0  1  0.594409  0.315095  0.050876  1
  Ca  Ca1  1  0.348304  0.328758  0.535011  1
  Ca  Ca2  1  0.906044  0.814275  0.051337  1
  Ca  Ca3  1  0.619257  0.099884  0.818310  1
  Ca  Ca4  1  0.120248  0.400170  0.182039  1
  Ca  Ca5  1  0.094217  0.184632  0.949166  1
  Ca  Ca6  1  0.380264  0.898402  0.182808  1
  Ca  Ca7  1  0.880693  0.601549  0.816642  1
  Ca  Ca8  1  0.848358  0.171163  0.464969  1
  Yb  Yb9  1  0.654471  0.671969  0.465002  1
  Yb  Yb10  1  0.405185  0.682270  0.947494  1
  Yb  Yb11  1  0.154598  0.828212  0.534974  1
  Al  Al12  1  0.143330  0.010360  0.741739  1
  Al  Al13  1  0.111616  0.609026  0.381121  1
  Al  Al14  1  0.856678  0.988009  0.259106  1
  Al  Al15  1  0.611285  0.890944  0.619422  1
  Al  Al16  1  0.642341  0.489616  0.258121  1
  Al  Al17  1  0.889097  0.392122  0.619133  1
  Al  Al18  1  0.356926  0.512189  0.740921  1
  Al  Al19  1  0.389159  0.107814  0.380763  1
  N  N20  1  0.738503  0.063206  0.061587  1
  N  N21  1  0.897925  0.449265  0.398544  1
  N  N22  1  0.486560  0.702802  0.699995  1
  N  N23  1  0.398010  0.051052  0.601028  1
  N  N24  1  0.599548  0.945421  0.399303  1
  N  N25  1  0.510668  0.298037  0.300369  1
  N  N26  1  0.904709  0.892136  0.701804  1
  N  N27  1  0.262413  0.936048  0.938724  1
  N  N28  1  0.010612  0.201930  0.699407  1
  N  N29  1  0.239640  0.439627  0.938609  1
  N  N30  1  0.757950  0.564474  0.059983  1
  N  N31  1  0.099948  0.554217  0.601102  1
  N  N32  1  0.097869  0.105268  0.296982  1
  N  N33  1  0.404265  0.607519  0.298339  1
  N  N34  1  0.598015  0.395282  0.702886  1
  N  N35  1  0.986884  0.797260  0.302385  1
