# generated using pymatgen
data_Sm3Mg(Co4P3)2
_symmetry_space_group_name_H-M   'P 1'
_cell_length_a   3.77116600
_cell_length_b   10.70343700
_cell_length_c   12.39438800
_cell_angle_alpha   90.00000000
_cell_angle_beta   90.00000000
_cell_angle_gamma   90.00000000
_symmetry_Int_Tables_number   1
_chemical_formula_structural   Sm3Mg(Co4P3)2
_chemical_formula_sum   'Sm6 Mg2 Co16 P12'
_cell_volume   500.29250223
_cell_formula_units_Z   2
loop_
 _symmetry_equiv_pos_site_id
 _symmetry_equiv_pos_as_xyz
  1  'x, y, z'
loop_
 _atom_site_type_symbol
 _atom_site_label
 _atom_site_symmetry_multiplicity
 _atom_site_fract_x
 _atom_site_fract_y
 _atom_site_fract_z
 _atom_site_occupancy
  Sm  Sm0  1  0.000000  0.500000  0.525892  1
  Sm  Sm1  1  0.500000  0.000000  0.474108  1
  Sm  Sm2  1  0.500000  0.821542  0.206529  1
  Sm  Sm3  1  0.500000  0.178458  0.206529  1
  Sm  Sm4  1  0.000000  0.678458  0.793471  1
  Sm  Sm5  1  0.000000  0.321542  0.793471  1
  Mg  Mg6  1  0.500000  0.500000  0.155104  1
  Mg  Mg7  1  0.000000  0.000000  0.844896  1
  Co  Co8  1  0.500000  0.500000  0.705745  1
  Co  Co9  1  0.000000  0.000000  0.294255  1
  Co  Co10  1  0.000000  0.500000  0.988954  1
  Co  Co11  1  0.500000  0.000000  0.011046  1
  Co  Co12  1  0.500000  0.332619  0.997019  1
  Co  Co13  1  0.500000  0.667381  0.997019  1
  Co  Co14  1  0.000000  0.167381  0.002981  1
  Co  Co15  1  0.000000  0.832619  0.002981  1
  Co  Co16  1  0.500000  0.296846  0.431697  1
  Co  Co17  1  0.500000  0.703154  0.431697  1
  Co  Co18  1  0.000000  0.203154  0.568303  1
  Co  Co19  1  0.000000  0.796846  0.568303  1
  Co  Co20  1  0.500000  0.879152  0.705265  1
  Co  Co21  1  0.500000  0.120848  0.705265  1
  Co  Co22  1  0.000000  0.620848  0.294735  1
  Co  Co23  1  0.000000  0.379152  0.294735  1
  P  P24  1  0.500000  0.500000  0.886894  1
  P  P25  1  0.000000  0.000000  0.113106  1
  P  P26  1  0.500000  0.500000  0.352885  1
  P  P27  1  0.000000  0.000000  0.647115  1
  P  P28  1  0.500000  0.306463  0.614023  1
  P  P29  1  0.500000  0.693537  0.614023  1
  P  P30  1  0.000000  0.193537  0.385977  1
  P  P31  1  0.000000  0.806463  0.385977  1
  P  P32  1  0.500000  0.840003  0.895004  1
  P  P33  1  0.500000  0.159997  0.895004  1
  P  P34  1  0.000000  0.659997  0.104996  1
  P  P35  1  0.000000  0.340003  0.104996  1
