# generated using pymatgen
data_Ca2Ga3Au
_symmetry_space_group_name_H-M   'P 1'
_cell_length_a   5.88122936
_cell_length_b   5.88122958
_cell_length_c   7.33117428
_cell_angle_alpha   50.61608242
_cell_angle_beta   50.61607945
_cell_angle_gamma   44.98159341
_symmetry_Int_Tables_number   1
_chemical_formula_structural   Ca2Ga3Au
_chemical_formula_sum   'Ca2 Ga3 Au1'
_cell_volume   130.29503936
_cell_formula_units_Z   1
loop_
 _symmetry_equiv_pos_site_id
 _symmetry_equiv_pos_as_xyz
  1  'x, y, z'
loop_
 _atom_site_type_symbol
 _atom_site_label
 _atom_site_symmetry_multiplicity
 _atom_site_fract_x
 _atom_site_fract_y
 _atom_site_fract_z
 _atom_site_occupancy
  Ca  Ca0  1  0.453683  0.453683  0.791760  1
  Ca  Ca1  1  0.546024  0.546024  0.204208  1
  Ga  Ga2  1  0.161558  0.161558  0.393895  1
  Ga  Ga3  1  0.165854  0.165854  0.769423  1
  Ga  Ga4  1  0.837043  0.837043  0.220799  1
  Au  Au5  1  0.835837  0.835837  0.619915  1
