# generated using pymatgen
data_Ho6TcB14Ru
_symmetry_space_group_name_H-M   'P 1'
_cell_length_a   8.03676519
_cell_length_b   8.03676606
_cell_length_c   9.29970600
_cell_angle_alpha   90.00000000
_cell_angle_beta   90.00000000
_cell_angle_gamma   154.68801040
_symmetry_Int_Tables_number   1
_chemical_formula_structural   Ho6TcB14Ru
_chemical_formula_sum   'Ho6 Tc1 B14 Ru1'
_cell_volume   256.81224662
_cell_formula_units_Z   1
loop_
 _symmetry_equiv_pos_site_id
 _symmetry_equiv_pos_as_xyz
  1  'x, y, z'
loop_
 _atom_site_type_symbol
 _atom_site_label
 _atom_site_symmetry_multiplicity
 _atom_site_fract_x
 _atom_site_fract_y
 _atom_site_fract_z
 _atom_site_occupancy
  Ho  Ho0  1  0.105435  0.894565  0.061627  1
  Ho  Ho1  1  0.894558  0.105442  0.940130  1
  Ho  Ho2  1  0.757464  0.242536  0.250000  1
  Ho  Ho3  1  0.243099  0.756901  0.750000  1
  Ho  Ho4  1  0.105435  0.894565  0.438373  1
  Ho  Ho5  1  0.894558  0.105442  0.559870  1
  Tc  Tc6  1  0.946949  0.053051  0.250000  1
  B  B7  1  0.726990  0.273010  0.534355  1
  B  B8  1  0.272428  0.727572  0.466584  1
  B  B9  1  0.272428  0.727572  0.033416  1
  B  B10  1  0.726990  0.273010  0.965645  1
  B  B11  1  0.520628  0.479372  0.904068  1
  B  B12  1  0.479414  0.520586  0.095104  1
  B  B13  1  0.479414  0.520586  0.404896  1
  B  B14  1  0.520628  0.479372  0.595932  1
  B  B15  1  0.457231  0.542769  0.750000  1
  B  B16  1  0.543398  0.456602  0.250000  1
  B  B17  1  0.631661  0.368339  0.651054  1
  B  B18  1  0.367753  0.632247  0.349242  1
  B  B19  1  0.367753  0.632247  0.150758  1
  B  B20  1  0.631661  0.368339  0.848946  1
  Ru  Ru21  1  0.054129  0.945871  0.750000  1
