# generated using pymatgen
data_TmPa3Co3NiGe4
_symmetry_space_group_name_H-M   'P 1'
_cell_length_a   4.26463400
_cell_length_b   6.94728074
_cell_length_c   7.12046382
_cell_angle_alpha   90.17945488
_cell_angle_beta   90.00000000
_cell_angle_gamma   90.00000000
_symmetry_Int_Tables_number   1
_chemical_formula_structural   TmPa3Co3NiGe4
_chemical_formula_sum   'Tm1 Pa3 Co3 Ni1 Ge4'
_cell_volume   210.96128760
_cell_formula_units_Z   1
loop_
 _symmetry_equiv_pos_site_id
 _symmetry_equiv_pos_as_xyz
  1  'x, y, z'
loop_
 _atom_site_type_symbol
 _atom_site_label
 _atom_site_symmetry_multiplicity
 _atom_site_fract_x
 _atom_site_fract_y
 _atom_site_fract_z
 _atom_site_occupancy
  Tm  Tm0  1  0.750000  0.493574  0.287581  1
  Pa  Pa1  1  0.250000  0.009792  0.796783  1
  Pa  Pa2  1  0.250000  0.522829  0.712087  1
  Pa  Pa3  1  0.750000  0.990779  0.206927  1
  Co  Co4  1  0.250000  0.772955  0.433180  1
  Co  Co5  1  0.250000  0.256030  0.063045  1
  Co  Co6  1  0.750000  0.717796  0.918124  1
  Ni  Ni7  1  0.750000  0.197565  0.580543  1
  Ge  Ge8  1  0.250000  0.209913  0.408061  1
  Ge  Ge9  1  0.250000  0.704216  0.096608  1
  Ge  Ge10  1  0.750000  0.809945  0.584907  1
  Ge  Ge11  1  0.750000  0.314605  0.912153  1
