# generated using pymatgen
data_Tb4Mo2(OsRu)3
_symmetry_space_group_name_H-M   'P 1'
_cell_length_a   5.22468339
_cell_length_b   5.19447060
_cell_length_c   9.13606700
_cell_angle_alpha   90.00000000
_cell_angle_beta   90.00000000
_cell_angle_gamma   115.63823282
_symmetry_Int_Tables_number   1
_chemical_formula_structural   Tb4Mo2(OsRu)3
_chemical_formula_sum   'Tb4 Mo2 Os3 Ru3'
_cell_volume   223.53599912
_cell_formula_units_Z   1
loop_
 _symmetry_equiv_pos_site_id
 _symmetry_equiv_pos_as_xyz
  1  'x, y, z'
loop_
 _atom_site_type_symbol
 _atom_site_label
 _atom_site_symmetry_multiplicity
 _atom_site_fract_x
 _atom_site_fract_y
 _atom_site_fract_z
 _atom_site_occupancy
  Tb  Tb0  1  0.330214  0.669879  0.433792  1
  Tb  Tb1  1  0.670156  0.330638  0.565947  1
  Tb  Tb2  1  0.670156  0.330638  0.934053  1
  Tb  Tb3  1  0.330214  0.669879  0.066208  1
  Mo  Mo4  1  0.837538  0.157259  0.250000  1
  Mo  Mo5  1  0.154347  0.833610  0.750000  1
  Os  Os6  1  0.826197  0.648673  0.250000  1
  Os  Os7  1  0.348152  0.172323  0.250000  1
  Os  Os8  1  0.168159  0.346049  0.750000  1
  Ru  Ru9  1  0.009084  0.007812  0.500619  1
  Ru  Ru10  1  0.009084  0.007812  0.999381  1
  Ru  Ru11  1  0.646698  0.825429  0.750000  1
