# generated using pymatgen
data_NdEr4(In2Au)2
_symmetry_space_group_name_H-M   'P 1'
_cell_length_a   3.65061800
_cell_length_b   8.23310800
_cell_length_c   18.48074600
_cell_angle_alpha   90.00000000
_cell_angle_beta   90.00000000
_cell_angle_gamma   90.00000000
_symmetry_Int_Tables_number   1
_chemical_formula_structural   NdEr4(In2Au)2
_chemical_formula_sum   'Nd2 Er8 In8 Au4'
_cell_volume   555.45604990
_cell_formula_units_Z   2
loop_
 _symmetry_equiv_pos_site_id
 _symmetry_equiv_pos_as_xyz
  1  'x, y, z'
loop_
 _atom_site_type_symbol
 _atom_site_label
 _atom_site_symmetry_multiplicity
 _atom_site_fract_x
 _atom_site_fract_y
 _atom_site_fract_z
 _atom_site_occupancy
  Nd  Nd0  1  0.000000  0.500000  0.500000  1
  Nd  Nd1  1  0.000000  0.000000  0.000000  1
  Er  Er2  1  0.000000  0.736224  0.282650  1
  Er  Er3  1  0.000000  0.263776  0.717350  1
  Er  Er4  1  0.000000  0.763776  0.782650  1
  Er  Er5  1  0.000000  0.236224  0.217350  1
  Er  Er6  1  0.000000  0.622104  0.080975  1
  Er  Er7  1  0.000000  0.377896  0.919025  1
  Er  Er8  1  0.000000  0.877896  0.580975  1
  Er  Er9  1  0.000000  0.122104  0.419025  1
  In  In10  1  0.500000  0.702560  0.932482  1
  In  In11  1  0.500000  0.297440  0.067518  1
  In  In12  1  0.500000  0.797440  0.432482  1
  In  In13  1  0.500000  0.202560  0.567518  1
  In  In14  1  0.500000  0.583031  0.650376  1
  In  In15  1  0.500000  0.416969  0.349624  1
  In  In16  1  0.500000  0.916969  0.150376  1
  In  In17  1  0.500000  0.083031  0.849624  1
  Au  Au18  1  0.500000  0.525900  0.196643  1
  Au  Au19  1  0.500000  0.474100  0.803357  1
  Au  Au20  1  0.500000  0.974100  0.696643  1
  Au  Au21  1  0.500000  0.025900  0.303357  1
