# generated using pymatgen
data_Pr2SN
_symmetry_space_group_name_H-M   'P 1'
_cell_length_a   3.83704100
_cell_length_b   6.60470547
_cell_length_c   6.98213454
_cell_angle_alpha   71.44452437
_cell_angle_beta   90.00000000
_cell_angle_gamma   90.00000000
_symmetry_Int_Tables_number   1
_chemical_formula_structural   Pr2SN
_chemical_formula_sum   'Pr4 S2 N2'
_cell_volume   167.74661666
_cell_formula_units_Z   2
loop_
 _symmetry_equiv_pos_site_id
 _symmetry_equiv_pos_as_xyz
  1  'x, y, z'
loop_
 _atom_site_type_symbol
 _atom_site_label
 _atom_site_symmetry_multiplicity
 _atom_site_fract_x
 _atom_site_fract_y
 _atom_site_fract_z
 _atom_site_occupancy
  Pr  Pr0  1  0.500000  0.738726  0.288051  1
  Pr  Pr1  1  0.000000  0.238304  0.287955  1
  Pr  Pr2  1  0.500000  0.261274  0.711949  1
  Pr  Pr3  1  0.000000  0.761696  0.712045  1
  S  S4  1  0.500000  0.500000  0.000000  1
  S  S5  1  0.000000  0.000000  0.000000  1
  N  N6  1  0.000000  0.500000  0.500000  1
  N  N7  1  0.500000  0.000000  0.500000  1
