# generated using pymatgen
data_Tm4MnCrC4
_symmetry_space_group_name_H-M   'P 1'
_cell_length_a   4.96064000
_cell_length_b   6.33269800
_cell_length_c   9.60994300
_cell_angle_alpha   90.00000000
_cell_angle_beta   90.00000000
_cell_angle_gamma   90.00000000
_symmetry_Int_Tables_number   1
_chemical_formula_structural   Tm4MnCrC4
_chemical_formula_sum   'Tm8 Mn2 Cr2 C8'
_cell_volume   301.88900780
_cell_formula_units_Z   2
loop_
 _symmetry_equiv_pos_site_id
 _symmetry_equiv_pos_as_xyz
  1  'x, y, z'
loop_
 _atom_site_type_symbol
 _atom_site_label
 _atom_site_symmetry_multiplicity
 _atom_site_fract_x
 _atom_site_fract_y
 _atom_site_fract_z
 _atom_site_occupancy
  Tm  Tm0  1  0.250000  0.817466  0.944991  1
  Tm  Tm1  1  0.250000  0.317466  0.555009  1
  Tm  Tm2  1  0.750000  0.181530  0.057019  1
  Tm  Tm3  1  0.750000  0.681530  0.442981  1
  Tm  Tm4  1  0.250000  0.471795  0.216589  1
  Tm  Tm5  1  0.250000  0.971795  0.283411  1
  Tm  Tm6  1  0.750000  0.529982  0.782471  1
  Tm  Tm7  1  0.750000  0.029982  0.717529  1
  Mn  Mn8  1  0.750000  0.727647  0.142228  1
  Mn  Mn9  1  0.750000  0.227647  0.357772  1
  Cr  Cr10  1  0.250000  0.272691  0.861470  1
  Cr  Cr11  1  0.250000  0.772691  0.638530  1
  C  C12  1  0.250000  0.040229  0.738533  1
  C  C13  1  0.250000  0.540229  0.761467  1
  C  C14  1  0.750000  0.960655  0.260537  1
  C  C15  1  0.750000  0.460655  0.239463  1
  C  C16  1  0.250000  0.687853  0.457424  1
  C  C17  1  0.250000  0.187853  0.042576  1
  C  C18  1  0.750000  0.310154  0.536807  1
  C  C19  1  0.750000  0.810154  0.963193  1
