# generated using pymatgen
data_Lu12ZnCo4Sb
_symmetry_space_group_name_H-M   'P 1'
_cell_length_a   8.12051600
_cell_length_b   8.12051449
_cell_length_c   8.12051574
_cell_angle_alpha   111.92221904
_cell_angle_beta   109.21108600
_cell_angle_gamma   107.31369439
_symmetry_Int_Tables_number   1
_chemical_formula_structural   Lu12ZnCo4Sb
_chemical_formula_sum   'Lu12 Zn1 Co4 Sb1'
_cell_volume   411.54348983
_cell_formula_units_Z   1
loop_
 _symmetry_equiv_pos_site_id
 _symmetry_equiv_pos_as_xyz
  1  'x, y, z'
loop_
 _atom_site_type_symbol
 _atom_site_label
 _atom_site_symmetry_multiplicity
 _atom_site_fract_x
 _atom_site_fract_y
 _atom_site_fract_z
 _atom_site_occupancy
  Lu  Lu0  1  0.432370  0.228902  0.203466  1
  Lu  Lu1  1  0.567630  0.771098  0.796534  1
  Lu  Lu2  1  0.025435  0.228902  0.796534  1
  Lu  Lu3  1  0.974565  0.771098  0.203466  1
  Lu  Lu4  1  0.179730  0.280663  0.460394  1
  Lu  Lu5  1  0.820270  0.719337  0.539606  1
  Lu  Lu6  1  0.179730  0.719337  0.899067  1
  Lu  Lu7  1  0.820270  0.280663  0.100933  1
  Lu  Lu8  1  0.322605  0.633327  0.310723  1
  Lu  Lu9  1  0.677395  0.366673  0.689277  1
  Lu  Lu10  1  0.322605  0.011882  0.689277  1
  Lu  Lu11  1  0.677395  0.988118  0.310723  1
  Zn  Zn12  1  0.000000  0.000000  0.000000  1
  Co  Co13  1  0.351713  0.000000  0.351713  1
  Co  Co14  1  0.648287  0.000000  0.648287  1
  Co  Co15  1  0.115280  0.615280  0.500000  1
  Co  Co16  1  0.884720  0.384720  0.500000  1
  Sb  Sb17  1  0.500000  0.500000  0.000000  1
