# generated using pymatgen
data_YHo4(Tl2Pd)2
_symmetry_space_group_name_H-M   'P 1'
_cell_length_a   3.60606100
_cell_length_b   8.15994400
_cell_length_c   18.24007700
_cell_angle_alpha   90.00000000
_cell_angle_beta   90.00000000
_cell_angle_gamma   90.00000000
_symmetry_Int_Tables_number   1
_chemical_formula_structural   YHo4(Tl2Pd)2
_chemical_formula_sum   'Y2 Ho8 Tl8 Pd4'
_cell_volume   536.71893191
_cell_formula_units_Z   2
loop_
 _symmetry_equiv_pos_site_id
 _symmetry_equiv_pos_as_xyz
  1  'x, y, z'
loop_
 _atom_site_type_symbol
 _atom_site_label
 _atom_site_symmetry_multiplicity
 _atom_site_fract_x
 _atom_site_fract_y
 _atom_site_fract_z
 _atom_site_occupancy
  Y  Y0  1  0.000000  0.500000  0.500000  1
  Y  Y1  1  0.000000  0.000000  0.000000  1
  Ho  Ho2  1  0.000000  0.739341  0.280785  1
  Ho  Ho3  1  0.000000  0.260659  0.719215  1
  Ho  Ho4  1  0.000000  0.760659  0.780785  1
  Ho  Ho5  1  0.000000  0.239341  0.219215  1
  Ho  Ho6  1  0.000000  0.617171  0.084104  1
  Ho  Ho7  1  0.000000  0.382829  0.915896  1
  Ho  Ho8  1  0.000000  0.882829  0.584104  1
  Ho  Ho9  1  0.000000  0.117171  0.415896  1
  Tl  Tl10  1  0.500000  0.707271  0.933132  1
  Tl  Tl11  1  0.500000  0.292729  0.066868  1
  Tl  Tl12  1  0.500000  0.792729  0.433132  1
  Tl  Tl13  1  0.500000  0.207271  0.566868  1
  Tl  Tl14  1  0.500000  0.582986  0.649680  1
  Tl  Tl15  1  0.500000  0.417014  0.350320  1
  Tl  Tl16  1  0.500000  0.917014  0.149680  1
  Tl  Tl17  1  0.500000  0.082986  0.850320  1
  Pd  Pd18  1  0.500000  0.524358  0.195762  1
  Pd  Pd19  1  0.500000  0.475642  0.804238  1
  Pd  Pd20  1  0.500000  0.975642  0.695762  1
  Pd  Pd21  1  0.500000  0.024358  0.304238  1
