# generated using pymatgen
data_Ho7ErSc11Si16Ag
_symmetry_space_group_name_H-M   'P 1'
_cell_length_a   7.01181867
_cell_length_b   7.38038844
_cell_length_c   13.98990808
_cell_angle_alpha   89.98890242
_cell_angle_beta   89.99518298
_cell_angle_gamma   89.85054978
_symmetry_Int_Tables_number   1
_chemical_formula_structural   Ho7ErSc11Si16Ag
_chemical_formula_sum   'Ho7 Er1 Sc11 Si16 Ag1'
_cell_volume   723.97450133
_cell_formula_units_Z   1
loop_
 _symmetry_equiv_pos_site_id
 _symmetry_equiv_pos_as_xyz
  1  'x, y, z'
loop_
 _atom_site_type_symbol
 _atom_site_label
 _atom_site_symmetry_multiplicity
 _atom_site_fract_x
 _atom_site_fract_y
 _atom_site_fract_z
 _atom_site_occupancy
  Ho  Ho0  1  0.989981  0.814454  0.901454  1
  Ho  Ho1  1  0.484705  0.673538  0.901929  1
  Ho  Ho2  1  0.989967  0.814574  0.598770  1
  Ho  Ho3  1  0.510336  0.322831  0.096812  1
  Ho  Ho4  1  0.011063  0.175656  0.403555  1
  Ho  Ho5  1  0.510391  0.322966  0.403043  1
  Ho  Ho6  1  0.484952  0.673731  0.598199  1
  Er  Er7  1  0.011121  0.175935  0.096715  1
  Sc  Sc8  1  0.838824  0.496747  0.249899  1
  Sc  Sc9  1  0.340850  0.003732  0.249908  1
  Sc  Sc10  1  0.656402  0.997466  0.750028  1
  Sc  Sc11  1  0.325073  0.182226  0.627188  1
  Sc  Sc12  1  0.671684  0.824172  0.374644  1
  Sc  Sc13  1  0.170863  0.678709  0.373658  1
  Sc  Sc14  1  0.671723  0.824320  0.125176  1
  Sc  Sc15  1  0.836337  0.327541  0.626871  1
  Sc  Sc16  1  0.325059  0.182421  0.872804  1
  Sc  Sc17  1  0.836396  0.327337  0.873253  1
  Sc  Sc18  1  0.170674  0.678713  0.126300  1
  Si  Si19  1  0.026054  0.096954  0.750106  1
  Si  Si20  1  0.970157  0.889141  0.249889  1
  Si  Si21  1  0.468475  0.616905  0.249914  1
  Si  Si22  1  0.536329  0.385320  0.750013  1
  Si  Si23  1  0.287741  0.881557  0.750041  1
  Si  Si24  1  0.714455  0.129090  0.249746  1
  Si  Si25  1  0.212492  0.370837  0.249830  1
  Si  Si26  1  0.775935  0.629477  0.750082  1
  Si  Si27  1  0.161930  0.459981  0.531399  1
  Si  Si28  1  0.842705  0.535284  0.461837  1
  Si  Si29  1  0.344669  0.965225  0.462878  1
  Si  Si30  1  0.842820  0.534925  0.038324  1
  Si  Si31  1  0.657580  0.034152  0.540259  1
  Si  Si32  1  0.161926  0.459426  0.968842  1
  Si  Si33  1  0.657400  0.034072  0.959685  1
  Si  Si34  1  0.344021  0.965425  0.037167  1
  Ag  Ag35  1  0.158909  0.515161  0.749784  1
