# generated using pymatgen
data_Ca3Yb3(SbI3)2
_symmetry_space_group_name_H-M   'P 1'
_cell_length_a   11.10001089
_cell_length_b   11.09816778
_cell_length_c   11.09816831
_cell_angle_alpha   109.58251793
_cell_angle_beta   109.47304645
_cell_angle_gamma   109.35146960
_symmetry_Int_Tables_number   1
_chemical_formula_structural   Ca3Yb3(SbI3)2
_chemical_formula_sum   'Ca6 Yb6 Sb4 I12'
_cell_volume   1052.53925214
_cell_formula_units_Z   2
loop_
 _symmetry_equiv_pos_site_id
 _symmetry_equiv_pos_as_xyz
  1  'x, y, z'
loop_
 _atom_site_type_symbol
 _atom_site_label
 _atom_site_symmetry_multiplicity
 _atom_site_fract_x
 _atom_site_fract_y
 _atom_site_fract_z
 _atom_site_occupancy
  Ca  Ca0  1  0.008981  0.017804  0.258941  1
  Ca  Ca1  1  0.491019  0.749960  0.008823  1
  Ca  Ca2  1  0.491098  0.241033  0.482206  1
  Ca  Ca3  1  0.008902  0.491109  0.749936  1
  Ca  Ca4  1  0.258880  0.008777  0.017641  1
  Ca  Ca5  1  0.241120  0.258760  0.749896  1
  Yb  Yb6  1  0.483550  0.491711  0.241764  1
  Yb  Yb7  1  0.749990  0.241825  0.258161  1
  Yb  Yb8  1  0.750010  0.008171  0.491835  1
  Yb  Yb9  1  0.241841  0.483713  0.491892  1
  Yb  Yb10  1  0.258159  0.750051  0.241872  1
  Yb  Yb11  1  0.016450  0.258214  0.008161  1
  Sb  Sb12  1  0.250032  0.250486  0.250010  1
  Sb  Sb13  1  0.500185  0.999982  0.250233  1
  Sb  Sb14  1  0.999815  0.250048  0.499797  1
  Sb  Sb15  1  0.249968  0.499978  0.000454  1
  I  I16  1  0.249969  0.751023  0.747302  1
  I  I17  1  0.502766  0.501843  0.750897  1
  I  I18  1  0.997234  0.748132  0.999078  1
  I  I19  1  0.748947  0.249090  0.751742  1
  I  I20  1  0.997316  0.997181  0.748262  1
  I  I21  1  0.250031  0.997333  0.501054  1
  I  I22  1  0.751053  0.502795  0.500142  1
  I  I23  1  0.502684  0.250946  0.999866  1
  I  I24  1  0.751085  0.748267  0.250937  1
  I  I25  1  0.748915  0.999852  0.997181  1
  I  I26  1  0.999065  0.500954  0.250025  1
  I  I27  1  0.500935  0.750960  0.501890  1
