# generated using pymatgen
data_Sr4NiRhO8
_symmetry_space_group_name_H-M   'P 1'
_cell_length_a   5.56436989
_cell_length_b   5.56437023
_cell_length_c   13.36004478
_cell_angle_alpha   101.98950725
_cell_angle_beta   101.98949553
_cell_angle_gamma   89.98552295
_symmetry_Int_Tables_number   1
_chemical_formula_structural   Sr4NiRhO8
_chemical_formula_sum   'Sr8 Ni2 Rh2 O16'
_cell_volume   395.40812177
_cell_formula_units_Z   2
loop_
 _symmetry_equiv_pos_site_id
 _symmetry_equiv_pos_as_xyz
  1  'x, y, z'
loop_
 _atom_site_type_symbol
 _atom_site_label
 _atom_site_symmetry_multiplicity
 _atom_site_fract_x
 _atom_site_fract_y
 _atom_site_fract_z
 _atom_site_occupancy
  Sr  Sr0  1  0.826249  0.824413  0.646142  1
  Sr  Sr1  1  0.074413  0.576249  0.146142  1
  Sr  Sr2  1  0.177576  0.178044  0.353836  1
  Sr  Sr3  1  0.428044  0.927576  0.853836  1
  Sr  Sr4  1  0.321589  0.320227  0.643989  1
  Sr  Sr5  1  0.570227  0.071589  0.143989  1
  Sr  Sr6  1  0.674995  0.676955  0.355996  1
  Sr  Sr7  1  0.926955  0.424995  0.855996  1
  Ni  Ni8  1  0.999890  0.999955  0.000029  1
  Ni  Ni9  1  0.249955  0.749890  0.500029  1
  Rh  Rh10  1  0.500054  0.500033  0.000012  1
  Rh  Rh11  1  0.750033  0.250054  0.500012  1
  O  O12  1  0.008342  0.480194  0.499974  1
  O  O13  1  0.913164  0.921458  0.835871  1
  O  O14  1  0.084848  0.075691  0.164127  1
  O  O15  1  0.171458  0.663164  0.335871  1
  O  O16  1  0.325691  0.834848  0.664127  1
  O  O17  1  0.240949  0.729086  0.997388  1
  O  O18  1  0.270158  0.242293  0.000084  1
  O  O19  1  0.492293  0.020158  0.500084  1
  O  O20  1  0.521535  0.509514  0.502551  1
  O  O21  1  0.424332  0.417161  0.839292  1
  O  O22  1  0.576618  0.584677  0.160711  1
  O  O23  1  0.667161  0.174332  0.339292  1
  O  O24  1  0.834677  0.326618  0.660711  1
  O  O25  1  0.730194  0.758342  0.999974  1
  O  O26  1  0.759514  0.271535  0.002551  1
  O  O27  1  0.979086  0.990949  0.497388  1
