# generated using pymatgen
data_GdLuSi2O7
_symmetry_space_group_name_H-M   'P 1'
_cell_length_a   5.67561516
_cell_length_b   5.67561492
_cell_length_c   4.77002776
_cell_angle_alpha   82.85580416
_cell_angle_beta   82.85580245
_cell_angle_gamma   105.24338423
_symmetry_Int_Tables_number   1
_chemical_formula_structural   GdLuSi2O7
_chemical_formula_sum   'Gd1 Lu1 Si2 O7'
_cell_volume   145.10483654
_cell_formula_units_Z   1
loop_
 _symmetry_equiv_pos_site_id
 _symmetry_equiv_pos_as_xyz
  1  'x, y, z'
loop_
 _atom_site_type_symbol
 _atom_site_label
 _atom_site_symmetry_multiplicity
 _atom_site_fract_x
 _atom_site_fract_y
 _atom_site_fract_z
 _atom_site_occupancy
  Gd  Gd0  1  0.301949  0.698051  0.000000  1
  Lu  Lu1  1  0.687763  0.312237  0.000000  1
  Si  Si2  1  0.783285  0.781668  0.411612  1
  Si  Si3  1  0.218332  0.216715  0.588388  1
  O  O4  1  0.393841  0.101032  0.784453  1
  O  O5  1  0.898968  0.606159  0.215547  1
  O  O6  1  0.625483  0.930912  0.225737  1
  O  O7  1  0.069088  0.374517  0.774263  1
  O  O8  1  0.022548  0.977452  0.500000  1
  O  O9  1  0.379947  0.381203  0.285330  1
  O  O10  1  0.618797  0.620053  0.714670  1
