# generated using pymatgen
data_ScZn3CdCo
_symmetry_space_group_name_H-M   'P 1'
_cell_length_a   5.11169217
_cell_length_b   5.11169280
_cell_length_c   5.08231253
_cell_angle_alpha   59.80859907
_cell_angle_beta   59.80859188
_cell_angle_gamma   60.00000406
_symmetry_Int_Tables_number   1
_chemical_formula_structural   ScZn3CdCo
_chemical_formula_sum   'Sc1 Zn3 Cd1 Co1'
_cell_volume   93.62962761
_cell_formula_units_Z   1
loop_
 _symmetry_equiv_pos_site_id
 _symmetry_equiv_pos_as_xyz
  1  'x, y, z'
loop_
 _atom_site_type_symbol
 _atom_site_label
 _atom_site_symmetry_multiplicity
 _atom_site_fract_x
 _atom_site_fract_y
 _atom_site_fract_z
 _atom_site_occupancy
  Sc  Sc0  1  0.253925  0.253925  0.238227  1
  Zn  Zn1  1  0.625659  0.123694  0.624987  1
  Zn  Zn2  1  0.123694  0.625659  0.624987  1
  Zn  Zn3  1  0.625659  0.625659  0.624987  1
  Cd  Cd4  1  0.997557  0.997557  0.007329  1
  Co  Co5  1  0.623506  0.623506  0.129483  1
