# generated using pymatgen
data_Ho7Er3Sn5Bi
_symmetry_space_group_name_H-M   'P 1'
_cell_length_a   8.95141601
_cell_length_b   8.95360592
_cell_length_c   6.49160101
_cell_angle_alpha   90.00542167
_cell_angle_beta   89.99729258
_cell_angle_gamma   119.99473537
_symmetry_Int_Tables_number   1
_chemical_formula_structural   Ho7Er3Sn5Bi
_chemical_formula_sum   'Ho7 Er3 Sn5 Bi1'
_cell_volume   450.60416531
_cell_formula_units_Z   1
loop_
 _symmetry_equiv_pos_site_id
 _symmetry_equiv_pos_as_xyz
  1  'x, y, z'
loop_
 _atom_site_type_symbol
 _atom_site_label
 _atom_site_symmetry_multiplicity
 _atom_site_fract_x
 _atom_site_fract_y
 _atom_site_fract_z
 _atom_site_occupancy
  Ho  Ho0  1  0.993542  0.757546  0.750054  1
  Ho  Ho1  1  0.000574  0.239010  0.249966  1
  Ho  Ho2  1  0.761583  0.760945  0.249967  1
  Ho  Ho3  1  0.764961  0.000012  0.750036  1
  Ho  Ho4  1  0.235994  0.242425  0.750050  1
  Ho  Ho5  1  0.237719  0.000003  0.249975  1
  Ho  Ho6  1  0.332799  0.662266  0.498246  1
  Er  Er7  1  0.670594  0.337816  0.001794  1
  Er  Er8  1  0.670642  0.337845  0.498198  1
  Er  Er9  1  0.332792  0.662182  0.001753  1
  Sn  Sn10  1  0.395768  0.393218  0.249846  1
  Sn  Sn11  1  0.002235  0.606624  0.249846  1
  Sn  Sn12  1  0.998991  0.395800  0.750149  1
  Sn  Sn13  1  0.603341  0.604005  0.750141  1
  Sn  Sn14  1  0.605396  0.000158  0.249860  1
  Bi  Bi15  1  0.393067  0.000145  0.750118  1
