# generated using pymatgen
data_Nd2GaIrI2
_symmetry_space_group_name_H-M   'P 1'
_cell_length_a   4.36113000
_cell_length_b   4.36113105
_cell_length_c   11.84187600
_cell_angle_alpha   90.00000000
_cell_angle_beta   90.00000000
_cell_angle_gamma   120.00000723
_symmetry_Int_Tables_number   1
_chemical_formula_structural   Nd2GaIrI2
_chemical_formula_sum   'Nd2 Ga1 Ir1 I2'
_cell_volume   195.05149289
_cell_formula_units_Z   1
loop_
 _symmetry_equiv_pos_site_id
 _symmetry_equiv_pos_as_xyz
  1  'x, y, z'
loop_
 _atom_site_type_symbol
 _atom_site_label
 _atom_site_symmetry_multiplicity
 _atom_site_fract_x
 _atom_site_fract_y
 _atom_site_fract_z
 _atom_site_occupancy
  Nd  Nd0  1  0.000000  0.000000  0.338976  1
  Nd  Nd1  1  0.000000  0.000000  0.660241  1
  Ga  Ga2  1  0.666666  0.333333  0.500225  1
  Ir  Ir3  1  0.333333  0.666667  0.500693  1
  I  I4  1  0.666666  0.333333  0.157988  1
  I  I5  1  0.333333  0.666667  0.841878  1
