# generated using pymatgen
data_NdYHo8(In2Pd)4
_symmetry_space_group_name_H-M   'P 1'
_cell_length_a   3.62260800
_cell_length_b   8.16775837
_cell_length_c   18.31629589
_cell_angle_alpha   90.11881806
_cell_angle_beta   90.00000000
_cell_angle_gamma   90.00000000
_symmetry_Int_Tables_number   1
_chemical_formula_structural   NdYHo8(In2Pd)4
_chemical_formula_sum   'Nd1 Y1 Ho8 In8 Pd4'
_cell_volume   541.95214578
_cell_formula_units_Z   1
loop_
 _symmetry_equiv_pos_site_id
 _symmetry_equiv_pos_as_xyz
  1  'x, y, z'
loop_
 _atom_site_type_symbol
 _atom_site_label
 _atom_site_symmetry_multiplicity
 _atom_site_fract_x
 _atom_site_fract_y
 _atom_site_fract_z
 _atom_site_occupancy
  Nd  Nd0  1  0.000000  0.500000  0.500000  1
  Y  Y1  1  0.000000  0.000000  0.000000  1
  Ho  Ho2  1  0.000000  0.740091  0.280636  1
  Ho  Ho3  1  0.000000  0.259909  0.719364  1
  Ho  Ho4  1  0.000000  0.761196  0.782252  1
  Ho  Ho5  1  0.000000  0.238804  0.217748  1
  Ho  Ho6  1  0.000000  0.617961  0.083714  1
  Ho  Ho7  1  0.000000  0.382039  0.916286  1
  Ho  Ho8  1  0.000000  0.878701  0.584264  1
  Ho  Ho9  1  0.000000  0.121299  0.415736  1
  In  In10  1  0.500000  0.706117  0.932938  1
  In  In11  1  0.500000  0.293883  0.067062  1
  In  In12  1  0.500000  0.799418  0.431310  1
  In  In13  1  0.500000  0.200582  0.568690  1
  In  In14  1  0.500000  0.581644  0.653509  1
  In  In15  1  0.500000  0.418356  0.346491  1
  In  In16  1  0.500000  0.919229  0.150468  1
  In  In17  1  0.500000  0.080771  0.849532  1
  Pd  Pd18  1  0.500000  0.523627  0.195061  1
  Pd  Pd19  1  0.500000  0.476373  0.804939  1
  Pd  Pd20  1  0.500000  0.975469  0.696622  1
  Pd  Pd21  1  0.500000  0.024531  0.303378  1
