# generated using pymatgen
data_La2Sc2ReB12Os
_symmetry_space_group_name_H-M   'P 1'
_cell_length_a   3.66449700
_cell_length_b   9.12866327
_cell_length_c   11.62956770
_cell_angle_alpha   90.06604736
_cell_angle_beta   90.00000000
_cell_angle_gamma   90.00000000
_symmetry_Int_Tables_number   1
_chemical_formula_structural   La2Sc2ReB12Os
_chemical_formula_sum   'La4 Sc4 Re2 B24 Os2'
_cell_volume   389.03156554
_cell_formula_units_Z   2
loop_
 _symmetry_equiv_pos_site_id
 _symmetry_equiv_pos_as_xyz
  1  'x, y, z'
loop_
 _atom_site_type_symbol
 _atom_site_label
 _atom_site_symmetry_multiplicity
 _atom_site_fract_x
 _atom_site_fract_y
 _atom_site_fract_z
 _atom_site_occupancy
  La  La0  1  0.000000  0.321760  0.415277  1
  La  La1  1  0.000000  0.678240  0.584723  1
  La  La2  1  0.000000  0.823398  0.083962  1
  La  La3  1  0.000000  0.176602  0.916038  1
  Sc  Sc4  1  0.000000  0.947030  0.370622  1
  Sc  Sc5  1  0.000000  0.052970  0.629378  1
  Sc  Sc6  1  0.000000  0.443167  0.128427  1
  Sc  Sc7  1  0.000000  0.556833  0.871573  1
  Re  Re8  1  0.000000  0.143244  0.184865  1
  Re  Re9  1  0.000000  0.856756  0.815135  1
  B  B10  1  0.500000  0.559594  0.426447  1
  B  B11  1  0.500000  0.440406  0.573553  1
  B  B12  1  0.500000  0.058592  0.073135  1
  B  B13  1  0.500000  0.941408  0.926865  1
  B  B14  1  0.500000  0.754908  0.413689  1
  B  B15  1  0.500000  0.245092  0.586311  1
  B  B16  1  0.500000  0.255001  0.086018  1
  B  B17  1  0.500000  0.744999  0.913982  1
  B  B18  1  0.500000  0.794216  0.265315  1
  B  B19  1  0.500000  0.205784  0.734685  1
  B  B20  1  0.500000  0.295113  0.234774  1
  B  B21  1  0.500000  0.704887  0.765226  1
  B  B22  1  0.500000  0.628869  0.183855  1
  B  B23  1  0.500000  0.371131  0.816145  1
  B  B24  1  0.500000  0.129376  0.316920  1
  B  B25  1  0.500000  0.870624  0.683080  1
  B  B26  1  0.500000  0.985118  0.216608  1
  B  B27  1  0.500000  0.014882  0.783392  1
  B  B28  1  0.500000  0.485518  0.284265  1
  B  B29  1  0.500000  0.514482  0.715735  1
  B  B30  1  0.500000  0.594049  0.024845  1
  B  B31  1  0.500000  0.405951  0.975155  1
  B  B32  1  0.500000  0.094661  0.475577  1
  B  B33  1  0.500000  0.905339  0.524423  1
  Os  Os34  1  0.000000  0.642801  0.315639  1
  Os  Os35  1  0.000000  0.357199  0.684361  1
