# generated using pymatgen
data_Dy16Tl3InRuRh3
_symmetry_space_group_name_H-M   'P 1'
_cell_length_a   9.68370783
_cell_length_b   9.68370821
_cell_length_c   9.68370828
_cell_angle_alpha   59.97237590
_cell_angle_beta   59.97237347
_cell_angle_gamma   59.97237730
_symmetry_Int_Tables_number   1
_chemical_formula_structural   Dy16Tl3InRuRh3
_chemical_formula_sum   'Dy16 Tl3 In1 Ru1 Rh3'
_cell_volume   641.70871125
_cell_formula_units_Z   1
loop_
 _symmetry_equiv_pos_site_id
 _symmetry_equiv_pos_as_xyz
  1  'x, y, z'
loop_
 _atom_site_type_symbol
 _atom_site_label
 _atom_site_symmetry_multiplicity
 _atom_site_fract_x
 _atom_site_fract_y
 _atom_site_fract_z
 _atom_site_occupancy
  Dy  Dy0  1  0.686717  0.312031  0.312031  1
  Dy  Dy1  1  0.689448  0.689448  0.312298  1
  Dy  Dy2  1  0.312031  0.686717  0.312031  1
  Dy  Dy3  1  0.936960  0.936960  0.563681  1
  Dy  Dy4  1  0.150008  0.150008  0.547114  1
  Dy  Dy5  1  0.559587  0.942414  0.559587  1
  Dy  Dy6  1  0.151550  0.151550  0.151550  1
  Dy  Dy7  1  0.312031  0.312031  0.686717  1
  Dy  Dy8  1  0.942414  0.559587  0.559587  1
  Dy  Dy9  1  0.559587  0.559587  0.942414  1
  Dy  Dy10  1  0.563681  0.936960  0.936960  1
  Dy  Dy11  1  0.936960  0.563681  0.936960  1
  Dy  Dy12  1  0.150008  0.547114  0.150008  1
  Dy  Dy13  1  0.312298  0.689448  0.689448  1
  Dy  Dy14  1  0.689448  0.312298  0.689448  1
  Dy  Dy15  1  0.547114  0.150008  0.150008  1
  Tl  Tl16  1  0.915290  0.915290  0.254716  1
  Tl  Tl17  1  0.254716  0.915290  0.915290  1
  Tl  Tl18  1  0.915290  0.254716  0.915290  1
  In  In19  1  0.916915  0.916915  0.916915  1
  Ru  Ru20  1  0.357039  0.357039  0.357039  1
  Rh  Rh21  1  0.925092  0.357910  0.357910  1
  Rh  Rh22  1  0.357910  0.357910  0.925092  1
  Rh  Rh23  1  0.357910  0.925092  0.357910  1
