# generated using pymatgen
data_Ca3Dy(NbN3)2
_symmetry_space_group_name_H-M   'P 1'
_cell_length_a   5.70303870
_cell_length_b   5.70303830
_cell_length_c   5.90892545
_cell_angle_alpha   99.34105708
_cell_angle_beta   99.34105886
_cell_angle_gamma   119.92339941
_symmetry_Int_Tables_number   1
_chemical_formula_structural   Ca3Dy(NbN3)2
_chemical_formula_sum   'Ca3 Dy1 Nb2 N6'
_cell_volume   157.56690788
_cell_formula_units_Z   1
loop_
 _symmetry_equiv_pos_site_id
 _symmetry_equiv_pos_as_xyz
  1  'x, y, z'
loop_
 _atom_site_type_symbol
 _atom_site_label
 _atom_site_symmetry_multiplicity
 _atom_site_fract_x
 _atom_site_fract_y
 _atom_site_fract_z
 _atom_site_occupancy
  Ca  Ca0  1  0.833776  0.166224  0.500000  1
  Ca  Ca1  1  0.166224  0.833776  0.500000  1
  Ca  Ca2  1  0.500000  0.500000  0.500000  1
  Dy  Dy3  1  0.000000  0.000000  0.000000  1
  Nb  Nb4  1  0.332875  0.667125  0.000000  1
  Nb  Nb5  1  0.667125  0.332875  0.000000  1
  N  N6  1  0.425729  0.071099  0.215639  1
  N  N7  1  0.928901  0.574271  0.784361  1
  N  N8  1  0.574271  0.928901  0.784361  1
  N  N9  1  0.071099  0.425729  0.215639  1
  N  N10  1  0.717656  0.717656  0.215499  1
  N  N11  1  0.282344  0.282344  0.784501  1
