# generated using pymatgen
data_Ac2HgGe2
_symmetry_space_group_name_H-M   'P 1'
_cell_length_a   8.29697200
_cell_length_b   8.29697200
_cell_length_c   4.31582300
_cell_angle_alpha   90.00000000
_cell_angle_beta   90.00000000
_cell_angle_gamma   90.00000000
_symmetry_Int_Tables_number   1
_chemical_formula_structural   Ac2HgGe2
_chemical_formula_sum   'Ac4 Hg2 Ge4'
_cell_volume   297.10015206
_cell_formula_units_Z   2
loop_
 _symmetry_equiv_pos_site_id
 _symmetry_equiv_pos_as_xyz
  1  'x, y, z'
loop_
 _atom_site_type_symbol
 _atom_site_label
 _atom_site_symmetry_multiplicity
 _atom_site_fract_x
 _atom_site_fract_y
 _atom_site_fract_z
 _atom_site_occupancy
  Ac  Ac0  1  0.311874  0.188126  0.500001  1
  Ac  Ac1  1  0.811874  0.311874  0.500001  1
  Ac  Ac2  1  0.188126  0.688126  0.500001  1
  Ac  Ac3  1  0.688126  0.811874  0.500001  1
  Hg  Hg4  1  0.000000  0.000000  0.000000  1
  Hg  Hg5  1  0.500000  0.500000  0.000000  1
  Ge  Ge6  1  0.606023  0.106023  0.000000  1
  Ge  Ge7  1  0.106023  0.393977  0.000000  1
  Ge  Ge8  1  0.893977  0.606023  0.000000  1
  Ge  Ge9  1  0.393977  0.893977  0.000000  1
