# generated using pymatgen
data_La5Yb(CeRu)4
_symmetry_space_group_name_H-M   'P 1'
_cell_length_a   9.17580186
_cell_length_b   9.17580206
_cell_length_c   7.19313100
_cell_angle_alpha   86.12622265
_cell_angle_beta   86.12622882
_cell_angle_gamma   41.99011953
_symmetry_Int_Tables_number   1
_chemical_formula_structural   La5Yb(CeRu)4
_chemical_formula_sum   'La5 Yb1 Ce4 Ru4'
_cell_volume   404.10450212
_cell_formula_units_Z   1
loop_
 _symmetry_equiv_pos_site_id
 _symmetry_equiv_pos_as_xyz
  1  'x, y, z'
loop_
 _atom_site_type_symbol
 _atom_site_label
 _atom_site_symmetry_multiplicity
 _atom_site_fract_x
 _atom_site_fract_y
 _atom_site_fract_z
 _atom_site_occupancy
  La  La0  1  0.351279  0.217683  0.825817  1
  La  La1  1  0.782317  0.648721  0.674183  1
  La  La2  1  0.645581  0.781891  0.175239  1
  La  La3  1  0.218109  0.354419  0.324761  1
  La  La4  1  0.576417  0.423583  0.750000  1
  Yb  Yb5  1  0.422624  0.577376  0.250000  1
  Ce  Ce6  1  0.005286  0.814791  0.900182  1
  Ce  Ce7  1  0.185209  0.994714  0.599818  1
  Ce  Ce8  1  0.990845  0.188635  0.098931  1
  Ce  Ce9  1  0.811365  0.009155  0.401069  1
  Ru  Ru10  1  0.139841  0.643958  0.600645  1
  Ru  Ru11  1  0.356042  0.860159  0.899355  1
  Ru  Ru12  1  0.865660  0.350572  0.400098  1
  Ru  Ru13  1  0.649428  0.134340  0.099902  1
