# generated using pymatgen
data_Ta4FeCo3BP3
_symmetry_space_group_name_H-M   'P 1'
_cell_length_a   3.51907700
_cell_length_b   6.05410249
_cell_length_c   6.92896000
_cell_angle_alpha   90.40825934
_cell_angle_beta   90.00000000
_cell_angle_gamma   90.00000000
_symmetry_Int_Tables_number   1
_chemical_formula_structural   Ta4FeCo3BP3
_chemical_formula_sum   'Ta4 Fe1 Co3 B1 P3'
_cell_volume   147.61672557
_cell_formula_units_Z   1
loop_
 _symmetry_equiv_pos_site_id
 _symmetry_equiv_pos_as_xyz
  1  'x, y, z'
loop_
 _atom_site_type_symbol
 _atom_site_label
 _atom_site_symmetry_multiplicity
 _atom_site_fract_x
 _atom_site_fract_y
 _atom_site_fract_z
 _atom_site_occupancy
  Ta  Ta0  1  0.250000  0.033493  0.833018  1
  Ta  Ta1  1  0.250000  0.525401  0.674340  1
  Ta  Ta2  1  0.750000  0.990344  0.174364  1
  Ta  Ta3  1  0.750000  0.464941  0.313359  1
  Fe  Fe4  1  0.750000  0.859209  0.561262  1
  Co  Co5  1  0.250000  0.143349  0.433459  1
  Co  Co6  1  0.250000  0.637460  0.063894  1
  Co  Co7  1  0.750000  0.356791  0.945542  1
  B  B8  1  0.250000  0.268679  0.122072  1
  P  P9  1  0.250000  0.770869  0.377117  1
  P  P10  1  0.750000  0.725821  0.880239  1
  P  P11  1  0.750000  0.223643  0.621334  1
