# generated using pymatgen
data_Sr2BeN2
_symmetry_space_group_name_H-M   'P 1'
_cell_length_a   3.84109819
_cell_length_b   3.84097781
_cell_length_c   6.53464639
_cell_angle_alpha   107.09119814
_cell_angle_beta   107.09173548
_cell_angle_gamma   90.00000887
_symmetry_Int_Tables_number   1
_chemical_formula_structural   Sr2BeN2
_chemical_formula_sum   'Sr2 Be1 N2'
_cell_volume   87.68739005
_cell_formula_units_Z   1
loop_
 _symmetry_equiv_pos_site_id
 _symmetry_equiv_pos_as_xyz
  1  'x, y, z'
loop_
 _atom_site_type_symbol
 _atom_site_label
 _atom_site_symmetry_multiplicity
 _atom_site_fract_x
 _atom_site_fract_y
 _atom_site_fract_z
 _atom_site_occupancy
  Sr  Sr0  1  0.847860  0.847860  0.195721  1
  Sr  Sr1  1  0.152140  0.152140  0.804279  1
  Be  Be2  1  0.500000  0.500000  0.500000  1
  N  N3  1  0.369725  0.369725  0.239449  1
  N  N4  1  0.630275  0.630275  0.760551  1
