# generated using pymatgen
data_Rb4PuSb2F14
_symmetry_space_group_name_H-M   'P 1'
_cell_length_a   7.10336241
_cell_length_b   7.81500790
_cell_length_c   8.12262800
_cell_angle_alpha   91.95049140
_cell_angle_beta   91.15946296
_cell_angle_gamma   115.18617714
_symmetry_Int_Tables_number   1
_chemical_formula_structural   Rb4PuSb2F14
_chemical_formula_sum   'Rb4 Pu1 Sb2 F14'
_cell_volume   407.50493347
_cell_formula_units_Z   1
loop_
 _symmetry_equiv_pos_site_id
 _symmetry_equiv_pos_as_xyz
  1  'x, y, z'
loop_
 _atom_site_type_symbol
 _atom_site_label
 _atom_site_symmetry_multiplicity
 _atom_site_fract_x
 _atom_site_fract_y
 _atom_site_fract_z
 _atom_site_occupancy
  Rb  Rb0  1  0.289136  0.556899  0.143249  1
  Rb  Rb1  1  0.853262  0.733413  0.416048  1
  Rb  Rb2  1  0.710864  0.443101  0.856751  1
  Rb  Rb3  1  0.146738  0.266587  0.583952  1
  Pu  Pu4  1  0.000000  0.000000  0.000000  1
  Sb  Sb5  1  0.394293  0.813070  0.676892  1
  Sb  Sb6  1  0.605707  0.186930  0.323108  1
  F  F7  1  0.907657  0.363550  0.330946  1
  F  F8  1  0.290307  0.121678  0.874518  1
  F  F9  1  0.426401  0.663972  0.486149  1
  F  F10  1  0.709693  0.878322  0.125482  1
  F  F11  1  0.949999  0.245324  0.941999  1
  F  F12  1  0.285209  0.937290  0.492985  1
  F  F13  1  0.050001  0.754676  0.058001  1
  F  F14  1  0.848916  0.865937  0.767463  1
  F  F15  1  0.092343  0.636450  0.669054  1
  F  F16  1  0.151084  0.134063  0.232537  1
  F  F17  1  0.404536  0.587827  0.805388  1
  F  F18  1  0.595464  0.412173  0.194612  1
  F  F19  1  0.714791  0.062710  0.507015  1
  F  F20  1  0.573599  0.336028  0.513851  1
