# generated using pymatgen
data_Be2Nb6GeAs
_symmetry_space_group_name_H-M   'P 1'
_cell_length_a   6.69748123
_cell_length_b   6.72961027
_cell_length_c   3.46799300
_cell_angle_alpha   90.00000000
_cell_angle_beta   90.00000000
_cell_angle_gamma   89.78111059
_symmetry_Int_Tables_number   1
_chemical_formula_structural   Be2Nb6GeAs
_chemical_formula_sum   'Be2 Nb6 Ge1 As1'
_cell_volume   156.30629236
_cell_formula_units_Z   1
loop_
 _symmetry_equiv_pos_site_id
 _symmetry_equiv_pos_as_xyz
  1  'x, y, z'
loop_
 _atom_site_type_symbol
 _atom_site_label
 _atom_site_symmetry_multiplicity
 _atom_site_fract_x
 _atom_site_fract_y
 _atom_site_fract_z
 _atom_site_occupancy
  Be  Be0  1  0.621176  0.875388  0.000000  1
  Be  Be1  1  0.122122  0.625455  0.000000  1
  Nb  Nb2  1  0.995597  0.991064  0.000000  1
  Nb  Nb3  1  0.494709  0.508422  0.000000  1
  Nb  Nb4  1  0.681352  0.165357  0.500000  1
  Nb  Nb5  1  0.179562  0.335615  0.500000  1
  Nb  Nb6  1  0.822252  0.687428  0.500000  1
  Nb  Nb7  1  0.321591  0.811317  0.500000  1
  Ge  Ge8  1  0.380676  0.113292  0.000000  1
  As  As9  1  0.880963  0.386663  0.000000  1
