# generated using pymatgen
data_Ho4Er2Tm6Co5Bi
_symmetry_space_group_name_H-M   'P 1'
_cell_length_a   8.23260036
_cell_length_b   8.23147967
_cell_length_c   8.23259966
_cell_angle_alpha   110.90163962
_cell_angle_beta   110.81818633
_cell_angle_gamma   106.73342848
_symmetry_Int_Tables_number   1
_chemical_formula_structural   Ho4Er2Tm6Co5Bi
_chemical_formula_sum   'Ho4 Er2 Tm6 Co5 Bi1'
_cell_volume   428.70680904
_cell_formula_units_Z   1
loop_
 _symmetry_equiv_pos_site_id
 _symmetry_equiv_pos_as_xyz
  1  'x, y, z'
loop_
 _atom_site_type_symbol
 _atom_site_label
 _atom_site_symmetry_multiplicity
 _atom_site_fract_x
 _atom_site_fract_y
 _atom_site_fract_z
 _atom_site_occupancy
  Ho  Ho0  1  0.287675  0.184335  0.471585  1
  Ho  Ho1  1  0.712325  0.815665  0.528415  1
  Ho  Ho2  1  0.287251  0.815665  0.103341  1
  Ho  Ho3  1  0.712749  0.184335  0.896659  1
  Er  Er4  1  0.208218  0.013656  0.805438  1
  Er  Er5  1  0.791782  0.986344  0.194562  1
  Tm  Tm6  1  0.621542  0.312123  0.310017  1
  Tm  Tm7  1  0.378458  0.687877  0.689983  1
  Tm  Tm8  1  0.002108  0.312123  0.690581  1
  Tm  Tm9  1  0.997892  0.687877  0.309419  1
  Tm  Tm10  1  0.208365  0.403205  0.194839  1
  Tm  Tm11  1  0.791635  0.596795  0.805161  1
  Co  Co12  1  0.000260  0.375418  0.375158  1
  Co  Co13  1  0.999740  0.624582  0.624842  1
  Co  Co14  1  0.387648  0.887489  0.499841  1
  Co  Co15  1  0.612352  0.112511  0.500159  1
  Co  Co16  1  0.000000  0.000000  0.000000  1
  Bi  Bi17  1  0.500000  0.500000  0.000000  1
