# generated using pymatgen
data_Th3Al3CuNiIr
_symmetry_space_group_name_H-M   'P 1'
_cell_length_a   7.13224500
_cell_length_b   7.13224494
_cell_length_c   4.18732100
_cell_angle_alpha   90.00000000
_cell_angle_beta   90.00000000
_cell_angle_gamma   120.00000491
_symmetry_Int_Tables_number   1
_chemical_formula_structural   Th3Al3CuNiIr
_chemical_formula_sum   'Th3 Al3 Cu1 Ni1 Ir1'
_cell_volume   184.46729029
_cell_formula_units_Z   1
loop_
 _symmetry_equiv_pos_site_id
 _symmetry_equiv_pos_as_xyz
  1  'x, y, z'
loop_
 _atom_site_type_symbol
 _atom_site_label
 _atom_site_symmetry_multiplicity
 _atom_site_fract_x
 _atom_site_fract_y
 _atom_site_fract_z
 _atom_site_occupancy
  Th  Th0  1  0.415445  0.002561  0.500000  1
  Th  Th1  1  0.997439  0.412884  0.500000  1
  Th  Th2  1  0.587116  0.584555  0.500000  1
  Al  Al3  1  0.772935  0.004061  0.000000  1
  Al  Al4  1  0.995939  0.768875  0.000000  1
  Al  Al5  1  0.231125  0.227065  0.000000  1
  Cu  Cu6  1  0.333333  0.666667  0.000000  1
  Ni  Ni7  1  0.000000  0.000000  0.500000  1
  Ir  Ir8  1  0.666667  0.333333  0.000000  1
