# generated using pymatgen
data_Li8Hf3UI24
_symmetry_space_group_name_H-M   'P 1'
_cell_length_a   7.32774800
_cell_length_b   7.32774807
_cell_length_c   28.88206900
_cell_angle_alpha   90.00000000
_cell_angle_beta   90.00000000
_cell_angle_gamma   119.99999969
_symmetry_Int_Tables_number   1
_chemical_formula_structural   Li8Hf3UI24
_chemical_formula_sum   'Li8 Hf3 U1 I24'
_cell_volume   1343.07414743
_cell_formula_units_Z   1
loop_
 _symmetry_equiv_pos_site_id
 _symmetry_equiv_pos_as_xyz
  1  'x, y, z'
loop_
 _atom_site_type_symbol
 _atom_site_label
 _atom_site_symmetry_multiplicity
 _atom_site_fract_x
 _atom_site_fract_y
 _atom_site_fract_z
 _atom_site_occupancy
  Li  Li0  1  0.000000  0.000000  0.250113  1
  Li  Li1  1  0.000000  0.000000  0.749887  1
  Li  Li2  1  0.333333  0.666667  0.000797  1
  Li  Li3  1  0.333333  0.666667  0.499171  1
  Li  Li4  1  0.333333  0.666667  0.250064  1
  Li  Li5  1  0.666667  0.333333  0.749936  1
  Li  Li6  1  0.666667  0.333333  0.999203  1
  Li  Li7  1  0.666667  0.333333  0.500829  1
  Hf  Hf8  1  0.000000  0.000000  0.500000  1
  Hf  Hf9  1  0.333333  0.666667  0.749872  1
  Hf  Hf10  1  0.666667  0.333333  0.250128  1
  U  U11  1  0.000000  0.000000  0.000000  1
  I  I12  1  0.348079  0.014418  0.307497  1
  I  I13  1  0.333214  0.985289  0.807139  1
  I  I14  1  0.999542  0.335942  0.060156  1
  I  I15  1  0.000480  0.318908  0.557369  1
  I  I16  1  0.985582  0.333661  0.307497  1
  I  I17  1  0.014711  0.347924  0.807139  1
  I  I18  1  0.347924  0.333214  0.192861  1
  I  I19  1  0.333661  0.348079  0.692503  1
  I  I20  1  0.318908  0.318427  0.442631  1
  I  I21  1  0.335942  0.336400  0.939844  1
  I  I22  1  0.681573  0.000480  0.442631  1
  I  I23  1  0.336400  0.000458  0.060156  1
  I  I24  1  0.318427  0.999520  0.557369  1
  I  I25  1  0.664058  0.663600  0.060156  1
  I  I26  1  0.681092  0.681573  0.557369  1
  I  I27  1  0.666339  0.651921  0.307497  1
  I  I28  1  0.652076  0.666786  0.807139  1
  I  I29  1  0.985289  0.652076  0.192861  1
  I  I30  1  0.014418  0.666339  0.692503  1
  I  I31  1  0.999520  0.681092  0.442631  1
  I  I32  1  0.000458  0.664058  0.939844  1
  I  I33  1  0.663600  0.999542  0.939844  1
  I  I34  1  0.666786  0.014711  0.192861  1
  I  I35  1  0.651921  0.985582  0.692503  1
