# generated using pymatgen
data_Ho16Cd4NiIr3
_symmetry_space_group_name_H-M   'P 1'
_cell_length_a   9.56061048
_cell_length_b   9.56061139
_cell_length_c   9.56061202
_cell_angle_alpha   60.25317674
_cell_angle_beta   60.25317057
_cell_angle_gamma   60.25317564
_symmetry_Int_Tables_number   1
_chemical_formula_structural   Ho16Cd4NiIr3
_chemical_formula_sum   'Ho16 Cd4 Ni1 Ir3'
_cell_volume   621.47514465
_cell_formula_units_Z   1
loop_
 _symmetry_equiv_pos_site_id
 _symmetry_equiv_pos_as_xyz
  1  'x, y, z'
loop_
 _atom_site_type_symbol
 _atom_site_label
 _atom_site_symmetry_multiplicity
 _atom_site_fract_x
 _atom_site_fract_y
 _atom_site_fract_z
 _atom_site_occupancy
  Ho  Ho0  1  0.598975  0.598975  0.598975  1
  Ho  Ho1  1  0.598168  0.598168  0.202543  1
  Ho  Ho2  1  0.598168  0.202543  0.598168  1
  Ho  Ho3  1  0.202543  0.598168  0.598168  1
  Ho  Ho4  1  0.061357  0.439626  0.439626  1
  Ho  Ho5  1  0.438588  0.060459  0.060459  1
  Ho  Ho6  1  0.439626  0.061357  0.439626  1
  Ho  Ho7  1  0.060459  0.438588  0.060459  1
  Ho  Ho8  1  0.439626  0.439626  0.061357  1
  Ho  Ho9  1  0.060459  0.060459  0.438588  1
  Ho  Ho10  1  0.188700  0.811941  0.811941  1
  Ho  Ho11  1  0.814297  0.187113  0.187113  1
  Ho  Ho12  1  0.811941  0.188700  0.811941  1
  Ho  Ho13  1  0.187113  0.814297  0.187113  1
  Ho  Ho14  1  0.811941  0.811941  0.188700  1
  Ho  Ho15  1  0.187113  0.187113  0.814297  1
  Cd  Cd16  1  0.830769  0.830769  0.830769  1
  Cd  Cd17  1  0.831590  0.831590  0.506065  1
  Cd  Cd18  1  0.831590  0.506065  0.831590  1
  Cd  Cd19  1  0.506065  0.831590  0.831590  1
  Ni  Ni20  1  0.392153  0.392153  0.392153  1
  Ir  Ir21  1  0.392289  0.392289  0.824182  1
  Ir  Ir22  1  0.392289  0.824182  0.392289  1
  Ir  Ir23  1  0.824182  0.392289  0.392289  1
