# generated using pymatgen
data_Zr8Co2CuAuN2
_symmetry_space_group_name_H-M   'P 1'
_cell_length_a   8.74288592
_cell_length_b   8.74288601
_cell_length_c   8.74541900
_cell_angle_alpha   59.99041189
_cell_angle_beta   59.99041154
_cell_angle_gamma   60.03204479
_symmetry_Int_Tables_number   1
_chemical_formula_structural   Zr8Co2CuAuN2
_chemical_formula_sum   'Zr16 Co4 Cu2 Au2 N4'
_cell_volume   472.73453593
_cell_formula_units_Z   2
loop_
 _symmetry_equiv_pos_site_id
 _symmetry_equiv_pos_as_xyz
  1  'x, y, z'
loop_
 _atom_site_type_symbol
 _atom_site_label
 _atom_site_symmetry_multiplicity
 _atom_site_fract_x
 _atom_site_fract_y
 _atom_site_fract_z
 _atom_site_occupancy
  Zr  Zr0  1  0.075184  0.638910  0.642953  1
  Zr  Zr1  1  0.638910  0.075184  0.642953  1
  Zr  Zr2  1  0.641614  0.641614  0.072182  1
  Zr  Zr3  1  0.641614  0.641614  0.644590  1
  Zr  Zr4  1  0.817237  0.817237  0.182763  1
  Zr  Zr5  1  0.183046  0.183046  0.816954  1
  Zr  Zr6  1  0.817379  0.182509  0.817054  1
  Zr  Zr7  1  0.182509  0.817379  0.183058  1
  Zr  Zr8  1  0.182509  0.817379  0.817054  1
  Zr  Zr9  1  0.817379  0.182509  0.183058  1
  Zr  Zr10  1  0.431921  0.431921  0.068079  1
  Zr  Zr11  1  0.067605  0.067605  0.432395  1
  Zr  Zr12  1  0.432243  0.072098  0.431833  1
  Zr  Zr13  1  0.072098  0.432243  0.063827  1
  Zr  Zr14  1  0.072098  0.432243  0.431833  1
  Zr  Zr15  1  0.432243  0.072098  0.063827  1
  Co  Co16  1  0.441969  0.853214  0.852409  1
  Co  Co17  1  0.853214  0.441969  0.852409  1
  Co  Co18  1  0.851497  0.851497  0.446978  1
  Co  Co19  1  0.851497  0.851497  0.850031  1
  Cu  Cu20  1  0.417023  0.417023  0.746325  1
  Cu  Cu21  1  0.417023  0.417023  0.419628  1
  Au  Au22  1  0.747672  0.414102  0.419112  1
  Au  Au23  1  0.414102  0.747672  0.419112  1
  N  N24  1  0.623705  0.125455  0.125420  1
  N  N25  1  0.125455  0.623705  0.125420  1
  N  N26  1  0.125628  0.125628  0.623090  1
  N  N27  1  0.125628  0.125628  0.125653  1
