# generated using pymatgen
data_Pr17Dy3Sn16
_symmetry_space_group_name_H-M   'P 1'
_cell_length_a   8.30059100
_cell_length_b   8.46892440
_cell_length_c   16.05693000
_cell_angle_alpha   90.00000000
_cell_angle_beta   90.00000000
_cell_angle_gamma   90.07573207
_symmetry_Int_Tables_number   1
_chemical_formula_structural   Pr17Dy3Sn16
_chemical_formula_sum   'Pr17 Dy3 Sn16'
_cell_volume   1128.75426881
_cell_formula_units_Z   1
loop_
 _symmetry_equiv_pos_site_id
 _symmetry_equiv_pos_as_xyz
  1  'x, y, z'
loop_
 _atom_site_type_symbol
 _atom_site_label
 _atom_site_symmetry_multiplicity
 _atom_site_fract_x
 _atom_site_fract_y
 _atom_site_fract_z
 _atom_site_occupancy
  Pr  Pr0  1  0.366754  0.837631  0.877993  1
  Pr  Pr1  1  0.866989  0.661758  0.620402  1
  Pr  Pr2  1  0.633727  0.162893  0.379657  1
  Pr  Pr3  1  0.132269  0.337929  0.119732  1
  Pr  Pr4  1  0.633727  0.162893  0.120343  1
  Pr  Pr5  1  0.132269  0.337929  0.380268  1
  Pr  Pr6  1  0.366754  0.837631  0.622007  1
  Pr  Pr7  1  0.866989  0.661758  0.879598  1
  Pr  Pr8  1  0.518236  0.318478  0.901116  1
  Pr  Pr9  1  0.018364  0.181240  0.599751  1
  Pr  Pr10  1  0.481911  0.680651  0.401607  1
  Pr  Pr11  1  0.981461  0.818189  0.098246  1
  Pr  Pr12  1  0.481911  0.680651  0.098393  1
  Pr  Pr13  1  0.981461  0.818189  0.401754  1
  Pr  Pr14  1  0.518236  0.318478  0.598884  1
  Pr  Pr15  1  0.018364  0.181240  0.900249  1
  Pr  Pr16  1  0.303587  0.001788  0.250000  1
  Dy  Dy17  1  0.199207  0.501466  0.750000  1
  Dy  Dy18  1  0.698670  0.997990  0.750000  1
  Dy  Dy19  1  0.801816  0.497402  0.250000  1
  Sn  Sn20  1  0.292366  0.036364  0.041265  1
  Sn  Sn21  1  0.792019  0.466448  0.455289  1
  Sn  Sn22  1  0.707434  0.966183  0.545038  1
  Sn  Sn23  1  0.208334  0.534078  0.954682  1
  Sn  Sn24  1  0.707434  0.966183  0.954962  1
  Sn  Sn25  1  0.208334  0.534078  0.545318  1
  Sn  Sn26  1  0.292366  0.036364  0.458735  1
  Sn  Sn27  1  0.792019  0.466448  0.044711  1
  Sn  Sn28  1  0.564344  0.616262  0.750000  1
  Sn  Sn29  1  0.062579  0.883223  0.750000  1
  Sn  Sn30  1  0.437511  0.386777  0.250000  1
  Sn  Sn31  1  0.932182  0.117273  0.250000  1
  Sn  Sn32  1  0.323917  0.147283  0.750000  1
  Sn  Sn33  1  0.822631  0.353721  0.750000  1
  Sn  Sn34  1  0.679105  0.851775  0.250000  1
  Sn  Sn35  1  0.174725  0.641358  0.250000  1
