# generated using pymatgen
data_Sr7PrBi6
_symmetry_space_group_name_H-M   'P 1'
_cell_length_a   8.82827166
_cell_length_b   8.82827090
_cell_length_c   8.74511900
_cell_angle_alpha   109.28053660
_cell_angle_beta   109.28053489
_cell_angle_gamma   109.66122666
_symmetry_Int_Tables_number   1
_chemical_formula_structural   Sr7PrBi6
_chemical_formula_sum   'Sr7 Pr1 Bi6'
_cell_volume   525.91046725
_cell_formula_units_Z   1
loop_
 _symmetry_equiv_pos_site_id
 _symmetry_equiv_pos_as_xyz
  1  'x, y, z'
loop_
 _atom_site_type_symbol
 _atom_site_label
 _atom_site_symmetry_multiplicity
 _atom_site_fract_x
 _atom_site_fract_y
 _atom_site_fract_z
 _atom_site_occupancy
  Sr  Sr0  1  0.500000  0.000000  0.143150  1
  Sr  Sr1  1  0.642612  0.501687  0.002343  1
  Sr  Sr2  1  0.998313  0.640925  0.500656  1
  Sr  Sr3  1  0.859075  0.857388  0.859731  1
  Sr  Sr4  1  0.999484  0.144168  0.499786  1
  Sr  Sr5  1  0.355832  0.355316  0.355618  1
  Sr  Sr6  1  0.144684  0.500516  0.000302  1
  Pr  Pr7  1  0.500000  0.000000  0.636210  1
  Bi  Bi8  1  0.623349  0.756404  0.383076  1
  Bi  Bi9  1  0.743596  0.366945  0.626672  1
  Bi  Bi10  1  0.255480  0.122480  0.870230  1
  Bi  Bi11  1  0.377520  0.633000  0.747750  1
  Bi  Bi12  1  0.133055  0.876651  0.259727  1
  Bi  Bi13  1  0.867000  0.244520  0.114749  1
