# generated using pymatgen
data_Tm3MgRe3WN12
_symmetry_space_group_name_H-M   'P 1'
_cell_length_a   10.92960834
_cell_length_b   11.04653197
_cell_length_c   11.04653279
_cell_angle_alpha   109.61576186
_cell_angle_beta   109.61498070
_cell_angle_gamma   109.61498588
_symmetry_Int_Tables_number   1
_chemical_formula_structural   Tm3MgRe3WN12
_chemical_formula_sum   'Tm12 Mg4 Re12 W4 N48'
_cell_volume   1021.16770560
_cell_formula_units_Z   4
loop_
 _symmetry_equiv_pos_site_id
 _symmetry_equiv_pos_as_xyz
  1  'x, y, z'
loop_
 _atom_site_type_symbol
 _atom_site_label
 _atom_site_symmetry_multiplicity
 _atom_site_fract_x
 _atom_site_fract_y
 _atom_site_fract_z
 _atom_site_occupancy
  Tm  Tm0  1  0.250000  0.375000  0.125000  1
  Tm  Tm1  1  0.376269  0.750362  0.125692  1
  Tm  Tm2  1  0.376270  0.125908  0.250578  1
  Tm  Tm3  1  0.876270  0.625692  0.250362  1
  Tm  Tm4  1  0.750000  0.125000  0.374999  1
  Tm  Tm5  1  0.123730  0.249422  0.374092  1
  Tm  Tm6  1  0.876270  0.750578  0.625908  1
  Tm  Tm7  1  0.250000  0.875000  0.625000  1
  Tm  Tm8  1  0.123730  0.374307  0.749638  1
  Tm  Tm9  1  0.623730  0.874092  0.749422  1
  Tm  Tm10  1  0.623730  0.249638  0.874308  1
  Tm  Tm11  1  0.750000  0.625000  0.875000  1
  Mg  Mg12  1  0.500000  0.000000  0.000000  1
  Mg  Mg13  1  0.000000  0.000000  0.500000  1
  Mg  Mg14  1  0.500000  0.000000  0.500000  1
  Mg  Mg15  1  0.000000  0.500000  0.500000  1
  Re  Re16  1  0.875365  0.251770  0.126244  1
  Re  Re17  1  0.750000  0.878420  0.128420  1
  Re  Re18  1  0.624635  0.373756  0.248230  1
  Re  Re19  1  0.124635  0.876405  0.250879  1
  Re  Re20  1  0.250000  0.628420  0.378420  1
  Re  Re21  1  0.624635  0.750879  0.376405  1
  Re  Re22  1  0.375365  0.249121  0.623595  1
  Re  Re23  1  0.750000  0.371580  0.621580  1
  Re  Re24  1  0.875365  0.123595  0.749121  1
  Re  Re25  1  0.375365  0.626244  0.751770  1
  Re  Re26  1  0.250000  0.121580  0.871580  1
  Re  Re27  1  0.124635  0.748230  0.873756  1
  W  W28  1  0.000000  0.000000  0.000000  1
  W  W29  1  0.000000  0.500000  0.000000  1
  W  W30  1  0.500000  0.500000  0.000000  1
  W  W31  1  0.500000  0.500000  0.500000  1
  N  N32  1  0.203733  0.118402  0.021535  1
  N  N33  1  0.308981  0.898998  0.023309  1
  N  N34  1  0.883385  0.407214  0.085750  1
  N  N35  1  0.703732  0.682197  0.085330  1
  N  N36  1  0.980651  0.682941  0.097890  1
  N  N37  1  0.616614  0.414250  0.092786  1
  N  N38  1  0.596281  0.907463  0.123041  1
  N  N39  1  0.019349  0.202290  0.117238  1
  N  N40  1  0.203733  0.585330  0.182198  1
  N  N41  1  0.480651  0.597889  0.182942  1
  N  N42  1  0.591813  0.190730  0.216335  1
  N  N43  1  0.116614  0.023829  0.202366  1
  N  N44  1  0.480651  0.382761  0.297710  1
  N  N45  1  0.308981  0.909981  0.285672  1
  N  N46  1  0.903718  0.026760  0.311182  1
  N  N47  1  0.908186  0.283665  0.309270  1
  N  N48  1  0.296267  0.478465  0.381597  1
  N  N49  1  0.591813  0.901082  0.375478  1
  N  N50  1  0.808981  0.523309  0.398998  1
  N  N51  1  0.091813  0.875478  0.401082  1
  N  N52  1  0.096282  0.623041  0.407464  1
  N  N53  1  0.808981  0.785672  0.409982  1
  N  N54  1  0.596281  0.188818  0.473240  1
  N  N55  1  0.383385  0.297634  0.476171  1
  N  N56  1  0.616614  0.702365  0.523829  1
  N  N57  1  0.403718  0.811182  0.526760  1
  N  N58  1  0.191019  0.214328  0.590018  1
  N  N59  1  0.903718  0.376958  0.592536  1
  N  N60  1  0.908186  0.124521  0.598917  1
  N  N61  1  0.191019  0.476691  0.601001  1
  N  N62  1  0.408187  0.098918  0.624521  1
  N  N63  1  0.703732  0.521535  0.618402  1
  N  N64  1  0.091813  0.716334  0.690729  1
  N  N65  1  0.096282  0.973240  0.688817  1
  N  N66  1  0.691018  0.090018  0.714327  1
  N  N67  1  0.519349  0.617238  0.702289  1
  N  N68  1  0.408187  0.809270  0.783665  1
  N  N69  1  0.883385  0.976171  0.797634  1
  N  N70  1  0.519349  0.402110  0.817058  1
  N  N71  1  0.796267  0.414670  0.817802  1
  N  N72  1  0.403718  0.092536  0.876958  1
  N  N73  1  0.980651  0.797710  0.882761  1
  N  N74  1  0.019349  0.317058  0.902110  1
  N  N75  1  0.383385  0.585750  0.907214  1
  N  N76  1  0.296267  0.317802  0.914669  1
  N  N77  1  0.116614  0.592785  0.914249  1
  N  N78  1  0.691018  0.101002  0.976691  1
  N  N79  1  0.796267  0.881597  0.978465  1
