# generated using pymatgen
data_Er3Tm5(Tc3Ge4)4
_symmetry_space_group_name_H-M   'P 1'
_cell_length_a   6.93143716
_cell_length_b   6.93031647
_cell_length_c   12.86296600
_cell_angle_alpha   89.92174066
_cell_angle_beta   90.04522370
_cell_angle_gamma   89.99935904
_symmetry_Int_Tables_number   1
_chemical_formula_structural   Er3Tm5(Tc3Ge4)4
_chemical_formula_sum   'Er3 Tm5 Tc12 Ge16'
_cell_volume   617.89821149
_cell_formula_units_Z   1
loop_
 _symmetry_equiv_pos_site_id
 _symmetry_equiv_pos_as_xyz
  1  'x, y, z'
loop_
 _atom_site_type_symbol
 _atom_site_label
 _atom_site_symmetry_multiplicity
 _atom_site_fract_x
 _atom_site_fract_y
 _atom_site_fract_z
 _atom_site_occupancy
  Er  Er0  1  0.658851  0.007299  0.972308  1
  Er  Er1  1  0.992657  0.340289  0.527790  1
  Er  Er2  1  0.006719  0.659731  0.027091  1
  Tm  Tm3  1  0.339890  0.993175  0.472883  1
  Tm  Tm4  1  0.506797  0.840021  0.723040  1
  Tm  Tm5  1  0.492122  0.159336  0.222250  1
  Tm  Tm6  1  0.839332  0.507117  0.277155  1
  Tm  Tm7  1  0.158785  0.492332  0.777637  1
  Tc  Tc8  1  0.335699  0.335933  0.999952  1
  Tc  Tc9  1  0.162994  0.836710  0.250199  1
  Tc  Tc10  1  0.835883  0.163601  0.749958  1
  Tc  Tc11  1  0.662995  0.663691  0.500043  1
  Tc  Tc12  1  0.191901  0.976925  0.870790  1
  Tc  Tc13  1  0.518953  0.686556  0.123862  1
  Tc  Tc14  1  0.477634  0.310353  0.620693  1
  Tc  Tc15  1  0.690758  0.521289  0.878177  1
  Tc  Tc16  1  0.314563  0.479672  0.377151  1
  Tc  Tc17  1  0.814635  0.020540  0.373040  1
  Tc  Tc18  1  0.976470  0.190734  0.129576  1
  Tc  Tc19  1  0.020290  0.814034  0.626334  1
  Ge  Ge20  1  0.189356  0.113582  0.681809  1
  Ge  Ge21  1  0.387971  0.687524  0.931909  1
  Ge  Ge22  1  0.614629  0.310767  0.431570  1
  Ge  Ge23  1  0.688160  0.386987  0.068373  1
  Ge  Ge24  1  0.311647  0.614167  0.568083  1
  Ge  Ge25  1  0.810862  0.886587  0.182220  1
  Ge  Ge26  1  0.114937  0.189547  0.318285  1
  Ge  Ge27  1  0.887699  0.811708  0.817640  1
  Ge  Ge28  1  0.272447  0.981966  0.065751  1
  Ge  Ge29  1  0.519735  0.777408  0.316951  1
  Ge  Ge30  1  0.482278  0.226751  0.815040  1
  Ge  Ge31  1  0.773680  0.518865  0.684165  1
  Ge  Ge32  1  0.223116  0.480990  0.184092  1
  Ge  Ge33  1  0.722774  0.018723  0.566504  1
  Ge  Ge34  1  0.982818  0.272008  0.934623  1
  Ge  Ge35  1  0.019968  0.723080  0.433052  1
