# generated using pymatgen
data_Cs2NbCuS4
_symmetry_space_group_name_H-M   'P 1'
_cell_length_a   14.56719633
_cell_length_b   12.97171820
_cell_length_c   7.74585375
_cell_angle_alpha   85.41596284
_cell_angle_beta   62.57643867
_cell_angle_gamma   32.00759328
_symmetry_Int_Tables_number   1
_chemical_formula_structural   Cs2NbCuS4
_chemical_formula_sum   'Cs4 Nb2 Cu2 S8'
_cell_volume   517.17949907
_cell_formula_units_Z   2
loop_
 _symmetry_equiv_pos_site_id
 _symmetry_equiv_pos_as_xyz
  1  'x, y, z'
loop_
 _atom_site_type_symbol
 _atom_site_label
 _atom_site_symmetry_multiplicity
 _atom_site_fract_x
 _atom_site_fract_y
 _atom_site_fract_z
 _atom_site_occupancy
  Cs  Cs0  1  0.822595  0.822595  0.177405  1
  Cs  Cs1  1  0.177405  0.177405  0.822595  1
  Cs  Cs2  1  0.427405  0.427405  0.072595  1
  Cs  Cs3  1  0.072595  0.072595  0.427405  1
  Nb  Nb4  1  0.000000  0.000000  0.000000  1
  Nb  Nb5  1  0.250000  0.250000  0.250000  1
  Cu  Cu6  1  0.500000  0.500000  0.500000  1
  Cu  Cu7  1  0.750000  0.750000  0.750000  1
  S  S8  1  0.533430  0.863882  0.148922  1
  S  S9  1  0.453766  0.148922  0.863882  1
  S  S10  1  0.796234  0.101078  0.386118  1
  S  S11  1  0.716570  0.386118  0.101078  1
  S  S12  1  0.386118  0.716570  0.796234  1
  S  S13  1  0.101078  0.796234  0.716570  1
  S  S14  1  0.148922  0.453766  0.533430  1
  S  S15  1  0.863882  0.533430  0.453766  1
