# generated using pymatgen
data_Nb12Al4Cu7NiN4
_symmetry_space_group_name_H-M   'P 1'
_cell_length_a   8.19527879
_cell_length_b   8.19527869
_cell_length_c   8.19527837
_cell_angle_alpha   60.00973313
_cell_angle_beta   60.00973219
_cell_angle_gamma   60.00973309
_symmetry_Int_Tables_number   1
_chemical_formula_structural   Nb12Al4Cu7NiN4
_chemical_formula_sum   'Nb12 Al4 Cu7 Ni1 N4'
_cell_volume   389.28887149
_cell_formula_units_Z   1
loop_
 _symmetry_equiv_pos_site_id
 _symmetry_equiv_pos_as_xyz
  1  'x, y, z'
loop_
 _atom_site_type_symbol
 _atom_site_label
 _atom_site_symmetry_multiplicity
 _atom_site_fract_x
 _atom_site_fract_y
 _atom_site_fract_z
 _atom_site_occupancy
  Nb  Nb0  1  0.815148  0.815148  0.185746  1
  Nb  Nb1  1  0.181548  0.181548  0.817671  1
  Nb  Nb2  1  0.815148  0.185746  0.815148  1
  Nb  Nb3  1  0.181548  0.817671  0.181548  1
  Nb  Nb4  1  0.185746  0.815148  0.815148  1
  Nb  Nb5  1  0.817671  0.181548  0.181548  1
  Nb  Nb6  1  0.431198  0.431198  0.069534  1
  Nb  Nb7  1  0.064460  0.064460  0.435037  1
  Nb  Nb8  1  0.431198  0.069534  0.431198  1
  Nb  Nb9  1  0.064460  0.435037  0.064460  1
  Nb  Nb10  1  0.069534  0.431198  0.431198  1
  Nb  Nb11  1  0.435037  0.064460  0.064460  1
  Al  Al12  1  0.122100  0.627667  0.627667  1
  Al  Al13  1  0.627667  0.122100  0.627667  1
  Al  Al14  1  0.627667  0.627667  0.122100  1
  Al  Al15  1  0.625056  0.625056  0.625056  1
  Cu  Cu16  1  0.743056  0.418784  0.418784  1
  Cu  Cu17  1  0.418784  0.743056  0.418784  1
  Cu  Cu18  1  0.418784  0.418784  0.743056  1
  Cu  Cu19  1  0.420304  0.420304  0.420304  1
  Cu  Cu20  1  0.509396  0.830777  0.830777  1
  Cu  Cu21  1  0.830777  0.509396  0.830777  1
  Cu  Cu22  1  0.830777  0.830777  0.509396  1
  Ni  Ni23  1  0.834629  0.834629  0.834629  1
  N  N24  1  0.625218  0.123849  0.123849  1
  N  N25  1  0.123849  0.625218  0.123849  1
  N  N26  1  0.123849  0.123849  0.625218  1
  N  N27  1  0.125393  0.125393  0.125393  1
