# generated using pymatgen
data_Ta5Mn2NbSe12
_symmetry_space_group_name_H-M   'P 1'
_cell_length_a   6.05580300
_cell_length_b   6.05580131
_cell_length_c   13.23008800
_cell_angle_alpha   90.00000000
_cell_angle_beta   90.00000000
_cell_angle_gamma   120.00001469
_symmetry_Int_Tables_number   1
_chemical_formula_structural   Ta5Mn2NbSe12
_chemical_formula_sum   'Ta5 Mn2 Nb1 Se12'
_cell_volume   420.18123848
_cell_formula_units_Z   1
loop_
 _symmetry_equiv_pos_site_id
 _symmetry_equiv_pos_as_xyz
  1  'x, y, z'
loop_
 _atom_site_type_symbol
 _atom_site_label
 _atom_site_symmetry_multiplicity
 _atom_site_fract_x
 _atom_site_fract_y
 _atom_site_fract_z
 _atom_site_occupancy
  Ta  Ta0  1  0.000000  0.000000  0.500000  1
  Ta  Ta1  1  0.333333  0.666667  0.499024  1
  Ta  Ta2  1  0.666667  0.333333  0.999232  1
  Ta  Ta3  1  0.666667  0.333333  0.500976  1
  Ta  Ta4  1  0.333333  0.666667  0.000768  1
  Mn  Mn5  1  0.333333  0.666667  0.250817  1
  Mn  Mn6  1  0.666667  0.333333  0.749183  1
  Nb  Nb7  1  0.000000  0.000000  0.000000  1
  Se  Se8  1  0.335155  0.005471  0.126606  1
  Se  Se9  1  0.994529  0.329682  0.126606  1
  Se  Se10  1  0.666289  0.993180  0.626261  1
  Se  Se11  1  0.005471  0.335155  0.873394  1
  Se  Se12  1  0.670318  0.664845  0.126606  1
  Se  Se13  1  0.006820  0.673108  0.626261  1
  Se  Se14  1  0.329682  0.994529  0.873394  1
  Se  Se15  1  0.993180  0.666289  0.373739  1
  Se  Se16  1  0.326892  0.333711  0.626261  1
  Se  Se17  1  0.673108  0.006820  0.373739  1
  Se  Se18  1  0.664845  0.670318  0.873394  1
  Se  Se19  1  0.333711  0.326892  0.373739  1
