# generated using pymatgen
data_DyU7VS17
_symmetry_space_group_name_H-M   'P 1'
_cell_length_a   7.80359229
_cell_length_b   7.81171655
_cell_length_c   10.35055723
_cell_angle_alpha   80.76969912
_cell_angle_beta   80.64638655
_cell_angle_gamma   64.72050727
_symmetry_Int_Tables_number   1
_chemical_formula_structural   DyU7VS17
_chemical_formula_sum   'Dy1 U7 V1 S17'
_cell_volume   560.01872918
_cell_formula_units_Z   1
loop_
 _symmetry_equiv_pos_site_id
 _symmetry_equiv_pos_as_xyz
  1  'x, y, z'
loop_
 _atom_site_type_symbol
 _atom_site_label
 _atom_site_symmetry_multiplicity
 _atom_site_fract_x
 _atom_site_fract_y
 _atom_site_fract_z
 _atom_site_occupancy
  Dy  Dy0  1  0.812047  0.305518  0.297270  1
  U  U1  1  0.297429  0.819845  0.296810  1
  U  U2  1  0.182086  0.700747  0.701970  1
  U  U3  1  0.700335  0.181325  0.703872  1
  U  U4  1  0.203341  0.204645  0.541872  1
  U  U5  1  0.796644  0.795165  0.456528  1
  U  U6  1  0.683937  0.678581  0.982895  1
  U  U7  1  0.317608  0.319301  0.017368  1
  V  V8  1  0.001703  0.999105  0.999320  1
  S  S9  1  0.822695  0.431904  0.537589  1
  S  S10  1  0.433059  0.820641  0.534753  1
  S  S11  1  0.179801  0.566596  0.465081  1
  S  S12  1  0.569498  0.175607  0.469059  1
  S  S13  1  0.942842  0.322486  0.026098  1
  S  S14  1  0.323955  0.943575  0.027750  1
  S  S15  1  0.056921  0.677557  0.970475  1
  S  S16  1  0.677627  0.059014  0.970447  1
  S  S17  1  0.214393  0.208373  0.278249  1
  S  S18  1  0.788130  0.787996  0.722911  1
  S  S19  1  0.061823  0.059679  0.771999  1
  S  S20  1  0.942176  0.936909  0.227873  1
  S  S21  1  0.302670  0.302869  0.754914  1
  S  S22  1  0.692648  0.703078  0.244115  1
  S  S23  1  0.520687  0.522791  0.829915  1
  S  S24  1  0.473603  0.482970  0.165755  1
  S  S25  1  0.002340  0.993727  0.505111  1
