# generated using pymatgen
data_Ce4GeB4Ir9
_symmetry_space_group_name_H-M   'P 1'
_cell_length_a   10.77431977
_cell_length_b   10.77432000
_cell_length_c   10.77432071
_cell_angle_alpha   29.95792788
_cell_angle_beta   29.95792521
_cell_angle_gamma   29.95793105
_symmetry_Int_Tables_number   1
_chemical_formula_structural   Ce4GeB4Ir9
_chemical_formula_sum   'Ce4 Ge1 B4 Ir9'
_cell_volume   276.25094018
_cell_formula_units_Z   1
loop_
 _symmetry_equiv_pos_site_id
 _symmetry_equiv_pos_as_xyz
  1  'x, y, z'
loop_
 _atom_site_type_symbol
 _atom_site_label
 _atom_site_symmetry_multiplicity
 _atom_site_fract_x
 _atom_site_fract_y
 _atom_site_fract_z
 _atom_site_occupancy
  Ce  Ce0  1  0.148476  0.148476  0.148476  1
  Ce  Ce1  1  0.948202  0.948202  0.948202  1
  Ce  Ce2  1  0.851524  0.851524  0.851524  1
  Ce  Ce3  1  0.051798  0.051798  0.051798  1
  Ge  Ge4  1  0.500000  0.500000  0.500000  1
  B  B5  1  0.616333  0.616333  0.616333  1
  B  B6  1  0.717647  0.717647  0.717647  1
  B  B7  1  0.383667  0.383667  0.383667  1
  B  B8  1  0.282353  0.282353  0.282353  1
  Ir  Ir9  1  0.401952  0.902491  0.401952  1
  Ir  Ir10  1  0.902491  0.401952  0.401952  1
  Ir  Ir11  1  0.500000  0.500000  0.000000  1
  Ir  Ir12  1  0.500000  0.000000  0.500000  1
  Ir  Ir13  1  0.000000  0.500000  0.500000  1
  Ir  Ir14  1  0.598048  0.097509  0.598048  1
  Ir  Ir15  1  0.598048  0.598048  0.097509  1
  Ir  Ir16  1  0.097509  0.598048  0.598048  1
  Ir  Ir17  1  0.401952  0.401952  0.902491  1
