# generated using pymatgen
data_NdSmHo2(WN3)4
_symmetry_space_group_name_H-M   'P 1'
_cell_length_a   7.32102476
_cell_length_b   7.32102585
_cell_length_c   6.26098940
_cell_angle_alpha   75.00905013
_cell_angle_beta   75.00905886
_cell_angle_gamma   82.86187799
_symmetry_Int_Tables_number   1
_chemical_formula_structural   NdSmHo2(WN3)4
_chemical_formula_sum   'Nd1 Sm1 Ho2 W4 N12'
_cell_volume   312.52816263
_cell_formula_units_Z   1
loop_
 _symmetry_equiv_pos_site_id
 _symmetry_equiv_pos_as_xyz
  1  'x, y, z'
loop_
 _atom_site_type_symbol
 _atom_site_label
 _atom_site_symmetry_multiplicity
 _atom_site_fract_x
 _atom_site_fract_y
 _atom_site_fract_z
 _atom_site_occupancy
  Nd  Nd0  1  0.700634  0.299366  0.750000  1
  Sm  Sm1  1  0.297457  0.702543  0.250000  1
  Ho  Ho2  1  0.089116  0.910884  0.750000  1
  Ho  Ho3  1  0.912611  0.087389  0.250000  1
  W  W4  1  0.379962  0.199220  0.245610  1
  W  W5  1  0.619308  0.800887  0.755656  1
  W  W6  1  0.800780  0.620038  0.254390  1
  W  W7  1  0.199113  0.380692  0.744344  1
  N  N8  1  0.621999  0.108702  0.165891  1
  N  N9  1  0.360227  0.354228  0.461013  1
  N  N10  1  0.004439  0.214044  0.853260  1
  N  N11  1  0.377663  0.892480  0.837560  1
  N  N12  1  0.785956  0.995561  0.646740  1
  N  N13  1  0.107520  0.622337  0.662440  1
  N  N14  1  0.891298  0.378001  0.334109  1
  N  N15  1  0.639933  0.648409  0.537261  1
  N  N16  1  0.645772  0.639773  0.038987  1
  N  N17  1  0.351591  0.360067  0.962739  1
  N  N18  1  0.998406  0.783789  0.146991  1
  N  N19  1  0.216211  0.001594  0.353009  1
