# generated using pymatgen
data_Li2GdDySi2Pb
_symmetry_space_group_name_H-M   'P 1'
_cell_length_a   9.70226860
_cell_length_b   9.70226743
_cell_length_c   6.83902900
_cell_angle_alpha   90.00000000
_cell_angle_beta   90.00000000
_cell_angle_gamma   153.69051336
_symmetry_Int_Tables_number   1
_chemical_formula_structural   Li2GdDySi2Pb
_chemical_formula_sum   'Li4 Gd2 Dy2 Si4 Pb2'
_cell_volume   285.33822543
_cell_formula_units_Z   2
loop_
 _symmetry_equiv_pos_site_id
 _symmetry_equiv_pos_as_xyz
  1  'x, y, z'
loop_
 _atom_site_type_symbol
 _atom_site_label
 _atom_site_symmetry_multiplicity
 _atom_site_fract_x
 _atom_site_fract_y
 _atom_site_fract_z
 _atom_site_occupancy
  Li  Li0  1  0.182784  0.817216  0.054188  1
  Li  Li1  1  0.182784  0.817216  0.445812  1
  Li  Li2  1  0.817216  0.182784  0.945812  1
  Li  Li3  1  0.817216  0.182784  0.554188  1
  Gd  Gd4  1  0.547455  0.452545  0.250000  1
  Gd  Gd5  1  0.452545  0.547455  0.750000  1
  Dy  Dy6  1  0.354102  0.645898  0.250000  1
  Dy  Dy7  1  0.645898  0.354102  0.750000  1
  Si  Si8  1  0.057243  0.942757  0.926139  1
  Si  Si9  1  0.942757  0.057243  0.073861  1
  Si  Si10  1  0.942757  0.057243  0.426139  1
  Si  Si11  1  0.057243  0.942757  0.573861  1
  Pb  Pb12  1  0.720322  0.279678  0.250000  1
  Pb  Pb13  1  0.279678  0.720322  0.750000  1
