# generated using pymatgen
data_Tb8Hf8Ta4Si15P
_symmetry_space_group_name_H-M   'P 1'
_cell_length_a   7.22020139
_cell_length_b   7.23313591
_cell_length_c   13.31097400
_cell_angle_alpha   89.99977028
_cell_angle_beta   89.96448078
_cell_angle_gamma   89.95831010
_symmetry_Int_Tables_number   1
_chemical_formula_structural   Tb8Hf8Ta4Si15P
_chemical_formula_sum   'Tb8 Hf8 Ta4 Si15 P1'
_cell_volume   695.16127919
_cell_formula_units_Z   1
loop_
 _symmetry_equiv_pos_site_id
 _symmetry_equiv_pos_as_xyz
  1  'x, y, z'
loop_
 _atom_site_type_symbol
 _atom_site_label
 _atom_site_symmetry_multiplicity
 _atom_site_fract_x
 _atom_site_fract_y
 _atom_site_fract_z
 _atom_site_occupancy
  Tb  Tb0  1  0.343152  0.001485  0.465670  1
  Tb  Tb1  1  0.495939  0.846345  0.715573  1
  Tb  Tb2  1  0.501760  0.156121  0.214997  1
  Tb  Tb3  1  0.842702  0.497504  0.284990  1
  Tb  Tb4  1  0.156530  0.498392  0.783450  1
  Tb  Tb5  1  0.658431  0.995682  0.965782  1
  Tb  Tb6  1  0.002449  0.342713  0.535496  1
  Tb  Tb7  1  0.998331  0.657041  0.034397  1
  Hf  Hf8  1  0.151690  0.008523  0.872366  1
  Hf  Hf9  1  0.493454  0.649575  0.124990  1
  Hf  Hf10  1  0.503971  0.347776  0.627061  1
  Hf  Hf11  1  0.651218  0.496369  0.874588  1
  Hf  Hf12  1  0.350285  0.505666  0.374869  1
  Hf  Hf13  1  0.850649  0.993735  0.375668  1
  Hf  Hf14  1  0.005912  0.149092  0.124561  1
  Hf  Hf15  1  0.995550  0.852052  0.624740  1
  Ta  Ta16  1  0.324177  0.325058  0.999362  1
  Ta  Ta17  1  0.174533  0.825455  0.250002  1
  Ta  Ta18  1  0.824296  0.175817  0.749481  1
  Ta  Ta19  1  0.674502  0.674350  0.500327  1
  Si  Si20  1  0.361846  0.703429  0.932929  1
  Si  Si21  1  0.636754  0.297461  0.435127  1
  Si  Si22  1  0.703224  0.362927  0.066351  1
  Si  Si23  1  0.297888  0.637216  0.566396  1
  Si  Si24  1  0.796862  0.862531  0.183974  1
  Si  Si25  1  0.137187  0.202811  0.316340  1
  Si  Si26  1  0.864105  0.797242  0.815343  1
  Si  Si27  1  0.295975  0.952600  0.064426  1
  Si  Si28  1  0.546822  0.796335  0.315540  1
  Si  Si29  1  0.460328  0.204842  0.819781  1
  Si  Si30  1  0.794715  0.548798  0.683749  1
  Si  Si31  1  0.203690  0.452217  0.184675  1
  Si  Si32  1  0.703575  0.046893  0.565346  1
  Si  Si33  1  0.953197  0.296403  0.934617  1
  Si  Si34  1  0.046818  0.702983  0.434710  1
  P  P35  1  0.197477  0.136561  0.682326  1
