# generated using pymatgen
data_TbGdCrGeO8
_symmetry_space_group_name_H-M   'P 1'
_cell_length_a   6.02345870
_cell_length_b   6.02345868
_cell_length_c   6.02345801
_cell_angle_alpha   106.08048015
_cell_angle_beta   106.08046716
_cell_angle_gamma   116.48897893
_symmetry_Int_Tables_number   1
_chemical_formula_structural   TbGdCrGeO8
_chemical_formula_sum   'Tb1 Gd1 Cr1 Ge1 O8'
_cell_volume   166.31965089
_cell_formula_units_Z   1
loop_
 _symmetry_equiv_pos_site_id
 _symmetry_equiv_pos_as_xyz
  1  'x, y, z'
loop_
 _atom_site_type_symbol
 _atom_site_label
 _atom_site_symmetry_multiplicity
 _atom_site_fract_x
 _atom_site_fract_y
 _atom_site_fract_z
 _atom_site_occupancy
  Tb  Tb0  1  0.500000  0.500000  0.000000  1
  Gd  Gd1  1  0.750000  0.250000  0.500000  1
  Cr  Cr2  1  0.000000  0.000000  0.000000  1
  Ge  Ge3  1  0.250000  0.750000  0.500000  1
  O  O4  1  0.837289  0.016362  0.179072  1
  O  O5  1  0.878608  0.564528  0.314081  1
  O  O6  1  0.250449  0.564528  0.685919  1
  O  O7  1  0.837289  0.658217  0.820928  1
  O  O8  1  0.341783  0.162711  0.179072  1
  O  O9  1  0.435472  0.749551  0.314081  1
  O  O10  1  0.435472  0.121392  0.685919  1
  O  O11  1  0.983638  0.162711  0.820928  1
