# generated using pymatgen
data_Th2Mn3Fe9P7
_symmetry_space_group_name_H-M   'P 1'
_cell_length_a   9.13348100
_cell_length_b   9.13348199
_cell_length_c   3.70946700
_cell_angle_alpha   90.00000000
_cell_angle_beta   90.00000000
_cell_angle_gamma   119.99999280
_symmetry_Int_Tables_number   1
_chemical_formula_structural   Th2Mn3Fe9P7
_chemical_formula_sum   'Th2 Mn3 Fe9 P7'
_cell_volume   267.98771232
_cell_formula_units_Z   1
loop_
 _symmetry_equiv_pos_site_id
 _symmetry_equiv_pos_as_xyz
  1  'x, y, z'
loop_
 _atom_site_type_symbol
 _atom_site_label
 _atom_site_symmetry_multiplicity
 _atom_site_fract_x
 _atom_site_fract_y
 _atom_site_fract_z
 _atom_site_occupancy
  Th  Th0  1  0.333333  0.666667  0.000000  1
  Th  Th1  1  0.000000  0.000000  0.500000  1
  Mn  Mn2  1  0.776313  0.228560  0.500000  1
  Mn  Mn3  1  0.771440  0.547753  0.500000  1
  Mn  Mn4  1  0.452247  0.223687  0.500000  1
  Fe  Fe5  1  0.031886  0.273282  0.000000  1
  Fe  Fe6  1  0.726718  0.758603  0.000000  1
  Fe  Fe7  1  0.241397  0.968114  0.000000  1
  Fe  Fe8  1  0.544751  0.060778  0.000000  1
  Fe  Fe9  1  0.939222  0.483973  0.000000  1
  Fe  Fe10  1  0.516027  0.455249  0.000000  1
  Fe  Fe11  1  0.614113  0.898631  0.500000  1
  Fe  Fe12  1  0.101369  0.715481  0.500000  1
  Fe  Fe13  1  0.284519  0.385887  0.500000  1
  P  P14  1  0.767648  0.027257  0.000000  1
  P  P15  1  0.972743  0.740391  0.000000  1
  P  P16  1  0.259609  0.232352  0.000000  1
  P  P17  1  0.374660  0.934288  0.500000  1
  P  P18  1  0.065712  0.440372  0.500000  1
  P  P19  1  0.559628  0.625340  0.500000  1
  P  P20  1  0.666667  0.333333  0.000000  1
