# generated using pymatgen
data_Sm2Ta3Si7Pt9
_symmetry_space_group_name_H-M   'P 1'
_cell_length_a   9.91154200
_cell_length_b   9.91154236
_cell_length_c   4.05204000
_cell_angle_alpha   90.00000000
_cell_angle_beta   90.00000000
_cell_angle_gamma   120.00000548
_symmetry_Int_Tables_number   1
_chemical_formula_structural   Sm2Ta3Si7Pt9
_chemical_formula_sum   'Sm2 Ta3 Si7 Pt9'
_cell_volume   344.73612734
_cell_formula_units_Z   1
loop_
 _symmetry_equiv_pos_site_id
 _symmetry_equiv_pos_as_xyz
  1  'x, y, z'
loop_
 _atom_site_type_symbol
 _atom_site_label
 _atom_site_symmetry_multiplicity
 _atom_site_fract_x
 _atom_site_fract_y
 _atom_site_fract_z
 _atom_site_occupancy
  Sm  Sm0  1  0.000000  0.000000  0.000000  1
  Sm  Sm1  1  0.333333  0.666667  0.500000  1
  Ta  Ta2  1  0.880186  0.453650  0.500000  1
  Ta  Ta3  1  0.573464  0.119814  0.500000  1
  Ta  Ta4  1  0.546350  0.426536  0.500000  1
  Si  Si5  1  0.258357  0.214039  0.500000  1
  Si  Si6  1  0.785961  0.044320  0.500000  1
  Si  Si7  1  0.955680  0.741643  0.500000  1
  Si  Si8  1  0.555772  0.637666  0.000000  1
  Si  Si9  1  0.362334  0.918105  0.000000  1
  Si  Si10  1  0.081895  0.444228  0.000000  1
  Si  Si11  1  0.666667  0.333333  0.000000  1
  Pt  Pt12  1  0.226960  0.943450  0.500000  1
  Pt  Pt13  1  0.056550  0.283510  0.500000  1
  Pt  Pt14  1  0.716490  0.773040  0.500000  1
  Pt  Pt15  1  0.307679  0.408017  0.000000  1
  Pt  Pt16  1  0.591983  0.899662  0.000000  1
  Pt  Pt17  1  0.100338  0.692321  0.000000  1
  Pt  Pt18  1  0.389331  0.175606  0.000000  1
  Pt  Pt19  1  0.824394  0.213726  0.000000  1
  Pt  Pt20  1  0.786274  0.610669  0.000000  1
