# generated using pymatgen
data_ErTm5Nb2(Co4P3)4
_symmetry_space_group_name_H-M   'P 1'
_cell_length_a   3.68817700
_cell_length_b   10.59460800
_cell_length_c   12.26881900
_cell_angle_alpha   90.00000000
_cell_angle_beta   90.00000000
_cell_angle_gamma   90.00000000
_symmetry_Int_Tables_number   1
_chemical_formula_structural   ErTm5Nb2(Co4P3)4
_chemical_formula_sum   'Er1 Tm5 Nb2 Co16 P12'
_cell_volume   479.40152045
_cell_formula_units_Z   1
loop_
 _symmetry_equiv_pos_site_id
 _symmetry_equiv_pos_as_xyz
  1  'x, y, z'
loop_
 _atom_site_type_symbol
 _atom_site_label
 _atom_site_symmetry_multiplicity
 _atom_site_fract_x
 _atom_site_fract_y
 _atom_site_fract_z
 _atom_site_occupancy
  Er  Er0  1  0.000000  0.500000  0.527355  1
  Tm  Tm1  1  0.500000  0.000000  0.472712  1
  Tm  Tm2  1  0.500000  0.820854  0.205264  1
  Tm  Tm3  1  0.500000  0.179146  0.205264  1
  Tm  Tm4  1  0.000000  0.679224  0.794832  1
  Tm  Tm5  1  0.000000  0.320776  0.794832  1
  Nb  Nb6  1  0.500000  0.500000  0.157603  1
  Nb  Nb7  1  0.000000  0.000000  0.842129  1
  Co  Co8  1  0.500000  0.500000  0.702370  1
  Co  Co9  1  0.000000  0.000000  0.297950  1
  Co  Co10  1  0.000000  0.500000  0.985751  1
  Co  Co11  1  0.500000  0.000000  0.014273  1
  Co  Co12  1  0.500000  0.332398  0.991527  1
  Co  Co13  1  0.500000  0.667602  0.991527  1
  Co  Co14  1  0.000000  0.167520  0.008483  1
  Co  Co15  1  0.000000  0.832480  0.008483  1
  Co  Co16  1  0.500000  0.295106  0.432634  1
  Co  Co17  1  0.500000  0.704894  0.432634  1
  Co  Co18  1  0.000000  0.204333  0.567325  1
  Co  Co19  1  0.000000  0.795667  0.567325  1
  Co  Co20  1  0.500000  0.876586  0.704083  1
  Co  Co21  1  0.500000  0.123414  0.704083  1
  Co  Co22  1  0.000000  0.623582  0.295824  1
  Co  Co23  1  0.000000  0.376418  0.295824  1
  P  P24  1  0.500000  0.500000  0.881361  1
  P  P25  1  0.000000  0.000000  0.118752  1
  P  P26  1  0.500000  0.500000  0.357370  1
  P  P27  1  0.000000  0.000000  0.642151  1
  P  P28  1  0.500000  0.311865  0.616177  1
  P  P29  1  0.500000  0.688135  0.616177  1
  P  P30  1  0.000000  0.187747  0.383960  1
  P  P31  1  0.000000  0.812253  0.383960  1
  P  P32  1  0.500000  0.840527  0.892188  1
  P  P33  1  0.500000  0.159473  0.892188  1
  P  P34  1  0.000000  0.659547  0.107814  1
  P  P35  1  0.000000  0.340453  0.107814  1
