# generated using pymatgen
data_Dy4Ho4B24IrOs3
_symmetry_space_group_name_H-M   'P 1'
_cell_length_a   3.65405100
_cell_length_b   9.15127510
_cell_length_c   11.50903823
_cell_angle_alpha   90.06574107
_cell_angle_beta   90.00000000
_cell_angle_gamma   90.00000000
_symmetry_Int_Tables_number   1
_chemical_formula_structural   Dy4Ho4B24IrOs3
_chemical_formula_sum   'Dy4 Ho4 B24 Ir1 Os3'
_cell_volume   384.85307630
_cell_formula_units_Z   1
loop_
 _symmetry_equiv_pos_site_id
 _symmetry_equiv_pos_as_xyz
  1  'x, y, z'
loop_
 _atom_site_type_symbol
 _atom_site_label
 _atom_site_symmetry_multiplicity
 _atom_site_fract_x
 _atom_site_fract_y
 _atom_site_fract_z
 _atom_site_occupancy
  Dy  Dy0  1  0.000000  0.318832  0.414312  1
  Dy  Dy1  1  0.000000  0.678968  0.589348  1
  Dy  Dy2  1  0.000000  0.823553  0.083995  1
  Dy  Dy3  1  0.000000  0.178895  0.912927  1
  Ho  Ho4  1  0.000000  0.945380  0.373263  1
  Ho  Ho5  1  0.000000  0.055561  0.626312  1
  Ho  Ho6  1  0.000000  0.442548  0.125633  1
  Ho  Ho7  1  0.000000  0.555484  0.874044  1
  B  B8  1  0.500000  0.553958  0.433586  1
  B  B9  1  0.500000  0.446043  0.566975  1
  B  B10  1  0.500000  0.054408  0.067113  1
  B  B11  1  0.500000  0.946173  0.932565  1
  B  B12  1  0.500000  0.749342  0.421239  1
  B  B13  1  0.500000  0.251717  0.580030  1
  B  B14  1  0.500000  0.248077  0.079938  1
  B  B15  1  0.500000  0.752169  0.920063  1
  B  B16  1  0.500000  0.791895  0.265916  1
  B  B17  1  0.500000  0.208917  0.733324  1
  B  B18  1  0.500000  0.291456  0.233937  1
  B  B19  1  0.500000  0.708615  0.766580  1
  B  B20  1  0.500000  0.632133  0.183864  1
  B  B21  1  0.500000  0.368418  0.814616  1
  B  B22  1  0.500000  0.131686  0.314662  1
  B  B23  1  0.500000  0.867978  0.685495  1
  B  B24  1  0.500000  0.983322  0.213122  1
  B  B25  1  0.500000  0.016618  0.786516  1
  B  B26  1  0.500000  0.482315  0.286375  1
  B  B27  1  0.500000  0.516537  0.713622  1
  B  B28  1  0.500000  0.609804  0.030670  1
  B  B29  1  0.500000  0.390704  0.970022  1
  B  B30  1  0.500000  0.108706  0.469837  1
  B  B31  1  0.500000  0.890203  0.529736  1
  Ir  Ir32  1  0.000000  0.637060  0.321930  1
  Os  Os33  1  0.000000  0.362457  0.678359  1
  Os  Os34  1  0.000000  0.137899  0.178881  1
  Os  Os35  1  0.000000  0.862167  0.821198  1
