# generated using pymatgen
data_Ti12Al8Ir4CN3
_symmetry_space_group_name_H-M   'P 1'
_cell_length_a   8.16597757
_cell_length_b   8.17428205
_cell_length_c   8.16594802
_cell_angle_alpha   60.03766948
_cell_angle_beta   59.99592332
_cell_angle_gamma   60.03818507
_symmetry_Int_Tables_number   1
_chemical_formula_structural   Ti12Al8Ir4CN3
_chemical_formula_sum   'Ti12 Al8 Ir4 C1 N3'
_cell_volume   385.64237380
_cell_formula_units_Z   1
loop_
 _symmetry_equiv_pos_site_id
 _symmetry_equiv_pos_as_xyz
  1  'x, y, z'
loop_
 _atom_site_type_symbol
 _atom_site_label
 _atom_site_symmetry_multiplicity
 _atom_site_fract_x
 _atom_site_fract_y
 _atom_site_fract_z
 _atom_site_occupancy
  Ti  Ti0  1  0.813423  0.816912  0.184832  1
  Ti  Ti1  1  0.065168  0.433090  0.436572  1
  Ti  Ti2  1  0.433835  0.066107  0.066210  1
  Ti  Ti3  1  0.066210  0.066108  0.433838  1
  Ti  Ti4  1  0.065164  0.433107  0.065165  1
  Ti  Ti5  1  0.433853  0.066083  0.433860  1
  Ti  Ti6  1  0.184836  0.816893  0.184835  1
  Ti  Ti7  1  0.184832  0.816910  0.813428  1
  Ti  Ti8  1  0.816165  0.183893  0.183790  1
  Ti  Ti9  1  0.816147  0.183917  0.816140  1
  Ti  Ti10  1  0.436577  0.433088  0.065168  1
  Ti  Ti11  1  0.183790  0.183892  0.816162  1
  Al  Al12  1  0.414843  0.755460  0.414850  1
  Al  Al13  1  0.835665  0.834797  0.493883  1
  Al  Al14  1  0.493876  0.834801  0.835662  1
  Al  Al15  1  0.835664  0.834801  0.835656  1
  Al  Al16  1  0.756124  0.415199  0.414338  1
  Al  Al17  1  0.414336  0.415199  0.414344  1
  Al  Al18  1  0.414335  0.415203  0.756117  1
  Al  Al19  1  0.835157  0.494540  0.835150  1
  Ir  Ir20  1  0.625000  0.125000  0.625000  1
  Ir  Ir21  1  0.625000  0.625000  0.125000  1
  Ir  Ir22  1  0.125000  0.625000  0.625000  1
  Ir  Ir23  1  0.625000  0.625000  0.625000  1
  C  C24  1  0.125000  0.625000  0.125000  1
  N  N25  1  0.125000  0.125000  0.625000  1
  N  N26  1  0.625000  0.125000  0.125000  1
  N  N27  1  0.125000  0.125000  0.125000  1
