# generated using pymatgen
data_Cs5Rb2TaIn3As5
_symmetry_space_group_name_H-M   'P 1'
_cell_length_a   8.80825236
_cell_length_b   9.75832338
_cell_length_c   15.20052953
_cell_angle_alpha   85.19253732
_cell_angle_beta   84.43088920
_cell_angle_gamma   87.02070973
_symmetry_Int_Tables_number   1
_chemical_formula_structural   Cs5Rb2TaIn3As5
_chemical_formula_sum   'Cs10 Rb4 Ta2 In6 As10'
_cell_volume   1294.53436922
_cell_formula_units_Z   2
loop_
 _symmetry_equiv_pos_site_id
 _symmetry_equiv_pos_as_xyz
  1  'x, y, z'
loop_
 _atom_site_type_symbol
 _atom_site_label
 _atom_site_symmetry_multiplicity
 _atom_site_fract_x
 _atom_site_fract_y
 _atom_site_fract_z
 _atom_site_occupancy
  Cs  Cs0  1  0.745166  0.502812  0.973689  1
  Cs  Cs1  1  0.254834  0.497188  0.026311  1
  Cs  Cs2  1  0.687195  0.079109  0.885689  1
  Cs  Cs3  1  0.312805  0.920891  0.114311  1
  Cs  Cs4  1  0.682804  0.661770  0.398310  1
  Cs  Cs5  1  0.317196  0.338230  0.601690  1
  Cs  Cs6  1  0.756220  0.989318  0.532777  1
  Cs  Cs7  1  0.243780  0.010682  0.467223  1
  Cs  Cs8  1  0.830424  0.367776  0.643537  1
  Cs  Cs9  1  0.169576  0.632224  0.356463  1
  Rb  Rb10  1  0.813689  0.811634  0.136366  1
  Rb  Rb11  1  0.186311  0.188366  0.863634  1
  Rb  Rb12  1  0.271994  0.256263  0.251318  1
  Rb  Rb13  1  0.728006  0.743737  0.748682  1
  Ta  Ta14  1  0.649078  0.393305  0.227147  1
  Ta  Ta15  1  0.350922  0.606695  0.772853  1
  In  In16  1  0.908941  0.274410  0.372595  1
  In  In17  1  0.091059  0.725590  0.627405  1
  In  In18  1  0.941955  0.185642  0.131752  1
  In  In19  1  0.058045  0.814358  0.868248  1
  In  In20  1  0.637123  0.046886  0.296149  1
  In  In21  1  0.362877  0.953114  0.703851  1
  As  As22  1  0.489857  0.597073  0.191283  1
  As  As23  1  0.510143  0.402927  0.808717  1
  As  As24  1  0.925744  0.450919  0.210655  1
  As  As25  1  0.074256  0.549081  0.789345  1
  As  As26  1  0.583723  0.296309  0.385970  1
  As  As27  1  0.416277  0.703691  0.614030  1
  As  As28  1  0.618906  0.200721  0.127586  1
  As  As29  1  0.381094  0.799279  0.872414  1
  As  As30  1  0.970038  0.004913  0.294836  1
  As  As31  1  0.029962  0.995087  0.705164  1
