# generated using pymatgen
data_NdEr5Zn4Pt13
_symmetry_space_group_name_H-M   'P 1'
_cell_length_a   8.25862929
_cell_length_b   8.25862884
_cell_length_c   8.25862895
_cell_angle_alpha   109.35187705
_cell_angle_beta   109.53092348
_cell_angle_gamma   109.53093216
_symmetry_Int_Tables_number   1
_chemical_formula_structural   NdEr5Zn4Pt13
_chemical_formula_sum   'Nd1 Er5 Zn4 Pt13'
_cell_volume   433.61125358
_cell_formula_units_Z   1
loop_
 _symmetry_equiv_pos_site_id
 _symmetry_equiv_pos_as_xyz
  1  'x, y, z'
loop_
 _atom_site_type_symbol
 _atom_site_label
 _atom_site_symmetry_multiplicity
 _atom_site_fract_x
 _atom_site_fract_y
 _atom_site_fract_z
 _atom_site_occupancy
  Nd  Nd0  1  0.000000  0.703975  0.703975  1
  Er  Er1  1  0.698593  0.698900  0.000306  1
  Er  Er2  1  0.301407  0.000306  0.301713  1
  Er  Er3  1  0.000000  0.305123  0.305123  1
  Er  Er4  1  0.301407  0.301713  0.000306  1
  Er  Er5  1  0.698593  0.000306  0.698900  1
  Zn  Zn6  1  0.000000  0.999244  0.496511  1
  Zn  Zn7  1  0.000000  0.496511  0.999244  1
  Zn  Zn8  1  0.502733  0.999244  0.999244  1
  Zn  Zn9  1  0.497267  0.496511  0.496511  1
  Pt  Pt10  1  0.333860  0.334014  0.667874  1
  Pt  Pt11  1  0.666140  0.000155  0.334014  1
  Pt  Pt12  1  0.000000  0.669570  0.328134  1
  Pt  Pt13  1  0.666140  0.334014  0.000155  1
  Pt  Pt14  1  0.333860  0.667874  0.334014  1
  Pt  Pt15  1  0.000000  0.328134  0.669570  1
  Pt  Pt16  1  0.336925  0.664036  0.000962  1
  Pt  Pt17  1  0.336925  0.000962  0.664036  1
  Pt  Pt18  1  0.658564  0.328134  0.328134  1
  Pt  Pt19  1  0.663075  0.664036  0.327110  1
  Pt  Pt20  1  0.663075  0.327110  0.664036  1
  Pt  Pt21  1  0.341436  0.669570  0.669570  1
  Pt  Pt22  1  0.000000  0.010561  0.010561  1
