# generated using pymatgen
data_SmTm5(NiRh8)2
_symmetry_space_group_name_H-M   'P 1'
_cell_length_a   5.24437700
_cell_length_b   5.24437787
_cell_length_c   17.25622000
_cell_angle_alpha   90.00000000
_cell_angle_beta   90.00000000
_cell_angle_gamma   119.99998822
_symmetry_Int_Tables_number   1
_chemical_formula_structural   SmTm5(NiRh8)2
_chemical_formula_sum   'Sm1 Tm5 Ni2 Rh16'
_cell_volume   411.02120886
_cell_formula_units_Z   1
loop_
 _symmetry_equiv_pos_site_id
 _symmetry_equiv_pos_as_xyz
  1  'x, y, z'
loop_
 _atom_site_type_symbol
 _atom_site_label
 _atom_site_symmetry_multiplicity
 _atom_site_fract_x
 _atom_site_fract_y
 _atom_site_fract_z
 _atom_site_occupancy
  Sm  Sm0  1  0.666667  0.333333  0.250000  1
  Tm  Tm1  1  0.333333  0.666667  0.957967  1
  Tm  Tm2  1  0.666667  0.333333  0.041648  1
  Tm  Tm3  1  0.666667  0.333333  0.458352  1
  Tm  Tm4  1  0.333333  0.666667  0.542033  1
  Tm  Tm5  1  0.333333  0.666667  0.750000  1
  Ni  Ni6  1  0.333333  0.666667  0.250000  1
  Ni  Ni7  1  0.666667  0.333333  0.750000  1
  Rh  Rh8  1  0.168770  0.831230  0.373850  1
  Rh  Rh9  1  0.168770  0.337541  0.373850  1
  Rh  Rh10  1  0.662459  0.831230  0.373850  1
  Rh  Rh11  1  0.831088  0.168912  0.626662  1
  Rh  Rh12  1  0.831088  0.662176  0.626662  1
  Rh  Rh13  1  0.337824  0.168912  0.626662  1
  Rh  Rh14  1  0.831088  0.168912  0.873338  1
  Rh  Rh15  1  0.831088  0.662176  0.873338  1
  Rh  Rh16  1  0.337824  0.168912  0.873338  1
  Rh  Rh17  1  0.168770  0.831230  0.126150  1
  Rh  Rh18  1  0.168770  0.337541  0.126150  1
  Rh  Rh19  1  0.662459  0.831230  0.126150  1
  Rh  Rh20  1  0.000000  0.000000  0.250000  1
  Rh  Rh21  1  0.000000  0.000000  0.750000  1
  Rh  Rh22  1  0.000000  0.000000  0.500156  1
  Rh  Rh23  1  0.000000  0.000000  0.999844  1
