# generated using pymatgen
data_Ti(AgSe)4
_symmetry_space_group_name_H-M   'P 1'
_cell_length_a   7.35778762
_cell_length_b   7.35778804
_cell_length_c   7.35778766
_cell_angle_alpha   129.63669146
_cell_angle_beta   129.63668637
_cell_angle_gamma   73.98825126
_symmetry_Int_Tables_number   1
_chemical_formula_structural   Ti(AgSe)4
_chemical_formula_sum   'Ti1 Ag4 Se4'
_cell_volume   230.38901398
_cell_formula_units_Z   1
loop_
 _symmetry_equiv_pos_site_id
 _symmetry_equiv_pos_as_xyz
  1  'x, y, z'
loop_
 _atom_site_type_symbol
 _atom_site_label
 _atom_site_symmetry_multiplicity
 _atom_site_fract_x
 _atom_site_fract_y
 _atom_site_fract_z
 _atom_site_occupancy
  Ti  Ti0  1  0.000000  0.000000  0.000000  1
  Ag  Ag1  1  0.500000  0.000000  0.500000  1
  Ag  Ag2  1  0.000000  0.500000  0.500000  1
  Ag  Ag3  1  0.729711  0.729711  0.000000  1
  Ag  Ag4  1  0.270289  0.270289  0.000000  1
  Se  Se5  1  0.350441  0.350441  0.454632  1
  Se  Se6  1  0.649559  0.104193  0.000000  1
  Se  Se7  1  0.895807  0.895807  0.545368  1
  Se  Se8  1  0.104193  0.649559  0.000000  1
