# generated using pymatgen
data_Ca3Ge2(AsPd5)4
_symmetry_space_group_name_H-M   'P 1'
_cell_length_a   8.88478420
_cell_length_b   8.88478389
_cell_length_c   8.91189000
_cell_angle_alpha   59.89902738
_cell_angle_beta   59.89902855
_cell_angle_gamma   60.20194232
_symmetry_Int_Tables_number   1
_chemical_formula_structural   Ca3Ge2(AsPd5)4
_chemical_formula_sum   'Ca3 Ge2 As4 Pd20'
_cell_volume   497.43971606
_cell_formula_units_Z   1
loop_
 _symmetry_equiv_pos_site_id
 _symmetry_equiv_pos_as_xyz
  1  'x, y, z'
loop_
 _atom_site_type_symbol
 _atom_site_label
 _atom_site_symmetry_multiplicity
 _atom_site_fract_x
 _atom_site_fract_y
 _atom_site_fract_z
 _atom_site_occupancy
  Ca  Ca0  1  0.250000  0.250000  0.250000  1
  Ca  Ca1  1  0.750000  0.750000  0.750000  1
  Ca  Ca2  1  0.000000  0.000000  0.000000  1
  Ge  Ge3  1  0.267134  0.267134  0.732866  1
  Ge  Ge4  1  0.732866  0.732866  0.267134  1
  As  As5  1  0.735863  0.264137  0.264137  1
  As  As6  1  0.264137  0.735863  0.735863  1
  As  As7  1  0.264137  0.735863  0.264137  1
  As  As8  1  0.735863  0.264137  0.735863  1
  Pd  Pd9  1  0.384425  0.384425  0.383433  1
  Pd  Pd10  1  0.615575  0.615575  0.616567  1
  Pd  Pd11  1  0.384425  0.384425  0.847717  1
  Pd  Pd12  1  0.383433  0.847717  0.384425  1
  Pd  Pd13  1  0.615575  0.615575  0.152283  1
  Pd  Pd14  1  0.616567  0.152283  0.615575  1
  Pd  Pd15  1  0.847717  0.383433  0.384425  1
  Pd  Pd16  1  0.152283  0.616567  0.615575  1
  Pd  Pd17  1  0.348601  0.001410  0.998590  1
  Pd  Pd18  1  0.651399  0.998590  0.001410  1
  Pd  Pd19  1  0.001410  0.348601  0.651399  1
  Pd  Pd20  1  0.998590  0.651399  0.348601  1
  Pd  Pd21  1  0.001410  0.348601  0.998590  1
  Pd  Pd22  1  0.651399  0.998590  0.348601  1
  Pd  Pd23  1  0.998590  0.651399  0.001410  1
  Pd  Pd24  1  0.348601  0.001410  0.651399  1
  Pd  Pd25  1  0.000000  0.000000  0.348026  1
  Pd  Pd26  1  0.000000  0.000000  0.651974  1
  Pd  Pd27  1  0.651974  0.348026  0.000000  1
  Pd  Pd28  1  0.348026  0.651974  0.000000  1
