# generated using pymatgen
data_CeTh3(PPt)4
_symmetry_space_group_name_H-M   'P 1'
_cell_length_a   4.19199800
_cell_length_b   4.19199771
_cell_length_c   16.06889800
_cell_angle_alpha   90.00000000
_cell_angle_beta   90.00000000
_cell_angle_gamma   119.99998653
_symmetry_Int_Tables_number   1
_chemical_formula_structural   CeTh3(PPt)4
_chemical_formula_sum   'Ce1 Th3 P4 Pt4'
_cell_volume   244.54505647
_cell_formula_units_Z   1
loop_
 _symmetry_equiv_pos_site_id
 _symmetry_equiv_pos_as_xyz
  1  'x, y, z'
loop_
 _atom_site_type_symbol
 _atom_site_label
 _atom_site_symmetry_multiplicity
 _atom_site_fract_x
 _atom_site_fract_y
 _atom_site_fract_z
 _atom_site_occupancy
  Ce  Ce0  1  0.000000  0.000000  0.000000  1
  Th  Th1  1  0.000000  0.000000  0.500000  1
  Th  Th2  1  0.000000  0.000000  0.248462  1
  Th  Th3  1  0.000000  0.000000  0.751538  1
  P  P4  1  0.333333  0.666667  0.876031  1
  P  P5  1  0.666667  0.333333  0.123969  1
  P  P6  1  0.666667  0.333333  0.368629  1
  P  P7  1  0.333333  0.666667  0.631371  1
  Pt  Pt8  1  0.333333  0.666667  0.378917  1
  Pt  Pt9  1  0.666667  0.333333  0.621083  1
  Pt  Pt10  1  0.666667  0.333333  0.875448  1
  Pt  Pt11  1  0.333333  0.666667  0.124552  1
