# generated using pymatgen
data_Er16Tm4HgBi11
_symmetry_space_group_name_H-M   'P 1'
_cell_length_a   8.17736235
_cell_length_b   9.43976103
_cell_length_c   11.95022481
_cell_angle_alpha   90.00213433
_cell_angle_beta   89.60428508
_cell_angle_gamma   89.99084393
_symmetry_Int_Tables_number   1
_chemical_formula_structural   Er16Tm4HgBi11
_chemical_formula_sum   'Er16 Tm4 Hg1 Bi11'
_cell_volume   922.44388035
_cell_formula_units_Z   1
loop_
 _symmetry_equiv_pos_site_id
 _symmetry_equiv_pos_as_xyz
  1  'x, y, z'
loop_
 _atom_site_type_symbol
 _atom_site_label
 _atom_site_symmetry_multiplicity
 _atom_site_fract_x
 _atom_site_fract_y
 _atom_site_fract_z
 _atom_site_occupancy
  Er  Er0  1  0.033441  0.250067  0.508591  1
  Er  Er1  1  0.978163  0.749980  0.489466  1
  Er  Er2  1  0.475279  0.749977  0.010594  1
  Er  Er3  1  0.525170  0.250043  0.989714  1
  Er  Er4  1  0.355795  0.250078  0.289850  1
  Er  Er5  1  0.647248  0.749969  0.716553  1
  Er  Er6  1  0.148897  0.749957  0.783623  1
  Er  Er7  1  0.853579  0.250052  0.215241  1
  Er  Er8  1  0.191265  0.250048  0.780027  1
  Er  Er9  1  0.809960  0.750010  0.217160  1
  Er  Er10  1  0.312929  0.749957  0.281608  1
  Er  Er11  1  0.679663  0.250006  0.713313  1
  Er  Er12  1  0.192839  0.065476  0.060407  1
  Er  Er13  1  0.807030  0.934576  0.940776  1
  Er  Er14  1  0.307406  0.945702  0.559772  1
  Er  Er15  1  0.806964  0.565425  0.940749  1
  Tm  Tm16  1  0.688021  0.069664  0.443863  1
  Tm  Tm17  1  0.192896  0.434394  0.060434  1
  Tm  Tm18  1  0.687992  0.430354  0.443866  1
  Tm  Tm19  1  0.307445  0.554245  0.559765  1
  Hg  Hg20  1  0.406021  0.250286  0.540985  1
  Bi  Bi21  1  0.593942  0.749906  0.457340  1
  Bi  Bi22  1  0.094611  0.749734  0.042972  1
  Bi  Bi23  1  0.906221  0.250095  0.954786  1
  Bi  Bi24  1  0.062712  0.002518  0.323646  1
  Bi  Bi25  1  0.935506  0.996982  0.675474  1
  Bi  Bi26  1  0.435677  0.996716  0.825674  1
  Bi  Bi27  1  0.935596  0.502995  0.675470  1
  Bi  Bi28  1  0.564713  0.003785  0.174515  1
  Bi  Bi29  1  0.062684  0.497491  0.323603  1
  Bi  Bi30  1  0.564646  0.496232  0.174507  1
  Bi  Bi31  1  0.435693  0.503282  0.825660  1
