# generated using pymatgen
data_PuPa3B16
_symmetry_space_group_name_H-M   'P 1'
_cell_length_a   7.08216208
_cell_length_b   7.08216208
_cell_length_c   3.99562800
_cell_angle_alpha   90.00000000
_cell_angle_beta   90.00000000
_cell_angle_gamma   89.50125663
_symmetry_Int_Tables_number   1
_chemical_formula_structural   PuPa3B16
_chemical_formula_sum   'Pu1 Pa3 B16'
_cell_volume   200.40119970
_cell_formula_units_Z   1
loop_
 _symmetry_equiv_pos_site_id
 _symmetry_equiv_pos_as_xyz
  1  'x, y, z'
loop_
 _atom_site_type_symbol
 _atom_site_label
 _atom_site_symmetry_multiplicity
 _atom_site_fract_x
 _atom_site_fract_y
 _atom_site_fract_z
 _atom_site_occupancy
  Pu  Pu0  1  0.810827  0.310827  0.000000  1
  Pa  Pa1  1  0.187971  0.687971  0.000000  1
  Pa  Pa2  1  0.689916  0.809649  0.000000  1
  Pa  Pa3  1  0.309649  0.189916  0.000000  1
  B  B4  1  0.323623  0.460732  0.500000  1
  B  B5  1  0.680563  0.535648  0.500000  1
  B  B6  1  0.541935  0.320225  0.500000  1
  B  B7  1  0.462604  0.676632  0.500000  1
  B  B8  1  0.998022  0.002410  0.199660  1
  B  B9  1  0.502410  0.498022  0.800340  1
  B  B10  1  0.998022  0.002410  0.800340  1
  B  B11  1  0.502410  0.498022  0.199660  1
  B  B12  1  0.586056  0.086056  0.500000  1
  B  B13  1  0.088190  0.412613  0.500000  1
  B  B14  1  0.912613  0.588190  0.500000  1
  B  B15  1  0.411951  0.911951  0.500000  1
  B  B16  1  0.035648  0.180563  0.500000  1
  B  B17  1  0.176632  0.962604  0.500000  1
  B  B18  1  0.820225  0.041935  0.500000  1
  B  B19  1  0.960732  0.823623  0.500000  1
