# generated using pymatgen
data_Nd6Er10Cd4Co3Pd
_symmetry_space_group_name_H-M   'P 1'
_cell_length_a   9.62785487
_cell_length_b   9.59356485
_cell_length_c   9.59356500
_cell_angle_alpha   60.00000294
_cell_angle_beta   60.11774805
_cell_angle_gamma   60.11774885
_symmetry_Int_Tables_number   1
_chemical_formula_structural   Nd6Er10Cd4Co3Pd
_chemical_formula_sum   'Nd6 Er10 Cd4 Co3 Pd1'
_cell_volume   627.69004339
_cell_formula_units_Z   1
loop_
 _symmetry_equiv_pos_site_id
 _symmetry_equiv_pos_as_xyz
  1  'x, y, z'
loop_
 _atom_site_type_symbol
 _atom_site_label
 _atom_site_symmetry_multiplicity
 _atom_site_fract_x
 _atom_site_fract_y
 _atom_site_fract_z
 _atom_site_occupancy
  Nd  Nd0  1  0.936680  0.561337  0.561337  1
  Nd  Nd1  1  0.558851  0.940149  0.940149  1
  Nd  Nd2  1  0.558851  0.940149  0.560850  1
  Nd  Nd3  1  0.936680  0.561337  0.940645  1
  Nd  Nd4  1  0.558851  0.560850  0.940149  1
  Nd  Nd5  1  0.936680  0.940645  0.561337  1
  Er  Er6  1  0.336306  0.351929  0.351929  1
  Er  Er7  1  0.336306  0.351929  0.959836  1
  Er  Er8  1  0.336306  0.959836  0.351929  1
  Er  Er9  1  0.968883  0.343705  0.343705  1
  Er  Er10  1  0.825917  0.184854  0.184854  1
  Er  Er11  1  0.186024  0.814535  0.814535  1
  Er  Er12  1  0.186024  0.814535  0.184907  1
  Er  Er13  1  0.825917  0.184854  0.804375  1
  Er  Er14  1  0.186024  0.184907  0.814535  1
  Er  Er15  1  0.825917  0.804375  0.184854  1
  Cd  Cd16  1  0.579626  0.578406  0.578406  1
  Cd  Cd17  1  0.579626  0.578406  0.263565  1
  Cd  Cd18  1  0.579626  0.263565  0.578406  1
  Cd  Cd19  1  0.259844  0.580052  0.580052  1
  Co  Co20  1  0.141758  0.141278  0.141278  1
  Co  Co21  1  0.141758  0.141278  0.575683  1
  Co  Co22  1  0.141758  0.575683  0.141278  1
  Pd  Pd23  1  0.575792  0.141402  0.141402  1
