# generated using pymatgen
data_Gd2SiIr2
_symmetry_space_group_name_H-M   'P 1'
_cell_length_a   5.66050750
_cell_length_b   5.66050674
_cell_length_c   7.58603709
_cell_angle_alpha   100.34528524
_cell_angle_beta   100.34528204
_cell_angle_gamma   59.23932428
_symmetry_Int_Tables_number   1
_chemical_formula_structural   Gd2SiIr2
_chemical_formula_sum   'Gd4 Si2 Ir4'
_cell_volume   204.36489776
_cell_formula_units_Z   2
loop_
 _symmetry_equiv_pos_site_id
 _symmetry_equiv_pos_as_xyz
  1  'x, y, z'
loop_
 _atom_site_type_symbol
 _atom_site_label
 _atom_site_symmetry_multiplicity
 _atom_site_fract_x
 _atom_site_fract_y
 _atom_site_fract_z
 _atom_site_occupancy
  Gd  Gd0  1  0.284110  0.013093  0.148584  1
  Gd  Gd1  1  0.986906  0.715890  0.351417  1
  Gd  Gd2  1  0.013094  0.284110  0.648583  1
  Gd  Gd3  1  0.715890  0.986906  0.851417  1
  Si  Si4  1  0.610830  0.389169  0.249999  1
  Si  Si5  1  0.389170  0.610831  0.750000  1
  Ir  Ir6  1  0.762254  0.495998  0.004013  1
  Ir  Ir7  1  0.504002  0.237746  0.495986  1
  Ir  Ir8  1  0.495998  0.762253  0.504014  1
  Ir  Ir9  1  0.237747  0.504002  0.995986  1
