# generated using pymatgen
data_Tb2Gd2Ga4IrPd3
_symmetry_space_group_name_H-M   'P 1'
_cell_length_a   4.42612200
_cell_length_b   6.85006700
_cell_length_c   7.81036000
_cell_angle_alpha   90.09286848
_cell_angle_beta   90.00000000
_cell_angle_gamma   90.00000000
_symmetry_Int_Tables_number   1
_chemical_formula_structural   Tb2Gd2Ga4IrPd3
_chemical_formula_sum   'Tb2 Gd2 Ga4 Ir1 Pd3'
_cell_volume   236.80380767
_cell_formula_units_Z   1
loop_
 _symmetry_equiv_pos_site_id
 _symmetry_equiv_pos_as_xyz
  1  'x, y, z'
loop_
 _atom_site_type_symbol
 _atom_site_label
 _atom_site_symmetry_multiplicity
 _atom_site_fract_x
 _atom_site_fract_y
 _atom_site_fract_z
 _atom_site_occupancy
  Tb  Tb0  1  0.250000  0.032923  0.685408  1
  Tb  Tb1  1  0.250000  0.529617  0.811522  1
  Gd  Gd2  1  0.750000  0.980000  0.312619  1
  Gd  Gd3  1  0.750000  0.468707  0.192136  1
  Ga  Ga4  1  0.250000  0.159825  0.065433  1
  Ga  Ga5  1  0.250000  0.651909  0.435273  1
  Ga  Ga6  1  0.750000  0.842382  0.934984  1
  Ga  Ga7  1  0.750000  0.341148  0.565743  1
  Ir  Ir8  1  0.250000  0.267409  0.385742  1
  Pd  Pd9  1  0.250000  0.772533  0.111732  1
  Pd  Pd10  1  0.750000  0.726766  0.613766  1
  Pd  Pd11  1  0.750000  0.226781  0.885637  1
