# generated using pymatgen
data_SmTaReB6
_symmetry_space_group_name_H-M   'P 1'
_cell_length_a   3.58228800
_cell_length_b   8.98688900
_cell_length_c   11.38775400
_cell_angle_alpha   90.00000000
_cell_angle_beta   90.00000000
_cell_angle_gamma   90.00000000
_symmetry_Int_Tables_number   1
_chemical_formula_structural   SmTaReB6
_chemical_formula_sum   'Sm4 Ta4 Re4 B24'
_cell_volume   366.61307756
_cell_formula_units_Z   4
loop_
 _symmetry_equiv_pos_site_id
 _symmetry_equiv_pos_as_xyz
  1  'x, y, z'
loop_
 _atom_site_type_symbol
 _atom_site_label
 _atom_site_symmetry_multiplicity
 _atom_site_fract_x
 _atom_site_fract_y
 _atom_site_fract_z
 _atom_site_occupancy
  Sm  Sm0  1  0.000000  0.323241  0.414282  1
  Sm  Sm1  1  0.000000  0.676759  0.585718  1
  Sm  Sm2  1  0.000000  0.823241  0.085718  1
  Sm  Sm3  1  0.000000  0.176759  0.914282  1
  Ta  Ta4  1  0.000000  0.946433  0.374909  1
  Ta  Ta5  1  0.000000  0.053567  0.625091  1
  Ta  Ta6  1  0.000000  0.446433  0.125091  1
  Ta  Ta7  1  0.000000  0.553567  0.874909  1
  Re  Re8  1  0.000000  0.644481  0.316244  1
  Re  Re9  1  0.000000  0.355519  0.683756  1
  Re  Re10  1  0.000000  0.144481  0.183756  1
  Re  Re11  1  0.000000  0.855519  0.816244  1
  B  B12  1  0.500000  0.556020  0.432115  1
  B  B13  1  0.500000  0.443980  0.567885  1
  B  B14  1  0.500000  0.056020  0.067885  1
  B  B15  1  0.500000  0.943980  0.932115  1
  B  B16  1  0.500000  0.755865  0.416606  1
  B  B17  1  0.500000  0.244135  0.583394  1
  B  B18  1  0.500000  0.255865  0.083394  1
  B  B19  1  0.500000  0.744135  0.916606  1
  B  B20  1  0.500000  0.797931  0.263601  1
  B  B21  1  0.500000  0.202069  0.736399  1
  B  B22  1  0.500000  0.297931  0.236399  1
  B  B23  1  0.500000  0.702069  0.763601  1
  B  B24  1  0.500000  0.629538  0.181140  1
  B  B25  1  0.500000  0.370462  0.818860  1
  B  B26  1  0.500000  0.129538  0.318860  1
  B  B27  1  0.500000  0.870462  0.681140  1
  B  B28  1  0.500000  0.983130  0.215154  1
  B  B29  1  0.500000  0.016870  0.784846  1
  B  B30  1  0.500000  0.483130  0.284846  1
  B  B31  1  0.500000  0.516870  0.715154  1
  B  B32  1  0.500000  0.597984  0.025742  1
  B  B33  1  0.500000  0.402016  0.974258  1
  B  B34  1  0.500000  0.097984  0.474258  1
  B  B35  1  0.500000  0.902016  0.525742  1
