# generated using pymatgen
data_Pr3Dy2Tc3(P3Ir4)4
_symmetry_space_group_name_H-M   'P 1'
_cell_length_a   12.74187800
_cell_length_b   12.74187883
_cell_length_c   4.00818800
_cell_angle_alpha   90.00000000
_cell_angle_beta   90.00000000
_cell_angle_gamma   119.99999784
_symmetry_Int_Tables_number   1
_chemical_formula_structural   Pr3Dy2Tc3(P3Ir4)4
_chemical_formula_sum   'Pr3 Dy2 Tc3 P12 Ir16'
_cell_volume   563.56710794
_cell_formula_units_Z   1
loop_
 _symmetry_equiv_pos_site_id
 _symmetry_equiv_pos_as_xyz
  1  'x, y, z'
loop_
 _atom_site_type_symbol
 _atom_site_label
 _atom_site_symmetry_multiplicity
 _atom_site_fract_x
 _atom_site_fract_y
 _atom_site_fract_z
 _atom_site_occupancy
  Pr  Pr0  1  0.000000  0.813240  0.000000  1
  Pr  Pr1  1  0.186760  0.186760  0.000000  1
  Pr  Pr2  1  0.813240  0.000000  0.000000  1
  Dy  Dy3  1  0.333333  0.666667  0.500000  1
  Dy  Dy4  1  0.666667  0.333333  0.500000  1
  Tc  Tc5  1  0.000000  0.454823  0.500000  1
  Tc  Tc6  1  0.545177  0.545177  0.500000  1
  Tc  Tc7  1  0.454823  0.000000  0.500000  1
  P  P8  1  0.000000  0.635649  0.500000  1
  P  P9  1  0.364351  0.364351  0.500000  1
  P  P10  1  0.635649  0.000000  0.500000  1
  P  P11  1  0.515206  0.686443  0.000000  1
  P  P12  1  0.313557  0.828762  0.000000  1
  P  P13  1  0.171238  0.484794  0.000000  1
  P  P14  1  0.484794  0.171238  0.000000  1
  P  P15  1  0.686443  0.515206  0.000000  1
  P  P16  1  0.828762  0.313557  0.000000  1
  P  P17  1  0.000000  0.179618  0.500000  1
  P  P18  1  0.820382  0.820382  0.500000  1
  P  P19  1  0.179618  0.000000  0.500000  1
  Ir  Ir20  1  0.508572  0.868864  0.000000  1
  Ir  Ir21  1  0.131136  0.639710  0.000000  1
  Ir  Ir22  1  0.360290  0.491428  0.000000  1
  Ir  Ir23  1  0.491428  0.360290  0.000000  1
  Ir  Ir24  1  0.868864  0.508572  0.000000  1
  Ir  Ir25  1  0.639710  0.131136  0.000000  1
  Ir  Ir26  1  0.000000  0.291836  0.000000  1
  Ir  Ir27  1  0.708164  0.708164  0.000000  1
  Ir  Ir28  1  0.291836  0.000000  0.000000  1
  Ir  Ir29  1  0.620658  0.799942  0.500000  1
  Ir  Ir30  1  0.200058  0.820716  0.500000  1
  Ir  Ir31  1  0.179284  0.379342  0.500000  1
  Ir  Ir32  1  0.379342  0.179284  0.500000  1
  Ir  Ir33  1  0.799942  0.620658  0.500000  1
  Ir  Ir34  1  0.820716  0.200058  0.500000  1
  Ir  Ir35  1  0.000000  0.000000  0.500000  1
