# generated using pymatgen
data_BaDyLuTe4
_symmetry_space_group_name_H-M   'P 1'
_cell_length_a   4.46116700
_cell_length_b   13.78147900
_cell_length_c   16.18202800
_cell_angle_alpha   90.00000000
_cell_angle_beta   90.00000000
_cell_angle_gamma   90.00000000
_symmetry_Int_Tables_number   1
_chemical_formula_structural   BaDyLuTe4
_chemical_formula_sum   'Ba4 Dy4 Lu4 Te16'
_cell_volume   994.89501993
_cell_formula_units_Z   4
loop_
 _symmetry_equiv_pos_site_id
 _symmetry_equiv_pos_as_xyz
  1  'x, y, z'
loop_
 _atom_site_type_symbol
 _atom_site_label
 _atom_site_symmetry_multiplicity
 _atom_site_fract_x
 _atom_site_fract_y
 _atom_site_fract_z
 _atom_site_occupancy
  Ba  Ba0  1  0.750000  0.260865  0.830823  1
  Ba  Ba1  1  0.250000  0.739135  0.169177  1
  Ba  Ba2  1  0.750000  0.760865  0.669177  1
  Ba  Ba3  1  0.250000  0.239135  0.330823  1
  Dy  Dy4  1  0.750000  0.940301  0.890172  1
  Dy  Dy5  1  0.250000  0.059699  0.109828  1
  Dy  Dy6  1  0.750000  0.440301  0.609828  1
  Dy  Dy7  1  0.250000  0.559699  0.390172  1
  Lu  Lu8  1  0.250000  0.080111  0.596154  1
  Lu  Lu9  1  0.750000  0.919889  0.403846  1
  Lu  Lu10  1  0.250000  0.580111  0.903846  1
  Lu  Lu11  1  0.750000  0.419889  0.096154  1
  Te  Te12  1  0.250000  0.471843  0.214084  1
  Te  Te13  1  0.750000  0.528157  0.785916  1
  Te  Te14  1  0.250000  0.971843  0.285916  1
  Te  Te15  1  0.750000  0.028157  0.714084  1
  Te  Te16  1  0.250000  0.374826  0.972905  1
  Te  Te17  1  0.750000  0.625174  0.027095  1
  Te  Te18  1  0.250000  0.874826  0.527095  1
  Te  Te19  1  0.750000  0.125174  0.472905  1
  Te  Te20  1  0.250000  0.292955  0.660510  1
  Te  Te21  1  0.750000  0.707045  0.339490  1
  Te  Te22  1  0.250000  0.792955  0.839490  1
  Te  Te23  1  0.750000  0.207045  0.160510  1
  Te  Te24  1  0.750000  0.409758  0.423209  1
  Te  Te25  1  0.250000  0.590242  0.576791  1
  Te  Te26  1  0.750000  0.909758  0.076791  1
  Te  Te27  1  0.250000  0.090242  0.923209  1
