# generated using pymatgen
data_HfZrP2IrRh
_symmetry_space_group_name_H-M   'P 1'
_cell_length_a   3.82124800
_cell_length_b   6.53026200
_cell_length_c   7.43106700
_cell_angle_alpha   90.00000000
_cell_angle_beta   90.00000000
_cell_angle_gamma   90.00000000
_symmetry_Int_Tables_number   1
_chemical_formula_structural   HfZrP2IrRh
_chemical_formula_sum   'Hf2 Zr2 P4 Ir2 Rh2'
_cell_volume   185.43299266
_cell_formula_units_Z   2
loop_
 _symmetry_equiv_pos_site_id
 _symmetry_equiv_pos_as_xyz
  1  'x, y, z'
loop_
 _atom_site_type_symbol
 _atom_site_label
 _atom_site_symmetry_multiplicity
 _atom_site_fract_x
 _atom_site_fract_y
 _atom_site_fract_z
 _atom_site_occupancy
  Hf  Hf0  1  0.750000  0.972187  0.178103  1
  Hf  Hf1  1  0.750000  0.472187  0.321897  1
  Zr  Zr2  1  0.250000  0.027122  0.820745  1
  Zr  Zr3  1  0.250000  0.527122  0.679255  1
  P  P4  1  0.250000  0.759757  0.377274  1
  P  P5  1  0.250000  0.259757  0.122726  1
  P  P6  1  0.750000  0.240106  0.623620  1
  P  P7  1  0.750000  0.740106  0.876380  1
  Ir  Ir8  1  0.250000  0.146091  0.432628  1
  Ir  Ir9  1  0.250000  0.646091  0.067372  1
  Rh  Rh10  1  0.750000  0.854738  0.558809  1
  Rh  Rh11  1  0.750000  0.354738  0.941191  1
