# generated using pymatgen
data_HfNp5Cl30
_symmetry_space_group_name_H-M   'P 1'
_cell_length_a   14.17525507
_cell_length_b   14.17525489
_cell_length_c   7.36749634
_cell_angle_alpha   85.80743878
_cell_angle_beta   85.80744254
_cell_angle_gamma   89.50050028
_symmetry_Int_Tables_number   1
_chemical_formula_structural   HfNp5Cl30
_chemical_formula_sum   'Hf1 Np5 Cl30'
_cell_volume   1472.48782955
_cell_formula_units_Z   1
loop_
 _symmetry_equiv_pos_site_id
 _symmetry_equiv_pos_as_xyz
  1  'x, y, z'
loop_
 _atom_site_type_symbol
 _atom_site_label
 _atom_site_symmetry_multiplicity
 _atom_site_fract_x
 _atom_site_fract_y
 _atom_site_fract_z
 _atom_site_occupancy
  Hf  Hf0  1  0.117477  0.882523  0.000000  1
  Np  Np1  1  0.903645  0.096355  0.000000  1
  Np  Np2  1  0.771090  0.564664  0.432726  1
  Np  Np3  1  0.229060  0.437072  0.566994  1
  Np  Np4  1  0.435336  0.228910  0.567274  1
  Np  Np5  1  0.562928  0.770940  0.433006  1
  Cl  Cl6  1  0.511246  0.307542  0.805802  1
  Cl  Cl7  1  0.265599  0.267075  0.734096  1
  Cl  Cl8  1  0.155727  0.979254  0.727875  1
  Cl  Cl9  1  0.600623  0.600768  0.600473  1
  Cl  Cl10  1  0.218997  0.589205  0.387222  1
  Cl  Cl11  1  0.732925  0.734401  0.265904  1
  Cl  Cl12  1  0.153796  0.358460  0.328064  1
  Cl  Cl13  1  0.065805  0.074806  0.119341  1
  Cl  Cl14  1  0.641540  0.846204  0.671936  1
  Cl  Cl15  1  0.588235  0.218415  0.386990  1
  Cl  Cl16  1  0.113520  0.737592  0.874098  1
  Cl  Cl17  1  0.020746  0.844273  0.272125  1
  Cl  Cl18  1  0.923165  0.554758  0.251706  1
  Cl  Cl19  1  0.831407  0.026360  0.290848  1
  Cl  Cl20  1  0.410795  0.781003  0.612778  1
  Cl  Cl21  1  0.781585  0.411765  0.613010  1
  Cl  Cl22  1  0.553168  0.923191  0.251419  1
  Cl  Cl23  1  0.973640  0.168593  0.709152  1
  Cl  Cl24  1  0.846050  0.643011  0.671122  1
  Cl  Cl25  1  0.890548  0.253172  0.120949  1
  Cl  Cl26  1  0.487868  0.691680  0.194956  1
  Cl  Cl27  1  0.356989  0.153950  0.328878  1
  Cl  Cl28  1  0.076809  0.446832  0.748581  1
  Cl  Cl29  1  0.746828  0.109452  0.879051  1
  Cl  Cl30  1  0.445242  0.076835  0.748294  1
  Cl  Cl31  1  0.399232  0.399377  0.399527  1
  Cl  Cl32  1  0.308320  0.512132  0.805044  1
  Cl  Cl33  1  0.262408  0.886480  0.125902  1
  Cl  Cl34  1  0.925194  0.934195  0.880659  1
  Cl  Cl35  1  0.692458  0.488754  0.194198  1
