# generated using pymatgen
data_TiTc(IrRh)3
_symmetry_space_group_name_H-M   'P 1'
_cell_length_a   5.49192800
_cell_length_b   5.49192922
_cell_length_c   4.40323800
_cell_angle_alpha   90.00000000
_cell_angle_beta   90.00000000
_cell_angle_gamma   120.00000467
_symmetry_Int_Tables_number   1
_chemical_formula_structural   TiTc(IrRh)3
_chemical_formula_sum   'Ti1 Tc1 Ir3 Rh3'
_cell_volume   115.01448473
_cell_formula_units_Z   1
loop_
 _symmetry_equiv_pos_site_id
 _symmetry_equiv_pos_as_xyz
  1  'x, y, z'
loop_
 _atom_site_type_symbol
 _atom_site_label
 _atom_site_symmetry_multiplicity
 _atom_site_fract_x
 _atom_site_fract_y
 _atom_site_fract_z
 _atom_site_occupancy
  Ti  Ti0  1  0.333333  0.666667  0.750000  1
  Tc  Tc1  1  0.666667  0.333333  0.250000  1
  Ir  Ir2  1  0.831924  0.663850  0.750000  1
  Ir  Ir3  1  0.336150  0.168076  0.750000  1
  Ir  Ir4  1  0.831924  0.168076  0.750000  1
  Rh  Rh5  1  0.165062  0.330123  0.250000  1
  Rh  Rh6  1  0.669877  0.834938  0.250000  1
  Rh  Rh7  1  0.165062  0.834938  0.250000  1
