# generated using pymatgen
data_PuPaBiN2
_symmetry_space_group_name_H-M   'P 1'
_cell_length_a   7.14152179
_cell_length_b   7.14152202
_cell_length_c   7.14152366
_cell_angle_alpha   147.94580735
_cell_angle_beta   147.94581166
_cell_angle_gamma   45.96537348
_symmetry_Int_Tables_number   1
_chemical_formula_structural   PuPaBiN2
_chemical_formula_sum   'Pu1 Pa1 Bi1 N2'
_cell_volume   102.24016282
_cell_formula_units_Z   1
loop_
 _symmetry_equiv_pos_site_id
 _symmetry_equiv_pos_as_xyz
  1  'x, y, z'
loop_
 _atom_site_type_symbol
 _atom_site_label
 _atom_site_symmetry_multiplicity
 _atom_site_fract_x
 _atom_site_fract_y
 _atom_site_fract_z
 _atom_site_occupancy
  Pu  Pu0  1  0.339052  0.339052  0.000000  1
  Pa  Pa1  1  0.669409  0.669409  0.000000  1
  Bi  Bi2  1  0.999638  0.999638  0.000000  1
  N  N3  1  0.245951  0.745951  0.500000  1
  N  N4  1  0.745951  0.245951  0.500000  1
