# generated using pymatgen
data_K3RbHf4Zr2BBr18
_symmetry_space_group_name_H-M   'P 1'
_cell_length_a   10.58896990
_cell_length_b   10.84750572
_cell_length_c   10.94414300
_cell_angle_alpha   118.47002271
_cell_angle_beta   100.43222373
_cell_angle_gamma   104.09930407
_symmetry_Int_Tables_number   1
_chemical_formula_structural   K3RbHf4Zr2BBr18
_chemical_formula_sum   'K3 Rb1 Hf4 Zr2 B1 Br18'
_cell_volume   1004.54887177
_cell_formula_units_Z   1
loop_
 _symmetry_equiv_pos_site_id
 _symmetry_equiv_pos_as_xyz
  1  'x, y, z'
loop_
 _atom_site_type_symbol
 _atom_site_label
 _atom_site_symmetry_multiplicity
 _atom_site_fract_x
 _atom_site_fract_y
 _atom_site_fract_z
 _atom_site_occupancy
  K  K0  1  0.187942  0.728636  0.564864  1
  K  K1  1  0.846531  0.965660  0.773693  1
  K  K2  1  0.154098  0.037217  0.227855  1
  Rb  Rb3  1  0.810387  0.275271  0.436623  1
  Hf  Hf4  1  0.354749  0.445890  0.776116  1
  Hf  Hf5  1  0.366262  0.622158  0.129055  1
  Hf  Hf6  1  0.640754  0.730457  0.041366  1
  Hf  Hf7  1  0.645091  0.550510  0.221923  1
  Zr  Zr8  1  0.360386  0.266780  0.956772  1
  Zr  Zr9  1  0.632701  0.374370  0.869851  1
  B  B10  1  0.499902  0.503356  0.001627  1
  Br  Br11  1  0.818170  0.427824  0.112366  1
  Br  Br12  1  0.517461  0.700171  0.398797  1
  Br  Br13  1  0.178013  0.985253  0.901030  1
  Br  Br14  1  0.184591  0.573048  0.891392  1
  Br  Br15  1  0.823085  0.822777  0.301770  1
  Br  Br16  1  0.506560  0.300339  0.209657  1
  Br  Br17  1  0.792957  0.230047  0.719245  1
  Br  Br18  1  0.174191  0.175867  0.694178  1
  Br  Br19  1  0.509300  0.899482  0.191913  1
  Br  Br20  1  0.812552  0.627972  0.907664  1
  Br  Br21  1  0.211926  0.769769  0.281314  1
  Br  Br22  1  0.172743  0.383387  0.509631  1
  Br  Br23  1  0.494762  0.700684  0.794740  1
  Br  Br24  1  0.816636  0.009174  0.097239  1
  Br  Br25  1  0.480899  0.299639  0.597071  1
  Br  Br26  1  0.187979  0.376912  0.094848  1
  Br  Br27  1  0.829131  0.624486  0.493074  1
  Br  Br28  1  0.490237  0.092860  0.804321  1
