# generated using pymatgen
data_Mn4Al6TeO12
_symmetry_space_group_name_H-M   'P 1'
_cell_length_a   7.71472676
_cell_length_b   7.71472685
_cell_length_c   7.71472700
_cell_angle_alpha   109.47122366
_cell_angle_beta   109.47122388
_cell_angle_gamma   109.47121717
_symmetry_Int_Tables_number   1
_chemical_formula_structural   Mn4Al6TeO12
_chemical_formula_sum   'Mn4 Al6 Te1 O12'
_cell_volume   353.45958175
_cell_formula_units_Z   1
loop_
 _symmetry_equiv_pos_site_id
 _symmetry_equiv_pos_as_xyz
  1  'x, y, z'
loop_
 _atom_site_type_symbol
 _atom_site_label
 _atom_site_symmetry_multiplicity
 _atom_site_fract_x
 _atom_site_fract_y
 _atom_site_fract_z
 _atom_site_occupancy
  Mn  Mn0  1  0.365456  0.365456  0.365456  1
  Mn  Mn1  1  0.000000  0.634544  0.000000  1
  Mn  Mn2  1  0.000000  0.000000  0.634544  1
  Mn  Mn3  1  0.634544  0.000000  0.000000  1
  Al  Al4  1  0.750000  0.500000  0.250000  1
  Al  Al5  1  0.250000  0.500000  0.750000  1
  Al  Al6  1  0.500000  0.750000  0.250000  1
  Al  Al7  1  0.500000  0.250000  0.750000  1
  Al  Al8  1  0.250000  0.750000  0.500000  1
  Al  Al9  1  0.750000  0.250000  0.500000  1
  Te  Te10  1  0.000000  0.000000  0.000000  1
  O  O11  1  0.730405  0.000000  0.446490  1
  O  O12  1  0.269595  0.716086  0.269595  1
  O  O13  1  0.283914  0.553510  0.553510  1
  O  O14  1  0.553510  0.553510  0.283914  1
  O  O15  1  0.000000  0.446490  0.730405  1
  O  O16  1  0.716086  0.269595  0.269595  1
  O  O17  1  0.269595  0.269595  0.716086  1
  O  O18  1  0.730405  0.446490  0.000000  1
  O  O19  1  0.446490  0.000000  0.730405  1
  O  O20  1  0.446490  0.730405  0.000000  1
  O  O21  1  0.553510  0.283914  0.553510  1
  O  O22  1  0.000000  0.730405  0.446490  1
