# generated using pymatgen
data_Ba5P3HO12
_symmetry_space_group_name_H-M   'P 1'
_cell_length_a   10.26159900
_cell_length_b   10.26161517
_cell_length_c   7.64873100
_cell_angle_alpha   90.00000000
_cell_angle_beta   90.00000000
_cell_angle_gamma   119.99989306
_symmetry_Int_Tables_number   1
_chemical_formula_structural   Ba5P3HO12
_chemical_formula_sum   'Ba10 P6 H2 O24'
_cell_volume   697.51130417
_cell_formula_units_Z   2
loop_
 _symmetry_equiv_pos_site_id
 _symmetry_equiv_pos_as_xyz
  1  'x, y, z'
loop_
 _atom_site_type_symbol
 _atom_site_label
 _atom_site_symmetry_multiplicity
 _atom_site_fract_x
 _atom_site_fract_y
 _atom_site_fract_z
 _atom_site_occupancy
  Ba  Ba0  1  0.333333  0.666668  0.999154  1
  Ba  Ba1  1  0.232296  0.246008  0.250000  1
  Ba  Ba2  1  0.013710  0.767700  0.250000  1
  Ba  Ba3  1  0.753992  0.986291  0.250000  1
  Ba  Ba4  1  0.333333  0.666668  0.500846  1
  Ba  Ba5  1  0.666668  0.333333  0.499154  1
  Ba  Ba6  1  0.246008  0.013709  0.750000  1
  Ba  Ba7  1  0.986290  0.232300  0.750000  1
  Ba  Ba8  1  0.767703  0.753992  0.750000  1
  Ba  Ba9  1  0.666668  0.333333  0.000846  1
  P  P10  1  0.402214  0.030753  0.250000  1
  P  P11  1  0.969254  0.371462  0.250000  1
  P  P12  1  0.628541  0.597786  0.250000  1
  P  P13  1  0.371459  0.402213  0.750000  1
  P  P14  1  0.030746  0.628537  0.750000  1
  P  P15  1  0.597786  0.969247  0.750000  1
  H  H16  1  0.000000  0.000000  0.000000  1
  H  H17  1  0.000000  0.000000  0.500001  1
  O  O18  1  0.350394  0.082624  0.085494  1
  O  O19  1  0.732230  0.649602  0.085495  1
  O  O20  1  0.917382  0.267776  0.085496  1
  O  O21  1  0.577466  0.109797  0.250000  1
  O  O22  1  0.532329  0.422535  0.250000  1
  O  O23  1  0.890207  0.467670  0.250000  1
  O  O24  1  0.143270  0.474510  0.250000  1
  O  O25  1  0.525496  0.668765  0.250000  1
  O  O26  1  0.331233  0.856727  0.250000  1
  O  O27  1  0.917382  0.267776  0.414503  1
  O  O28  1  0.350394  0.082624  0.414507  1
  O  O29  1  0.732230  0.649602  0.414506  1
  O  O30  1  0.649606  0.917376  0.585493  1
  O  O31  1  0.267770  0.350397  0.585495  1
  O  O32  1  0.082619  0.732225  0.585497  1
  O  O33  1  0.668767  0.143273  0.750000  1
  O  O34  1  0.474504  0.331234  0.750000  1
  O  O35  1  0.856729  0.525490  0.750000  1
  O  O36  1  0.109792  0.532330  0.750000  1
  O  O37  1  0.467672  0.577466  0.750000  1
  O  O38  1  0.422533  0.890203  0.750000  1
  O  O39  1  0.082619  0.732225  0.914504  1
  O  O40  1  0.267770  0.350397  0.914505  1
  O  O41  1  0.649606  0.917376  0.914507  1
