# generated using pymatgen
data_AcMgZn2In
_symmetry_space_group_name_H-M   'P 1'
_cell_length_a   4.45731228
_cell_length_b   4.45731192
_cell_length_c   6.57132300
_cell_angle_alpha   70.17497699
_cell_angle_beta   70.17499231
_cell_angle_gamma   89.99999940
_symmetry_Int_Tables_number   1
_chemical_formula_structural   AcMgZn2In
_chemical_formula_sum   'Ac1 Mg1 Zn2 In1'
_cell_volume   114.55972340
_cell_formula_units_Z   1
loop_
 _symmetry_equiv_pos_site_id
 _symmetry_equiv_pos_as_xyz
  1  'x, y, z'
loop_
 _atom_site_type_symbol
 _atom_site_label
 _atom_site_symmetry_multiplicity
 _atom_site_fract_x
 _atom_site_fract_y
 _atom_site_fract_z
 _atom_site_occupancy
  Ac  Ac0  1  0.000000  0.000000  0.000000  1
  Mg  Mg1  1  0.750000  0.250000  0.500000  1
  Zn  Zn2  1  0.393274  0.393274  0.213453  1
  Zn  Zn3  1  0.606726  0.606726  0.786547  1
  In  In4  1  0.250000  0.750000  0.500000  1
