# generated using pymatgen
data_TbYbReO6
_symmetry_space_group_name_H-M   'P 1'
_cell_length_a   5.35614300
_cell_length_b   7.68396169
_cell_length_c   11.41394847
_cell_angle_alpha   75.82948809
_cell_angle_beta   90.00000000
_cell_angle_gamma   90.00000000
_symmetry_Int_Tables_number   1
_chemical_formula_structural   TbYbReO6
_chemical_formula_sum   'Tb4 Yb4 Re4 O24'
_cell_volume   455.46298760
_cell_formula_units_Z   4
loop_
 _symmetry_equiv_pos_site_id
 _symmetry_equiv_pos_as_xyz
  1  'x, y, z'
loop_
 _atom_site_type_symbol
 _atom_site_label
 _atom_site_symmetry_multiplicity
 _atom_site_fract_x
 _atom_site_fract_y
 _atom_site_fract_z
 _atom_site_occupancy
  Tb  Tb0  1  0.739791  0.000000  0.750000  1
  Tb  Tb1  1  0.260209  0.000000  0.250000  1
  Tb  Tb2  1  0.675996  0.500000  0.750000  1
  Tb  Tb3  1  0.324004  0.500000  0.250000  1
  Yb  Yb4  1  0.183905  0.795658  0.578763  1
  Yb  Yb5  1  0.816095  0.795658  0.078763  1
  Yb  Yb6  1  0.183905  0.204342  0.921237  1
  Yb  Yb7  1  0.816095  0.204342  0.421237  1
  Re  Re8  1  0.253404  0.726700  0.886282  1
  Re  Re9  1  0.746596  0.726700  0.386282  1
  Re  Re10  1  0.253404  0.273300  0.613718  1
  Re  Re11  1  0.746596  0.273300  0.113718  1
  O  O12  1  0.046600  0.932879  0.893799  1
  O  O13  1  0.520489  0.849285  0.930311  1
  O  O14  1  0.953400  0.932879  0.393799  1
  O  O15  1  0.460483  0.784903  0.731331  1
  O  O16  1  0.479511  0.849285  0.430311  1
  O  O17  1  0.986200  0.706783  0.774580  1
  O  O18  1  0.539517  0.784903  0.231331  1
  O  O19  1  0.837216  0.634000  0.544594  1
  O  O20  1  0.352593  0.496208  0.886857  1
  O  O21  1  0.013800  0.706783  0.274580  1
  O  O22  1  0.352593  0.503792  0.613143  1
  O  O23  1  0.837216  0.366000  0.955406  1
  O  O24  1  0.162784  0.634000  0.044594  1
  O  O25  1  0.647407  0.496208  0.386857  1
  O  O26  1  0.986200  0.293217  0.725420  1
  O  O27  1  0.647407  0.503792  0.113143  1
  O  O28  1  0.162784  0.366000  0.455406  1
  O  O29  1  0.460483  0.215097  0.768669  1
  O  O30  1  0.013800  0.293217  0.225420  1
  O  O31  1  0.520489  0.150715  0.569689  1
  O  O32  1  0.539517  0.215097  0.268669  1
  O  O33  1  0.046600  0.067121  0.606201  1
  O  O34  1  0.479511  0.150715  0.069689  1
  O  O35  1  0.953400  0.067121  0.106201  1
