# generated using pymatgen
data_NdEuAl20IrRu3
_symmetry_space_group_name_H-M   'P 1'
_cell_length_a   6.89478583
_cell_length_b   6.89320644
_cell_length_c   9.20888354
_cell_angle_alpha   90.03573353
_cell_angle_beta   89.98597646
_cell_angle_gamma   96.78421228
_symmetry_Int_Tables_number   1
_chemical_formula_structural   NdEuAl20IrRu3
_chemical_formula_sum   'Nd1 Eu1 Al20 Ir1 Ru3'
_cell_volume   434.60765500
_cell_formula_units_Z   1
loop_
 _symmetry_equiv_pos_site_id
 _symmetry_equiv_pos_as_xyz
  1  'x, y, z'
loop_
 _atom_site_type_symbol
 _atom_site_label
 _atom_site_symmetry_multiplicity
 _atom_site_fract_x
 _atom_site_fract_y
 _atom_site_fract_z
 _atom_site_occupancy
  Nd  Nd0  1  0.125326  0.875858  0.250144  1
  Eu  Eu1  1  0.878449  0.121093  0.749750  1
  Al  Al2  1  0.620826  0.376034  0.550230  1
  Al  Al3  1  0.379489  0.623406  0.448046  1
  Al  Al4  1  0.377442  0.622762  0.051070  1
  Al  Al5  1  0.623195  0.376501  0.950499  1
  Al  Al6  1  0.226701  0.225737  0.499240  1
  Al  Al7  1  0.771645  0.776021  0.501779  1
  Al  Al8  1  0.772096  0.774362  0.000081  1
  Al  Al9  1  0.226159  0.227316  0.999112  1
  Al  Al10  1  0.841036  0.159729  0.100255  1
  Al  Al11  1  0.160152  0.839077  0.899570  1
  Al  Al12  1  0.161528  0.841019  0.601907  1
  Al  Al13  1  0.839364  0.157991  0.398196  1
  Al  Al14  1  0.858818  0.588445  0.751516  1
  Al  Al15  1  0.140817  0.411396  0.248548  1
  Al  Al16  1  0.412700  0.140755  0.750268  1
  Al  Al17  1  0.587881  0.859670  0.249738  1
  Al  Al18  1  0.220769  0.480881  0.752275  1
  Al  Al19  1  0.778436  0.516798  0.247675  1
  Al  Al20  1  0.519055  0.780105  0.749682  1
  Al  Al21  1  0.483355  0.220800  0.250290  1
  Ir  Ir22  1  0.999465  0.501825  0.499386  1
  Ru  Ru23  1  0.999770  0.502287  0.000736  1
  Ru  Ru24  1  0.497661  0.000008  0.000833  1
  Ru  Ru25  1  0.497866  0.000123  0.499174  1
