# generated using pymatgen
data_Li3Pr2SmPt3
_symmetry_space_group_name_H-M   'P 1'
_cell_length_a   7.37717200
_cell_length_b   7.31131692
_cell_length_c   4.13728300
_cell_angle_alpha   90.00000000
_cell_angle_beta   90.00000000
_cell_angle_gamma   120.30249286
_symmetry_Int_Tables_number   1
_chemical_formula_structural   Li3Pr2SmPt3
_chemical_formula_sum   'Li3 Pr2 Sm1 Pt3'
_cell_volume   192.66352923
_cell_formula_units_Z   1
loop_
 _symmetry_equiv_pos_site_id
 _symmetry_equiv_pos_as_xyz
  1  'x, y, z'
loop_
 _atom_site_type_symbol
 _atom_site_label
 _atom_site_symmetry_multiplicity
 _atom_site_fract_x
 _atom_site_fract_y
 _atom_site_fract_z
 _atom_site_occupancy
  Li  Li0  1  0.228628  0.999974  0.500000  1
  Li  Li1  1  0.998387  0.230366  0.500000  1
  Li  Li2  1  0.768072  0.769767  0.500000  1
  Pr  Pr3  1  0.001894  0.591659  0.000000  1
  Pr  Pr4  1  0.410259  0.408335  0.000000  1
  Sm  Sm5  1  0.593486  0.999993  0.000000  1
  Pt  Pt6  1  0.340037  0.674198  0.500000  1
  Pt  Pt7  1  0.665759  0.325731  0.500000  1
  Pt  Pt8  1  0.993480  0.999976  0.000000  1
