# generated using pymatgen
data_YHo19Cd6PdRh
_symmetry_space_group_name_H-M   'P 1'
_cell_length_a   9.61626800
_cell_length_b   9.61631158
_cell_length_c   9.76410800
_cell_angle_alpha   90.00000000
_cell_angle_beta   90.00000000
_cell_angle_gamma   120.00015039
_symmetry_Int_Tables_number   1
_chemical_formula_structural   YHo19Cd6PdRh
_chemical_formula_sum   'Y1 Ho19 Cd6 Pd1 Rh1'
_cell_volume   781.94756757
_cell_formula_units_Z   1
loop_
 _symmetry_equiv_pos_site_id
 _symmetry_equiv_pos_as_xyz
  1  'x, y, z'
loop_
 _atom_site_type_symbol
 _atom_site_label
 _atom_site_symmetry_multiplicity
 _atom_site_fract_x
 _atom_site_fract_y
 _atom_site_fract_z
 _atom_site_occupancy
  Y  Y0  1  0.086389  0.543194  0.250000  1
  Ho  Ho1  1  0.209061  0.791223  0.939775  1
  Ho  Ho2  1  0.209061  0.417837  0.939775  1
  Ho  Ho3  1  0.582034  0.791017  0.939971  1
  Ho  Ho4  1  0.792298  0.207250  0.057770  1
  Ho  Ho5  1  0.792298  0.585047  0.057770  1
  Ho  Ho6  1  0.414952  0.207476  0.057883  1
  Ho  Ho7  1  0.792298  0.207250  0.442230  1
  Ho  Ho8  1  0.792298  0.585047  0.442230  1
  Ho  Ho9  1  0.414952  0.207476  0.442117  1
  Ho  Ho10  1  0.209061  0.791223  0.560225  1
  Ho  Ho11  1  0.209061  0.417837  0.560225  1
  Ho  Ho12  1  0.582034  0.791017  0.560029  1
  Ho  Ho13  1  0.542333  0.457687  0.750000  1
  Ho  Ho14  1  0.542333  0.084647  0.750000  1
  Ho  Ho15  1  0.915389  0.457695  0.750000  1
  Ho  Ho16  1  0.457075  0.543135  0.250000  1
  Ho  Ho17  1  0.457075  0.913940  0.250000  1
  Ho  Ho18  1  0.999996  0.999998  0.000342  1
  Ho  Ho19  1  0.999996  0.999998  0.499658  1
  Cd  Cd20  1  0.884517  0.115474  0.750000  1
  Cd  Cd21  1  0.884517  0.769044  0.750000  1
  Cd  Cd22  1  0.230955  0.115478  0.750000  1
  Cd  Cd23  1  0.115566  0.884722  0.250000  1
  Cd  Cd24  1  0.115566  0.230844  0.250000  1
  Cd  Cd25  1  0.768899  0.884449  0.250000  1
  Pd  Pd26  1  0.666639  0.333319  0.250000  1
  Rh  Rh27  1  0.333348  0.666675  0.750000  1
