# generated using pymatgen
data_Li2Eu3AlGe3
_symmetry_space_group_name_H-M   'P 1'
_cell_length_a   7.36482046
_cell_length_b   7.36482066
_cell_length_c   4.43744900
_cell_angle_alpha   90.00000000
_cell_angle_beta   90.00000000
_cell_angle_gamma   121.32427038
_symmetry_Int_Tables_number   1
_chemical_formula_structural   Li2Eu3AlGe3
_chemical_formula_sum   'Li2 Eu3 Al1 Ge3'
_cell_volume   205.60655205
_cell_formula_units_Z   1
loop_
 _symmetry_equiv_pos_site_id
 _symmetry_equiv_pos_as_xyz
  1  'x, y, z'
loop_
 _atom_site_type_symbol
 _atom_site_label
 _atom_site_symmetry_multiplicity
 _atom_site_fract_x
 _atom_site_fract_y
 _atom_site_fract_z
 _atom_site_occupancy
  Li  Li0  1  0.234334  0.996198  0.500000  1
  Li  Li1  1  0.996198  0.234334  0.500000  1
  Eu  Eu2  1  0.008131  0.577712  0.000000  1
  Eu  Eu3  1  0.423447  0.423447  0.000000  1
  Eu  Eu4  1  0.577712  0.008131  0.000000  1
  Al  Al5  1  0.756933  0.756933  0.500000  1
  Ge  Ge6  1  0.348477  0.671937  0.500000  1
  Ge  Ge7  1  0.671937  0.348477  0.500000  1
  Ge  Ge8  1  0.982834  0.982834  0.000000  1
