# generated using pymatgen
data_Ca2ZrAl2SnO9
_symmetry_space_group_name_H-M   'P 1'
_cell_length_a   9.15004900
_cell_length_b   5.58677400
_cell_length_c   15.12242200
_cell_angle_alpha   90.00000000
_cell_angle_beta   90.00000000
_cell_angle_gamma   90.00000000
_symmetry_Int_Tables_number   1
_chemical_formula_structural   Ca2ZrAl2SnO9
_chemical_formula_sum   'Ca8 Zr4 Al8 Sn4 O36'
_cell_volume   773.04695932
_cell_formula_units_Z   4
loop_
 _symmetry_equiv_pos_site_id
 _symmetry_equiv_pos_as_xyz
  1  'x, y, z'
loop_
 _atom_site_type_symbol
 _atom_site_label
 _atom_site_symmetry_multiplicity
 _atom_site_fract_x
 _atom_site_fract_y
 _atom_site_fract_z
 _atom_site_occupancy
  Ca  Ca0  1  0.064695  0.363231  0.144367  1
  Ca  Ca1  1  0.435305  0.863232  0.144367  1
  Ca  Ca2  1  0.935305  0.363231  0.355633  1
  Ca  Ca3  1  0.564695  0.863232  0.355633  1
  Ca  Ca4  1  0.433098  0.137347  0.645856  1
  Ca  Ca5  1  0.066902  0.637348  0.645856  1
  Ca  Ca6  1  0.566902  0.137347  0.854144  1
  Ca  Ca7  1  0.933098  0.637348  0.854144  1
  Zr  Zr8  1  0.652586  0.361671  0.166737  1
  Zr  Zr9  1  0.847414  0.861669  0.166737  1
  Zr  Zr10  1  0.347415  0.361671  0.333263  1
  Zr  Zr11  1  0.152585  0.861669  0.333263  1
  Al  Al12  1  0.340642  0.308418  0.027389  1
  Al  Al13  1  0.159358  0.808419  0.027389  1
  Al  Al14  1  0.659358  0.308418  0.472611  1
  Al  Al15  1  0.840642  0.808419  0.472611  1
  Al  Al16  1  0.157131  0.191341  0.529110  1
  Al  Al17  1  0.342869  0.691341  0.529110  1
  Al  Al18  1  0.842869  0.191341  0.970890  1
  Al  Al19  1  0.657131  0.691341  0.970890  1
  Sn  Sn20  1  0.845178  0.134381  0.666380  1
  Sn  Sn21  1  0.654822  0.634381  0.666380  1
  Sn  Sn22  1  0.154821  0.134381  0.833620  1
  Sn  Sn23  1  0.345179  0.634381  0.833620  1
  O  O24  1  0.510480  0.230662  0.073488  1
  O  O25  1  0.989520  0.730663  0.073488  1
  O  O26  1  0.227040  0.078931  0.071463  1
  O  O27  1  0.272960  0.578932  0.071463  1
  O  O28  1  0.839552  0.193419  0.088888  1
  O  O29  1  0.660448  0.693420  0.088888  1
  O  O30  1  0.663850  0.033219  0.227821  1
  O  O31  1  0.836150  0.533220  0.227821  1
  O  O32  1  0.000000  0.027489  0.250000  1
  O  O33  1  0.500000  0.527488  0.250000  1
  O  O34  1  0.336150  0.033219  0.272179  1
  O  O35  1  0.163850  0.533220  0.272179  1
  O  O36  1  0.160448  0.193419  0.411112  1
  O  O37  1  0.339552  0.693420  0.411112  1
  O  O38  1  0.772960  0.078931  0.428537  1
  O  O39  1  0.727040  0.578932  0.428537  1
  O  O40  1  0.489520  0.230662  0.426512  1
  O  O41  1  0.010480  0.730663  0.426512  1
  O  O42  1  0.986814  0.272657  0.574933  1
  O  O43  1  0.513186  0.772658  0.574933  1
  O  O44  1  0.272447  0.421003  0.571920  1
  O  O45  1  0.227553  0.921002  0.571920  1
  O  O46  1  0.661824  0.308906  0.590897  1
  O  O47  1  0.838176  0.808907  0.590897  1
  O  O48  1  0.832757  0.465702  0.727710  1
  O  O49  1  0.667243  0.965703  0.727710  1
  O  O50  1  0.500000  0.470733  0.750000  1
  O  O51  1  0.000000  0.970734  0.750000  1
  O  O52  1  0.167243  0.465702  0.772290  1
  O  O53  1  0.332757  0.965703  0.772290  1
  O  O54  1  0.338176  0.308906  0.909103  1
  O  O55  1  0.161824  0.808907  0.909103  1
  O  O56  1  0.727553  0.421003  0.928080  1
  O  O57  1  0.772447  0.921002  0.928080  1
  O  O58  1  0.013186  0.272657  0.925067  1
  O  O59  1  0.486814  0.772658  0.925067  1
