# generated using pymatgen
data_Nb4Fe5CoOs2
_symmetry_space_group_name_H-M   'P 1'
_cell_length_a   4.83434500
_cell_length_b   4.85943377
_cell_length_c   8.04293000
_cell_angle_alpha   90.00000000
_cell_angle_beta   90.00000000
_cell_angle_gamma   119.82935230
_symmetry_Int_Tables_number   1
_chemical_formula_structural   Nb4Fe5CoOs2
_chemical_formula_sum   'Nb4 Fe5 Co1 Os2'
_cell_volume   163.91264497
_cell_formula_units_Z   1
loop_
 _symmetry_equiv_pos_site_id
 _symmetry_equiv_pos_as_xyz
  1  'x, y, z'
loop_
 _atom_site_type_symbol
 _atom_site_label
 _atom_site_symmetry_multiplicity
 _atom_site_fract_x
 _atom_site_fract_y
 _atom_site_fract_z
 _atom_site_occupancy
  Nb  Nb0  1  0.666297  0.332594  0.070460  1
  Nb  Nb1  1  0.666297  0.332594  0.429540  1
  Nb  Nb2  1  0.332630  0.665261  0.567717  1
  Nb  Nb3  1  0.332630  0.665261  0.932283  1
  Fe  Fe4  1  0.176612  0.829230  0.249999  1
  Fe  Fe5  1  0.652618  0.829230  0.249999  1
  Fe  Fe6  1  0.349323  0.174637  0.750000  1
  Fe  Fe7  1  0.825313  0.174637  0.750000  1
  Fe  Fe8  1  0.824938  0.649877  0.750000  1
  Co  Co9  1  0.174029  0.348059  0.249999  1
  Os  Os10  1  0.999655  0.999309  0.000944  1
  Os  Os11  1  0.999655  0.999309  0.499056  1
