# generated using pymatgen
data_Pr2NdV(Ni4P3)2
_symmetry_space_group_name_H-M   'P 1'
_cell_length_a   3.83377300
_cell_length_b   10.92970000
_cell_length_c   12.66883500
_cell_angle_alpha   90.00000000
_cell_angle_beta   90.00000000
_cell_angle_gamma   90.00000000
_symmetry_Int_Tables_number   1
_chemical_formula_structural   Pr2NdV(Ni4P3)2
_chemical_formula_sum   'Pr4 Nd2 V2 Ni16 P12'
_cell_volume   530.84938175
_cell_formula_units_Z   2
loop_
 _symmetry_equiv_pos_site_id
 _symmetry_equiv_pos_as_xyz
  1  'x, y, z'
loop_
 _atom_site_type_symbol
 _atom_site_label
 _atom_site_symmetry_multiplicity
 _atom_site_fract_x
 _atom_site_fract_y
 _atom_site_fract_z
 _atom_site_occupancy
  Pr  Pr0  1  0.500000  0.816078  0.205438  1
  Pr  Pr1  1  0.500000  0.183922  0.205438  1
  Pr  Pr2  1  0.000000  0.683922  0.794562  1
  Pr  Pr3  1  0.000000  0.316078  0.794562  1
  Nd  Nd4  1  0.000000  0.500000  0.519130  1
  Nd  Nd5  1  0.500000  0.000000  0.480870  1
  V  V6  1  0.500000  0.500000  0.146802  1
  V  V7  1  0.000000  0.000000  0.853198  1
  Ni  Ni8  1  0.500000  0.500000  0.700903  1
  Ni  Ni9  1  0.000000  0.000000  0.299097  1
  Ni  Ni10  1  0.000000  0.500000  0.984767  1
  Ni  Ni11  1  0.500000  0.000000  0.015233  1
  Ni  Ni12  1  0.500000  0.333707  0.990814  1
  Ni  Ni13  1  0.500000  0.666293  0.990814  1
  Ni  Ni14  1  0.000000  0.166293  0.009186  1
  Ni  Ni15  1  0.000000  0.833707  0.009186  1
  Ni  Ni16  1  0.500000  0.300785  0.426227  1
  Ni  Ni17  1  0.500000  0.699215  0.426227  1
  Ni  Ni18  1  0.000000  0.199215  0.573773  1
  Ni  Ni19  1  0.000000  0.800785  0.573773  1
  Ni  Ni20  1  0.500000  0.883775  0.713396  1
  Ni  Ni21  1  0.500000  0.116225  0.713396  1
  Ni  Ni22  1  0.000000  0.616225  0.286604  1
  Ni  Ni23  1  0.000000  0.383775  0.286604  1
  P  P24  1  0.500000  0.500000  0.882858  1
  P  P25  1  0.000000  0.000000  0.117142  1
  P  P26  1  0.500000  0.500000  0.337198  1
  P  P27  1  0.000000  0.000000  0.662802  1
  P  P28  1  0.500000  0.310298  0.611689  1
  P  P29  1  0.500000  0.689702  0.611689  1
  P  P30  1  0.000000  0.189702  0.388311  1
  P  P31  1  0.000000  0.810298  0.388311  1
  P  P32  1  0.500000  0.849199  0.896469  1
  P  P33  1  0.500000  0.150801  0.896469  1
  P  P34  1  0.000000  0.650801  0.103531  1
  P  P35  1  0.000000  0.349199  0.103531  1
