# generated using pymatgen
data_BeB2Ru5W2
_symmetry_space_group_name_H-M   'P 1'
_cell_length_a   9.15858100
_cell_length_b   9.15858100
_cell_length_c   2.88329900
_cell_angle_alpha   90.00000000
_cell_angle_beta   90.00000000
_cell_angle_gamma   90.00000000
_symmetry_Int_Tables_number   1
_chemical_formula_structural   BeB2Ru5W2
_chemical_formula_sum   'Be2 B4 Ru10 W4'
_cell_volume   241.84998391
_cell_formula_units_Z   2
loop_
 _symmetry_equiv_pos_site_id
 _symmetry_equiv_pos_as_xyz
  1  'x, y, z'
loop_
 _atom_site_type_symbol
 _atom_site_label
 _atom_site_symmetry_multiplicity
 _atom_site_fract_x
 _atom_site_fract_y
 _atom_site_fract_z
 _atom_site_occupancy
  Be  Be0  1  0.500000  0.500000  0.000000  1
  Be  Be1  1  0.000000  0.000000  0.000000  1
  B  B2  1  0.628294  0.871706  0.000000  1
  B  B3  1  0.371706  0.128294  0.000000  1
  B  B4  1  0.128294  0.628294  0.000000  1
  B  B5  1  0.871706  0.371706  0.000000  1
  Ru  Ru6  1  0.564209  0.708329  0.500000  1
  Ru  Ru7  1  0.435791  0.291671  0.500000  1
  Ru  Ru8  1  0.064209  0.791671  0.500000  1
  Ru  Ru9  1  0.935791  0.208329  0.500000  1
  Ru  Ru10  1  0.291671  0.564209  0.500000  1
  Ru  Ru11  1  0.708329  0.435791  0.500000  1
  Ru  Ru12  1  0.208329  0.064209  0.500000  1
  Ru  Ru13  1  0.791671  0.935791  0.500000  1
  Ru  Ru14  1  0.500000  0.000000  0.500000  1
  Ru  Ru15  1  0.000000  0.500000  0.500000  1
  W  W16  1  0.820764  0.679236  0.000000  1
  W  W17  1  0.179236  0.320764  0.000000  1
  W  W18  1  0.320764  0.820764  0.000000  1
  W  W19  1  0.679236  0.179236  0.000000  1
