# generated using pymatgen
data_TmMg(NbSe2)6
_symmetry_space_group_name_H-M   'P 1'
_cell_length_a   6.07986200
_cell_length_b   6.07986205
_cell_length_c   14.02207600
_cell_angle_alpha   90.00000000
_cell_angle_beta   90.00000000
_cell_angle_gamma   119.99999973
_symmetry_Int_Tables_number   1
_chemical_formula_structural   TmMg(NbSe2)6
_chemical_formula_sum   'Tm1 Mg1 Nb6 Se12'
_cell_volume   448.88014570
_cell_formula_units_Z   1
loop_
 _symmetry_equiv_pos_site_id
 _symmetry_equiv_pos_as_xyz
  1  'x, y, z'
loop_
 _atom_site_type_symbol
 _atom_site_label
 _atom_site_symmetry_multiplicity
 _atom_site_fract_x
 _atom_site_fract_y
 _atom_site_fract_z
 _atom_site_occupancy
  Tm  Tm0  1  0.000000  0.000000  0.000000  1
  Mg  Mg1  1  0.000000  0.000000  0.500000  1
  Nb  Nb2  1  0.333333  0.666667  0.252878  1
  Nb  Nb3  1  0.000000  0.000000  0.250127  1
  Nb  Nb4  1  0.000000  0.000000  0.749873  1
  Nb  Nb5  1  0.333333  0.666667  0.747122  1
  Nb  Nb6  1  0.666667  0.333333  0.747122  1
  Nb  Nb7  1  0.666667  0.333333  0.252878  1
  Se  Se8  1  0.000000  0.664958  0.628613  1
  Se  Se9  1  0.000000  0.657945  0.867659  1
  Se  Se10  1  0.000000  0.342055  0.132341  1
  Se  Se11  1  0.000000  0.335042  0.371387  1
  Se  Se12  1  0.335042  0.335042  0.628613  1
  Se  Se13  1  0.342055  0.342055  0.867659  1
  Se  Se14  1  0.657945  0.657945  0.132341  1
  Se  Se15  1  0.664958  0.664958  0.371387  1
  Se  Se16  1  0.342055  0.000000  0.132341  1
  Se  Se17  1  0.335042  0.000000  0.371387  1
  Se  Se18  1  0.664958  0.000000  0.628613  1
  Se  Se19  1  0.657945  0.000000  0.867659  1
