# generated using pymatgen
data_DyEr3CoTc3B16
_symmetry_space_group_name_H-M   'P 1'
_cell_length_a   3.54344900
_cell_length_b   5.94056250
_cell_length_c   11.51009405
_cell_angle_alpha   89.94220262
_cell_angle_beta   90.00000000
_cell_angle_gamma   90.00000000
_symmetry_Int_Tables_number   1
_chemical_formula_structural   DyEr3CoTc3B16
_chemical_formula_sum   'Dy1 Er3 Co1 Tc3 B16'
_cell_volume   242.28827999
_cell_formula_units_Z   1
loop_
 _symmetry_equiv_pos_site_id
 _symmetry_equiv_pos_as_xyz
  1  'x, y, z'
loop_
 _atom_site_type_symbol
 _atom_site_label
 _atom_site_symmetry_multiplicity
 _atom_site_fract_x
 _atom_site_fract_y
 _atom_site_fract_z
 _atom_site_occupancy
  Dy  Dy0  1  0.500000  0.374083  0.146916  1
  Er  Er1  1  0.500000  0.628590  0.851617  1
  Er  Er2  1  0.500000  0.127910  0.652362  1
  Er  Er3  1  0.500000  0.872332  0.346967  1
  Co  Co4  1  0.500000  0.861903  0.092223  1
  Tc  Tc5  1  0.500000  0.366905  0.412243  1
  Tc  Tc6  1  0.500000  0.632486  0.586499  1
  Tc  Tc7  1  0.500000  0.132458  0.913455  1
  B  B8  1  0.000000  0.110825  0.047532  1
  B  B9  1  0.000000  0.885376  0.953000  1
  B  B10  1  0.000000  0.386215  0.547257  1
  B  B11  1  0.000000  0.614255  0.451875  1
  B  B12  1  0.000000  0.134572  0.468361  1
  B  B13  1  0.000000  0.865301  0.531101  1
  B  B14  1  0.000000  0.365340  0.969843  1
  B  B15  1  0.000000  0.638656  0.031917  1
  B  B16  1  0.000000  0.022370  0.191524  1
  B  B17  1  0.000000  0.974754  0.808091  1
  B  B18  1  0.000000  0.477196  0.693303  1
  B  B19  1  0.000000  0.526095  0.306120  1
  B  B20  1  0.000000  0.211177  0.313571  1
  B  B21  1  0.000000  0.787223  0.686034  1
  B  B22  1  0.000000  0.287157  0.815357  1
  B  B23  1  0.000000  0.716820  0.182831  1
