# generated using pymatgen
data_KDy(SO4)2
_symmetry_space_group_name_H-M   'P 1'
_cell_length_a   5.19624291
_cell_length_b   5.19624386
_cell_length_c   8.27652984
_cell_angle_alpha   93.22112285
_cell_angle_beta   93.22112046
_cell_angle_gamma   63.97108889
_symmetry_Int_Tables_number   1
_chemical_formula_structural   KDy(SO4)2
_chemical_formula_sum   'K1 Dy1 S2 O8'
_cell_volume   200.36663475
_cell_formula_units_Z   1
loop_
 _symmetry_equiv_pos_site_id
 _symmetry_equiv_pos_as_xyz
  1  'x, y, z'
loop_
 _atom_site_type_symbol
 _atom_site_label
 _atom_site_symmetry_multiplicity
 _atom_site_fract_x
 _atom_site_fract_y
 _atom_site_fract_z
 _atom_site_occupancy
  K  K0  1  0.000000  0.000000  0.500000  1
  Dy  Dy1  1  0.000000  0.000000  0.000000  1
  S  S2  1  0.368768  0.368768  0.221049  1
  S  S3  1  0.631232  0.631232  0.778951  1
  O  O4  1  0.242735  0.242735  0.090630  1
  O  O5  1  0.685577  0.244498  0.195935  1
  O  O6  1  0.244498  0.685577  0.195935  1
  O  O7  1  0.313756  0.313756  0.382955  1
  O  O8  1  0.686244  0.686244  0.617045  1
  O  O9  1  0.755501  0.314422  0.804065  1
  O  O10  1  0.314422  0.755501  0.804065  1
  O  O11  1  0.757264  0.757264  0.909370  1
