# generated using pymatgen
data_AcSiSnIr2
_symmetry_space_group_name_H-M   'P 1'
_cell_length_a   4.35171500
_cell_length_b   4.35172200
_cell_length_c   10.82174900
_cell_angle_alpha   90.00000000
_cell_angle_beta   90.00000000
_cell_angle_gamma   90.00000000
_symmetry_Int_Tables_number   1
_chemical_formula_structural   AcSiSnIr2
_chemical_formula_sum   'Ac2 Si2 Sn2 Ir4'
_cell_volume   204.93637284
_cell_formula_units_Z   2
loop_
 _symmetry_equiv_pos_site_id
 _symmetry_equiv_pos_as_xyz
  1  'x, y, z'
loop_
 _atom_site_type_symbol
 _atom_site_label
 _atom_site_symmetry_multiplicity
 _atom_site_fract_x
 _atom_site_fract_y
 _atom_site_fract_z
 _atom_site_occupancy
  Ac  Ac0  1  0.000000  0.500000  0.237883  1
  Ac  Ac1  1  0.500000  0.000000  0.762117  1
  Si  Si2  1  0.000000  0.500000  0.883219  1
  Si  Si3  1  0.500000  0.000000  0.116781  1
  Sn  Sn4  1  0.000000  0.000000  0.500000  1
  Sn  Sn5  1  0.500000  0.500000  0.500000  1
  Ir  Ir6  1  0.000000  0.000000  0.000000  1
  Ir  Ir7  1  0.500000  0.500000  0.000000  1
  Ir  Ir8  1  0.000000  0.500000  0.659813  1
  Ir  Ir9  1  0.500000  0.000000  0.340187  1
