# generated using pymatgen
data_Ce3Th(B10Rh)2
_symmetry_space_group_name_H-M   'P 1'
_cell_length_a   4.18165200
_cell_length_b   5.70915703
_cell_length_c   11.40701606
_cell_angle_alpha   89.98813185
_cell_angle_beta   90.00000000
_cell_angle_gamma   90.00000000
_symmetry_Int_Tables_number   1
_chemical_formula_structural   Ce3Th(B10Rh)2
_chemical_formula_sum   'Ce3 Th1 B20 Rh2'
_cell_volume   272.32776379
_cell_formula_units_Z   1
loop_
 _symmetry_equiv_pos_site_id
 _symmetry_equiv_pos_as_xyz
  1  'x, y, z'
loop_
 _atom_site_type_symbol
 _atom_site_label
 _atom_site_symmetry_multiplicity
 _atom_site_fract_x
 _atom_site_fract_y
 _atom_site_fract_z
 _atom_site_occupancy
  Ce  Ce0  1  0.500000  0.700578  0.138634  1
  Ce  Ce1  1  0.500000  0.798440  0.635193  1
  Ce  Ce2  1  0.500000  0.201502  0.363130  1
  Th  Th3  1  0.500000  0.297051  0.864219  1
  B  B4  1  0.000000  0.117934  0.542867  1
  B  B5  1  0.000000  0.882148  0.456872  1
  B  B6  1  0.000000  0.618816  0.957315  1
  B  B7  1  0.000000  0.382684  0.043481  1
  B  B8  1  0.000000  0.137596  0.697085  1
  B  B9  1  0.000000  0.861957  0.302508  1
  B  B10  1  0.302121  0.217726  0.118964  1
  B  B11  1  0.302091  0.783009  0.880812  1
  B  B12  1  0.697791  0.717226  0.381294  1
  B  B13  1  0.697886  0.282984  0.618376  1
  B  B14  1  0.697909  0.783009  0.880812  1
  B  B15  1  0.697879  0.217726  0.118964  1
  B  B16  1  0.302114  0.282984  0.618376  1
  B  B17  1  0.302209  0.717226  0.381294  1
  B  B18  1  0.000000  0.053112  0.192803  1
  B  B19  1  0.000000  0.946208  0.806770  1
  B  B20  1  0.000000  0.553184  0.307427  1
  B  B21  1  0.000000  0.446622  0.692517  1
  B  B22  1  0.000000  0.361779  0.197895  1
  B  B23  1  0.000000  0.637911  0.802282  1
  Rh  Rh24  1  0.000000  0.500496  0.500052  1
  Rh  Rh25  1  0.000000  0.000091  0.000058  1
