# generated using pymatgen
data_Nd2Dy2ReB12Os
_symmetry_space_group_name_H-M   'P 1'
_cell_length_a   3.72299100
_cell_length_b   9.26110749
_cell_length_c   11.70848100
_cell_angle_alpha   90.14104193
_cell_angle_beta   90.00000000
_cell_angle_gamma   90.00000000
_symmetry_Int_Tables_number   1
_chemical_formula_structural   Nd2Dy2ReB12Os
_chemical_formula_sum   'Nd4 Dy4 Re2 B24 Os2'
_cell_volume   403.69572564
_cell_formula_units_Z   2
loop_
 _symmetry_equiv_pos_site_id
 _symmetry_equiv_pos_as_xyz
  1  'x, y, z'
loop_
 _atom_site_type_symbol
 _atom_site_label
 _atom_site_symmetry_multiplicity
 _atom_site_fract_x
 _atom_site_fract_y
 _atom_site_fract_z
 _atom_site_occupancy
  Nd  Nd0  1  0.000000  0.321486  0.413033  1
  Nd  Nd1  1  0.000000  0.678514  0.586967  1
  Nd  Nd2  1  0.000000  0.824054  0.085082  1
  Nd  Nd3  1  0.000000  0.175946  0.914918  1
  Dy  Dy4  1  0.000000  0.943344  0.370146  1
  Dy  Dy5  1  0.000000  0.056656  0.629854  1
  Dy  Dy6  1  0.000000  0.442207  0.129418  1
  Dy  Dy7  1  0.000000  0.557793  0.870582  1
  Re  Re8  1  0.000000  0.139376  0.180962  1
  Re  Re9  1  0.000000  0.860624  0.819038  1
  B  B10  1  0.500000  0.555497  0.430471  1
  B  B11  1  0.500000  0.444503  0.569529  1
  B  B12  1  0.500000  0.054807  0.069224  1
  B  B13  1  0.500000  0.945193  0.930776  1
  B  B14  1  0.500000  0.749010  0.416412  1
  B  B15  1  0.500000  0.250990  0.583588  1
  B  B16  1  0.500000  0.248980  0.083512  1
  B  B17  1  0.500000  0.751020  0.916488  1
  B  B18  1  0.500000  0.789735  0.266754  1
  B  B19  1  0.500000  0.210265  0.733246  1
  B  B20  1  0.500000  0.290574  0.233723  1
  B  B21  1  0.500000  0.709426  0.766277  1
  B  B22  1  0.500000  0.629861  0.186915  1
  B  B23  1  0.500000  0.370139  0.813085  1
  B  B24  1  0.500000  0.130402  0.314073  1
  B  B25  1  0.500000  0.869598  0.685927  1
  B  B26  1  0.500000  0.985017  0.213432  1
  B  B27  1  0.500000  0.014983  0.786568  1
  B  B28  1  0.500000  0.485039  0.287151  1
  B  B29  1  0.500000  0.514961  0.712849  1
  B  B30  1  0.500000  0.599215  0.027529  1
  B  B31  1  0.500000  0.400785  0.972471  1
  B  B32  1  0.500000  0.100187  0.472574  1
  B  B33  1  0.500000  0.899813  0.527426  1
  Os  Os34  1  0.000000  0.638605  0.320057  1
  Os  Os35  1  0.000000  0.361395  0.679943  1
