# generated using pymatgen
data_Y15Tm5Si15Ru
_symmetry_space_group_name_H-M   'P 1'
_cell_length_a   7.36947097
_cell_length_b   7.70945182
_cell_length_c   14.57604300
_cell_angle_alpha   90.02578122
_cell_angle_beta   90.02934190
_cell_angle_gamma   90.09695810
_symmetry_Int_Tables_number   1
_chemical_formula_structural   Y15Tm5Si15Ru
_chemical_formula_sum   'Y15 Tm5 Si15 Ru1'
_cell_volume   828.13040257
_cell_formula_units_Z   1
loop_
 _symmetry_equiv_pos_site_id
 _symmetry_equiv_pos_as_xyz
  1  'x, y, z'
loop_
 _atom_site_type_symbol
 _atom_site_label
 _atom_site_symmetry_multiplicity
 _atom_site_fract_x
 _atom_site_fract_y
 _atom_site_fract_z
 _atom_site_occupancy
  Y  Y0  1  0.191746  0.326016  0.873261  1
  Y  Y1  1  0.318216  0.819725  0.124108  1
  Y  Y2  1  0.816523  0.677269  0.376489  1
  Y  Y3  1  0.318488  0.820217  0.376446  1
  Y  Y4  1  0.816228  0.677035  0.123869  1
  Y  Y5  1  0.673521  0.182835  0.874258  1
  Y  Y6  1  0.192640  0.325863  0.626433  1
  Y  Y7  1  0.523699  0.675192  0.596442  1
  Y  Y8  1  0.026879  0.817106  0.902835  1
  Y  Y9  1  0.473052  0.316774  0.097098  1
  Y  Y10  1  0.972958  0.183116  0.402482  1
  Y  Y11  1  0.473869  0.317114  0.403556  1
  Y  Y12  1  0.973015  0.183068  0.097774  1
  Y  Y13  1  0.523771  0.675903  0.903264  1
  Y  Y14  1  0.026712  0.817183  0.596632  1
  Tm  Tm15  1  0.672290  0.183658  0.626138  1
  Tm  Tm16  1  0.838843  0.510638  0.749495  1
  Tm  Tm17  1  0.355256  0.985416  0.749676  1
  Tm  Tm18  1  0.149330  0.485105  0.250137  1
  Tm  Tm19  1  0.649030  0.013674  0.250256  1
  Si  Si20  1  0.648134  0.973189  0.460711  1
  Si  Si21  1  0.147367  0.527320  0.040459  1
  Si  Si22  1  0.350042  0.025700  0.960741  1
  Si  Si23  1  0.853014  0.469283  0.539794  1
  Si  Si24  1  0.351733  0.025698  0.539899  1
  Si  Si25  1  0.854624  0.471230  0.960203  1
  Si  Si26  1  0.646517  0.972387  0.040471  1
  Si  Si27  1  0.147332  0.527174  0.459593  1
  Si  Si28  1  0.981359  0.100289  0.748998  1
  Si  Si29  1  0.520422  0.602351  0.250198  1
  Si  Si30  1  0.018486  0.896171  0.250159  1
  Si  Si31  1  0.740317  0.874569  0.749163  1
  Si  Si32  1  0.231800  0.634099  0.750031  1
  Si  Si33  1  0.268119  0.130183  0.250162  1
  Si  Si34  1  0.769118  0.369970  0.250121  1
  Ru  Ru35  1  0.485548  0.407480  0.748645  1
