# generated using pymatgen
data_Hf3ScMn15Co5P12
_symmetry_space_group_name_H-M   'P 1'
_cell_length_a   3.55550400
_cell_length_b   10.34746499
_cell_length_c   11.94705824
_cell_angle_alpha   89.77015412
_cell_angle_beta   90.00000000
_cell_angle_gamma   90.00000000
_symmetry_Int_Tables_number   1
_chemical_formula_structural   Hf3ScMn15Co5P12
_chemical_formula_sum   'Hf3 Sc1 Mn15 Co5 P12'
_cell_volume   439.53414980
_cell_formula_units_Z   1
loop_
 _symmetry_equiv_pos_site_id
 _symmetry_equiv_pos_as_xyz
  1  'x, y, z'
loop_
 _atom_site_type_symbol
 _atom_site_label
 _atom_site_symmetry_multiplicity
 _atom_site_fract_x
 _atom_site_fract_y
 _atom_site_fract_z
 _atom_site_occupancy
  Hf  Hf0  1  0.250000  0.580509  0.706335  1
  Hf  Hf1  1  0.250000  0.917888  0.207134  1
  Hf  Hf2  1  0.750000  0.419091  0.294703  1
  Sc  Sc3  1  0.750000  0.083284  0.791396  1
  Mn  Mn4  1  0.250000  0.713074  0.988578  1
  Mn  Mn5  1  0.250000  0.785455  0.488845  1
  Mn  Mn6  1  0.750000  0.287961  0.009722  1
  Mn  Mn7  1  0.750000  0.212146  0.513176  1
  Mn  Mn8  1  0.250000  0.407595  0.492005  1
  Mn  Mn9  1  0.250000  0.094672  0.992011  1
  Mn  Mn10  1  0.750000  0.590684  0.509893  1
  Mn  Mn11  1  0.750000  0.906750  0.008362  1
  Mn  Mn12  1  0.250000  0.218941  0.176522  1
  Mn  Mn13  1  0.250000  0.280319  0.675493  1
  Mn  Mn14  1  0.750000  0.780667  0.823482  1
  Mn  Mn15  1  0.750000  0.718008  0.323745  1
  Mn  Mn16  1  0.250000  0.875368  0.698902  1
  Mn  Mn17  1  0.250000  0.622636  0.199100  1
  Mn  Mn18  1  0.750000  0.122943  0.300495  1
  Co  Co19  1  0.750000  0.384685  0.801479  1
  Co  Co20  1  0.250000  0.463721  0.931408  1
  Co  Co21  1  0.250000  0.036081  0.431880  1
  Co  Co22  1  0.750000  0.535198  0.067802  1
  Co  Co23  1  0.750000  0.962930  0.567105  1
  P  P24  1  0.250000  0.421468  0.115681  1
  P  P25  1  0.250000  0.078481  0.615893  1
  P  P26  1  0.750000  0.578906  0.885642  1
  P  P27  1  0.750000  0.920680  0.384760  1
  P  P28  1  0.250000  0.263599  0.865644  1
  P  P29  1  0.250000  0.239525  0.370858  1
  P  P30  1  0.750000  0.738827  0.129729  1
  P  P31  1  0.750000  0.760267  0.629434  1
  P  P32  1  0.250000  0.590631  0.385980  1
  P  P33  1  0.250000  0.911650  0.885645  1
  P  P34  1  0.750000  0.406150  0.617276  1
  P  P35  1  0.750000  0.089211  0.113890  1
