# generated using pymatgen
data_TbNd4TmCoBr10
_symmetry_space_group_name_H-M   'P 1'
_cell_length_a   7.46650578
_cell_length_b   9.35712038
_cell_length_c   9.50277662
_cell_angle_alpha   108.63425515
_cell_angle_beta   95.78056553
_cell_angle_gamma   105.21707658
_symmetry_Int_Tables_number   1
_chemical_formula_structural   TbNd4TmCoBr10
_chemical_formula_sum   'Tb1 Nd4 Tm1 Co1 Br10'
_cell_volume   594.55136849
_cell_formula_units_Z   1
loop_
 _symmetry_equiv_pos_site_id
 _symmetry_equiv_pos_as_xyz
  1  'x, y, z'
loop_
 _atom_site_type_symbol
 _atom_site_label
 _atom_site_symmetry_multiplicity
 _atom_site_fract_x
 _atom_site_fract_y
 _atom_site_fract_z
 _atom_site_occupancy
  Tb  Tb0  1  0.645485  0.870010  0.327087  1
  Nd  Nd1  1  0.030508  0.713089  0.408846  1
  Nd  Nd2  1  0.971781  0.287890  0.592851  1
  Nd  Nd3  1  0.873349  0.953757  0.747977  1
  Nd  Nd4  1  0.130035  0.048499  0.253550  1
  Tm  Tm5  1  0.349463  0.126753  0.669298  1
  Co  Co6  1  0.999437  0.999995  0.499529  1
  Br  Br7  1  0.450752  0.829526  0.583031  1
  Br  Br8  1  0.548554  0.176357  0.423920  1
  Br  Br9  1  0.913922  0.630889  0.673422  1
  Br  Br10  1  0.086677  0.370013  0.327832  1
  Br  Br11  1  0.260135  0.086424  0.943803  1
  Br  Br12  1  0.746419  0.916065  0.053361  1
  Br  Br13  1  0.360735  0.439769  0.769688  1
  Br  Br14  1  0.643710  0.554418  0.231460  1
  Br  Br15  1  0.758165  0.248772  0.839165  1
  Br  Br16  1  0.230872  0.747773  0.155181  1
