# generated using pymatgen
data_Hf7Zr3(GaSn3)2
_symmetry_space_group_name_H-M   'P 1'
_cell_length_a   8.69088900
_cell_length_b   8.69088955
_cell_length_c   5.83132400
_cell_angle_alpha   90.00000000
_cell_angle_beta   90.00000000
_cell_angle_gamma   120.00000172
_symmetry_Int_Tables_number   1
_chemical_formula_structural   Hf7Zr3(GaSn3)2
_chemical_formula_sum   'Hf7 Zr3 Ga2 Sn6'
_cell_volume   381.43999694
_cell_formula_units_Z   1
loop_
 _symmetry_equiv_pos_site_id
 _symmetry_equiv_pos_as_xyz
  1  'x, y, z'
loop_
 _atom_site_type_symbol
 _atom_site_label
 _atom_site_symmetry_multiplicity
 _atom_site_fract_x
 _atom_site_fract_y
 _atom_site_fract_z
 _atom_site_occupancy
  Hf  Hf0  1  0.270680  0.270680  0.250000  1
  Hf  Hf1  1  0.729320  0.000000  0.250000  1
  Hf  Hf2  1  0.000000  0.729320  0.250000  1
  Hf  Hf3  1  0.666667  0.333333  0.000699  1
  Hf  Hf4  1  0.333333  0.666667  0.000699  1
  Hf  Hf5  1  0.333333  0.666667  0.499301  1
  Hf  Hf6  1  0.666667  0.333333  0.499301  1
  Zr  Zr7  1  0.735716  0.735716  0.750000  1
  Zr  Zr8  1  0.264284  0.000000  0.750000  1
  Zr  Zr9  1  0.000000  0.264284  0.750000  1
  Ga  Ga10  1  0.000000  0.000000  0.008330  1
  Ga  Ga11  1  0.000000  0.000000  0.491670  1
  Sn  Sn12  1  0.389817  0.389817  0.750000  1
  Sn  Sn13  1  0.610183  0.000000  0.750000  1
  Sn  Sn14  1  0.000000  0.610183  0.750000  1
  Sn  Sn15  1  0.612979  0.612979  0.250000  1
  Sn  Sn16  1  0.387021  0.000000  0.250000  1
  Sn  Sn17  1  0.000000  0.387021  0.250000  1
