# generated using pymatgen
data_Ho16In4TcPt3
_symmetry_space_group_name_H-M   'P 1'
_cell_length_a   9.67387263
_cell_length_b   9.67387307
_cell_length_c   9.67387326
_cell_angle_alpha   59.87317455
_cell_angle_beta   59.87317246
_cell_angle_gamma   59.87316885
_symmetry_Int_Tables_number   1
_chemical_formula_structural   Ho16In4TcPt3
_chemical_formula_sum   'Ho16 In4 Tc1 Pt3'
_cell_volume   638.31424036
_cell_formula_units_Z   1
loop_
 _symmetry_equiv_pos_site_id
 _symmetry_equiv_pos_as_xyz
  1  'x, y, z'
loop_
 _atom_site_type_symbol
 _atom_site_label
 _atom_site_symmetry_multiplicity
 _atom_site_fract_x
 _atom_site_fract_y
 _atom_site_fract_z
 _atom_site_occupancy
  Ho  Ho0  1  0.601335  0.601335  0.601335  1
  Ho  Ho1  1  0.599948  0.599948  0.198729  1
  Ho  Ho2  1  0.599948  0.198729  0.599948  1
  Ho  Ho3  1  0.198729  0.599948  0.599948  1
  Ho  Ho4  1  0.064366  0.439114  0.439114  1
  Ho  Ho5  1  0.440236  0.059125  0.059125  1
  Ho  Ho6  1  0.439114  0.064366  0.439114  1
  Ho  Ho7  1  0.059125  0.440236  0.059125  1
  Ho  Ho8  1  0.439114  0.439114  0.064366  1
  Ho  Ho9  1  0.059125  0.059125  0.440236  1
  Ho  Ho10  1  0.186402  0.812973  0.812973  1
  Ho  Ho11  1  0.804534  0.190391  0.190391  1
  Ho  Ho12  1  0.812973  0.186402  0.812973  1
  Ho  Ho13  1  0.190391  0.804534  0.190391  1
  Ho  Ho14  1  0.812973  0.812973  0.186402  1
  Ho  Ho15  1  0.190391  0.190391  0.804534  1
  In  In16  1  0.833130  0.833130  0.833130  1
  In  In17  1  0.832927  0.832927  0.500563  1
  In  In18  1  0.832927  0.500563  0.832927  1
  In  In19  1  0.500563  0.832927  0.832927  1
  Tc  Tc20  1  0.392908  0.392908  0.392908  1
  Pt  Pt21  1  0.392687  0.392687  0.823464  1
  Pt  Pt22  1  0.392687  0.823464  0.392687  1
  Pt  Pt23  1  0.823464  0.392687  0.392687  1
