# generated using pymatgen
data_Ho20IrRu4Pt7
_symmetry_space_group_name_H-M   'P 1'
_cell_length_a   10.92323520
_cell_length_b   10.92323520
_cell_length_c   6.40744730
_cell_angle_alpha   89.97539873
_cell_angle_beta   89.97539873
_cell_angle_gamma   90.29399746
_symmetry_Int_Tables_number   1
_chemical_formula_structural   Ho20IrRu4Pt7
_chemical_formula_sum   'Ho20 Ir1 Ru4 Pt7'
_cell_volume   764.50761398
_cell_formula_units_Z   1
loop_
 _symmetry_equiv_pos_site_id
 _symmetry_equiv_pos_as_xyz
  1  'x, y, z'
loop_
 _atom_site_type_symbol
 _atom_site_label
 _atom_site_symmetry_multiplicity
 _atom_site_fract_x
 _atom_site_fract_y
 _atom_site_fract_z
 _atom_site_occupancy
  Ho  Ho0  1  0.297084  0.085527  0.374578  1
  Ho  Ho1  1  0.296791  0.910738  0.874142  1
  Ho  Ho2  1  0.703108  0.085911  0.874349  1
  Ho  Ho3  1  0.703064  0.914043  0.374122  1
  Ho  Ho4  1  0.583333  0.795440  0.873411  1
  Ho  Ho5  1  0.586084  0.203593  0.375171  1
  Ho  Ho6  1  0.412468  0.794484  0.378306  1
  Ho  Ho7  1  0.413866  0.202653  0.874686  1
  Ho  Ho8  1  0.204560  0.416667  0.626589  1
  Ho  Ho9  1  0.205516  0.587532  0.121694  1
  Ho  Ho10  1  0.796407  0.413916  0.124829  1
  Ho  Ho11  1  0.797347  0.586134  0.625314  1
  Ho  Ho12  1  0.914473  0.702916  0.125422  1
  Ho  Ho13  1  0.914089  0.296892  0.625651  1
  Ho  Ho14  1  0.089262  0.703209  0.625858  1
  Ho  Ho15  1  0.085957  0.296936  0.125878  1
  Ho  Ho16  1  0.999953  0.999861  0.500269  1
  Ho  Ho17  1  0.000139  0.000047  0.999731  1
  Ho  Ho18  1  0.498208  0.501476  0.999019  1
  Ho  Ho19  1  0.498524  0.501792  0.500981  1
  Ir  Ir20  1  0.347371  0.652629  0.750000  1
  Ru  Ru21  1  0.500438  0.000462  0.125763  1
  Ru  Ru22  1  0.500144  0.000360  0.625030  1
  Ru  Ru23  1  0.999640  0.499856  0.874970  1
  Ru  Ru24  1  0.999538  0.499562  0.374237  1
  Pt  Pt25  1  0.846765  0.153235  0.250000  1
  Pt  Pt26  1  0.846262  0.846675  0.750353  1
  Pt  Pt27  1  0.153325  0.153738  0.749647  1
  Pt  Pt28  1  0.152785  0.847215  0.250000  1
  Pt  Pt29  1  0.653164  0.346836  0.750000  1
  Pt  Pt30  1  0.654082  0.653746  0.250128  1
  Pt  Pt31  1  0.346254  0.345918  0.249872  1
