# generated using pymatgen
data_Y17Er3Cd6FeNi
_symmetry_space_group_name_H-M   'P 1'
_cell_length_a   9.62182339
_cell_length_b   9.62182407
_cell_length_c   9.80135247
_cell_angle_alpha   90.03070275
_cell_angle_beta   89.96929878
_cell_angle_gamma   119.98856608
_symmetry_Int_Tables_number   1
_chemical_formula_structural   Y17Er3Cd6FeNi
_chemical_formula_sum   'Y17 Er3 Cd6 Fe1 Ni1'
_cell_volume   785.92549090
_cell_formula_units_Z   1
loop_
 _symmetry_equiv_pos_site_id
 _symmetry_equiv_pos_as_xyz
  1  'x, y, z'
loop_
 _atom_site_type_symbol
 _atom_site_label
 _atom_site_symmetry_multiplicity
 _atom_site_fract_x
 _atom_site_fract_y
 _atom_site_fract_z
 _atom_site_occupancy
  Y  Y0  1  0.541745  0.458255  0.249961  1
  Y  Y1  1  0.541075  0.082775  0.250362  1
  Y  Y2  1  0.917225  0.458925  0.250362  1
  Y  Y3  1  0.456548  0.543452  0.750020  1
  Y  Y4  1  0.456182  0.912794  0.749469  1
  Y  Y5  1  0.087206  0.543818  0.749469  1
  Y  Y6  1  0.211332  0.423511  0.435875  1
  Y  Y7  1  0.576489  0.788668  0.435875  1
  Y  Y8  1  0.790187  0.209813  0.561750  1
  Y  Y9  1  0.790509  0.580312  0.561561  1
  Y  Y10  1  0.419688  0.209491  0.561561  1
  Y  Y11  1  0.790020  0.209980  0.938285  1
  Y  Y12  1  0.790192  0.580250  0.938277  1
  Y  Y13  1  0.419750  0.209808  0.938277  1
  Y  Y14  1  0.211499  0.788501  0.064726  1
  Y  Y15  1  0.211374  0.422660  0.064022  1
  Y  Y16  1  0.577340  0.788626  0.064022  1
  Er  Er17  1  0.000421  0.999579  0.499983  1
  Er  Er18  1  0.000058  0.999942  0.999811  1
  Er  Er19  1  0.211811  0.788189  0.435479  1
  Cd  Cd20  1  0.885809  0.114191  0.250003  1
  Cd  Cd21  1  0.885897  0.771607  0.250041  1
  Cd  Cd22  1  0.228393  0.114103  0.250041  1
  Cd  Cd23  1  0.114266  0.885734  0.750002  1
  Cd  Cd24  1  0.114226  0.228505  0.749937  1
  Cd  Cd25  1  0.771495  0.885774  0.749937  1
  Fe  Fe26  1  0.332599  0.667401  0.250974  1
  Ni  Ni27  1  0.666660  0.333340  0.749919  1
