# generated using pymatgen
data_Y3Tm2InBi2
_symmetry_space_group_name_H-M   'P 1'
_cell_length_a   6.52327500
_cell_length_b   9.08144328
_cell_length_c   9.07430400
_cell_angle_alpha   120.02602851
_cell_angle_beta   89.99994730
_cell_angle_gamma   90.00010839
_symmetry_Int_Tables_number   1
_chemical_formula_structural   Y3Tm2InBi2
_chemical_formula_sum   'Y6 Tm4 In2 Bi4'
_cell_volume   465.42590485
_cell_formula_units_Z   2
loop_
 _symmetry_equiv_pos_site_id
 _symmetry_equiv_pos_as_xyz
  1  'x, y, z'
loop_
 _atom_site_type_symbol
 _atom_site_label
 _atom_site_symmetry_multiplicity
 _atom_site_fract_x
 _atom_site_fract_y
 _atom_site_fract_z
 _atom_site_occupancy
  Y  Y0  1  0.750002  0.239598  0.000000  1
  Y  Y1  1  0.749999  0.762476  0.760478  1
  Y  Y2  1  0.749999  0.001999  0.239522  1
  Y  Y3  1  0.249998  0.763268  0.000000  1
  Y  Y4  1  0.250001  0.235823  0.244104  1
  Y  Y5  1  0.250001  0.991719  0.755896  1
  Tm  Tm6  1  0.495673  0.331538  0.660058  1
  Tm  Tm7  1  0.495673  0.671479  0.339942  1
  Tm  Tm8  1  0.004329  0.671481  0.339944  1
  Tm  Tm9  1  0.004329  0.331536  0.660056  1
  In  In10  1  0.250000  0.602852  0.604613  1
  In  In11  1  0.250000  0.998238  0.395387  1
  Bi  Bi12  1  0.749999  0.605288  0.000000  1
  Bi  Bi13  1  0.749999  0.397894  0.394682  1
  Bi  Bi14  1  0.749999  0.003211  0.605318  1
  Bi  Bi15  1  0.249999  0.391602  0.000000  1
