# generated using pymatgen
data_RbNa(PO3)2
_symmetry_space_group_name_H-M   'P 1'
_cell_length_a   13.56657700
_cell_length_b   6.30989300
_cell_length_c   7.65522357
_cell_angle_alpha   84.75569977
_cell_angle_beta   90.00000000
_cell_angle_gamma   90.00000000
_symmetry_Int_Tables_number   1
_chemical_formula_structural   RbNa(PO3)2
_chemical_formula_sum   'Rb4 Na4 P8 O24'
_cell_volume   652.57194126
_cell_formula_units_Z   4
loop_
 _symmetry_equiv_pos_site_id
 _symmetry_equiv_pos_as_xyz
  1  'x, y, z'
loop_
 _atom_site_type_symbol
 _atom_site_label
 _atom_site_symmetry_multiplicity
 _atom_site_fract_x
 _atom_site_fract_y
 _atom_site_fract_z
 _atom_site_occupancy
  Rb  Rb0  1  0.169300  0.296700  0.764427  1
  Rb  Rb1  1  0.830700  0.703300  0.235573  1
  Rb  Rb2  1  0.669300  0.703300  0.735573  1
  Rb  Rb3  1  0.330700  0.296700  0.264427  1
  Na  Na4  1  0.968504  0.822042  0.803790  1
  Na  Na5  1  0.031496  0.177958  0.196210  1
  Na  Na6  1  0.468504  0.177958  0.696210  1
  Na  Na7  1  0.531496  0.822042  0.303789  1
  P  P8  1  0.367217  0.692570  0.650955  1
  P  P9  1  0.632783  0.307430  0.349045  1
  P  P10  1  0.867217  0.307430  0.849045  1
  P  P11  1  0.132783  0.692570  0.150955  1
  P  P12  1  0.169815  0.845881  0.502871  1
  P  P13  1  0.830185  0.154119  0.497129  1
  P  P14  1  0.669815  0.154119  0.997129  1
  P  P15  1  0.330185  0.845881  0.002871  1
  O  O16  1  0.854274  0.934069  0.576870  1
  O  O17  1  0.145726  0.065931  0.423130  1
  O  O18  1  0.354274  0.065931  0.923130  1
  O  O19  1  0.645726  0.934069  0.076870  1
  O  O20  1  0.357333  0.469899  0.598646  1
  O  O21  1  0.642667  0.530101  0.401354  1
  O  O22  1  0.857333  0.530101  0.901354  1
  O  O23  1  0.142667  0.469899  0.098646  1
  O  O24  1  0.114306  0.747499  0.659069  1
  O  O25  1  0.885694  0.252501  0.340931  1
  O  O26  1  0.614306  0.252501  0.840931  1
  O  O27  1  0.385694  0.747499  0.159069  1
  O  O28  1  0.287585  0.853890  0.549232  1
  O  O29  1  0.712415  0.146110  0.450768  1
  O  O30  1  0.787585  0.146110  0.950768  1
  O  O31  1  0.212415  0.853890  0.049232  1
  O  O32  1  0.463990  0.808117  0.629785  1
  O  O33  1  0.536010  0.191883  0.370215  1
  O  O34  1  0.963990  0.191883  0.870215  1
  O  O35  1  0.036010  0.808117  0.129785  1
  O  O36  1  0.330117  0.676529  0.854239  1
  O  O37  1  0.669883  0.323471  0.145761  1
  O  O38  1  0.830117  0.323471  0.645761  1
  O  O39  1  0.169883  0.676529  0.354239  1
