# generated using pymatgen
data_Ce4ZnSiPt4Rh7
_symmetry_space_group_name_H-M   'P 1'
_cell_length_a   7.27616986
_cell_length_b   7.28859655
_cell_length_c   7.27617075
_cell_angle_alpha   107.70449746
_cell_angle_beta   108.91533758
_cell_angle_gamma   111.75072277
_symmetry_Int_Tables_number   1
_chemical_formula_structural   Ce4ZnSiPt4Rh7
_chemical_formula_sum   'Ce4 Zn1 Si1 Pt4 Rh7'
_cell_volume   296.91192131
_cell_formula_units_Z   1
loop_
 _symmetry_equiv_pos_site_id
 _symmetry_equiv_pos_as_xyz
  1  'x, y, z'
loop_
 _atom_site_type_symbol
 _atom_site_label
 _atom_site_symmetry_multiplicity
 _atom_site_fract_x
 _atom_site_fract_y
 _atom_site_fract_z
 _atom_site_occupancy
  Ce  Ce0  1  0.985544  0.002044  0.495989  1
  Ce  Ce1  1  0.002352  0.498192  0.991874  1
  Ce  Ce2  1  0.506055  0.002044  0.016501  1
  Ce  Ce3  1  0.506319  0.498192  0.495840  1
  Zn  Zn4  1  0.249621  0.751378  0.501757  1
  Si  Si5  1  0.999937  0.999253  0.999315  1
  Pt  Pt6  1  0.750235  0.252327  0.502092  1
  Pt  Pt7  1  0.761644  0.505058  0.252500  1
  Pt  Pt8  1  0.493461  0.240425  0.746964  1
  Pt  Pt9  1  0.252557  0.505058  0.743413  1
  Rh  Rh10  1  0.492637  0.746406  0.253769  1
  Rh  Rh11  1  0.719904  0.718276  0.998372  1
  Rh  Rh12  1  0.262501  0.989149  0.278339  1
  Rh  Rh13  1  0.013012  0.285750  0.272738  1
  Rh  Rh14  1  0.279908  0.278091  0.998183  1
  Rh  Rh15  1  0.710810  0.989149  0.726649  1
  Rh  Rh16  1  0.013503  0.739206  0.725703  1
