# generated using pymatgen
data_HoPa3(GaCo2)2
_symmetry_space_group_name_H-M   'P 1'
_cell_length_a   7.17342861
_cell_length_b   7.17342829
_cell_length_c   3.49267100
_cell_angle_alpha   90.00000000
_cell_angle_beta   90.00000000
_cell_angle_gamma   92.59399864
_symmetry_Int_Tables_number   1
_chemical_formula_structural   HoPa3(GaCo2)2
_chemical_formula_sum   'Ho1 Pa3 Ga2 Co4'
_cell_volume   179.54196631
_cell_formula_units_Z   1
loop_
 _symmetry_equiv_pos_site_id
 _symmetry_equiv_pos_as_xyz
  1  'x, y, z'
loop_
 _atom_site_type_symbol
 _atom_site_label
 _atom_site_symmetry_multiplicity
 _atom_site_fract_x
 _atom_site_fract_y
 _atom_site_fract_z
 _atom_site_occupancy
  Ho  Ho0  1  0.823809  0.676191  0.500000  1
  Pa  Pa1  1  0.679398  0.173124  0.500000  1
  Pa  Pa2  1  0.326876  0.820602  0.500000  1
  Pa  Pa3  1  0.176322  0.323678  0.500000  1
  Ga  Ga4  1  0.505731  0.499774  0.000000  1
  Ga  Ga5  1  0.000226  0.994269  0.000000  1
  Co  Co6  1  0.151072  0.623904  0.000000  1
  Co  Co7  1  0.876096  0.348928  0.000000  1
  Co  Co8  1  0.605577  0.894423  0.000000  1
  Co  Co9  1  0.354895  0.145105  0.000000  1
