# generated using pymatgen
data_SrAl4GeI16
_symmetry_space_group_name_H-M   'P 1'
_cell_length_a   8.39064716
_cell_length_b   8.45202330
_cell_length_c   15.56004314
_cell_angle_alpha   87.98833930
_cell_angle_beta   90.59987744
_cell_angle_gamma   89.15505850
_symmetry_Int_Tables_number   1
_chemical_formula_structural   SrAl4GeI16
_chemical_formula_sum   'Sr1 Al4 Ge1 I16'
_cell_volume   1102.61964322
_cell_formula_units_Z   1
loop_
 _symmetry_equiv_pos_site_id
 _symmetry_equiv_pos_as_xyz
  1  'x, y, z'
loop_
 _atom_site_type_symbol
 _atom_site_label
 _atom_site_symmetry_multiplicity
 _atom_site_fract_x
 _atom_site_fract_y
 _atom_site_fract_z
 _atom_site_occupancy
  Sr  Sr0  1  0.761704  0.081908  0.811606  1
  Al  Al1  1  0.940249  0.221989  0.571321  1
  Al  Al2  1  0.068684  0.213244  0.087562  1
  Al  Al3  1  0.570873  0.642591  0.779175  1
  Al  Al4  1  0.421752  0.643577  0.278929  1
  Ge  Ge5  1  0.242279  0.064382  0.305488  1
  I  I6  1  0.426691  0.614843  0.639717  1
  I  I7  1  0.566772  0.615737  0.140731  1
  I  I8  1  0.868105  0.715158  0.761319  1
  I  I9  1  0.127023  0.752627  0.259574  1
  I  I10  1  0.935201  0.487068  0.494572  1
  I  I11  1  0.061802  0.469119  0.002277  1
  I  I12  1  0.928527  0.989278  0.007784  1
  I  I13  1  0.085633  0.003104  0.487790  1
  I  I14  1  0.653827  0.126758  0.605772  1
  I  I15  1  0.359421  0.120991  0.126941  1
  I  I16  1  0.556114  0.391504  0.880740  1
  I  I17  1  0.415265  0.385793  0.371341  1
  I  I18  1  0.444317  0.868001  0.866975  1
  I  I19  1  0.540991  0.872203  0.365488  1
  I  I20  1  0.941432  0.227664  0.238425  1
  I  I21  1  0.083339  0.227262  0.720873  1
