# generated using pymatgen
data_Ac3OsI3
_symmetry_space_group_name_H-M   'P 1'
_cell_length_a   4.54987400
_cell_length_b   9.93259151
_cell_length_c   13.05331182
_cell_angle_alpha   86.90740861
_cell_angle_beta   90.00000000
_cell_angle_gamma   90.00000000
_symmetry_Int_Tables_number   1
_chemical_formula_structural   Ac3OsI3
_chemical_formula_sum   'Ac6 Os2 I6'
_cell_volume   589.04668146
_cell_formula_units_Z   2
loop_
 _symmetry_equiv_pos_site_id
 _symmetry_equiv_pos_as_xyz
  1  'x, y, z'
loop_
 _atom_site_type_symbol
 _atom_site_label
 _atom_site_symmetry_multiplicity
 _atom_site_fract_x
 _atom_site_fract_y
 _atom_site_fract_z
 _atom_site_occupancy
  Ac  Ac0  1  0.750000  0.688169  0.117789  1
  Ac  Ac1  1  0.250000  0.882795  0.333472  1
  Ac  Ac2  1  0.250000  0.311831  0.882211  1
  Ac  Ac3  1  0.250000  0.903178  0.895483  1
  Ac  Ac4  1  0.750000  0.117205  0.666528  1
  Ac  Ac5  1  0.750000  0.096822  0.104517  1
  Os  Os6  1  0.250000  0.888809  0.122808  1
  Os  Os7  1  0.750000  0.111191  0.877192  1
  I  I8  1  0.250000  0.397108  0.135028  1
  I  I9  1  0.750000  0.130914  0.382277  1
  I  I10  1  0.750000  0.602892  0.864972  1
  I  I11  1  0.250000  0.363802  0.621729  1
  I  I12  1  0.750000  0.636198  0.378271  1
  I  I13  1  0.250000  0.869086  0.617723  1
