# generated using pymatgen
data_HoEr2Sc2(In2Pt)2
_symmetry_space_group_name_H-M   'P 1'
_cell_length_a   3.57872900
_cell_length_b   7.94410600
_cell_length_c   17.81961300
_cell_angle_alpha   90.00000000
_cell_angle_beta   90.00000000
_cell_angle_gamma   90.00000000
_symmetry_Int_Tables_number   1
_chemical_formula_structural   HoEr2Sc2(In2Pt)2
_chemical_formula_sum   'Ho2 Er4 Sc4 In8 Pt4'
_cell_volume   506.60807860
_cell_formula_units_Z   2
loop_
 _symmetry_equiv_pos_site_id
 _symmetry_equiv_pos_as_xyz
  1  'x, y, z'
loop_
 _atom_site_type_symbol
 _atom_site_label
 _atom_site_symmetry_multiplicity
 _atom_site_fract_x
 _atom_site_fract_y
 _atom_site_fract_z
 _atom_site_occupancy
  Ho  Ho0  1  0.000000  0.000000  0.000000  1
  Ho  Ho1  1  0.000000  0.500000  0.500000  1
  Er  Er2  1  0.000000  0.242297  0.217497  1
  Er  Er3  1  0.000000  0.757703  0.782503  1
  Er  Er4  1  0.000000  0.257703  0.717497  1
  Er  Er5  1  0.000000  0.742297  0.282503  1
  Sc  Sc6  1  0.000000  0.117518  0.414380  1
  Sc  Sc7  1  0.000000  0.882482  0.585620  1
  Sc  Sc8  1  0.000000  0.382482  0.914380  1
  Sc  Sc9  1  0.000000  0.617518  0.085620  1
  In  In10  1  0.500000  0.414741  0.351229  1
  In  In11  1  0.500000  0.585259  0.648771  1
  In  In12  1  0.500000  0.085259  0.851229  1
  In  In13  1  0.500000  0.914741  0.148771  1
  In  In14  1  0.500000  0.304994  0.060870  1
  In  In15  1  0.500000  0.695006  0.939130  1
  In  In16  1  0.500000  0.195006  0.560870  1
  In  In17  1  0.500000  0.804994  0.439130  1
  Pt  Pt18  1  0.500000  0.030600  0.307484  1
  Pt  Pt19  1  0.500000  0.969400  0.692516  1
  Pt  Pt20  1  0.500000  0.469400  0.807484  1
  Pt  Pt21  1  0.500000  0.530600  0.192516  1
