# generated using pymatgen
data_Pr8Dy3Er9Si16
_symmetry_space_group_name_H-M   'P 1'
_cell_length_a   7.51890794
_cell_length_b   7.79703672
_cell_length_c   14.79602197
_cell_angle_alpha   90.02054375
_cell_angle_beta   89.96410592
_cell_angle_gamma   89.95527638
_symmetry_Int_Tables_number   1
_chemical_formula_structural   Pr8Dy3Er9Si16
_chemical_formula_sum   'Pr8 Dy3 Er9 Si16'
_cell_volume   867.41927585
_cell_formula_units_Z   1
loop_
 _symmetry_equiv_pos_site_id
 _symmetry_equiv_pos_as_xyz
  1  'x, y, z'
loop_
 _atom_site_type_symbol
 _atom_site_label
 _atom_site_symmetry_multiplicity
 _atom_site_fract_x
 _atom_site_fract_y
 _atom_site_fract_z
 _atom_site_occupancy
  Pr  Pr0  1  0.974763  0.820945  0.098254  1
  Pr  Pr1  1  0.474540  0.679118  0.401742  1
  Pr  Pr2  1  0.525266  0.320921  0.901949  1
  Pr  Pr3  1  0.025415  0.179103  0.598216  1
  Pr  Pr4  1  0.025088  0.179312  0.901893  1
  Pr  Pr5  1  0.524984  0.320674  0.598170  1
  Pr  Pr6  1  0.474953  0.679223  0.098208  1
  Pr  Pr7  1  0.975107  0.820742  0.401749  1
  Dy  Dy8  1  0.818502  0.321340  0.376778  1
  Dy  Dy9  1  0.181447  0.678595  0.876897  1
  Dy  Dy10  1  0.681493  0.821355  0.623132  1
  Er  Er11  1  0.648645  0.990003  0.249809  1
  Er  Er12  1  0.148835  0.509728  0.249932  1
  Er  Er13  1  0.851199  0.489883  0.750050  1
  Er  Er14  1  0.351229  0.010146  0.749931  1
  Er  Er15  1  0.681214  0.821930  0.876762  1
  Er  Er16  1  0.181273  0.678233  0.623238  1
  Er  Er17  1  0.818709  0.321618  0.123362  1
  Er  Er18  1  0.318667  0.178256  0.376535  1
  Er  Er19  1  0.318654  0.178333  0.123387  1
  Si  Si20  1  0.768364  0.620563  0.249664  1
  Si  Si21  1  0.268474  0.880157  0.249984  1
  Si  Si22  1  0.731765  0.120424  0.750295  1
  Si  Si23  1  0.231712  0.379513  0.749725  1
  Si  Si24  1  0.023882  0.112556  0.249687  1
  Si  Si25  1  0.522348  0.386998  0.249580  1
  Si  Si26  1  0.476900  0.612343  0.749964  1
  Si  Si27  1  0.976940  0.887692  0.750101  1
  Si  Si28  1  0.855476  0.530629  0.959979  1
  Si  Si29  1  0.355493  0.969302  0.540072  1
  Si  Si30  1  0.643720  0.031197  0.040344  1
  Si  Si31  1  0.144469  0.469256  0.459927  1
  Si  Si32  1  0.143256  0.468276  0.040790  1
  Si  Si33  1  0.642465  0.031001  0.459451  1
  Si  Si34  1  0.357180  0.969634  0.959941  1
  Si  Si35  1  0.857571  0.531001  0.540501  1
