# generated using pymatgen
data_BiAsPd3Pb
_symmetry_space_group_name_H-M   'P 1'
_cell_length_a   6.95672794
_cell_length_b   7.06329863
_cell_length_c   5.96889700
_cell_angle_alpha   90.00000000
_cell_angle_beta   90.00000000
_cell_angle_gamma   121.20084248
_symmetry_Int_Tables_number   1
_chemical_formula_structural   BiAsPd3Pb
_chemical_formula_sum   'Bi2 As2 Pd6 Pb2'
_cell_volume   250.87298953
_cell_formula_units_Z   2
loop_
 _symmetry_equiv_pos_site_id
 _symmetry_equiv_pos_as_xyz
  1  'x, y, z'
loop_
 _atom_site_type_symbol
 _atom_site_label
 _atom_site_symmetry_multiplicity
 _atom_site_fract_x
 _atom_site_fract_y
 _atom_site_fract_z
 _atom_site_occupancy
  Bi  Bi0  1  0.017441  0.663413  0.690985  1
  Bi  Bi1  1  0.982559  0.336587  0.190985  1
  As  As2  1  0.703680  0.705459  0.297642  1
  As  As3  1  0.296320  0.294541  0.797642  1
  Pd  Pd4  1  0.668741  0.431437  0.001539  1
  Pd  Pd5  1  0.331259  0.568563  0.501539  1
  Pd  Pd6  1  0.944338  0.949534  0.979896  1
  Pd  Pd7  1  0.055662  0.050466  0.479896  1
  Pd  Pd8  1  0.419602  0.661153  0.999131  1
  Pd  Pd9  1  0.580398  0.338847  0.499131  1
  Pb  Pb10  1  0.345753  0.983772  0.190806  1
  Pb  Pb11  1  0.654247  0.016228  0.690806  1
