# generated using pymatgen
data_CeThZr(ScFe6)3
_symmetry_space_group_name_H-M   'P 1'
_cell_length_a   4.96706668
_cell_length_b   4.96615723
_cell_length_c   16.33514074
_cell_angle_alpha   98.69684850
_cell_angle_beta   98.70029078
_cell_angle_gamma   60.07369885
_symmetry_Int_Tables_number   1
_chemical_formula_structural   CeThZr(ScFe6)3
_chemical_formula_sum   'Ce1 Th1 Zr1 Sc3 Fe18'
_cell_volume   343.84730552
_cell_formula_units_Z   1
loop_
 _symmetry_equiv_pos_site_id
 _symmetry_equiv_pos_as_xyz
  1  'x, y, z'
loop_
 _atom_site_type_symbol
 _atom_site_label
 _atom_site_symmetry_multiplicity
 _atom_site_fract_x
 _atom_site_fract_y
 _atom_site_fract_z
 _atom_site_occupancy
  Ce  Ce0  1  0.000246  0.000262  0.001046  1
  Th  Th1  1  0.499233  0.499261  0.497763  1
  Zr  Zr2  1  0.572247  0.572246  0.716202  1
  Sc  Sc3  1  0.427717  0.427676  0.283193  1
  Sc  Sc4  1  0.928862  0.928849  0.786715  1
  Sc  Sc5  1  0.071781  0.071763  0.215237  1
  Fe  Fe6  1  0.455632  0.957759  0.370796  1
  Fe  Fe7  1  0.955996  0.458144  0.872399  1
  Fe  Fe8  1  0.957710  0.957723  0.370999  1
  Fe  Fe9  1  0.458159  0.458161  0.872662  1
  Fe  Fe10  1  0.957752  0.455646  0.370798  1
  Fe  Fe11  1  0.458151  0.956005  0.872423  1
  Fe  Fe12  1  0.044301  0.541996  0.128307  1
  Fe  Fe13  1  0.544512  0.041872  0.628259  1
  Fe  Fe14  1  0.541947  0.541940  0.128039  1
  Fe  Fe15  1  0.041789  0.041784  0.628131  1
  Fe  Fe16  1  0.541995  0.044292  0.128300  1
  Fe  Fe17  1  0.041870  0.544513  0.628260  1
  Fe  Fe18  1  0.333895  0.333990  0.001471  1
  Fe  Fe19  1  0.833565  0.833616  0.501094  1
  Fe  Fe20  1  0.166307  0.166329  0.498645  1
  Fe  Fe21  1  0.666381  0.666287  0.999323  1
  Fe  Fe22  1  0.749708  0.749675  0.249503  1
  Fe  Fe23  1  0.250245  0.250212  0.750428  1
