# generated using pymatgen
data_Cs2Fe(TeO4)3
_symmetry_space_group_name_H-M   'P 1'
_cell_length_a   7.28050982
_cell_length_b   7.28063859
_cell_length_c   7.28232414
_cell_angle_alpha   60.58920726
_cell_angle_beta   60.59070096
_cell_angle_gamma   60.58109743
_symmetry_Int_Tables_number   1
_chemical_formula_structural   Cs2Fe(TeO4)3
_chemical_formula_sum   'Cs2 Fe1 Te3 O12'
_cell_volume   276.57095751
_cell_formula_units_Z   1
loop_
 _symmetry_equiv_pos_site_id
 _symmetry_equiv_pos_as_xyz
  1  'x, y, z'
loop_
 _atom_site_type_symbol
 _atom_site_label
 _atom_site_symmetry_multiplicity
 _atom_site_fract_x
 _atom_site_fract_y
 _atom_site_fract_z
 _atom_site_occupancy
  Cs  Cs0  1  0.123417  0.136705  0.627791  1
  Cs  Cs1  1  0.863305  0.876582  0.372212  1
  Fe  Fe2  1  0.497551  0.502383  0.000011  1
  Te  Te3  1  0.497467  0.002134  0.999967  1
  Te  Te4  1  0.997858  0.502540  0.000036  1
  Te  Te5  1  0.497487  0.502519  0.499993  1
  O  O6  1  0.821292  0.825798  0.930120  1
  O  O7  1  0.430806  0.433566  0.324281  1
  O  O8  1  0.430344  0.826680  0.930972  1
  O  O9  1  0.820812  0.432554  0.322952  1
  O  O10  1  0.822052  0.434384  0.932243  1
  O  O11  1  0.428211  0.825694  0.323311  1
  O  O12  1  0.174181  0.178749  0.069877  1
  O  O13  1  0.566471  0.569166  0.675713  1
  O  O14  1  0.565652  0.177898  0.067755  1
  O  O15  1  0.174284  0.571795  0.676691  1
  O  O16  1  0.173362  0.569628  0.069031  1
  O  O17  1  0.567449  0.179223  0.677045  1
