# generated using pymatgen
data_Ti4Nb6Ge6BH
_symmetry_space_group_name_H-M   'P 1'
_cell_length_a   7.69750300
_cell_length_b   7.69750349
_cell_length_c   5.24375300
_cell_angle_alpha   90.00000000
_cell_angle_beta   90.00000000
_cell_angle_gamma   119.99999359
_symmetry_Int_Tables_number   1
_chemical_formula_structural   Ti4Nb6Ge6BH
_chemical_formula_sum   'Ti4 Nb6 Ge6 B1 H1'
_cell_volume   269.07456559
_cell_formula_units_Z   1
loop_
 _symmetry_equiv_pos_site_id
 _symmetry_equiv_pos_as_xyz
  1  'x, y, z'
loop_
 _atom_site_type_symbol
 _atom_site_label
 _atom_site_symmetry_multiplicity
 _atom_site_fract_x
 _atom_site_fract_y
 _atom_site_fract_z
 _atom_site_occupancy
  Ti  Ti0  1  0.666667  0.333333  0.500000  1
  Ti  Ti1  1  0.333333  0.666667  0.500000  1
  Ti  Ti2  1  0.333333  0.666667  0.000000  1
  Ti  Ti3  1  0.666667  0.333333  0.000000  1
  Nb  Nb4  1  0.759028  0.759028  0.254085  1
  Nb  Nb5  1  0.240972  0.000000  0.254085  1
  Nb  Nb6  1  0.000000  0.240972  0.254085  1
  Nb  Nb7  1  0.240972  0.240972  0.745915  1
  Nb  Nb8  1  0.759028  0.000000  0.745915  1
  Nb  Nb9  1  0.000000  0.759028  0.745915  1
  Ge  Ge10  1  0.401544  0.401544  0.250900  1
  Ge  Ge11  1  0.598456  0.000000  0.250900  1
  Ge  Ge12  1  0.000000  0.598456  0.250900  1
  Ge  Ge13  1  0.598456  0.598456  0.749100  1
  Ge  Ge14  1  0.401544  0.000000  0.749100  1
  Ge  Ge15  1  0.000000  0.401544  0.749100  1
  B  B16  1  0.000000  0.000000  0.000000  1
  H  H17  1  0.000000  0.000000  0.500000  1
