# generated using pymatgen
data_Nd2Tm4Ir17Rh
_symmetry_space_group_name_H-M   'P 1'
_cell_length_a   5.32530928
_cell_length_b   5.32608176
_cell_length_c   17.41240800
_cell_angle_alpha   90.00000000
_cell_angle_beta   90.00000000
_cell_angle_gamma   120.00882324
_symmetry_Int_Tables_number   1
_chemical_formula_structural   Nd2Tm4Ir17Rh
_chemical_formula_sum   'Nd2 Tm4 Ir17 Rh1'
_cell_volume   427.66480555
_cell_formula_units_Z   1
loop_
 _symmetry_equiv_pos_site_id
 _symmetry_equiv_pos_as_xyz
  1  'x, y, z'
loop_
 _atom_site_type_symbol
 _atom_site_label
 _atom_site_symmetry_multiplicity
 _atom_site_fract_x
 _atom_site_fract_y
 _atom_site_fract_z
 _atom_site_occupancy
  Nd  Nd0  1  0.333364  0.666679  0.750000  1
  Nd  Nd1  1  0.666624  0.333292  0.250000  1
  Tm  Tm2  1  0.333432  0.666704  0.540088  1
  Tm  Tm3  1  0.666585  0.333300  0.040223  1
  Tm  Tm4  1  0.666585  0.333300  0.459777  1
  Tm  Tm5  1  0.333432  0.666704  0.959912  1
  Ir  Ir6  1  0.167288  0.334956  0.125234  1
  Ir  Ir7  1  0.832127  0.663992  0.624934  1
  Ir  Ir8  1  0.665037  0.832543  0.125080  1
  Ir  Ir9  1  0.167330  0.832333  0.125266  1
  Ir  Ir10  1  0.832090  0.168144  0.624970  1
  Ir  Ir11  1  0.336032  0.168000  0.624854  1
  Ir  Ir12  1  0.832127  0.663992  0.875066  1
  Ir  Ir13  1  0.832090  0.168144  0.875030  1
  Ir  Ir14  1  0.336032  0.168000  0.875146  1
  Ir  Ir15  1  0.665037  0.832543  0.374920  1
  Ir  Ir16  1  0.167330  0.832333  0.374734  1
  Ir  Ir17  1  0.167288  0.334956  0.374766  1
  Ir  Ir18  1  0.999143  0.999676  0.250000  1
  Ir  Ir19  1  0.000395  0.000096  0.750000  1
  Ir  Ir20  1  0.334448  0.667022  0.250000  1
  Ir  Ir21  1  0.000086  0.000041  0.999684  1
  Ir  Ir22  1  0.000086  0.000041  0.500316  1
  Rh  Rh23  1  0.666010  0.333206  0.750000  1
