# generated using pymatgen
data_Er4AlCo9B4
_symmetry_space_group_name_H-M   'P 1'
_cell_length_a   5.12899600
_cell_length_b   5.12899615
_cell_length_c   19.68352600
_cell_angle_alpha   90.00000000
_cell_angle_beta   90.00000000
_cell_angle_gamma   119.99999906
_symmetry_Int_Tables_number   1
_chemical_formula_structural   Er4AlCo9B4
_chemical_formula_sum   'Er8 Al2 Co18 B8'
_cell_volume   448.43372531
_cell_formula_units_Z   2
loop_
 _symmetry_equiv_pos_site_id
 _symmetry_equiv_pos_as_xyz
  1  'x, y, z'
loop_
 _atom_site_type_symbol
 _atom_site_label
 _atom_site_symmetry_multiplicity
 _atom_site_fract_x
 _atom_site_fract_y
 _atom_site_fract_z
 _atom_site_occupancy
  Er  Er0  1  0.666667  0.333333  0.825185  1
  Er  Er1  1  0.666667  0.333333  0.976724  1
  Er  Er2  1  0.333333  0.666667  0.476724  1
  Er  Er3  1  0.333333  0.666667  0.023276  1
  Er  Er4  1  0.333333  0.666667  0.174815  1
  Er  Er5  1  0.666667  0.333333  0.523276  1
  Er  Er6  1  0.666667  0.333333  0.674815  1
  Er  Er7  1  0.333333  0.666667  0.325185  1
  Al  Al8  1  0.000000  0.000000  0.000000  1
  Al  Al9  1  0.000000  0.000000  0.500000  1
  Co  Co10  1  0.166157  0.332312  0.894608  1
  Co  Co11  1  0.166157  0.833843  0.605392  1
  Co  Co12  1  0.833843  0.166157  0.394608  1
  Co  Co13  1  0.333648  0.166824  0.250000  1
  Co  Co14  1  0.332312  0.166157  0.394608  1
  Co  Co15  1  0.833843  0.667688  0.105392  1
  Co  Co16  1  0.833843  0.667688  0.394608  1
  Co  Co17  1  0.833176  0.666352  0.250000  1
  Co  Co18  1  0.667688  0.833843  0.605392  1
  Co  Co19  1  0.666352  0.833176  0.750000  1
  Co  Co20  1  0.833843  0.166157  0.105392  1
  Co  Co21  1  0.667688  0.833843  0.894608  1
  Co  Co22  1  0.166824  0.333648  0.750000  1
  Co  Co23  1  0.166824  0.833176  0.750000  1
  Co  Co24  1  0.833176  0.166824  0.250000  1
  Co  Co25  1  0.332312  0.166157  0.105392  1
  Co  Co26  1  0.166157  0.833843  0.894608  1
  Co  Co27  1  0.166157  0.332312  0.605392  1
  B  B28  1  0.333333  0.666667  0.824877  1
  B  B29  1  0.333333  0.666667  0.675123  1
  B  B30  1  0.666667  0.333333  0.324877  1
  B  B31  1  0.000000  0.000000  0.824515  1
  B  B32  1  0.666667  0.333333  0.175123  1
  B  B33  1  0.000000  0.000000  0.675485  1
  B  B34  1  0.000000  0.000000  0.324515  1
  B  B35  1  0.000000  0.000000  0.175485  1
