# generated using pymatgen
data_Nb3Fe6ReSi2
_symmetry_space_group_name_H-M   'P 1'
_cell_length_a   4.80545000
_cell_length_b   4.80545106
_cell_length_c   7.81821100
_cell_angle_alpha   90.00000000
_cell_angle_beta   90.00000000
_cell_angle_gamma   119.99999271
_symmetry_Int_Tables_number   1
_chemical_formula_structural   Nb3Fe6ReSi2
_chemical_formula_sum   'Nb3 Fe6 Re1 Si2'
_cell_volume   156.35301927
_cell_formula_units_Z   1
loop_
 _symmetry_equiv_pos_site_id
 _symmetry_equiv_pos_as_xyz
  1  'x, y, z'
loop_
 _atom_site_type_symbol
 _atom_site_label
 _atom_site_symmetry_multiplicity
 _atom_site_fract_x
 _atom_site_fract_y
 _atom_site_fract_z
 _atom_site_occupancy
  Nb  Nb0  1  0.333333  0.666667  0.429403  1
  Nb  Nb1  1  0.666667  0.333333  0.578633  1
  Nb  Nb2  1  0.333333  0.666667  0.051070  1
  Fe  Fe3  1  0.169750  0.830250  0.749071  1
  Fe  Fe4  1  0.660500  0.830250  0.749071  1
  Fe  Fe5  1  0.829417  0.170583  0.249734  1
  Fe  Fe6  1  0.169750  0.339500  0.749071  1
  Fe  Fe7  1  0.829417  0.658832  0.249734  1
  Fe  Fe8  1  0.341168  0.170583  0.249734  1
  Re  Re9  1  0.666667  0.333333  0.946889  1
  Si  Si10  1  0.000000  0.000000  0.498503  1
  Si  Si11  1  0.000000  0.000000  0.999090  1
