# generated using pymatgen
data_La7Er3In8
_symmetry_space_group_name_H-M   'P 1'
_cell_length_a   9.69229700
_cell_length_b   9.69229948
_cell_length_c   6.85840500
_cell_angle_alpha   90.00000000
_cell_angle_beta   90.00000000
_cell_angle_gamma   119.99999494
_symmetry_Int_Tables_number   1
_chemical_formula_structural   La7Er3In8
_chemical_formula_sum   'La7 Er3 In8'
_cell_volume   557.96546558
_cell_formula_units_Z   1
loop_
 _symmetry_equiv_pos_site_id
 _symmetry_equiv_pos_as_xyz
  1  'x, y, z'
loop_
 _atom_site_type_symbol
 _atom_site_label
 _atom_site_symmetry_multiplicity
 _atom_site_fract_x
 _atom_site_fract_y
 _atom_site_fract_z
 _atom_site_occupancy
  La  La0  1  0.333333  0.666667  0.500000  1
  La  La1  1  0.293531  0.000344  0.751064  1
  La  La2  1  0.706813  0.000344  0.248936  1
  La  La3  1  0.999656  0.293187  0.751064  1
  La  La4  1  0.999656  0.706469  0.248936  1
  La  La5  1  0.706813  0.706469  0.751064  1
  La  La6  1  0.293531  0.293187  0.248936  1
  Er  Er7  1  0.666667  0.333333  0.500000  1
  Er  Er8  1  0.666667  0.333333  0.000000  1
  Er  Er9  1  0.333333  0.666667  0.000000  1
  In  In10  1  0.000000  0.000000  0.500000  1
  In  In11  1  0.000000  0.000000  0.000000  1
  In  In12  1  0.630168  0.003387  0.752740  1
  In  In13  1  0.373218  0.003387  0.247260  1
  In  In14  1  0.996613  0.626782  0.752740  1
  In  In15  1  0.996613  0.369832  0.247260  1
  In  In16  1  0.373218  0.369832  0.752740  1
  In  In17  1  0.630168  0.626782  0.247260  1
