# generated using pymatgen
data_PrY5(WO7)2
_symmetry_space_group_name_H-M   'P 1'
_cell_length_a   6.51496355
_cell_length_b   6.51496072
_cell_length_c   7.56570955
_cell_angle_alpha   89.90930967
_cell_angle_beta   90.09069364
_cell_angle_gamma   109.08984972
_symmetry_Int_Tables_number   1
_chemical_formula_structural   PrY5(WO7)2
_chemical_formula_sum   'Pr1 Y5 W2 O14'
_cell_volume   303.46429550
_cell_formula_units_Z   1
loop_
 _symmetry_equiv_pos_site_id
 _symmetry_equiv_pos_as_xyz
  1  'x, y, z'
loop_
 _atom_site_type_symbol
 _atom_site_label
 _atom_site_symmetry_multiplicity
 _atom_site_fract_x
 _atom_site_fract_y
 _atom_site_fract_z
 _atom_site_occupancy
  Pr  Pr0  1  0.504049  0.504049  0.250000  1
  Y  Y1  1  0.479828  0.479828  0.750000  1
  Y  Y2  1  0.997676  0.467804  0.500727  1
  Y  Y3  1  0.533655  0.000941  0.505107  1
  Y  Y4  1  0.000941  0.533655  0.994893  1
  Y  Y5  1  0.467804  0.997676  0.999273  1
  W  W6  1  0.000505  0.000505  0.250000  1
  W  W7  1  0.999375  0.999375  0.750000  1
  O  O8  1  0.070634  0.320345  0.218545  1
  O  O9  1  0.683772  0.935169  0.781546  1
  O  O10  1  0.935170  0.683772  0.718454  1
  O  O11  1  0.320345  0.070635  0.281455  1
  O  O12  1  0.677782  0.926168  0.221940  1
  O  O13  1  0.079089  0.323469  0.777612  1
  O  O14  1  0.323469  0.079090  0.722388  1
  O  O15  1  0.926169  0.677782  0.278060  1
  O  O16  1  0.364850  0.634287  0.509808  1
  O  O17  1  0.634288  0.364851  0.990192  1
  O  O18  1  0.360476  0.639217  0.990297  1
  O  O19  1  0.639217  0.360476  0.509703  1
  O  O20  1  0.927977  0.072931  0.499524  1
  O  O21  1  0.072931  0.927977  0.000476  1
