# generated using pymatgen
data_PrNd3Al16(SiRh3)2
_symmetry_space_group_name_H-M   'P 1'
_cell_length_a   7.61100021
_cell_length_b   7.58610359
_cell_length_c   9.58790032
_cell_angle_alpha   89.96376958
_cell_angle_beta   89.91849242
_cell_angle_gamma   119.63947109
_symmetry_Int_Tables_number   1
_chemical_formula_structural   PrNd3Al16(SiRh3)2
_chemical_formula_sum   'Pr1 Nd3 Al16 Si2 Rh6'
_cell_volume   481.14947561
_cell_formula_units_Z   1
loop_
 _symmetry_equiv_pos_site_id
 _symmetry_equiv_pos_as_xyz
  1  'x, y, z'
loop_
 _atom_site_type_symbol
 _atom_site_label
 _atom_site_symmetry_multiplicity
 _atom_site_fract_x
 _atom_site_fract_y
 _atom_site_fract_z
 _atom_site_occupancy
  Pr  Pr0  1  0.994901  0.664312  0.743373  1
  Nd  Nd1  1  0.005094  0.335736  0.256727  1
  Nd  Nd2  1  0.674255  0.000507  0.746722  1
  Nd  Nd3  1  0.325742  0.999507  0.253279  1
  Al  Al4  1  0.130750  0.129396  0.750553  1
  Al  Al5  1  0.869324  0.870838  0.249442  1
  Al  Al6  1  0.997101  0.665664  0.067038  1
  Al  Al7  1  0.334869  0.000934  0.927333  1
  Al  Al8  1  0.002899  0.334185  0.933191  1
  Al  Al9  1  0.665291  0.999223  0.072743  1
  Al  Al10  1  0.661695  0.994351  0.423926  1
  Al  Al11  1  0.338503  0.005842  0.576005  1
  Al  Al12  1  0.334421  0.333293  0.050258  1
  Al  Al13  1  0.665448  0.666708  0.949828  1
  Al  Al14  1  0.662586  0.665364  0.550803  1
  Al  Al15  1  0.337259  0.334630  0.449112  1
  Al  Al16  1  0.340040  0.547603  0.749680  1
  Al  Al17  1  0.660108  0.452306  0.250319  1
  Al  Al18  1  0.545482  0.341369  0.750333  1
  Al  Al19  1  0.454239  0.658451  0.249667  1
  Si  Si20  1  0.005158  0.327996  0.574726  1
  Si  Si21  1  0.994841  0.671800  0.425012  1
  Rh  Rh22  1  0.688090  0.337321  0.501182  1
  Rh  Rh23  1  0.311898  0.662575  0.498622  1
  Rh  Rh24  1  0.328116  0.670176  0.000335  1
  Rh  Rh25  1  0.671874  0.329751  0.999795  1
  Rh  Rh26  1  0.000006  0.000093  0.499921  1
  Rh  Rh27  1  0.000011  0.000070  0.000073  1
