# generated using pymatgen
data_Tm6Fe2CoSi6Ru
_symmetry_space_group_name_H-M   'P 1'
_cell_length_a   5.58851418
_cell_length_b   5.58851548
_cell_length_c   13.47292525
_cell_angle_alpha   89.93629931
_cell_angle_beta   90.06370105
_cell_angle_gamma   137.10958489
_symmetry_Int_Tables_number   1
_chemical_formula_structural   Tm6Fe2CoSi6Ru
_chemical_formula_sum   'Tm6 Fe2 Co1 Si6 Ru1'
_cell_volume   286.38170801
_cell_formula_units_Z   1
loop_
 _symmetry_equiv_pos_site_id
 _symmetry_equiv_pos_as_xyz
  1  'x, y, z'
loop_
 _atom_site_type_symbol
 _atom_site_label
 _atom_site_symmetry_multiplicity
 _atom_site_fract_x
 _atom_site_fract_y
 _atom_site_fract_z
 _atom_site_occupancy
  Tm  Tm0  1  0.638139  0.361861  0.248494  1
  Tm  Tm1  1  0.362213  0.637787  0.750938  1
  Tm  Tm2  1  0.919489  0.080511  0.111933  1
  Tm  Tm3  1  0.079299  0.920701  0.890136  1
  Tm  Tm4  1  0.080774  0.919226  0.613704  1
  Tm  Tm5  1  0.922681  0.077319  0.383499  1
  Fe  Fe6  1  0.212486  0.787514  0.081756  1
  Fe  Fe7  1  0.785009  0.214991  0.920890  1
  Co  Co8  1  0.213291  0.786709  0.419913  1
  Si  Si9  1  0.328399  0.671601  0.248967  1
  Si  Si10  1  0.671461  0.328539  0.754630  1
  Si  Si11  1  0.622720  0.377280  0.040099  1
  Si  Si12  1  0.374994  0.625006  0.961205  1
  Si  Si13  1  0.385205  0.614795  0.535402  1
  Si  Si14  1  0.616845  0.383155  0.457810  1
  Ru  Ru15  1  0.786995  0.213005  0.580623  1
