# generated using pymatgen
data_Nd4Y6Co2Br15
_symmetry_space_group_name_H-M   'P 1'
_cell_length_a   9.44161922
_cell_length_b   10.23585057
_cell_length_c   10.99203700
_cell_angle_alpha   92.29878418
_cell_angle_beta   113.92674826
_cell_angle_gamma   110.70474790
_symmetry_Int_Tables_number   1
_chemical_formula_structural   Nd4Y6Co2Br15
_chemical_formula_sum   'Nd4 Y6 Co2 Br15'
_cell_volume   887.13680170
_cell_formula_units_Z   1
loop_
 _symmetry_equiv_pos_site_id
 _symmetry_equiv_pos_as_xyz
  1  'x, y, z'
loop_
 _atom_site_type_symbol
 _atom_site_label
 _atom_site_symmetry_multiplicity
 _atom_site_fract_x
 _atom_site_fract_y
 _atom_site_fract_z
 _atom_site_occupancy
  Nd  Nd0  1  0.802317  0.404323  0.272774  1
  Nd  Nd1  1  0.197683  0.595677  0.727226  1
  Nd  Nd2  1  0.668950  0.750562  0.819260  1
  Nd  Nd3  1  0.331050  0.249438  0.180740  1
  Y  Y4  1  0.527700  0.708034  0.100223  1
  Y  Y5  1  0.472300  0.291966  0.899777  1
  Y  Y6  1  0.591221  0.044377  0.333564  1
  Y  Y7  1  0.408779  0.955623  0.666436  1
  Y  Y8  1  0.726087  0.077417  0.047915  1
  Y  Y9  1  0.273913  0.922583  0.952085  1
  Co  Co10  1  0.467123  0.829332  0.882241  1
  Co  Co11  1  0.532877  0.170668  0.117759  1
  Br  Br12  1  0.000000  0.000000  0.000000  1
  Br  Br13  1  0.633255  0.892163  0.581031  1
  Br  Br14  1  0.366745  0.107837  0.418969  1
  Br  Br15  1  0.881271  0.295624  0.527091  1
  Br  Br16  1  0.118729  0.704376  0.472909  1
  Br  Br17  1  0.304793  0.766953  0.187923  1
  Br  Br18  1  0.695207  0.233047  0.812077  1
  Br  Br19  1  0.053937  0.333991  0.218306  1
  Br  Br20  1  0.174360  0.059112  0.701227  1
  Br  Br21  1  0.825640  0.940888  0.298773  1
  Br  Br22  1  0.252026  0.416196  0.950003  1
  Br  Br23  1  0.747974  0.583804  0.049997  1
  Br  Br24  1  0.405709  0.457862  0.668777  1
  Br  Br25  1  0.594291  0.542138  0.331223  1
  Br  Br26  1  0.946063  0.666009  0.781694  1
