# generated using pymatgen
data_Sr2NbIO4
_symmetry_space_group_name_H-M   'P 1'
_cell_length_a   6.86526400
_cell_length_b   7.72070900
_cell_length_c   12.44855200
_cell_angle_alpha   90.00000000
_cell_angle_beta   90.00000000
_cell_angle_gamma   90.00000000
_symmetry_Int_Tables_number   1
_chemical_formula_structural   Sr2NbIO4
_chemical_formula_sum   'Sr8 Nb4 I4 O16'
_cell_volume   659.83183331
_cell_formula_units_Z   4
loop_
 _symmetry_equiv_pos_site_id
 _symmetry_equiv_pos_as_xyz
  1  'x, y, z'
loop_
 _atom_site_type_symbol
 _atom_site_label
 _atom_site_symmetry_multiplicity
 _atom_site_fract_x
 _atom_site_fract_y
 _atom_site_fract_z
 _atom_site_occupancy
  Sr  Sr0  1  0.912201  0.514666  0.750000  1
  Sr  Sr1  1  0.381691  0.750000  0.500000  1
  Sr  Sr2  1  0.087799  0.485334  0.250000  1
  Sr  Sr3  1  0.381691  0.750000  0.000000  1
  Sr  Sr4  1  0.087799  0.014666  0.750000  1
  Sr  Sr5  1  0.912201  0.985334  0.250000  1
  Sr  Sr6  1  0.618309  0.250000  0.500000  1
  Sr  Sr7  1  0.618309  0.250000  0.000000  1
  Nb  Nb8  1  0.119711  0.250000  0.000000  1
  Nb  Nb9  1  0.119711  0.250000  0.500000  1
  Nb  Nb10  1  0.880289  0.750000  0.500000  1
  Nb  Nb11  1  0.880289  0.750000  0.000000  1
  I  I12  1  0.425461  0.136199  0.250000  1
  I  I13  1  0.574539  0.636199  0.250000  1
  I  I14  1  0.574539  0.863801  0.750000  1
  I  I15  1  0.425461  0.363801  0.750000  1
  O  O16  1  0.283943  0.061674  0.976440  1
  O  O17  1  0.283943  0.438326  0.023560  1
  O  O18  1  0.047032  0.760635  0.621587  1
  O  O19  1  0.952968  0.239365  0.121587  1
  O  O20  1  0.716057  0.938326  0.023560  1
  O  O21  1  0.047032  0.739365  0.121587  1
  O  O22  1  0.716057  0.561674  0.523560  1
  O  O23  1  0.952968  0.260635  0.878413  1
  O  O24  1  0.952968  0.260635  0.621587  1
  O  O25  1  0.716057  0.561674  0.976440  1
  O  O26  1  0.047032  0.760635  0.878413  1
  O  O27  1  0.047032  0.739365  0.378413  1
  O  O28  1  0.952968  0.239365  0.378413  1
  O  O29  1  0.283943  0.061674  0.523560  1
  O  O30  1  0.716057  0.938326  0.476440  1
  O  O31  1  0.283943  0.438326  0.476440  1
