# generated using pymatgen
data_LiYUIr3
_symmetry_space_group_name_H-M   'P 1'
_cell_length_a   5.20222837
_cell_length_b   5.20222735
_cell_length_c   5.20222800
_cell_angle_alpha   65.80564870
_cell_angle_beta   65.80566582
_cell_angle_gamma   65.80565207
_symmetry_Int_Tables_number   1
_chemical_formula_structural   LiYUIr3
_chemical_formula_sum   'Li1 Y1 U1 Ir3'
_cell_volume   112.08277787
_cell_formula_units_Z   1
loop_
 _symmetry_equiv_pos_site_id
 _symmetry_equiv_pos_as_xyz
  1  'x, y, z'
loop_
 _atom_site_type_symbol
 _atom_site_label
 _atom_site_symmetry_multiplicity
 _atom_site_fract_x
 _atom_site_fract_y
 _atom_site_fract_z
 _atom_site_occupancy
  Li  Li0  1  0.986444  0.986444  0.986444  1
  Y  Y1  1  0.236644  0.236644  0.236644  1
  U  U2  1  0.632811  0.632811  0.632811  1
  Ir  Ir3  1  0.131807  0.631147  0.631147  1
  Ir  Ir4  1  0.631147  0.131807  0.631147  1
  Ir  Ir5  1  0.631147  0.631147  0.131807  1
