# generated using pymatgen
data_Hf8Zn4In4Co3Cu
_symmetry_space_group_name_H-M   'P 1'
_cell_length_a   7.28023095
_cell_length_b   7.28023006
_cell_length_c   6.82691808
_cell_angle_alpha   90.15866531
_cell_angle_beta   90.15866415
_cell_angle_gamma   90.80003490
_symmetry_Int_Tables_number   1
_chemical_formula_structural   Hf8Zn4In4Co3Cu
_chemical_formula_sum   'Hf8 Zn4 In4 Co3 Cu1'
_cell_volume   361.80055988
_cell_formula_units_Z   1
loop_
 _symmetry_equiv_pos_site_id
 _symmetry_equiv_pos_as_xyz
  1  'x, y, z'
loop_
 _atom_site_type_symbol
 _atom_site_label
 _atom_site_symmetry_multiplicity
 _atom_site_fract_x
 _atom_site_fract_y
 _atom_site_fract_z
 _atom_site_occupancy
  Hf  Hf0  1  0.165761  0.165761  0.011266  1
  Hf  Hf1  1  0.821422  0.821422  0.995067  1
  Hf  Hf2  1  0.651241  0.359452  0.491700  1
  Hf  Hf3  1  0.359452  0.651241  0.491700  1
  Hf  Hf4  1  0.672126  0.339444  0.007752  1
  Hf  Hf5  1  0.339444  0.672126  0.007752  1
  Hf  Hf6  1  0.788869  0.788869  0.502661  1
  Hf  Hf7  1  0.204210  0.204210  0.487833  1
  Zn  Zn8  1  0.877333  0.123620  0.719626  1
  Zn  Zn9  1  0.874803  0.119042  0.282259  1
  Zn  Zn10  1  0.119042  0.874803  0.282259  1
  Zn  Zn11  1  0.123620  0.877333  0.719626  1
  In  In12  1  0.501999  0.004743  0.246289  1
  In  In13  1  0.497717  0.000732  0.751686  1
  In  In14  1  0.004743  0.501999  0.246289  1
  In  In15  1  0.000732  0.497717  0.751686  1
  Co  Co16  1  0.374573  0.374573  0.222980  1
  Co  Co17  1  0.620192  0.620192  0.773546  1
  Co  Co18  1  0.628476  0.628476  0.222849  1
  Cu  Cu19  1  0.374244  0.374244  0.785173  1
