# generated using pymatgen
data_Ba4TmSc(FeO5)2
_symmetry_space_group_name_H-M   'P 1'
_cell_length_a   6.02406000
_cell_length_b   7.86886468
_cell_length_c   12.59108106
_cell_angle_alpha   92.06050370
_cell_angle_beta   90.00000000
_cell_angle_gamma   90.00000000
_symmetry_Int_Tables_number   1
_chemical_formula_structural   Ba4TmSc(FeO5)2
_chemical_formula_sum   'Ba8 Tm2 Sc2 Fe4 O20'
_cell_volume   596.46297020
_cell_formula_units_Z   2
loop_
 _symmetry_equiv_pos_site_id
 _symmetry_equiv_pos_as_xyz
  1  'x, y, z'
loop_
 _atom_site_type_symbol
 _atom_site_label
 _atom_site_symmetry_multiplicity
 _atom_site_fract_x
 _atom_site_fract_y
 _atom_site_fract_z
 _atom_site_occupancy
  Ba  Ba0  1  0.755884  0.486797  0.352444  1
  Ba  Ba1  1  0.744116  0.986797  0.852444  1
  Ba  Ba2  1  0.242087  0.510623  0.647049  1
  Ba  Ba3  1  0.257913  0.010623  0.147049  1
  Ba  Ba4  1  0.754630  0.995860  0.380477  1
  Ba  Ba5  1  0.745370  0.495860  0.880477  1
  Ba  Ba6  1  0.245048  0.007139  0.618619  1
  Ba  Ba7  1  0.254952  0.507139  0.118619  1
  Tm  Tm8  1  0.249285  0.735748  0.366798  1
  Tm  Tm9  1  0.250715  0.235748  0.866798  1
  Sc  Sc10  1  0.749718  0.260547  0.633904  1
  Sc  Sc11  1  0.750282  0.760547  0.133904  1
  Fe  Fe12  1  0.737291  0.743635  0.584111  1
  Fe  Fe13  1  0.762709  0.243635  0.084111  1
  Fe  Fe14  1  0.261742  0.257468  0.419341  1
  Fe  Fe15  1  0.238258  0.757468  0.919341  1
  O  O16  1  0.757995  0.977248  0.632107  1
  O  O17  1  0.742005  0.477248  0.132107  1
  O  O18  1  0.242249  0.027279  0.367562  1
  O  O19  1  0.257751  0.527279  0.867562  1
  O  O20  1  0.737712  0.054930  0.172762  1
  O  O21  1  0.762288  0.554930  0.672762  1
  O  O22  1  0.260925  0.942585  0.827621  1
  O  O23  1  0.239075  0.442585  0.327621  1
  O  O24  1  0.536646  0.747353  0.262749  1
  O  O25  1  0.963354  0.247353  0.762749  1
  O  O26  1  0.474594  0.253162  0.729474  1
  O  O27  1  0.025406  0.753162  0.229474  1
  O  O28  1  0.540703  0.225570  0.976651  1
  O  O29  1  0.959297  0.725570  0.476651  1
  O  O30  1  0.469886  0.773478  0.023509  1
  O  O31  1  0.030114  0.273478  0.523509  1
  O  O32  1  0.040446  0.230996  0.012557  1
  O  O33  1  0.459554  0.730996  0.512557  1
  O  O34  1  0.960760  0.769583  0.992265  1
  O  O35  1  0.539240  0.269583  0.492265  1
