# generated using pymatgen
data_Ca4CdPb11
_symmetry_space_group_name_H-M   'P 1'
_cell_length_a   9.92249500
_cell_length_b   6.93217633
_cell_length_c   7.00258095
_cell_angle_alpha   88.91768901
_cell_angle_beta   90.00000000
_cell_angle_gamma   90.00000000
_symmetry_Int_Tables_number   1
_chemical_formula_structural   Ca4CdPb11
_chemical_formula_sum   'Ca4 Cd1 Pb11'
_cell_volume   481.58298986
_cell_formula_units_Z   1
loop_
 _symmetry_equiv_pos_site_id
 _symmetry_equiv_pos_as_xyz
  1  'x, y, z'
loop_
 _atom_site_type_symbol
 _atom_site_label
 _atom_site_symmetry_multiplicity
 _atom_site_fract_x
 _atom_site_fract_y
 _atom_site_fract_z
 _atom_site_occupancy
  Ca  Ca0  1  0.250000  0.009023  0.001494  1
  Ca  Ca1  1  0.250000  0.496998  0.505596  1
  Ca  Ca2  1  0.750000  0.994967  0.999937  1
  Ca  Ca3  1  0.750000  0.505922  0.498151  1
  Cd  Cd4  1  0.750000  0.495186  0.997792  1
  Pb  Pb5  1  0.994975  0.247226  0.746412  1
  Pb  Pb6  1  0.505202  0.255737  0.246154  1
  Pb  Pb7  1  0.502384  0.747236  0.247678  1
  Pb  Pb8  1  0.995935  0.744605  0.755728  1
  Pb  Pb9  1  0.997616  0.747236  0.247678  1
  Pb  Pb10  1  0.504065  0.744605  0.755728  1
  Pb  Pb11  1  0.505025  0.247226  0.746412  1
  Pb  Pb12  1  0.994798  0.255737  0.246154  1
  Pb  Pb13  1  0.250000  0.997546  0.501047  1
  Pb  Pb14  1  0.250000  0.507364  0.004611  1
  Pb  Pb15  1  0.750000  0.003385  0.499428  1
