# generated using pymatgen
data_Ta6Re6Si5B
_symmetry_space_group_name_H-M   'P 1'
_cell_length_a   7.51049640
_cell_length_b   7.51053595
_cell_length_c   7.51049750
_cell_angle_alpha   127.03392333
_cell_angle_beta   125.67891469
_cell_angle_gamma   79.30783008
_symmetry_Int_Tables_number   1
_chemical_formula_structural   Ta6Re6Si5B
_chemical_formula_sum   'Ta6 Re6 Si5 B1'
_cell_volume   265.58665968
_cell_formula_units_Z   1
loop_
 _symmetry_equiv_pos_site_id
 _symmetry_equiv_pos_as_xyz
  1  'x, y, z'
loop_
 _atom_site_type_symbol
 _atom_site_label
 _atom_site_symmetry_multiplicity
 _atom_site_fract_x
 _atom_site_fract_y
 _atom_site_fract_z
 _atom_site_occupancy
  Ta  Ta0  1  0.545716  0.084662  0.038947  1
  Ta  Ta1  1  0.447630  0.498594  0.550964  1
  Ta  Ta2  1  0.954400  0.493450  0.039050  1
  Ta  Ta3  1  0.052136  0.102526  0.550390  1
  Ta  Ta4  1  0.750028  0.898400  0.648372  1
  Ta  Ta5  1  0.249859  0.904371  0.154512  1
  Re  Re6  1  0.521003  0.250236  0.771155  1
  Re  Re7  1  0.979081  0.250236  0.229233  1
  Re  Re8  1  0.095894  0.743048  0.591057  1
  Re  Re9  1  0.847844  0.495189  0.590834  1
  Re  Re10  1  0.651991  0.743048  0.147154  1
  Re  Re11  1  0.404355  0.495189  0.147344  1
  Si  Si12  1  0.249829  0.509216  0.759387  1
  Si  Si13  1  0.331895  0.828494  0.493794  1
  Si  Si14  1  0.665229  0.162062  0.493732  1
  Si  Si15  1  0.834700  0.828494  0.996599  1
  Si  Si16  1  0.168330  0.162062  0.996833  1
  B  B17  1  0.750079  0.492921  0.242842  1
