# generated using pymatgen
data_Er10(TlBi)3
_symmetry_space_group_name_H-M   'P 1'
_cell_length_a   8.98064700
_cell_length_b   8.98064910
_cell_length_c   6.54811400
_cell_angle_alpha   90.00000000
_cell_angle_beta   90.00000000
_cell_angle_gamma   120.00000333
_symmetry_Int_Tables_number   1
_chemical_formula_structural   Er10(TlBi)3
_chemical_formula_sum   'Er10 Tl3 Bi3'
_cell_volume   457.36423678
_cell_formula_units_Z   1
loop_
 _symmetry_equiv_pos_site_id
 _symmetry_equiv_pos_as_xyz
  1  'x, y, z'
loop_
 _atom_site_type_symbol
 _atom_site_label
 _atom_site_symmetry_multiplicity
 _atom_site_fract_x
 _atom_site_fract_y
 _atom_site_fract_z
 _atom_site_occupancy
  Er  Er0  1  0.666667  0.333333  0.005955  1
  Er  Er1  1  0.333333  0.666667  0.005955  1
  Er  Er2  1  0.333333  0.666667  0.494045  1
  Er  Er3  1  0.666667  0.333333  0.494045  1
  Er  Er4  1  0.762734  0.762734  0.750000  1
  Er  Er5  1  0.237266  0.000000  0.750000  1
  Er  Er6  1  0.000000  0.237266  0.750000  1
  Er  Er7  1  0.237371  0.237371  0.250000  1
  Er  Er8  1  0.762629  0.000000  0.250000  1
  Er  Er9  1  0.000000  0.762629  0.250000  1
  Tl  Tl10  1  0.607610  0.607610  0.250000  1
  Tl  Tl11  1  0.392390  0.000000  0.250000  1
  Tl  Tl12  1  0.000000  0.392390  0.250000  1
  Bi  Bi13  1  0.395646  0.395646  0.750000  1
  Bi  Bi14  1  0.604354  0.000000  0.750000  1
  Bi  Bi15  1  0.000000  0.604354  0.750000  1
