# generated using pymatgen
data_V5(AsSe)2
_symmetry_space_group_name_H-M   'P 1'
_cell_length_a   6.79731567
_cell_length_b   6.79731593
_cell_length_c   6.78155346
_cell_angle_alpha   93.13106438
_cell_angle_beta   93.61499383
_cell_angle_gamma   151.95773112
_symmetry_Int_Tables_number   1
_chemical_formula_structural   V5(AsSe)2
_chemical_formula_sum   'V5 As2 Se2'
_cell_volume   142.89339818
_cell_formula_units_Z   1
loop_
 _symmetry_equiv_pos_site_id
 _symmetry_equiv_pos_as_xyz
  1  'x, y, z'
loop_
 _atom_site_type_symbol
 _atom_site_label
 _atom_site_symmetry_multiplicity
 _atom_site_fract_x
 _atom_site_fract_y
 _atom_site_fract_z
 _atom_site_occupancy
  V  V0  1  0.000000  0.000000  0.000000  1
  V  V1  1  0.376150  0.306855  0.683005  1
  V  V2  1  0.623850  0.693145  0.316995  1
  V  V3  1  0.693616  0.377357  0.070975  1
  V  V4  1  0.306384  0.622643  0.929025  1
  As  As5  1  0.279278  0.059832  0.339110  1
  As  As6  1  0.720722  0.940168  0.660890  1
  Se  Se7  1  0.940939  0.279115  0.220054  1
  Se  Se8  1  0.059061  0.720885  0.779946  1
