# generated using pymatgen
data_TbDy2Hf(Co4P3)2
_symmetry_space_group_name_H-M   'P 1'
_cell_length_a   3.71453500
_cell_length_b   10.67372300
_cell_length_c   12.38094300
_cell_angle_alpha   90.00000000
_cell_angle_beta   90.00000000
_cell_angle_gamma   90.00000000
_symmetry_Int_Tables_number   1
_chemical_formula_structural   TbDy2Hf(Co4P3)2
_chemical_formula_sum   'Tb2 Dy4 Hf2 Co16 P12'
_cell_volume   490.87860866
_cell_formula_units_Z   2
loop_
 _symmetry_equiv_pos_site_id
 _symmetry_equiv_pos_as_xyz
  1  'x, y, z'
loop_
 _atom_site_type_symbol
 _atom_site_label
 _atom_site_symmetry_multiplicity
 _atom_site_fract_x
 _atom_site_fract_y
 _atom_site_fract_z
 _atom_site_occupancy
  Tb  Tb0  1  0.000000  0.500000  0.528400  1
  Tb  Tb1  1  0.500000  0.000000  0.471600  1
  Dy  Dy2  1  0.500000  0.821766  0.204564  1
  Dy  Dy3  1  0.500000  0.178234  0.204564  1
  Dy  Dy4  1  0.000000  0.678234  0.795436  1
  Dy  Dy5  1  0.000000  0.321766  0.795436  1
  Hf  Hf6  1  0.500000  0.500000  0.157178  1
  Hf  Hf7  1  0.000000  0.000000  0.842822  1
  Co  Co8  1  0.500000  0.500000  0.703154  1
  Co  Co9  1  0.000000  0.000000  0.296846  1
  Co  Co10  1  0.000000  0.500000  0.986760  1
  Co  Co11  1  0.500000  0.000000  0.013240  1
  Co  Co12  1  0.500000  0.332093  0.993388  1
  Co  Co13  1  0.500000  0.667907  0.993388  1
  Co  Co14  1  0.000000  0.167907  0.006612  1
  Co  Co15  1  0.000000  0.832093  0.006612  1
  Co  Co16  1  0.500000  0.295198  0.432947  1
  Co  Co17  1  0.500000  0.704802  0.432947  1
  Co  Co18  1  0.000000  0.204802  0.567053  1
  Co  Co19  1  0.000000  0.795198  0.567053  1
  Co  Co20  1  0.500000  0.877920  0.703036  1
  Co  Co21  1  0.500000  0.122080  0.703036  1
  Co  Co22  1  0.000000  0.622080  0.296964  1
  Co  Co23  1  0.000000  0.377920  0.296964  1
  P  P24  1  0.500000  0.500000  0.883427  1
  P  P25  1  0.000000  0.000000  0.116573  1
  P  P26  1  0.500000  0.500000  0.361464  1
  P  P27  1  0.000000  0.000000  0.638536  1
  P  P28  1  0.500000  0.309974  0.615578  1
  P  P29  1  0.500000  0.690026  0.615578  1
  P  P30  1  0.000000  0.190026  0.384422  1
  P  P31  1  0.000000  0.809974  0.384422  1
  P  P32  1  0.500000  0.838636  0.893272  1
  P  P33  1  0.500000  0.161364  0.893272  1
  P  P34  1  0.000000  0.661364  0.106728  1
  P  P35  1  0.000000  0.338636  0.106728  1
