# generated using pymatgen
data_LuU2Ga3Ir2Ru
_symmetry_space_group_name_H-M   'P 1'
_cell_length_a   6.96847544
_cell_length_b   7.11428778
_cell_length_c   3.87933500
_cell_angle_alpha   90.00000000
_cell_angle_beta   90.00000000
_cell_angle_gamma   119.03796298
_symmetry_Int_Tables_number   1
_chemical_formula_structural   LuU2Ga3Ir2Ru
_chemical_formula_sum   'Lu1 U2 Ga3 Ir2 Ru1'
_cell_volume   168.14583571
_cell_formula_units_Z   1
loop_
 _symmetry_equiv_pos_site_id
 _symmetry_equiv_pos_as_xyz
  1  'x, y, z'
loop_
 _atom_site_type_symbol
 _atom_site_label
 _atom_site_symmetry_multiplicity
 _atom_site_fract_x
 _atom_site_fract_y
 _atom_site_fract_z
 _atom_site_occupancy
  Lu  Lu0  1  0.408018  0.996497  0.500000  1
  U  U1  1  0.995425  0.415196  0.500000  1
  U  U2  1  0.586339  0.578877  0.500000  1
  Ga  Ga3  1  0.736454  0.999993  0.000000  1
  Ga  Ga4  1  0.013391  0.767976  0.000000  1
  Ga  Ga5  1  0.248402  0.232349  0.000000  1
  Ir  Ir6  1  0.330068  0.639304  0.000000  1
  Ir  Ir7  1  0.984914  0.002157  0.500000  1
  Ru  Ru8  1  0.696988  0.367650  0.000000  1
