# generated using pymatgen
data_ScTaB2SbRu5
_symmetry_space_group_name_H-M   'P 1'
_cell_length_a   9.48414478
_cell_length_b   9.48414547
_cell_length_c   3.07688100
_cell_angle_alpha   90.00000000
_cell_angle_beta   90.00000000
_cell_angle_gamma   90.54076947
_symmetry_Int_Tables_number   1
_chemical_formula_structural   ScTaB2SbRu5
_chemical_formula_sum   'Sc2 Ta2 B4 Sb2 Ru10'
_cell_volume   276.75006936
_cell_formula_units_Z   2
loop_
 _symmetry_equiv_pos_site_id
 _symmetry_equiv_pos_as_xyz
  1  'x, y, z'
loop_
 _atom_site_type_symbol
 _atom_site_label
 _atom_site_symmetry_multiplicity
 _atom_site_fract_x
 _atom_site_fract_y
 _atom_site_fract_z
 _atom_site_occupancy
  Sc  Sc0  1  0.825927  0.674073  0.000000  1
  Sc  Sc1  1  0.174073  0.325927  0.000000  1
  Ta  Ta2  1  0.324876  0.824876  0.000000  1
  Ta  Ta3  1  0.675124  0.175124  0.000000  1
  B  B4  1  0.622689  0.877311  0.000000  1
  B  B5  1  0.377311  0.122689  0.000000  1
  B  B6  1  0.120291  0.620291  0.000000  1
  B  B7  1  0.879709  0.379709  0.000000  1
  Sb  Sb8  1  0.500000  0.500000  0.000000  1
  Sb  Sb9  1  0.000000  0.000000  0.000000  1
  Ru  Ru10  1  0.561545  0.723628  0.500000  1
  Ru  Ru11  1  0.438455  0.276372  0.500000  1
  Ru  Ru12  1  0.080365  0.783740  0.500000  1
  Ru  Ru13  1  0.919635  0.216260  0.500000  1
  Ru  Ru14  1  0.283740  0.580365  0.500000  1
  Ru  Ru15  1  0.716260  0.419635  0.500000  1
  Ru  Ru16  1  0.223628  0.061545  0.500000  1
  Ru  Ru17  1  0.776372  0.938455  0.500000  1
  Ru  Ru18  1  0.500000  0.000000  0.500000  1
  Ru  Ru19  1  0.000000  0.500000  0.500000  1
