# generated using pymatgen
data_SrLi3AgP2
_symmetry_space_group_name_H-M   'P 1'
_cell_length_a   8.24855764
_cell_length_b   8.24855784
_cell_length_c   8.24855769
_cell_angle_alpha   30.64941559
_cell_angle_beta   30.64941165
_cell_angle_gamma   30.64942527
_symmetry_Int_Tables_number   1
_chemical_formula_structural   SrLi3AgP2
_chemical_formula_sum   'Sr1 Li3 Ag1 P2'
_cell_volume   129.31680417
_cell_formula_units_Z   1
loop_
 _symmetry_equiv_pos_site_id
 _symmetry_equiv_pos_as_xyz
  1  'x, y, z'
loop_
 _atom_site_type_symbol
 _atom_site_label
 _atom_site_symmetry_multiplicity
 _atom_site_fract_x
 _atom_site_fract_y
 _atom_site_fract_z
 _atom_site_occupancy
  Sr  Sr0  1  0.999194  0.999194  0.999194  1
  Li  Li1  1  0.140108  0.140108  0.140108  1
  Li  Li2  1  0.568443  0.568443  0.568443  1
  Li  Li3  1  0.861982  0.861982  0.861982  1
  Ag  Ag4  1  0.431157  0.431157  0.431157  1
  P  P5  1  0.752439  0.752439  0.752439  1
  P  P6  1  0.246676  0.246676  0.246676  1
