# generated using pymatgen
data_SmDyEr4(SbO7)2
_symmetry_space_group_name_H-M   'P 1'
_cell_length_a   6.44616108
_cell_length_b   6.44616089
_cell_length_c   7.52075705
_cell_angle_alpha   90.03219358
_cell_angle_beta   89.96780277
_cell_angle_gamma   109.27501597
_symmetry_Int_Tables_number   1
_chemical_formula_structural   SmDyEr4(SbO7)2
_chemical_formula_sum   'Sm1 Dy1 Er4 Sb2 O14'
_cell_volume   294.99213291
_cell_formula_units_Z   1
loop_
 _symmetry_equiv_pos_site_id
 _symmetry_equiv_pos_as_xyz
  1  'x, y, z'
loop_
 _atom_site_type_symbol
 _atom_site_label
 _atom_site_symmetry_multiplicity
 _atom_site_fract_x
 _atom_site_fract_y
 _atom_site_fract_z
 _atom_site_occupancy
  Sm  Sm0  1  0.500000  0.500000  0.000000  1
  Dy  Dy1  1  0.500000  0.500000  0.500000  1
  Er  Er2  1  0.531238  0.000819  0.748383  1
  Er  Er3  1  0.000819  0.531238  0.251617  1
  Er  Er4  1  0.468762  0.999181  0.251617  1
  Er  Er5  1  0.999181  0.468762  0.748383  1
  Sb  Sb6  1  0.000000  0.000000  0.500000  1
  Sb  Sb7  1  0.000000  0.000000  0.000000  1
  O  O8  1  0.676773  0.928041  0.470232  1
  O  O9  1  0.928041  0.676773  0.529768  1
  O  O10  1  0.676454  0.929565  0.029970  1
  O  O11  1  0.929565  0.676454  0.970030  1
  O  O12  1  0.323227  0.071959  0.529768  1
  O  O13  1  0.071959  0.323227  0.470232  1
  O  O14  1  0.323546  0.070435  0.970030  1
  O  O15  1  0.070435  0.323546  0.029970  1
  O  O16  1  0.929197  0.070803  0.750083  1
  O  O17  1  0.070803  0.929197  0.249917  1
  O  O18  1  0.366389  0.633611  0.744787  1
  O  O19  1  0.633611  0.366389  0.255213  1
  O  O20  1  0.640208  0.359792  0.745299  1
  O  O21  1  0.359792  0.640208  0.254701  1
