# generated using pymatgen
data_Gd2In(Si3Pd10)2
_symmetry_space_group_name_H-M   'P 1'
_cell_length_a   8.77492701
_cell_length_b   8.77492595
_cell_length_c   8.77492600
_cell_angle_alpha   59.99999982
_cell_angle_beta   60.00000381
_cell_angle_gamma   60.00000073
_symmetry_Int_Tables_number   1
_chemical_formula_structural   Gd2In(Si3Pd10)2
_chemical_formula_sum   'Gd2 In1 Si6 Pd20'
_cell_volume   477.76623342
_cell_formula_units_Z   1
loop_
 _symmetry_equiv_pos_site_id
 _symmetry_equiv_pos_as_xyz
  1  'x, y, z'
loop_
 _atom_site_type_symbol
 _atom_site_label
 _atom_site_symmetry_multiplicity
 _atom_site_fract_x
 _atom_site_fract_y
 _atom_site_fract_z
 _atom_site_occupancy
  Gd  Gd0  1  0.250000  0.250000  0.250000  1
  Gd  Gd1  1  0.750000  0.750000  0.750000  1
  In  In2  1  0.000000  0.000000  0.000000  1
  Si  Si3  1  0.731177  0.268823  0.268823  1
  Si  Si4  1  0.268823  0.731177  0.731177  1
  Si  Si5  1  0.268823  0.731177  0.268823  1
  Si  Si6  1  0.731177  0.268823  0.731177  1
  Si  Si7  1  0.268823  0.268823  0.731177  1
  Si  Si8  1  0.731177  0.731177  0.268823  1
  Pd  Pd9  1  0.384305  0.384305  0.384305  1
  Pd  Pd10  1  0.615695  0.615695  0.615695  1
  Pd  Pd11  1  0.384305  0.384305  0.847085  1
  Pd  Pd12  1  0.384305  0.847085  0.384305  1
  Pd  Pd13  1  0.615695  0.615695  0.152915  1
  Pd  Pd14  1  0.615695  0.152915  0.615695  1
  Pd  Pd15  1  0.847085  0.384305  0.384305  1
  Pd  Pd16  1  0.152915  0.615695  0.615695  1
  Pd  Pd17  1  0.342765  0.000000  0.000000  1
  Pd  Pd18  1  0.657235  0.000000  0.000000  1
  Pd  Pd19  1  0.000000  0.342765  0.657235  1
  Pd  Pd20  1  0.000000  0.657235  0.342765  1
  Pd  Pd21  1  0.000000  0.342765  0.000000  1
  Pd  Pd22  1  0.657235  0.000000  0.342765  1
  Pd  Pd23  1  0.000000  0.657235  0.000000  1
  Pd  Pd24  1  0.342765  0.000000  0.657235  1
  Pd  Pd25  1  0.000000  0.000000  0.342765  1
  Pd  Pd26  1  0.000000  0.000000  0.657235  1
  Pd  Pd27  1  0.657235  0.342765  0.000000  1
  Pd  Pd28  1  0.342765  0.657235  0.000000  1
