# generated using pymatgen
data_YAs4Ru5Rh
_symmetry_space_group_name_H-M   'P 1'
_cell_length_a   7.19112715
_cell_length_b   7.19112586
_cell_length_c   3.87871500
_cell_angle_alpha   90.00000000
_cell_angle_beta   90.00000000
_cell_angle_gamma   120.39085455
_symmetry_Int_Tables_number   1
_chemical_formula_structural   YAs4Ru5Rh
_chemical_formula_sum   'Y1 As4 Ru5 Rh1'
_cell_volume   173.01684059
_cell_formula_units_Z   1
loop_
 _symmetry_equiv_pos_site_id
 _symmetry_equiv_pos_as_xyz
  1  'x, y, z'
loop_
 _atom_site_type_symbol
 _atom_site_label
 _atom_site_symmetry_multiplicity
 _atom_site_fract_x
 _atom_site_fract_y
 _atom_site_fract_z
 _atom_site_occupancy
  Y  Y0  1  0.332639  0.667361  0.000000  1
  As  As1  1  0.669821  0.330179  0.000000  1
  As  As2  1  0.716781  0.861291  0.500000  1
  As  As3  1  0.138709  0.283219  0.500000  1
  As  As4  1  0.142685  0.857315  0.500000  1
  Ru  Ru5  1  0.264783  0.133169  0.000000  1
  Ru  Ru6  1  0.866831  0.735217  0.000000  1
  Ru  Ru7  1  0.869212  0.130788  0.000000  1
  Ru  Ru8  1  0.933302  0.466331  0.500000  1
  Ru  Ru9  1  0.533669  0.066698  0.500000  1
  Rh  Rh10  1  0.531566  0.468434  0.500000  1
