# generated using pymatgen
data_Hf9Ta11Si16
_symmetry_space_group_name_H-M   'P 1'
_cell_length_a   6.85905805
_cell_length_b   6.86275841
_cell_length_c   12.70123351
_cell_angle_alpha   89.87125338
_cell_angle_beta   90.08760230
_cell_angle_gamma   90.00445113
_symmetry_Int_Tables_number   1
_chemical_formula_structural   Hf9Ta11Si16
_chemical_formula_sum   'Hf9 Ta11 Si16'
_cell_volume   597.87099498
_cell_formula_units_Z   1
loop_
 _symmetry_equiv_pos_site_id
 _symmetry_equiv_pos_as_xyz
  1  'x, y, z'
loop_
 _atom_site_type_symbol
 _atom_site_label
 _atom_site_symmetry_multiplicity
 _atom_site_fract_x
 _atom_site_fract_y
 _atom_site_fract_z
 _atom_site_occupancy
  Hf  Hf0  1  0.348885  0.498701  0.873420  1
  Hf  Hf1  1  0.999496  0.339526  0.221133  1
  Hf  Hf2  1  0.999433  0.660181  0.718947  1
  Hf  Hf3  1  0.499909  0.160061  0.528592  1
  Hf  Hf4  1  0.499175  0.841244  0.031264  1
  Hf  Hf5  1  0.660334  0.000031  0.280090  1
  Hf  Hf6  1  0.340667  0.000074  0.779489  1
  Hf  Hf7  1  0.840691  0.499444  0.970453  1
  Hf  Hf8  1  0.160764  0.500114  0.469982  1
  Ta  Ta9  1  0.168836  0.169906  0.000852  1
  Ta  Ta10  1  0.830553  0.829950  0.499854  1
  Ta  Ta11  1  0.670526  0.328207  0.748938  1
  Ta  Ta12  1  0.329302  0.669413  0.250411  1
  Ta  Ta13  1  0.995552  0.149886  0.622873  1
  Ta  Ta14  1  0.001907  0.849013  0.125004  1
  Ta  Ta15  1  0.495361  0.347875  0.126406  1
  Ta  Ta16  1  0.504897  0.651735  0.626000  1
  Ta  Ta17  1  0.848100  0.004329  0.876180  1
  Ta  Ta18  1  0.151785  0.996010  0.376309  1
  Ta  Ta19  1  0.651742  0.503512  0.374004  1
  Si  Si20  1  0.292312  0.362265  0.675162  1
  Si  Si21  1  0.707437  0.635576  0.177201  1
  Si  Si22  1  0.792173  0.137648  0.073440  1
  Si  Si23  1  0.208576  0.863359  0.572996  1
  Si  Si24  1  0.641646  0.708906  0.821997  1
  Si  Si25  1  0.363796  0.292176  0.323415  1
  Si  Si26  1  0.863386  0.207552  0.426539  1
  Si  Si27  1  0.136363  0.796968  0.928662  1
  Si  Si28  1  0.042285  0.299312  0.813063  1
  Si  Si29  1  0.955574  0.699688  0.314311  1
  Si  Si30  1  0.544892  0.197640  0.936099  1
  Si  Si31  1  0.456075  0.799533  0.435894  1
  Si  Si32  1  0.699427  0.955985  0.685540  1
  Si  Si33  1  0.299432  0.043579  0.186537  1
  Si  Si34  1  0.800609  0.455622  0.563572  1
  Si  Si35  1  0.198096  0.544973  0.065377  1
