# generated using pymatgen
data_Lu17Sc3AlBi11
_symmetry_space_group_name_H-M   'P 1'
_cell_length_a   8.02018141
_cell_length_b   9.31608200
_cell_length_c   11.71204604
_cell_angle_alpha   90.00000000
_cell_angle_beta   89.68773880
_cell_angle_gamma   90.00000000
_symmetry_Int_Tables_number   1
_chemical_formula_structural   Lu17Sc3AlBi11
_chemical_formula_sum   'Lu17 Sc3 Al1 Bi11'
_cell_volume   875.07205529
_cell_formula_units_Z   1
loop_
 _symmetry_equiv_pos_site_id
 _symmetry_equiv_pos_as_xyz
  1  'x, y, z'
loop_
 _atom_site_type_symbol
 _atom_site_label
 _atom_site_symmetry_multiplicity
 _atom_site_fract_x
 _atom_site_fract_y
 _atom_site_fract_z
 _atom_site_occupancy
  Lu  Lu0  1  0.525300  0.250000  0.989738  1
  Lu  Lu1  1  0.354804  0.250000  0.292739  1
  Lu  Lu2  1  0.648106  0.750000  0.717463  1
  Lu  Lu3  1  0.148346  0.750000  0.781681  1
  Lu  Lu4  1  0.854052  0.250000  0.216865  1
  Lu  Lu5  1  0.192809  0.250000  0.775386  1
  Lu  Lu6  1  0.810259  0.750000  0.217640  1
  Lu  Lu7  1  0.312086  0.750000  0.281372  1
  Lu  Lu8  1  0.679312  0.250000  0.711149  1
  Lu  Lu9  1  0.193916  0.066616  0.060853  1
  Lu  Lu10  1  0.804679  0.932407  0.941433  1
  Lu  Lu11  1  0.304780  0.945554  0.557439  1
  Lu  Lu12  1  0.804679  0.567593  0.941433  1
  Lu  Lu13  1  0.688090  0.072569  0.445412  1
  Lu  Lu14  1  0.193916  0.433384  0.060853  1
  Lu  Lu15  1  0.688090  0.427431  0.445412  1
  Lu  Lu16  1  0.304780  0.554446  0.557439  1
  Sc  Sc17  1  0.036392  0.250000  0.510259  1
  Sc  Sc18  1  0.979070  0.750000  0.489745  1
  Sc  Sc19  1  0.476380  0.750000  0.010560  1
  Al  Al20  1  0.402527  0.250000  0.541906  1
  Bi  Bi21  1  0.599029  0.750000  0.457741  1
  Bi  Bi22  1  0.100029  0.750000  0.042514  1
  Bi  Bi23  1  0.906541  0.250000  0.953608  1
  Bi  Bi24  1  0.061449  0.002142  0.327624  1
  Bi  Bi25  1  0.936040  0.996730  0.672301  1
  Bi  Bi26  1  0.435526  0.994725  0.826161  1
  Bi  Bi27  1  0.936040  0.503270  0.672301  1
  Bi  Bi28  1  0.562999  0.001430  0.173591  1
  Bi  Bi29  1  0.061449  0.497858  0.327624  1
  Bi  Bi30  1  0.562999  0.498570  0.173591  1
  Bi  Bi31  1  0.435526  0.505275  0.826161  1
