# generated using pymatgen
data_Y9TmInSn5
_symmetry_space_group_name_H-M   'P 1'
_cell_length_a   6.61510004
_cell_length_b   8.96186777
_cell_length_c   8.96028134
_cell_angle_alpha   119.98898343
_cell_angle_beta   89.98916391
_cell_angle_gamma   90.00102976
_symmetry_Int_Tables_number   1
_chemical_formula_structural   Y9TmInSn5
_chemical_formula_sum   'Y9 Tm1 In1 Sn5'
_cell_volume   460.08218468
_cell_formula_units_Z   1
loop_
 _symmetry_equiv_pos_site_id
 _symmetry_equiv_pos_as_xyz
  1  'x, y, z'
loop_
 _atom_site_type_symbol
 _atom_site_label
 _atom_site_symmetry_multiplicity
 _atom_site_fract_x
 _atom_site_fract_y
 _atom_site_fract_z
 _atom_site_occupancy
  Y  Y0  1  0.501117  0.333928  0.667281  1
  Y  Y1  1  0.500689  0.666831  0.332592  1
  Y  Y2  1  0.999265  0.666844  0.332826  1
  Y  Y3  1  0.750442  0.239720  0.999683  1
  Y  Y4  1  0.750097  0.759542  0.761682  1
  Y  Y5  1  0.750059  0.998336  0.238214  1
  Y  Y6  1  0.249615  0.760861  0.999761  1
  Y  Y7  1  0.249943  0.239704  0.239503  1
  Y  Y8  1  0.249353  0.000351  0.760724  1
  Tm  Tm9  1  0.998979  0.334244  0.667713  1
  In  In10  1  0.750987  0.602890  0.999355  1
  Sn  Sn11  1  0.750878  0.394647  0.395501  1
  Sn  Sn12  1  0.750968  0.000719  0.604996  1
  Sn  Sn13  1  0.249245  0.395486  0.999160  1
  Sn  Sn14  1  0.249165  0.604166  0.604339  1
  Sn  Sn15  1  0.249194  0.001727  0.396670  1
