# generated using pymatgen
data_Y4Ho2Tm6Co5Bi
_symmetry_space_group_name_H-M   'P 1'
_cell_length_a   8.27513066
_cell_length_b   8.27496766
_cell_length_c   8.27493238
_cell_angle_alpha   110.62333627
_cell_angle_beta   110.87236702
_cell_angle_gamma   106.94583461
_symmetry_Int_Tables_number   1
_chemical_formula_structural   Y4Ho2Tm6Co5Bi
_chemical_formula_sum   'Y4 Ho2 Tm6 Co5 Bi1'
_cell_volume   435.57135083
_cell_formula_units_Z   1
loop_
 _symmetry_equiv_pos_site_id
 _symmetry_equiv_pos_as_xyz
  1  'x, y, z'
loop_
 _atom_site_type_symbol
 _atom_site_label
 _atom_site_symmetry_multiplicity
 _atom_site_fract_x
 _atom_site_fract_y
 _atom_site_fract_z
 _atom_site_occupancy
  Y  Y0  1  0.814563  0.711445  0.526421  1
  Y  Y1  1  0.185437  0.288555  0.473579  1
  Y  Y2  1  0.185430  0.711852  0.896866  1
  Y  Y3  1  0.814570  0.288148  0.103134  1
  Ho  Ho4  1  0.987125  0.792703  0.194431  1
  Ho  Ho5  1  0.012875  0.207297  0.805569  1
  Tm  Tm6  1  0.688149  0.377917  0.689194  1
  Tm  Tm7  1  0.311851  0.622083  0.310806  1
  Tm  Tm8  1  0.688150  0.998952  0.310232  1
  Tm  Tm9  1  0.311850  0.001048  0.689768  1
  Tm  Tm10  1  0.598041  0.792758  0.805281  1
  Tm  Tm11  1  0.401959  0.207242  0.194719  1
  Co  Co12  1  0.623446  0.999751  0.623697  1
  Co  Co13  1  0.376554  0.000249  0.376303  1
  Co  Co14  1  0.112248  0.612143  0.500112  1
  Co  Co15  1  0.887752  0.387857  0.499888  1
  Co  Co16  1  0.000000  0.000000  0.000000  1
  Bi  Bi17  1  0.500000  0.500000  0.000000  1
