# generated using pymatgen
data_Rb3LiRuO4
_symmetry_space_group_name_H-M   'P 1'
_cell_length_a   7.53535221
_cell_length_b   7.53535211
_cell_length_c   6.22156895
_cell_angle_alpha   78.70106609
_cell_angle_beta   78.70106883
_cell_angle_gamma   86.72211317
_symmetry_Int_Tables_number   1
_chemical_formula_structural   Rb3LiRuO4
_chemical_formula_sum   'Rb6 Li2 Ru2 O8'
_cell_volume   339.64410914
_cell_formula_units_Z   2
loop_
 _symmetry_equiv_pos_site_id
 _symmetry_equiv_pos_as_xyz
  1  'x, y, z'
loop_
 _atom_site_type_symbol
 _atom_site_label
 _atom_site_symmetry_multiplicity
 _atom_site_fract_x
 _atom_site_fract_y
 _atom_site_fract_z
 _atom_site_occupancy
  Rb  Rb0  1  0.068921  0.246021  0.026979  1
  Rb  Rb1  1  0.594423  0.405577  0.250000  1
  Rb  Rb2  1  0.246021  0.068921  0.526979  1
  Rb  Rb3  1  0.753979  0.931079  0.473021  1
  Rb  Rb4  1  0.931079  0.753979  0.973021  1
  Rb  Rb5  1  0.405577  0.594423  0.750000  1
  Li  Li6  1  0.732591  0.267409  0.750000  1
  Li  Li7  1  0.267409  0.732591  0.250000  1
  Ru  Ru8  1  0.500000  0.000000  0.000000  1
  Ru  Ru9  1  0.000000  0.500000  0.500000  1
  O  O10  1  0.197263  0.487256  0.254229  1
  O  O11  1  0.912589  0.272669  0.475866  1
  O  O12  1  0.487256  0.197263  0.754229  1
  O  O13  1  0.272669  0.912589  0.975866  1
  O  O14  1  0.087411  0.727331  0.524134  1
  O  O15  1  0.727331  0.087411  0.024134  1
  O  O16  1  0.512744  0.802737  0.245771  1
  O  O17  1  0.802737  0.512744  0.745771  1
