# generated using pymatgen
data_Hf3Nb3(B2Os5)2
_symmetry_space_group_name_H-M   'P 1'
_cell_length_a   9.54607646
_cell_length_b   9.54607682
_cell_length_c   3.09266300
_cell_angle_alpha   90.00000000
_cell_angle_beta   90.00000000
_cell_angle_gamma   89.93100673
_symmetry_Int_Tables_number   1
_chemical_formula_structural   Hf3Nb3(B2Os5)2
_chemical_formula_sum   'Hf3 Nb3 B4 Os10'
_cell_volume   281.82668803
_cell_formula_units_Z   1
loop_
 _symmetry_equiv_pos_site_id
 _symmetry_equiv_pos_as_xyz
  1  'x, y, z'
loop_
 _atom_site_type_symbol
 _atom_site_label
 _atom_site_symmetry_multiplicity
 _atom_site_fract_x
 _atom_site_fract_y
 _atom_site_fract_z
 _atom_site_occupancy
  Hf  Hf0  1  0.824006  0.676935  0.000000  1
  Hf  Hf1  1  0.176935  0.324006  0.000000  1
  Hf  Hf2  1  0.323760  0.823760  0.000000  1
  Nb  Nb3  1  0.677368  0.177368  0.000000  1
  Nb  Nb4  1  0.499835  0.500226  0.000000  1
  Nb  Nb5  1  0.000226  0.999835  0.000000  1
  B  B6  1  0.621021  0.878385  0.000000  1
  B  B7  1  0.378385  0.121021  0.000000  1
  B  B8  1  0.120657  0.620657  0.000000  1
  B  B9  1  0.878829  0.378829  0.000000  1
  Os  Os10  1  0.571151  0.718880  0.500000  1
  Os  Os11  1  0.431456  0.280244  0.500000  1
  Os  Os12  1  0.070462  0.780953  0.500000  1
  Os  Os13  1  0.926159  0.217612  0.500000  1
  Os  Os14  1  0.280953  0.570462  0.500000  1
  Os  Os15  1  0.717612  0.426159  0.500000  1
  Os  Os16  1  0.218880  0.071151  0.500000  1
  Os  Os17  1  0.780244  0.931456  0.500000  1
  Os  Os18  1  0.502832  0.002832  0.500000  1
  Os  Os19  1  0.999228  0.499228  0.500000  1
