# generated using pymatgen
data_Pr17Nd(LuPb8)2
_symmetry_space_group_name_H-M   'P 1'
_cell_length_a   8.43211199
_cell_length_b   8.56835235
_cell_length_c   16.30701600
_cell_angle_alpha   90.00000000
_cell_angle_beta   90.00000000
_cell_angle_gamma   90.07154788
_symmetry_Int_Tables_number   1
_chemical_formula_structural   Pr17Nd(LuPb8)2
_chemical_formula_sum   'Pr17 Nd1 Lu2 Pb16'
_cell_volume   1178.16968022
_cell_formula_units_Z   1
loop_
 _symmetry_equiv_pos_site_id
 _symmetry_equiv_pos_as_xyz
  1  'x, y, z'
loop_
 _atom_site_type_symbol
 _atom_site_label
 _atom_site_symmetry_multiplicity
 _atom_site_fract_x
 _atom_site_fract_y
 _atom_site_fract_z
 _atom_site_occupancy
  Pr  Pr0  1  0.622684  0.157884  0.619817  1
  Pr  Pr1  1  0.125401  0.340367  0.881246  1
  Pr  Pr2  1  0.374626  0.840387  0.118441  1
  Pr  Pr3  1  0.877333  0.657780  0.381031  1
  Pr  Pr4  1  0.374626  0.840387  0.381559  1
  Pr  Pr5  1  0.877333  0.657780  0.118969  1
  Pr  Pr6  1  0.622684  0.157884  0.880183  1
  Pr  Pr7  1  0.125401  0.340367  0.618754  1
  Pr  Pr8  1  0.468487  0.680219  0.600194  1
  Pr  Pr9  1  0.969641  0.822438  0.898810  1
  Pr  Pr10  1  0.530416  0.322501  0.100656  1
  Pr  Pr11  1  0.031132  0.180543  0.400181  1
  Pr  Pr12  1  0.530416  0.322501  0.399344  1
  Pr  Pr13  1  0.031132  0.180543  0.099819  1
  Pr  Pr14  1  0.468487  0.680219  0.899806  1
  Pr  Pr15  1  0.969641  0.822438  0.601190  1
  Pr  Pr16  1  0.706290  0.997637  0.250000  1
  Nd  Nd17  1  0.793638  0.497558  0.750000  1
  Lu  Lu18  1  0.291323  0.003841  0.750000  1
  Lu  Lu19  1  0.208533  0.504285  0.250000  1
  Pb  Pb20  1  0.718188  0.967184  0.456747  1
  Pb  Pb21  1  0.218432  0.530310  0.045645  1
  Pb  Pb22  1  0.282088  0.030513  0.954095  1
  Pb  Pb23  1  0.781582  0.467593  0.544821  1
  Pb  Pb24  1  0.282088  0.030513  0.545905  1
  Pb  Pb25  1  0.781582  0.467593  0.955179  1
  Pb  Pb26  1  0.718188  0.967184  0.043253  1
  Pb  Pb27  1  0.218432  0.530310  0.454355  1
  Pb  Pb28  1  0.425924  0.373408  0.750000  1
  Pb  Pb29  1  0.931806  0.122550  0.750000  1
  Pb  Pb30  1  0.568507  0.621731  0.250000  1
  Pb  Pb31  1  0.074773  0.872230  0.250000  1
  Pb  Pb32  1  0.659135  0.850997  0.750000  1
  Pb  Pb33  1  0.161602  0.653512  0.750000  1
  Pb  Pb34  1  0.337216  0.154243  0.250000  1
  Pb  Pb35  1  0.841233  0.352574  0.250000  1
