# generated using pymatgen
data_Y6Si2Hg
_symmetry_space_group_name_H-M   'P 1'
_cell_length_a   8.51575420
_cell_length_b   8.51575457
_cell_length_c   8.51575493
_cell_angle_alpha   111.31213434
_cell_angle_beta   111.22311470
_cell_angle_gamma   105.93524770
_symmetry_Int_Tables_number   1
_chemical_formula_structural   Y6Si2Hg
_chemical_formula_sum   'Y12 Si4 Hg2'
_cell_volume   474.03976687
_cell_formula_units_Z   2
loop_
 _symmetry_equiv_pos_site_id
 _symmetry_equiv_pos_as_xyz
  1  'x, y, z'
loop_
 _atom_site_type_symbol
 _atom_site_label
 _atom_site_symmetry_multiplicity
 _atom_site_fract_x
 _atom_site_fract_y
 _atom_site_fract_z
 _atom_site_occupancy
  Y  Y0  1  0.444252  0.245535  0.198717  1
  Y  Y1  1  0.555748  0.754465  0.801283  1
  Y  Y2  1  0.046818  0.245535  0.801283  1
  Y  Y3  1  0.953182  0.754465  0.198717  1
  Y  Y4  1  0.180790  0.272973  0.453763  1
  Y  Y5  1  0.819210  0.727027  0.546237  1
  Y  Y6  1  0.180790  0.727027  0.907818  1
  Y  Y7  1  0.819210  0.272973  0.092182  1
  Y  Y8  1  0.322674  0.620900  0.298227  1
  Y  Y9  1  0.677326  0.379100  0.701773  1
  Y  Y10  1  0.322674  0.024447  0.701773  1
  Y  Y11  1  0.677326  0.975553  0.298227  1
  Si  Si12  1  0.359817  0.000000  0.359817  1
  Si  Si13  1  0.640183  0.000000  0.640183  1
  Si  Si14  1  0.117046  0.617046  0.500000  1
  Si  Si15  1  0.882954  0.382954  0.500000  1
  Hg  Hg16  1  0.500000  0.500000  0.000000  1
  Hg  Hg17  1  0.000000  0.000000  0.000000  1
