# generated using pymatgen
data_Ho10GaSn2Bi3
_symmetry_space_group_name_H-M   'P 1'
_cell_length_a   8.95100611
_cell_length_b   8.96358629
_cell_length_c   6.47448500
_cell_angle_alpha   90.00000000
_cell_angle_beta   90.00000000
_cell_angle_gamma   119.89420931
_symmetry_Int_Tables_number   1
_chemical_formula_structural   Ho10GaSn2Bi3
_chemical_formula_sum   'Ho10 Ga1 Sn2 Bi3'
_cell_volume   450.35137913
_cell_formula_units_Z   1
loop_
 _symmetry_equiv_pos_site_id
 _symmetry_equiv_pos_as_xyz
  1  'x, y, z'
loop_
 _atom_site_type_symbol
 _atom_site_label
 _atom_site_symmetry_multiplicity
 _atom_site_fract_x
 _atom_site_fract_y
 _atom_site_fract_z
 _atom_site_occupancy
  Ho  Ho0  1  0.010670  0.771678  0.750000  1
  Ho  Ho1  1  0.994280  0.232931  0.250000  1
  Ho  Ho2  1  0.758484  0.764383  0.250000  1
  Ho  Ho3  1  0.752268  0.994264  0.750000  1
  Ho  Ho4  1  0.248064  0.231068  0.750000  1
  Ho  Ho5  1  0.241629  0.000295  0.250000  1
  Ho  Ho6  1  0.342467  0.683991  0.503857  1
  Ho  Ho7  1  0.654157  0.318896  0.996000  1
  Ho  Ho8  1  0.654157  0.318896  0.504000  1
  Ho  Ho9  1  0.342467  0.683991  0.996143  1
  Ga  Ga10  1  0.395040  0.999199  0.750000  1
  Sn  Sn11  1  0.609971  0.606704  0.750000  1
  Sn  Sn12  1  0.606904  0.002235  0.250000  1
  Bi  Bi13  1  0.390118  0.396486  0.250000  1
  Bi  Bi14  1  0.995407  0.603759  0.250000  1
  Bi  Bi15  1  0.003917  0.391224  0.750000  1
