# generated using pymatgen
data_Dy5Y(B7Ru)2
_symmetry_space_group_name_H-M   'P 1'
_cell_length_a   8.06195565
_cell_length_b   8.06195586
_cell_length_c   9.33914800
_cell_angle_alpha   90.00000000
_cell_angle_beta   90.00000000
_cell_angle_gamma   154.79255705
_symmetry_Int_Tables_number   1
_chemical_formula_structural   Dy5Y(B7Ru)2
_chemical_formula_sum   'Dy5 Y1 B14 Ru2'
_cell_volume   258.51901050
_cell_formula_units_Z   1
loop_
 _symmetry_equiv_pos_site_id
 _symmetry_equiv_pos_as_xyz
  1  'x, y, z'
loop_
 _atom_site_type_symbol
 _atom_site_label
 _atom_site_symmetry_multiplicity
 _atom_site_fract_x
 _atom_site_fract_y
 _atom_site_fract_z
 _atom_site_occupancy
  Dy  Dy0  1  0.894153  0.105847  0.439869  1
  Dy  Dy1  1  0.105935  0.894065  0.560183  1
  Dy  Dy2  1  0.894153  0.105847  0.060131  1
  Dy  Dy3  1  0.105935  0.894065  0.939817  1
  Dy  Dy4  1  0.755897  0.244103  0.750000  1
  Y  Y5  1  0.244473  0.755527  0.250000  1
  B  B6  1  0.727151  0.272849  0.466147  1
  B  B7  1  0.272770  0.727230  0.534265  1
  B  B8  1  0.727151  0.272849  0.033853  1
  B  B9  1  0.272770  0.727230  0.965735  1
  B  B10  1  0.631524  0.368476  0.150902  1
  B  B11  1  0.368367  0.631633  0.848962  1
  B  B12  1  0.631524  0.368476  0.349098  1
  B  B13  1  0.368367  0.631633  0.651038  1
  B  B14  1  0.520845  0.479155  0.096494  1
  B  B15  1  0.479127  0.520873  0.903433  1
  B  B16  1  0.520845  0.479155  0.403506  1
  B  B17  1  0.479127  0.520873  0.596567  1
  B  B18  1  0.457522  0.542478  0.250000  1
  B  B19  1  0.542436  0.457564  0.750000  1
  Ru  Ru20  1  0.054123  0.945877  0.250000  1
  Ru  Ru21  1  0.945806  0.054194  0.750000  1
