# generated using pymatgen
data_Dy4V3PtF28
_symmetry_space_group_name_H-M   'P 1'
_cell_length_a   5.52984036
_cell_length_b   8.86402795
_cell_length_c   11.83304841
_cell_angle_alpha   62.98127719
_cell_angle_beta   89.86627783
_cell_angle_gamma   89.89647332
_symmetry_Int_Tables_number   1
_chemical_formula_structural   Dy4V3PtF28
_chemical_formula_sum   'Dy4 V3 Pt1 F28'
_cell_volume   516.71082692
_cell_formula_units_Z   1
loop_
 _symmetry_equiv_pos_site_id
 _symmetry_equiv_pos_as_xyz
  1  'x, y, z'
loop_
 _atom_site_type_symbol
 _atom_site_label
 _atom_site_symmetry_multiplicity
 _atom_site_fract_x
 _atom_site_fract_y
 _atom_site_fract_z
 _atom_site_occupancy
  Dy  Dy0  1  0.759181  0.811247  0.767259  1
  Dy  Dy1  1  0.258281  0.189122  0.734715  1
  Dy  Dy2  1  0.238951  0.188400  0.229649  1
  Dy  Dy3  1  0.741991  0.807421  0.270249  1
  V  V4  1  0.753263  0.274718  0.955328  1
  V  V5  1  0.255976  0.724654  0.546522  1
  V  V6  1  0.246055  0.726777  0.044424  1
  Pt  Pt7  1  0.742763  0.270751  0.456206  1
  F  F8  1  0.453443  0.709947  0.923039  1
  F  F9  1  0.935325  0.301389  0.583592  1
  F  F10  1  0.544123  0.292367  0.075810  1
  F  F11  1  0.049956  0.708551  0.424771  1
  F  F12  1  0.439615  0.282094  0.539939  1
  F  F13  1  0.966036  0.717014  0.952728  1
  F  F14  1  0.538168  0.717640  0.455099  1
  F  F15  1  0.034902  0.285177  0.046329  1
  F  F16  1  0.764555  0.506312  0.863891  1
  F  F17  1  0.270931  0.490886  0.637127  1
  F  F18  1  0.234711  0.494551  0.137339  1
  F  F19  1  0.731162  0.518017  0.355000  1
  F  F20  1  0.757663  0.044470  0.046801  1
  F  F21  1  0.257153  0.955281  0.454756  1
  F  F22  1  0.242059  0.958711  0.951409  1
  F  F23  1  0.743893  0.022411  0.549671  1
  F  F24  1  0.985719  0.724844  0.645535  1
  F  F25  1  0.481559  0.267719  0.860181  1
  F  F26  1  0.040306  0.269192  0.365052  1
  F  F27  1  0.517505  0.736850  0.138164  1
  F  F28  1  0.042196  0.750924  0.166098  1
  F  F29  1  0.553576  0.248982  0.323345  1
  F  F30  1  0.959280  0.253847  0.832931  1
  F  F31  1  0.458694  0.742205  0.670942  1
  F  F32  1  0.419618  0.972354  0.230984  1
  F  F33  1  0.919219  0.027609  0.269232  1
  F  F34  1  0.582004  0.031501  0.766309  1
  F  F35  1  0.080169  0.976064  0.729572  1
