# generated using pymatgen
data_TbHo5Co8(P6Rh5)2
_symmetry_space_group_name_H-M   'P 1'
_cell_length_a   3.78077200
_cell_length_b   10.92093100
_cell_length_c   12.53766400
_cell_angle_alpha   90.00000000
_cell_angle_beta   90.00000000
_cell_angle_gamma   90.00000000
_symmetry_Int_Tables_number   1
_chemical_formula_structural   TbHo5Co8(P6Rh5)2
_chemical_formula_sum   'Tb1 Ho5 Co8 P12 Rh10'
_cell_volume   517.67450635
_cell_formula_units_Z   1
loop_
 _symmetry_equiv_pos_site_id
 _symmetry_equiv_pos_as_xyz
  1  'x, y, z'
loop_
 _atom_site_type_symbol
 _atom_site_label
 _atom_site_symmetry_multiplicity
 _atom_site_fract_x
 _atom_site_fract_y
 _atom_site_fract_z
 _atom_site_occupancy
  Tb  Tb0  1  0.500000  0.000000  0.475980  1
  Ho  Ho1  1  0.000000  0.500000  0.518065  1
  Ho  Ho2  1  0.500000  0.815621  0.197680  1
  Ho  Ho3  1  0.500000  0.184379  0.197680  1
  Ho  Ho4  1  0.000000  0.680162  0.803994  1
  Ho  Ho5  1  0.000000  0.319838  0.803994  1
  Co  Co6  1  0.000000  0.500000  0.992280  1
  Co  Co7  1  0.500000  0.000000  0.011742  1
  Co  Co8  1  0.000000  0.620586  0.283806  1
  Co  Co9  1  0.000000  0.379414  0.283806  1
  Co  Co10  1  0.500000  0.334494  0.997255  1
  Co  Co11  1  0.500000  0.665506  0.997255  1
  Co  Co12  1  0.000000  0.168615  0.007251  1
  Co  Co13  1  0.000000  0.831385  0.007251  1
  P  P14  1  0.500000  0.316743  0.619345  1
  P  P15  1  0.500000  0.683257  0.619345  1
  P  P16  1  0.000000  0.192801  0.372201  1
  P  P17  1  0.000000  0.807199  0.372201  1
  P  P18  1  0.500000  0.500000  0.894551  1
  P  P19  1  0.000000  0.000000  0.107345  1
  P  P20  1  0.500000  0.840181  0.904881  1
  P  P21  1  0.500000  0.159819  0.904881  1
  P  P22  1  0.000000  0.656540  0.104114  1
  P  P23  1  0.000000  0.343460  0.104114  1
  P  P24  1  0.500000  0.500000  0.341225  1
  P  P25  1  0.000000  0.000000  0.653051  1
  Rh  Rh26  1  0.500000  0.301445  0.425925  1
  Rh  Rh27  1  0.500000  0.698555  0.425925  1
  Rh  Rh28  1  0.000000  0.205488  0.568899  1
  Rh  Rh29  1  0.000000  0.794512  0.568899  1
  Rh  Rh30  1  0.500000  0.872276  0.716640  1
  Rh  Rh31  1  0.500000  0.127724  0.716640  1
  Rh  Rh32  1  0.500000  0.500000  0.157558  1
  Rh  Rh33  1  0.000000  0.000000  0.843079  1
  Rh  Rh34  1  0.500000  0.500000  0.708772  1
  Rh  Rh35  1  0.000000  0.000000  0.292370  1
