# generated using pymatgen
data_Rb16ZrSnAs8
_symmetry_space_group_name_H-M   'P 1'
_cell_length_a   11.52590074
_cell_length_b   11.52590932
_cell_length_c   11.51163400
_cell_angle_alpha   60.04096792
_cell_angle_beta   60.04094332
_cell_angle_gamma   60.00904481
_symmetry_Int_Tables_number   1
_chemical_formula_structural   Rb16ZrSnAs8
_chemical_formula_sum   'Rb16 Zr1 Sn1 As8'
_cell_volume   1082.10731691
_cell_formula_units_Z   1
loop_
 _symmetry_equiv_pos_site_id
 _symmetry_equiv_pos_as_xyz
  1  'x, y, z'
loop_
 _atom_site_type_symbol
 _atom_site_label
 _atom_site_symmetry_multiplicity
 _atom_site_fract_x
 _atom_site_fract_y
 _atom_site_fract_z
 _atom_site_occupancy
  Rb  Rb0  1  0.623323  0.130277  0.623200  1
  Rb  Rb1  1  0.623315  0.623316  0.130201  1
  Rb  Rb2  1  0.130278  0.623324  0.623199  1
  Rb  Rb3  1  0.623315  0.623316  0.623169  1
  Rb  Rb4  1  0.023666  0.023665  0.476334  1
  Rb  Rb5  1  0.777869  0.222052  0.222103  1
  Rb  Rb6  1  0.222050  0.777870  0.777978  1
  Rb  Rb7  1  0.777948  0.777950  0.222051  1
  Rb  Rb8  1  0.777869  0.222052  0.777975  1
  Rb  Rb9  1  0.222050  0.777870  0.222102  1
  Rb  Rb10  1  0.476246  0.023781  0.476070  1
  Rb  Rb11  1  0.476246  0.023781  0.023903  1
  Rb  Rb12  1  0.023782  0.476244  0.476069  1
  Rb  Rb13  1  0.023782  0.476244  0.023905  1
  Rb  Rb14  1  0.222070  0.222070  0.777930  1
  Rb  Rb15  1  0.476030  0.476029  0.023970  1
  Zr  Zr16  1  0.750176  0.750174  0.749825  1
  Sn  Sn17  1  0.499962  0.499963  0.500037  1
  As  As18  1  0.401199  0.796150  0.401325  1
  As  As19  1  0.845952  0.845952  0.462144  1
  As  As20  1  0.462381  0.845883  0.845869  1
  As  As21  1  0.845952  0.845952  0.845954  1
  As  As22  1  0.796150  0.401199  0.401325  1
  As  As23  1  0.401255  0.401255  0.401223  1
  As  As24  1  0.401255  0.401255  0.796268  1
  As  As25  1  0.845883  0.462381  0.845869  1
