# generated using pymatgen
data_SmHg4Se2Br5
_symmetry_space_group_name_H-M   'P 1'
_cell_length_a   8.70369700
_cell_length_b   11.20739400
_cell_length_c   9.47887313
_cell_angle_alpha   90.00000000
_cell_angle_beta   114.03547714
_cell_angle_gamma   90.00000000
_symmetry_Int_Tables_number   1
_chemical_formula_structural   SmHg4Se2Br5
_chemical_formula_sum   'Sm2 Hg8 Se4 Br10'
_cell_volume   844.45293472
_cell_formula_units_Z   2
loop_
 _symmetry_equiv_pos_site_id
 _symmetry_equiv_pos_as_xyz
  1  'x, y, z'
loop_
 _atom_site_type_symbol
 _atom_site_label
 _atom_site_symmetry_multiplicity
 _atom_site_fract_x
 _atom_site_fract_y
 _atom_site_fract_z
 _atom_site_occupancy
  Sm  Sm0  1  0.503882  0.432514  0.509063  1
  Sm  Sm1  1  0.496118  0.932514  0.490937  1
  Hg  Hg2  1  0.925740  0.187524  0.332573  1
  Hg  Hg3  1  0.074260  0.687524  0.667427  1
  Hg  Hg4  1  0.951494  0.662650  0.363668  1
  Hg  Hg5  1  0.048506  0.162650  0.636332  1
  Hg  Hg6  1  0.497105  0.182723  0.989375  1
  Hg  Hg7  1  0.502895  0.682723  0.010625  1
  Hg  Hg8  1  0.798902  0.432203  0.016189  1
  Hg  Hg9  1  0.201098  0.932203  0.983811  1
  Se  Se10  1  0.802597  0.202954  0.028027  1
  Se  Se11  1  0.197403  0.702954  0.971973  1
  Se  Se12  1  0.189200  0.159761  0.940875  1
  Se  Se13  1  0.810800  0.659761  0.059125  1
  Br  Br14  1  0.845958  0.925218  0.683728  1
  Br  Br15  1  0.154042  0.425218  0.316272  1
  Br  Br16  1  0.853353  0.439822  0.714920  1
  Br  Br17  1  0.146647  0.939822  0.285080  1
  Br  Br18  1  0.409864  0.460373  0.765969  1
  Br  Br19  1  0.590136  0.960373  0.234031  1
  Br  Br20  1  0.593107  0.387664  0.257824  1
  Br  Br21  1  0.406893  0.887664  0.742176  1
  Br  Br22  1  0.494673  0.180195  0.566006  1
  Br  Br23  1  0.505327  0.680195  0.433994  1
