# generated using pymatgen
data_Ho4Ga2Os5W
_symmetry_space_group_name_H-M   'P 1'
_cell_length_a   5.31347123
_cell_length_b   5.31683737
_cell_length_c   8.87241000
_cell_angle_alpha   90.00000000
_cell_angle_beta   90.00000000
_cell_angle_gamma   118.18018155
_symmetry_Int_Tables_number   1
_chemical_formula_structural   Ho4Ga2Os5W
_chemical_formula_sum   'Ho4 Ga2 Os5 W1'
_cell_volume   220.94251751
_cell_formula_units_Z   1
loop_
 _symmetry_equiv_pos_site_id
 _symmetry_equiv_pos_as_xyz
  1  'x, y, z'
loop_
 _atom_site_type_symbol
 _atom_site_label
 _atom_site_symmetry_multiplicity
 _atom_site_fract_x
 _atom_site_fract_y
 _atom_site_fract_z
 _atom_site_occupancy
  Ho  Ho0  1  0.326043  0.669502  0.434598  1
  Ho  Ho1  1  0.659081  0.327671  0.559595  1
  Ho  Ho2  1  0.659081  0.327671  0.940405  1
  Ho  Ho3  1  0.326043  0.669502  0.065402  1
  Ga  Ga4  1  0.186656  0.837093  0.750000  1
  Ga  Ga5  1  0.183527  0.347411  0.750000  1
  Os  Os6  1  0.979315  0.001999  0.503930  1
  Os  Os7  1  0.979315  0.001999  0.996070  1
  Os  Os8  1  0.827898  0.651998  0.250000  1
  Os  Os9  1  0.354058  0.173790  0.250000  1
  Os  Os10  1  0.678001  0.829793  0.750000  1
  W  W11  1  0.840982  0.161570  0.250000  1
