# generated using pymatgen
data_Yb3Tm(IrO4)4
_symmetry_space_group_name_H-M   'P 1'
_cell_length_a   5.31832252
_cell_length_b   7.38551942
_cell_length_c   7.61142121
_cell_angle_alpha   80.30805022
_cell_angle_beta   90.57532428
_cell_angle_gamma   90.05850935
_symmetry_Int_Tables_number   1
_chemical_formula_structural   Yb3Tm(IrO4)4
_chemical_formula_sum   'Yb3 Tm1 Ir4 O16'
_cell_volume   294.68374968
_cell_formula_units_Z   1
loop_
 _symmetry_equiv_pos_site_id
 _symmetry_equiv_pos_as_xyz
  1  'x, y, z'
loop_
 _atom_site_type_symbol
 _atom_site_label
 _atom_site_symmetry_multiplicity
 _atom_site_fract_x
 _atom_site_fract_y
 _atom_site_fract_z
 _atom_site_occupancy
  Yb  Yb0  1  0.285820  0.391639  0.346277  1
  Yb  Yb1  1  0.217715  0.891659  0.351675  1
  Yb  Yb2  1  0.777921  0.111204  0.646705  1
  Tm  Tm3  1  0.710876  0.609157  0.648187  1
  Ir  Ir4  1  0.772118  0.197983  0.167031  1
  Ir  Ir5  1  0.732357  0.698681  0.164314  1
  Ir  Ir6  1  0.269261  0.299851  0.834896  1
  Ir  Ir7  1  0.228636  0.801665  0.835759  1
  O  O8  1  0.091581  0.303019  0.056912  1
  O  O9  1  0.406325  0.801592  0.059860  1
  O  O10  1  0.630810  0.445123  0.167305  1
  O  O11  1  0.874650  0.946300  0.161791  1
  O  O12  1  0.494930  0.120894  0.312144  1
  O  O13  1  0.974451  0.178342  0.381797  1
  O  O14  1  0.010307  0.621898  0.311183  1
  O  O15  1  0.534608  0.679103  0.385984  1
  O  O16  1  0.473904  0.331496  0.618884  1
  O  O17  1  0.982367  0.384600  0.693055  1
  O  O18  1  0.021195  0.813446  0.618603  1
  O  O19  1  0.511239  0.873049  0.688849  1
  O  O20  1  0.129369  0.054778  0.829078  1
  O  O21  1  0.379219  0.554834  0.834895  1
  O  O22  1  0.587628  0.195738  0.945594  1
  O  O23  1  0.902712  0.693951  0.939220  1
