# generated using pymatgen
data_Y4Fe13Co
_symmetry_space_group_name_H-M   'P 1'
_cell_length_a   12.30160376
_cell_length_b   12.30160410
_cell_length_c   12.30160381
_cell_angle_alpha   23.98856260
_cell_angle_beta   23.98855660
_cell_angle_gamma   23.98856630
_symmetry_Int_Tables_number   1
_chemical_formula_structural   Y4Fe13Co
_chemical_formula_sum   'Y4 Fe13 Co1'
_cell_volume   270.36308899
_cell_formula_units_Z   1
loop_
 _symmetry_equiv_pos_site_id
 _symmetry_equiv_pos_as_xyz
  1  'x, y, z'
loop_
 _atom_site_type_symbol
 _atom_site_label
 _atom_site_symmetry_multiplicity
 _atom_site_fract_x
 _atom_site_fract_y
 _atom_site_fract_z
 _atom_site_occupancy
  Y  Y0  1  0.947975  0.947975  0.947975  1
  Y  Y1  1  0.052025  0.052025  0.052025  1
  Y  Y2  1  0.850346  0.850346  0.850346  1
  Y  Y3  1  0.149654  0.149654  0.149654  1
  Fe  Fe4  1  0.720849  0.720849  0.720849  1
  Fe  Fe5  1  0.279151  0.279151  0.279151  1
  Fe  Fe6  1  0.612675  0.612675  0.612675  1
  Fe  Fe7  1  0.387325  0.387325  0.387325  1
  Fe  Fe8  1  0.500000  0.500000  0.000000  1
  Fe  Fe9  1  0.000000  0.500000  0.500000  1
  Fe  Fe10  1  0.500000  0.000000  0.500000  1
  Fe  Fe11  1  0.390838  0.891513  0.390838  1
  Fe  Fe12  1  0.390838  0.390838  0.891513  1
  Fe  Fe13  1  0.891513  0.390838  0.390838  1
  Fe  Fe14  1  0.609162  0.108487  0.609162  1
  Fe  Fe15  1  0.609162  0.609162  0.108487  1
  Fe  Fe16  1  0.108487  0.609162  0.609162  1
  Co  Co17  1  0.500000  0.500000  0.500000  1
