# generated using pymatgen
data_Dy2Tm4Al24Os7Au
_symmetry_space_group_name_H-M   'P 1'
_cell_length_a   8.84733305
_cell_length_b   8.83233541
_cell_length_c   9.53239977
_cell_angle_alpha   89.78005061
_cell_angle_beta   90.19644155
_cell_angle_gamma   120.00787582
_symmetry_Int_Tables_number   1
_chemical_formula_structural   Dy2Tm4Al24Os7Au
_chemical_formula_sum   'Dy2 Tm4 Al24 Os7 Au1'
_cell_volume   645.03380752
_cell_formula_units_Z   1
loop_
 _symmetry_equiv_pos_site_id
 _symmetry_equiv_pos_as_xyz
  1  'x, y, z'
loop_
 _atom_site_type_symbol
 _atom_site_label
 _atom_site_symmetry_multiplicity
 _atom_site_fract_x
 _atom_site_fract_y
 _atom_site_fract_z
 _atom_site_occupancy
  Dy  Dy0  1  0.190315  0.385233  0.250834  1
  Dy  Dy1  1  0.809685  0.614767  0.749166  1
  Tm  Tm2  1  0.611814  0.809015  0.251889  1
  Tm  Tm3  1  0.388186  0.190985  0.748111  1
  Tm  Tm4  1  0.195253  0.803877  0.254337  1
  Tm  Tm5  1  0.804747  0.196123  0.745663  1
  Al  Al6  1  0.328692  0.671070  0.024039  1
  Al  Al7  1  0.671308  0.328930  0.975961  1
  Al  Al8  1  0.666479  0.334237  0.518814  1
  Al  Al9  1  0.333521  0.665763  0.481186  1
  Al  Al10  1  0.163299  0.325919  0.576233  1
  Al  Al11  1  0.836701  0.674081  0.423767  1
  Al  Al12  1  0.674440  0.837670  0.576084  1
  Al  Al13  1  0.848462  0.677386  0.080340  1
  Al  Al14  1  0.325560  0.162330  0.423916  1
  Al  Al15  1  0.151538  0.322614  0.919660  1
  Al  Al16  1  0.163701  0.837472  0.575771  1
  Al  Al17  1  0.322205  0.150906  0.079942  1
  Al  Al18  1  0.836299  0.162528  0.424229  1
  Al  Al19  1  0.677795  0.849094  0.920058  1
  Al  Al20  1  0.836205  0.162766  0.075809  1
  Al  Al21  1  0.163795  0.837234  0.924191  1
  Al  Al22  1  0.560463  0.120642  0.249087  1
  Al  Al23  1  0.439537  0.879358  0.750913  1
  Al  Al24  1  0.878628  0.439247  0.249271  1
  Al  Al25  1  0.121372  0.560753  0.750729  1
  Al  Al26  1  0.563910  0.436830  0.255418  1
  Al  Al27  1  0.436090  0.563170  0.744582  1
  Al  Al28  1  0.998264  0.998006  0.250332  1
  Al  Al29  1  0.001736  0.001994  0.749668  1
  Os  Os30  1  0.500000  0.000000  0.000000  1
  Os  Os31  1  0.000000  0.500000  0.000000  1
  Os  Os32  1  0.500000  0.000000  0.500000  1
  Os  Os33  1  0.000000  0.500000  0.500000  1
  Os  Os34  1  0.500000  0.500000  0.500000  1
  Os  Os35  1  0.000000  0.000000  0.000000  1
  Os  Os36  1  0.000000  0.000000  0.500000  1
  Au  Au37  1  0.500000  0.500000  0.000000  1
