# generated using pymatgen
data_Co5TeO8
_symmetry_space_group_name_H-M   'P 1'
_cell_length_a   6.01655037
_cell_length_b   10.43211581
_cell_length_c   6.22825831
_cell_angle_alpha   73.78838014
_cell_angle_beta   61.11609345
_cell_angle_gamma   89.98318234
_symmetry_Int_Tables_number   1
_chemical_formula_structural   Co5TeO8
_chemical_formula_sum   'Co10 Te2 O16'
_cell_volume   324.44144884
_cell_formula_units_Z   2
loop_
 _symmetry_equiv_pos_site_id
 _symmetry_equiv_pos_as_xyz
  1  'x, y, z'
loop_
 _atom_site_type_symbol
 _atom_site_label
 _atom_site_symmetry_multiplicity
 _atom_site_fract_x
 _atom_site_fract_y
 _atom_site_fract_z
 _atom_site_occupancy
  Co  Co0  1  0.712603  0.570333  0.077792  1
  Co  Co1  1  0.788014  0.929657  0.922332  1
  Co  Co2  1  0.749690  0.250038  0.499839  1
  Co  Co3  1  0.001726  0.500056  0.500231  1
  Co  Co4  1  0.249613  0.249986  0.499927  1
  Co  Co5  1  0.210066  0.070389  0.077146  1
  Co  Co6  1  0.289319  0.429629  0.922719  1
  Co  Co7  1  0.250382  0.749976  0.500078  1
  Co  Co8  1  0.498285  0.999974  0.499721  1
  Co  Co9  1  0.750424  0.750050  0.499993  1
  Te  Te10  1  0.749503  0.249993  0.000032  1
  Te  Te11  1  0.250398  0.749943  0.000164  1
  O  O12  1  0.398357  0.133186  0.700617  1
  O  O13  1  0.900872  0.633290  0.701145  1
  O  O14  1  0.100972  0.366855  0.299213  1
  O  O15  1  0.599855  0.866726  0.298926  1
  O  O16  1  0.407191  0.136767  0.227945  1
  O  O17  1  0.909299  0.635732  0.229566  1
  O  O18  1  0.861265  0.135629  0.229223  1
  O  O19  1  0.364567  0.636709  0.228375  1
  O  O20  1  0.635704  0.363383  0.228472  1
  O  O21  1  0.135826  0.863443  0.228436  1
  O  O22  1  0.638070  0.364407  0.770490  1
  O  O23  1  0.136115  0.863225  0.771999  1
  O  O24  1  0.863510  0.136592  0.771418  1
  O  O25  1  0.365000  0.636547  0.771620  1
  O  O26  1  0.091893  0.363141  0.772169  1
  O  O27  1  0.591482  0.864344  0.770409  1
