# generated using pymatgen
data_KFe(Te3O7)2
_symmetry_space_group_name_H-M   'P 1'
_cell_length_a   11.07269200
_cell_length_b   11.07269200
_cell_length_c   11.07269200
_cell_angle_alpha   90.00000000
_cell_angle_beta   90.00000000
_cell_angle_gamma   90.00000000
_symmetry_Int_Tables_number   1
_chemical_formula_structural   KFe(Te3O7)2
_chemical_formula_sum   'K4 Fe4 Te24 O56'
_cell_volume   1357.56195630
_cell_formula_units_Z   4
loop_
 _symmetry_equiv_pos_site_id
 _symmetry_equiv_pos_as_xyz
  1  'x, y, z'
loop_
 _atom_site_type_symbol
 _atom_site_label
 _atom_site_symmetry_multiplicity
 _atom_site_fract_x
 _atom_site_fract_y
 _atom_site_fract_z
 _atom_site_occupancy
  K  K0  1  0.500000  0.500000  0.000000  1
  K  K1  1  0.000000  0.500000  0.500000  1
  K  K2  1  0.000000  0.000000  0.000000  1
  K  K3  1  0.500000  0.000000  0.500000  1
  Fe  Fe4  1  0.000000  0.000000  0.500000  1
  Fe  Fe5  1  0.500000  0.500000  0.500000  1
  Fe  Fe6  1  0.500000  0.000000  0.000000  1
  Fe  Fe7  1  0.000000  0.500000  0.000000  1
  Te  Te8  1  0.991523  0.736238  0.771532  1
  Te  Te9  1  0.491523  0.736238  0.728468  1
  Te  Te10  1  0.763762  0.271532  0.991523  1
  Te  Te11  1  0.263762  0.228468  0.008477  1
  Te  Te12  1  0.736238  0.771532  0.991523  1
  Te  Te13  1  0.736238  0.728468  0.491523  1
  Te  Te14  1  0.271532  0.991523  0.763762  1
  Te  Te15  1  0.771532  0.991523  0.736238  1
  Te  Te16  1  0.228468  0.008477  0.263762  1
  Te  Te17  1  0.991523  0.763762  0.271532  1
  Te  Te18  1  0.771532  0.508477  0.236238  1
  Te  Te19  1  0.008477  0.236238  0.728468  1
  Te  Te20  1  0.728468  0.491523  0.736238  1
  Te  Te21  1  0.263762  0.271532  0.508477  1
  Te  Te22  1  0.236238  0.728468  0.008477  1
  Te  Te23  1  0.271532  0.508477  0.263762  1
  Te  Te24  1  0.491523  0.763762  0.228468  1
  Te  Te25  1  0.728468  0.008477  0.236238  1
  Te  Te26  1  0.228468  0.491523  0.763762  1
  Te  Te27  1  0.508477  0.263762  0.271532  1
  Te  Te28  1  0.763762  0.228468  0.491523  1
  Te  Te29  1  0.508477  0.236238  0.771532  1
  Te  Te30  1  0.008477  0.263762  0.228468  1
  Te  Te31  1  0.236238  0.771532  0.508477  1
  O  O32  1  0.877618  0.389409  0.307216  1
  O  O33  1  0.622382  0.610591  0.807216  1
  O  O34  1  0.126144  0.431419  0.885418  1
  O  O35  1  0.110591  0.807216  0.877618  1
  O  O36  1  0.622382  0.889409  0.307216  1
  O  O37  1  0.122382  0.889409  0.192784  1
  O  O38  1  0.431419  0.614582  0.626144  1
  O  O39  1  0.377618  0.110591  0.692784  1
  O  O40  1  0.626144  0.431419  0.614582  1
  O  O41  1  0.068581  0.114582  0.626144  1
  O  O42  1  0.307216  0.877618  0.389409  1
  O  O43  1  0.885418  0.126144  0.431419  1
  O  O44  1  0.147302  0.147302  0.147302  1
  O  O45  1  0.389409  0.307216  0.877618  1
  O  O46  1  0.873856  0.568581  0.114582  1
  O  O47  1  0.873856  0.931419  0.614582  1
  O  O48  1  0.889409  0.307216  0.622382  1
  O  O49  1  0.568581  0.385418  0.373856  1
  O  O50  1  0.068581  0.385418  0.126144  1
  O  O51  1  0.852698  0.647302  0.352698  1
  O  O52  1  0.373856  0.931419  0.885418  1
  O  O53  1  0.931419  0.885418  0.373856  1
  O  O54  1  0.147302  0.352698  0.647302  1
  O  O55  1  0.431419  0.885418  0.126144  1
  O  O56  1  0.377618  0.389409  0.192784  1
  O  O57  1  0.122382  0.610591  0.692784  1
  O  O58  1  0.568581  0.114582  0.873856  1
  O  O59  1  0.389409  0.192784  0.377618  1
  O  O60  1  0.807216  0.877618  0.110591  1
  O  O61  1  0.192784  0.377618  0.389409  1
  O  O62  1  0.373856  0.568581  0.385418  1
  O  O63  1  0.110591  0.692784  0.377618  1
  O  O64  1  0.852698  0.852698  0.852698  1
  O  O65  1  0.889409  0.192784  0.122382  1
  O  O66  1  0.126144  0.068581  0.385418  1
  O  O67  1  0.692784  0.377618  0.110591  1
  O  O68  1  0.647302  0.352698  0.852698  1
  O  O69  1  0.114582  0.873856  0.568581  1
  O  O70  1  0.192784  0.122382  0.889409  1
  O  O71  1  0.610591  0.807216  0.622382  1
  O  O72  1  0.307216  0.622382  0.889409  1
  O  O73  1  0.931419  0.614582  0.873856  1
  O  O74  1  0.610591  0.692784  0.122382  1
  O  O75  1  0.114582  0.626144  0.068581  1
  O  O76  1  0.614582  0.626144  0.431419  1
  O  O77  1  0.692784  0.122382  0.610591  1
  O  O78  1  0.807216  0.622382  0.610591  1
  O  O79  1  0.352698  0.852698  0.647302  1
  O  O80  1  0.877618  0.110591  0.807216  1
  O  O81  1  0.614582  0.873856  0.931419  1
  O  O82  1  0.885418  0.373856  0.931419  1
  O  O83  1  0.647302  0.147302  0.352698  1
  O  O84  1  0.352698  0.647302  0.147302  1
  O  O85  1  0.626144  0.068581  0.114582  1
  O  O86  1  0.385418  0.126144  0.068581  1
  O  O87  1  0.385418  0.373856  0.568581  1
