# generated using pymatgen
data_Sm2MnPdF14
_symmetry_space_group_name_H-M   'P 1'
_cell_length_a   5.55965800
_cell_length_b   8.97255456
_cell_length_c   12.01012269
_cell_angle_alpha   62.07457024
_cell_angle_beta   90.00000000
_cell_angle_gamma   90.00000000
_symmetry_Int_Tables_number   1
_chemical_formula_structural   Sm2MnPdF14
_chemical_formula_sum   'Sm4 Mn2 Pd2 F28'
_cell_volume   529.35451732
_cell_formula_units_Z   2
loop_
 _symmetry_equiv_pos_site_id
 _symmetry_equiv_pos_as_xyz
  1  'x, y, z'
loop_
 _atom_site_type_symbol
 _atom_site_label
 _atom_site_symmetry_multiplicity
 _atom_site_fract_x
 _atom_site_fract_y
 _atom_site_fract_z
 _atom_site_occupancy
  Sm  Sm0  1  0.762342  0.812671  0.764923  1
  Sm  Sm1  1  0.262342  0.187329  0.735077  1
  Sm  Sm2  1  0.239370  0.191609  0.236359  1
  Sm  Sm3  1  0.739370  0.808391  0.263641  1
  Mn  Mn4  1  0.241606  0.725235  0.042878  1
  Mn  Mn5  1  0.741606  0.274765  0.457122  1
  Pd  Pd6  1  0.757582  0.272528  0.957646  1
  Pd  Pd7  1  0.257582  0.727472  0.542354  1
  F  F8  1  0.437978  0.708976  0.926014  1
  F  F9  1  0.937978  0.291024  0.573986  1
  F  F10  1  0.575283  0.296469  0.086691  1
  F  F11  1  0.075283  0.703531  0.413309  1
  F  F12  1  0.468301  0.283512  0.541994  1
  F  F13  1  0.968301  0.716488  0.958006  1
  F  F14  1  0.559255  0.717785  0.462881  1
  F  F15  1  0.059255  0.282215  0.037119  1
  F  F16  1  0.768026  0.517365  0.859700  1
  F  F17  1  0.268026  0.482635  0.640300  1
  F  F18  1  0.231391  0.492520  0.135945  1
  F  F19  1  0.731391  0.507480  0.364055  1
  F  F20  1  0.757294  0.027657  0.047833  1
  F  F21  1  0.257294  0.972343  0.452167  1
  F  F22  1  0.239205  0.956625  0.952328  1
  F  F23  1  0.739205  0.043375  0.547672  1
  F  F24  1  0.960484  0.728859  0.627473  1
  F  F25  1  0.460484  0.271141  0.872527  1
  F  F26  1  0.007717  0.271564  0.366247  1
  F  F27  1  0.507717  0.728436  0.133753  1
  F  F28  1  0.048157  0.739866  0.163273  1
  F  F29  1  0.548157  0.260134  0.336727  1
  F  F30  1  0.936557  0.256611  0.823895  1
  F  F31  1  0.436557  0.743389  0.676105  1
  F  F32  1  0.410169  0.969204  0.231863  1
  F  F33  1  0.910169  0.030796  0.268137  1
  F  F34  1  0.599283  0.033218  0.773676  1
  F  F35  1  0.099283  0.966782  0.726324  1
