# generated using pymatgen
data_BeSi(B2W5)2
_symmetry_space_group_name_H-M   'P 1'
_cell_length_a   6.98581353
_cell_length_b   6.98581391
_cell_length_c   6.98581292
_cell_angle_alpha   128.75874552
_cell_angle_beta   128.75873548
_cell_angle_gamma   75.39907850
_symmetry_Int_Tables_number   1
_chemical_formula_structural   BeSi(B2W5)2
_chemical_formula_sum   'Be1 Si1 B4 W10'
_cell_volume   201.74610764
_cell_formula_units_Z   1
loop_
 _symmetry_equiv_pos_site_id
 _symmetry_equiv_pos_as_xyz
  1  'x, y, z'
loop_
 _atom_site_type_symbol
 _atom_site_label
 _atom_site_symmetry_multiplicity
 _atom_site_fract_x
 _atom_site_fract_y
 _atom_site_fract_z
 _atom_site_occupancy
  Be  Be0  1  0.750000  0.750000  0.000000  1
  Si  Si1  1  0.250000  0.250000  0.000000  1
  B  B2  1  0.373383  0.873383  0.246766  1
  B  B3  1  0.873383  0.626617  0.500000  1
  B  B4  1  0.626617  0.126617  0.753234  1
  B  B5  1  0.126617  0.373383  0.500000  1
  W  W6  1  0.999140  0.999140  0.000000  1
  W  W7  1  0.801280  0.977363  0.493726  1
  W  W8  1  0.307554  0.801280  0.823917  1
  W  W9  1  0.192446  0.016363  0.493726  1
  W  W10  1  0.522637  0.698720  0.506274  1
  W  W11  1  0.016363  0.522637  0.823917  1
  W  W12  1  0.698720  0.192446  0.176083  1
  W  W13  1  0.977363  0.483637  0.176083  1
  W  W14  1  0.500860  0.500860  0.000000  1
  W  W15  1  0.483637  0.307554  0.506274  1
