# generated using pymatgen
data_Dy3Y2Er7Ru4
_symmetry_space_group_name_H-M   'P 1'
_cell_length_a   6.27811694
_cell_length_b   7.29189432
_cell_length_c   9.09699644
_cell_angle_alpha   89.98024817
_cell_angle_beta   90.10631231
_cell_angle_gamma   90.02026835
_symmetry_Int_Tables_number   1
_chemical_formula_structural   Dy3Y2Er7Ru4
_chemical_formula_sum   'Dy3 Y2 Er7 Ru4'
_cell_volume   416.45395535
_cell_formula_units_Z   1
loop_
 _symmetry_equiv_pos_site_id
 _symmetry_equiv_pos_as_xyz
  1  'x, y, z'
loop_
 _atom_site_type_symbol
 _atom_site_label
 _atom_site_symmetry_multiplicity
 _atom_site_fract_x
 _atom_site_fract_y
 _atom_site_fract_z
 _atom_site_occupancy
  Dy  Dy0  1  0.331415  0.676634  0.064555  1
  Dy  Dy1  1  0.866335  0.540005  0.250437  1
  Dy  Dy2  1  0.633561  0.040448  0.250234  1
  Y  Y3  1  0.132409  0.460206  0.749567  1
  Y  Y4  1  0.367639  0.960540  0.749636  1
  Er  Er5  1  0.168338  0.176467  0.435311  1
  Er  Er6  1  0.668612  0.323607  0.564254  1
  Er  Er7  1  0.831543  0.823867  0.935412  1
  Er  Er8  1  0.668957  0.323318  0.935371  1
  Er  Er9  1  0.831672  0.823767  0.564255  1
  Er  Er10  1  0.331458  0.676206  0.435715  1
  Er  Er11  1  0.168177  0.176264  0.064726  1
  Ru  Ru12  1  0.040534  0.884921  0.250506  1
  Ru  Ru13  1  0.458916  0.384086  0.250582  1
  Ru  Ru14  1  0.956127  0.114940  0.750197  1
  Ru  Ru15  1  0.544308  0.614724  0.749244  1
