# generated using pymatgen
data_Nd2MgScSb2
_symmetry_space_group_name_H-M   'P 1'
_cell_length_a   8.71439919
_cell_length_b   8.71439873
_cell_length_c   8.71439831
_cell_angle_alpha   150.56756047
_cell_angle_beta   149.87283864
_cell_angle_gamma   42.62096644
_symmetry_Int_Tables_number   1
_chemical_formula_structural   Nd2MgScSb2
_chemical_formula_sum   'Nd2 Mg1 Sc1 Sb2'
_cell_volume   162.81415270
_cell_formula_units_Z   1
loop_
 _symmetry_equiv_pos_site_id
 _symmetry_equiv_pos_as_xyz
  1  'x, y, z'
loop_
 _atom_site_type_symbol
 _atom_site_label
 _atom_site_symmetry_multiplicity
 _atom_site_fract_x
 _atom_site_fract_y
 _atom_site_fract_z
 _atom_site_occupancy
  Nd  Nd0  1  0.828340  0.828340  0.000000  1
  Nd  Nd1  1  0.171660  0.171660  0.000000  1
  Mg  Mg2  1  0.000000  0.500000  0.500000  1
  Sc  Sc3  1  0.500000  0.000000  0.500000  1
  Sb  Sb4  1  0.629844  0.629844  0.000000  1
  Sb  Sb5  1  0.370156  0.370156  0.000000  1
