# generated using pymatgen
data_Hf4TiNbRh10
_symmetry_space_group_name_H-M   'P 1'
_cell_length_a   4.25190300
_cell_length_b   5.57563732
_cell_length_c   10.87422367
_cell_angle_alpha   89.72310707
_cell_angle_beta   90.00000000
_cell_angle_gamma   90.00000000
_symmetry_Int_Tables_number   1
_chemical_formula_structural   Hf4TiNbRh10
_chemical_formula_sum   'Hf4 Ti1 Nb1 Rh10'
_cell_volume   257.79296082
_cell_formula_units_Z   1
loop_
 _symmetry_equiv_pos_site_id
 _symmetry_equiv_pos_as_xyz
  1  'x, y, z'
loop_
 _atom_site_type_symbol
 _atom_site_label
 _atom_site_symmetry_multiplicity
 _atom_site_fract_x
 _atom_site_fract_y
 _atom_site_fract_z
 _atom_site_occupancy
  Hf  Hf0  1  0.500000  0.158707  0.647375  1
  Hf  Hf1  1  0.500000  0.841293  0.352625  1
  Hf  Hf2  1  0.500000  0.662657  0.857694  1
  Hf  Hf3  1  0.500000  0.337343  0.142306  1
  Ti  Ti4  1  0.000000  0.000000  0.000000  1
  Nb  Nb5  1  0.000000  0.500000  0.500000  1
  Rh  Rh6  1  0.500000  0.178903  0.896483  1
  Rh  Rh7  1  0.500000  0.821097  0.103517  1
  Rh  Rh8  1  0.500000  0.681346  0.605015  1
  Rh  Rh9  1  0.500000  0.318654  0.394985  1
  Rh  Rh10  1  0.000000  0.405541  0.739962  1
  Rh  Rh11  1  0.000000  0.594459  0.260038  1
  Rh  Rh12  1  0.000000  0.000000  0.500000  1
  Rh  Rh13  1  0.000000  0.500000  0.000000  1
  Rh  Rh14  1  0.000000  0.092780  0.236835  1
  Rh  Rh15  1  0.000000  0.907220  0.763165  1
