# generated using pymatgen
data_Ba3HoTmS6
_symmetry_space_group_name_H-M   'P 1'
_cell_length_a   8.52525324
_cell_length_b   8.52525201
_cell_length_c   8.52525300
_cell_angle_alpha   92.88113404
_cell_angle_beta   92.88113363
_cell_angle_gamma   92.88113092
_symmetry_Int_Tables_number   1
_chemical_formula_structural   Ba3HoTmS6
_chemical_formula_sum   'Ba6 Ho2 Tm2 S12'
_cell_volume   617.18319146
_cell_formula_units_Z   2
loop_
 _symmetry_equiv_pos_site_id
 _symmetry_equiv_pos_as_xyz
  1  'x, y, z'
loop_
 _atom_site_type_symbol
 _atom_site_label
 _atom_site_symmetry_multiplicity
 _atom_site_fract_x
 _atom_site_fract_y
 _atom_site_fract_z
 _atom_site_occupancy
  Ba  Ba0  1  0.374463  0.750000  0.125537  1
  Ba  Ba1  1  0.125537  0.374463  0.750000  1
  Ba  Ba2  1  0.750000  0.125537  0.374463  1
  Ba  Ba3  1  0.625537  0.250000  0.874463  1
  Ba  Ba4  1  0.874463  0.625537  0.250000  1
  Ba  Ba5  1  0.250000  0.874463  0.625537  1
  Ho  Ho6  1  0.250000  0.250000  0.250000  1
  Ho  Ho7  1  0.750000  0.750000  0.750000  1
  Tm  Tm8  1  0.500000  0.500000  0.500000  1
  Tm  Tm9  1  0.000000  0.000000  0.000000  1
  S  S10  1  0.537283  0.404569  0.200640  1
  S  S11  1  0.200640  0.537283  0.404569  1
  S  S12  1  0.404569  0.200640  0.537283  1
  S  S13  1  0.962717  0.299360  0.095431  1
  S  S14  1  0.095431  0.962717  0.299360  1
  S  S15  1  0.299360  0.095431  0.962717  1
  S  S16  1  0.462717  0.595431  0.799360  1
  S  S17  1  0.799360  0.462717  0.595431  1
  S  S18  1  0.595431  0.799360  0.462717  1
  S  S19  1  0.037283  0.700640  0.904569  1
  S  S20  1  0.700640  0.904569  0.037283  1
  S  S21  1  0.904569  0.037283  0.700640  1
