# generated using pymatgen
data_Yb3HoTi4O12
_symmetry_space_group_name_H-M   'P 1'
_cell_length_a   5.33140893
_cell_length_b   5.50861822
_cell_length_c   7.63352200
_cell_angle_alpha   90.00000000
_cell_angle_beta   90.00000000
_cell_angle_gamma   89.74827937
_symmetry_Int_Tables_number   1
_chemical_formula_structural   Yb3HoTi4O12
_chemical_formula_sum   'Yb3 Ho1 Ti4 O12'
_cell_volume   224.18442635
_cell_formula_units_Z   1
loop_
 _symmetry_equiv_pos_site_id
 _symmetry_equiv_pos_as_xyz
  1  'x, y, z'
loop_
 _atom_site_type_symbol
 _atom_site_label
 _atom_site_symmetry_multiplicity
 _atom_site_fract_x
 _atom_site_fract_y
 _atom_site_fract_z
 _atom_site_occupancy
  Yb  Yb0  1  0.513395  0.945047  0.750000  1
  Yb  Yb1  1  0.486023  0.055197  0.250000  1
  Yb  Yb2  1  0.012180  0.553114  0.250000  1
  Ho  Ho3  1  0.985989  0.438004  0.750000  1
  Ti  Ti4  1  0.001790  0.997789  0.002491  1
  Ti  Ti5  1  0.001790  0.997789  0.497509  1
  Ti  Ti6  1  0.497582  0.501123  0.002691  1
  Ti  Ti7  1  0.497582  0.501123  0.497309  1
  O  O8  1  0.089462  0.029986  0.750000  1
  O  O9  1  0.201406  0.296486  0.043637  1
  O  O10  1  0.201406  0.296486  0.456363  1
  O  O11  1  0.299033  0.796512  0.453509  1
  O  O12  1  0.299033  0.796512  0.046491  1
  O  O13  1  0.398944  0.526798  0.750000  1
  O  O14  1  0.585831  0.475855  0.250000  1
  O  O15  1  0.707093  0.209488  0.949436  1
  O  O16  1  0.707093  0.209488  0.550564  1
  O  O17  1  0.801992  0.699874  0.551850  1
  O  O18  1  0.801992  0.699874  0.948150  1
  O  O19  1  0.910386  0.973456  0.250000  1
