# generated using pymatgen
data_Ag3BiIr2(RhO7)2
_symmetry_space_group_name_H-M   'P 1'
_cell_length_a   7.26617592
_cell_length_b   7.26617609
_cell_length_c   7.28140791
_cell_angle_alpha   59.33163389
_cell_angle_beta   59.33163609
_cell_angle_gamma   59.20108949
_symmetry_Int_Tables_number   1
_chemical_formula_structural   Ag3BiIr2(RhO7)2
_chemical_formula_sum   'Ag3 Bi1 Ir2 Rh2 O14'
_cell_volume   267.43161060
_cell_formula_units_Z   1
loop_
 _symmetry_equiv_pos_site_id
 _symmetry_equiv_pos_as_xyz
  1  'x, y, z'
loop_
 _atom_site_type_symbol
 _atom_site_label
 _atom_site_symmetry_multiplicity
 _atom_site_fract_x
 _atom_site_fract_y
 _atom_site_fract_z
 _atom_site_occupancy
  Ag  Ag0  1  0.125000  0.625000  0.125000  1
  Ag  Ag1  1  0.625000  0.125000  0.125000  1
  Ag  Ag2  1  0.125000  0.125000  0.625000  1
  Bi  Bi3  1  0.125000  0.125000  0.125000  1
  Ir  Ir4  1  0.625000  0.625000  0.625000  1
  Ir  Ir5  1  0.625000  0.625000  0.125000  1
  Rh  Rh6  1  0.125000  0.625000  0.625000  1
  Rh  Rh7  1  0.625000  0.125000  0.625000  1
  O  O8  1  0.255377  0.255377  0.254612  1
  O  O9  1  0.296525  0.709541  0.291966  1
  O  O10  1  0.959458  0.959458  0.538194  1
  O  O11  1  0.559099  0.944042  0.548732  1
  O  O12  1  0.691208  0.691208  0.306008  1
  O  O13  1  0.944042  0.559099  0.548732  1
  O  O14  1  0.690901  0.305958  0.701268  1
  O  O15  1  0.290542  0.290542  0.711806  1
  O  O16  1  0.709541  0.296525  0.291966  1
  O  O17  1  0.305958  0.690901  0.701268  1
  O  O18  1  0.953475  0.540459  0.958034  1
  O  O19  1  0.558792  0.558792  0.943992  1
  O  O20  1  0.994623  0.994623  0.995388  1
  O  O21  1  0.540459  0.953475  0.958034  1
