# generated using pymatgen
data_Er6Al24ZnRu6Pt
_symmetry_space_group_name_H-M   'P 1'
_cell_length_a   8.85435200
_cell_length_b   8.83994099
_cell_length_c   9.49874844
_cell_angle_alpha   89.82694690
_cell_angle_beta   89.90165943
_cell_angle_gamma   120.03114441
_symmetry_Int_Tables_number   1
_chemical_formula_structural   Er6Al24ZnRu6Pt
_chemical_formula_sum   'Er6 Al24 Zn1 Ru6 Pt1'
_cell_volume   643.66780361
_cell_formula_units_Z   1
loop_
 _symmetry_equiv_pos_site_id
 _symmetry_equiv_pos_as_xyz
  1  'x, y, z'
loop_
 _atom_site_type_symbol
 _atom_site_label
 _atom_site_symmetry_multiplicity
 _atom_site_fract_x
 _atom_site_fract_y
 _atom_site_fract_z
 _atom_site_occupancy
  Er  Er0  1  0.193277  0.387308  0.246799  1
  Er  Er1  1  0.806723  0.612692  0.753201  1
  Er  Er2  1  0.614115  0.806006  0.246911  1
  Er  Er3  1  0.385885  0.193994  0.753089  1
  Er  Er4  1  0.191969  0.804155  0.253381  1
  Er  Er5  1  0.808031  0.195845  0.746619  1
  Al  Al6  1  0.328915  0.670870  0.023162  1
  Al  Al7  1  0.671085  0.329130  0.976838  1
  Al  Al8  1  0.669232  0.339085  0.520854  1
  Al  Al9  1  0.330768  0.660915  0.479146  1
  Al  Al10  1  0.162192  0.324738  0.575443  1
  Al  Al11  1  0.837808  0.675262  0.424557  1
  Al  Al12  1  0.676816  0.833574  0.576443  1
  Al  Al13  1  0.849190  0.677107  0.081021  1
  Al  Al14  1  0.323184  0.166426  0.423557  1
  Al  Al15  1  0.150810  0.322893  0.918979  1
  Al  Al16  1  0.157611  0.833600  0.578083  1
  Al  Al17  1  0.321854  0.149869  0.081856  1
  Al  Al18  1  0.842389  0.166400  0.421917  1
  Al  Al19  1  0.678146  0.850131  0.918144  1
  Al  Al20  1  0.837516  0.162830  0.078106  1
  Al  Al21  1  0.162484  0.837170  0.921894  1
  Al  Al22  1  0.562706  0.123746  0.246334  1
  Al  Al23  1  0.437294  0.876254  0.753666  1
  Al  Al24  1  0.879192  0.438780  0.250134  1
  Al  Al25  1  0.120808  0.561220  0.749866  1
  Al  Al26  1  0.563579  0.436681  0.255948  1
  Al  Al27  1  0.436421  0.563319  0.744052  1
  Al  Al28  1  0.998237  0.000119  0.250498  1
  Al  Al29  1  0.001763  0.999881  0.749502  1
  Zn  Zn30  1  0.500000  0.500000  0.000000  1
  Ru  Ru31  1  0.500000  0.000000  0.000000  1
  Ru  Ru32  1  0.000000  0.500000  0.000000  1
  Ru  Ru33  1  0.000000  0.500000  0.500000  1
  Ru  Ru34  1  0.500000  0.500000  0.500000  1
  Ru  Ru35  1  0.000000  0.000000  0.000000  1
  Ru  Ru36  1  0.000000  0.000000  0.500000  1
  Pt  Pt37  1  0.500000  0.000000  0.500000  1
