# generated using pymatgen
data_HoAlFe4
_symmetry_space_group_name_H-M   'P 1'
_cell_length_a   3.95271900
_cell_length_b   4.99173453
_cell_length_c   5.12309429
_cell_angle_alpha   119.14289312
_cell_angle_beta   90.00000000
_cell_angle_gamma   90.00000000
_symmetry_Int_Tables_number   1
_chemical_formula_structural   HoAlFe4
_chemical_formula_sum   'Ho1 Al1 Fe4'
_cell_volume   88.28702536
_cell_formula_units_Z   1
loop_
 _symmetry_equiv_pos_site_id
 _symmetry_equiv_pos_as_xyz
  1  'x, y, z'
loop_
 _atom_site_type_symbol
 _atom_site_label
 _atom_site_symmetry_multiplicity
 _atom_site_fract_x
 _atom_site_fract_y
 _atom_site_fract_z
 _atom_site_occupancy
  Ho  Ho0  1  0.000000  0.999985  0.000008  1
  Al  Al1  1  0.500000  0.499977  0.999979  1
  Fe  Fe2  1  0.000000  0.322833  0.645685  1
  Fe  Fe3  1  0.000000  0.677128  0.354318  1
  Fe  Fe4  1  0.500000  0.499972  0.500006  1
  Fe  Fe5  1  0.500000  0.000004  0.500004  1
