# generated using pymatgen
data_Pr16Mg3CdIr3Pt
_symmetry_space_group_name_H-M   'P 1'
_cell_length_a   10.08671284
_cell_length_b   10.09777424
_cell_length_c   10.09777534
_cell_angle_alpha   60.23450519
_cell_angle_beta   60.10843294
_cell_angle_gamma   60.10843283
_symmetry_Int_Tables_number   1
_chemical_formula_structural   Pr16Mg3CdIr3Pt
_chemical_formula_sum   'Pr16 Mg3 Cd1 Ir3 Pt1'
_cell_volume   729.72995863
_cell_formula_units_Z   1
loop_
 _symmetry_equiv_pos_site_id
 _symmetry_equiv_pos_as_xyz
  1  'x, y, z'
loop_
 _atom_site_type_symbol
 _atom_site_label
 _atom_site_symmetry_multiplicity
 _atom_site_fract_x
 _atom_site_fract_y
 _atom_site_fract_z
 _atom_site_occupancy
  Pr  Pr0  1  0.345753  0.345969  0.345969  1
  Pr  Pr1  1  0.350000  0.350427  0.955350  1
  Pr  Pr2  1  0.350000  0.955350  0.350427  1
  Pr  Pr3  1  0.956457  0.349924  0.349924  1
  Pr  Pr4  1  0.807103  0.188782  0.188782  1
  Pr  Pr5  1  0.188675  0.809710  0.809710  1
  Pr  Pr6  1  0.190030  0.805851  0.189957  1
  Pr  Pr7  1  0.811157  0.187272  0.810946  1
  Pr  Pr8  1  0.190030  0.189957  0.805851  1
  Pr  Pr9  1  0.811157  0.810946  0.187272  1
  Pr  Pr10  1  0.941533  0.562139  0.562139  1
  Pr  Pr11  1  0.562229  0.938385  0.938385  1
  Pr  Pr12  1  0.562481  0.939467  0.562455  1
  Pr  Pr13  1  0.940051  0.562213  0.937390  1
  Pr  Pr14  1  0.562481  0.562455  0.939467  1
  Pr  Pr15  1  0.940051  0.937390  0.562213  1
  Mg  Mg16  1  0.576951  0.579354  0.579354  1
  Mg  Mg17  1  0.576354  0.578681  0.265440  1
  Mg  Mg18  1  0.576354  0.265440  0.578681  1
  Cd  Cd19  1  0.259742  0.579993  0.579993  1
  Ir  Ir20  1  0.142057  0.141775  0.574481  1
  Ir  Ir21  1  0.142057  0.574481  0.141775  1
  Ir  Ir22  1  0.574435  0.141859  0.141859  1
  Pt  Pt23  1  0.142861  0.142180  0.142180  1
