# generated using pymatgen
data_CaSn3SbRh6
_symmetry_space_group_name_H-M   'P 1'
_cell_length_a   7.65470000
_cell_length_b   7.65469993
_cell_length_c   4.05297400
_cell_angle_alpha   90.00000000
_cell_angle_beta   90.00000000
_cell_angle_gamma   120.00000895
_symmetry_Int_Tables_number   1
_chemical_formula_structural   CaSn3SbRh6
_chemical_formula_sum   'Ca1 Sn3 Sb1 Rh6'
_cell_volume   205.66517320
_cell_formula_units_Z   1
loop_
 _symmetry_equiv_pos_site_id
 _symmetry_equiv_pos_as_xyz
  1  'x, y, z'
loop_
 _atom_site_type_symbol
 _atom_site_label
 _atom_site_symmetry_multiplicity
 _atom_site_fract_x
 _atom_site_fract_y
 _atom_site_fract_z
 _atom_site_occupancy
  Ca  Ca0  1  0.000000  0.000000  0.000000  1
  Sn  Sn1  1  0.805059  0.194941  0.500000  1
  Sn  Sn2  1  0.389881  0.194941  0.500000  1
  Sn  Sn3  1  0.805059  0.610119  0.500000  1
  Sb  Sb4  1  0.333333  0.666667  0.000000  1
  Rh  Rh5  1  0.202957  0.797043  0.500000  1
  Rh  Rh6  1  0.202957  0.405913  0.500000  1
  Rh  Rh7  1  0.531703  0.063407  0.000000  1
  Rh  Rh8  1  0.936593  0.468297  0.000000  1
  Rh  Rh9  1  0.531703  0.468297  0.000000  1
  Rh  Rh10  1  0.594087  0.797043  0.500000  1
