# generated using pymatgen
data_Li8Ho8Sn7Sb
_symmetry_space_group_name_H-M   'P 1'
_cell_length_a   9.36763700
_cell_length_b   9.36775049
_cell_length_c   7.23701327
_cell_angle_alpha   90.05823477
_cell_angle_beta   90.00000000
_cell_angle_gamma   119.99960277
_symmetry_Int_Tables_number   1
_chemical_formula_structural   Li8Ho8Sn7Sb
_chemical_formula_sum   'Li8 Ho8 Sn7 Sb1'
_cell_volume   549.99255136
_cell_formula_units_Z   1
loop_
 _symmetry_equiv_pos_site_id
 _symmetry_equiv_pos_as_xyz
  1  'x, y, z'
loop_
 _atom_site_type_symbol
 _atom_site_label
 _atom_site_symmetry_multiplicity
 _atom_site_fract_x
 _atom_site_fract_y
 _atom_site_fract_z
 _atom_site_occupancy
  Li  Li0  1  0.166784  0.333568  0.288313  1
  Li  Li1  1  0.167060  0.833241  0.288584  1
  Li  Li2  1  0.666180  0.833241  0.288584  1
  Li  Li3  1  0.833291  0.666581  0.788203  1
  Li  Li4  1  0.832369  0.166279  0.789202  1
  Li  Li5  1  0.333911  0.166279  0.789202  1
  Li  Li6  1  0.333692  0.667386  0.669964  1
  Li  Li7  1  0.666694  0.333388  0.170978  1
  Ho  Ho8  1  0.512279  0.024556  0.493839  1
  Ho  Ho9  1  0.514906  0.489756  0.491764  1
  Ho  Ho10  1  0.974850  0.489756  0.491764  1
  Ho  Ho11  1  0.487783  0.975568  0.994417  1
  Ho  Ho12  1  0.489978  0.512541  0.995094  1
  Ho  Ho13  1  0.022562  0.512541  0.995094  1
  Ho  Ho14  1  0.998889  0.997778  0.498434  1
  Ho  Ho15  1  0.999026  0.998052  0.001565  1
  Sn  Sn16  1  0.166363  0.832422  0.730181  1
  Sn  Sn17  1  0.666058  0.832422  0.730181  1
  Sn  Sn18  1  0.833466  0.666932  0.231278  1
  Sn  Sn19  1  0.833948  0.167459  0.230609  1
  Sn  Sn20  1  0.333512  0.167459  0.230609  1
  Sn  Sn21  1  0.332817  0.665635  0.260701  1
  Sn  Sn22  1  0.666874  0.333747  0.761240  1
  Sb  Sb23  1  0.166707  0.333415  0.732169  1
