# generated using pymatgen
data_Sm4GeI6
_symmetry_space_group_name_H-M   'P 1'
_cell_length_a   4.30531200
_cell_length_b   14.31942500
_cell_length_c   15.09205500
_cell_angle_alpha   90.00000000
_cell_angle_beta   90.00000000
_cell_angle_gamma   90.00000000
_symmetry_Int_Tables_number   1
_chemical_formula_structural   Sm4GeI6
_chemical_formula_sum   'Sm8 Ge2 I12'
_cell_volume   930.41903750
_cell_formula_units_Z   2
loop_
 _symmetry_equiv_pos_site_id
 _symmetry_equiv_pos_as_xyz
  1  'x, y, z'
loop_
 _atom_site_type_symbol
 _atom_site_label
 _atom_site_symmetry_multiplicity
 _atom_site_fract_x
 _atom_site_fract_y
 _atom_site_fract_z
 _atom_site_occupancy
  Sm  Sm0  1  0.500000  0.115400  0.345998  1
  Sm  Sm1  1  0.500000  0.884600  0.654002  1
  Sm  Sm2  1  0.500000  0.615400  0.154002  1
  Sm  Sm3  1  0.500000  0.384600  0.845998  1
  Sm  Sm4  1  0.000000  0.113161  0.575897  1
  Sm  Sm5  1  0.000000  0.886839  0.424103  1
  Sm  Sm6  1  0.000000  0.613161  0.924103  1
  Sm  Sm7  1  0.000000  0.386839  0.075897  1
  Ge  Ge8  1  0.500000  0.000000  0.500000  1
  Ge  Ge9  1  0.500000  0.500000  0.000000  1
  I  I10  1  0.500000  0.245374  0.161731  1
  I  I11  1  0.500000  0.754626  0.838269  1
  I  I12  1  0.500000  0.745374  0.338269  1
  I  I13  1  0.500000  0.254626  0.661731  1
  I  I14  1  0.000000  0.258140  0.414376  1
  I  I15  1  0.000000  0.741860  0.585624  1
  I  I16  1  0.000000  0.758140  0.085624  1
  I  I17  1  0.000000  0.241860  0.914376  1
  I  I18  1  0.000000  0.999298  0.240969  1
  I  I19  1  0.000000  0.000702  0.759031  1
  I  I20  1  0.000000  0.499298  0.259031  1
  I  I21  1  0.000000  0.500702  0.740969  1
