# generated using pymatgen
data_YTmTcB6
_symmetry_space_group_name_H-M   'P 1'
_cell_length_a   3.66221500
_cell_length_b   9.13043800
_cell_length_c   11.51993000
_cell_angle_alpha   90.00000000
_cell_angle_beta   90.00000000
_cell_angle_gamma   90.00000000
_symmetry_Int_Tables_number   1
_chemical_formula_structural   YTmTcB6
_chemical_formula_sum   'Y4 Tm4 Tc4 B24'
_cell_volume   385.19912241
_cell_formula_units_Z   4
loop_
 _symmetry_equiv_pos_site_id
 _symmetry_equiv_pos_as_xyz
  1  'x, y, z'
loop_
 _atom_site_type_symbol
 _atom_site_label
 _atom_site_symmetry_multiplicity
 _atom_site_fract_x
 _atom_site_fract_y
 _atom_site_fract_z
 _atom_site_occupancy
  Y  Y0  1  0.000000  0.323216  0.414372  1
  Y  Y1  1  0.000000  0.676784  0.585628  1
  Y  Y2  1  0.000000  0.823216  0.085628  1
  Y  Y3  1  0.000000  0.176784  0.914372  1
  Tm  Tm4  1  0.000000  0.943106  0.369765  1
  Tm  Tm5  1  0.000000  0.056894  0.630235  1
  Tm  Tm6  1  0.000000  0.443106  0.130235  1
  Tm  Tm7  1  0.000000  0.556894  0.869765  1
  Tc  Tc8  1  0.000000  0.639479  0.319726  1
  Tc  Tc9  1  0.000000  0.360521  0.680274  1
  Tc  Tc10  1  0.000000  0.139479  0.180274  1
  Tc  Tc11  1  0.000000  0.860521  0.819726  1
  B  B12  1  0.500000  0.553755  0.432592  1
  B  B13  1  0.500000  0.446245  0.567408  1
  B  B14  1  0.500000  0.053755  0.067408  1
  B  B15  1  0.500000  0.946245  0.932592  1
  B  B16  1  0.500000  0.749895  0.418175  1
  B  B17  1  0.500000  0.250105  0.581825  1
  B  B18  1  0.500000  0.249895  0.081825  1
  B  B19  1  0.500000  0.750105  0.918175  1
  B  B20  1  0.500000  0.792557  0.265387  1
  B  B21  1  0.500000  0.207443  0.734613  1
  B  B22  1  0.500000  0.292557  0.234613  1
  B  B23  1  0.500000  0.707443  0.765387  1
  B  B24  1  0.500000  0.630178  0.185168  1
  B  B25  1  0.500000  0.369822  0.814832  1
  B  B26  1  0.500000  0.130178  0.314832  1
  B  B27  1  0.500000  0.869822  0.685168  1
  B  B28  1  0.500000  0.981877  0.212406  1
  B  B29  1  0.500000  0.018123  0.787594  1
  B  B30  1  0.500000  0.481877  0.287594  1
  B  B31  1  0.500000  0.518123  0.712406  1
  B  B32  1  0.500000  0.598842  0.027481  1
  B  B33  1  0.500000  0.401158  0.972519  1
  B  B34  1  0.500000  0.098842  0.472519  1
  B  B35  1  0.500000  0.901158  0.527481  1
