# generated using pymatgen
data_TbLu(Co3Si2)2
_symmetry_space_group_name_H-M   'P 1'
_cell_length_a   6.22622094
_cell_length_b   6.22621949
_cell_length_c   6.22622126
_cell_angle_alpha   130.57446908
_cell_angle_beta   112.99868116
_cell_angle_gamma   87.64185840
_symmetry_Int_Tables_number   1
_chemical_formula_structural   TbLu(Co3Si2)2
_chemical_formula_sum   'Tb1 Lu1 Co6 Si4'
_cell_volume   160.73844699
_cell_formula_units_Z   1
loop_
 _symmetry_equiv_pos_site_id
 _symmetry_equiv_pos_as_xyz
  1  'x, y, z'
loop_
 _atom_site_type_symbol
 _atom_site_label
 _atom_site_symmetry_multiplicity
 _atom_site_fract_x
 _atom_site_fract_y
 _atom_site_fract_z
 _atom_site_occupancy
  Tb  Tb0  1  0.250000  0.530522  0.280522  1
  Lu  Lu1  1  0.750000  0.465625  0.715625  1
  Co  Co2  1  0.999618  0.001008  0.500626  1
  Co  Co3  1  0.500382  0.001008  0.001390  1
  Co  Co4  1  0.724227  0.002343  0.724199  1
  Co  Co5  1  0.221857  0.499972  0.724199  1
  Co  Co6  1  0.278143  0.002343  0.278116  1
  Co  Co7  1  0.775773  0.499972  0.278116  1
  Si  Si8  1  0.079624  0.873709  0.794085  1
  Si  Si9  1  0.918058  0.122576  0.204518  1
  Si  Si10  1  0.581942  0.786460  0.204518  1
  Si  Si11  1  0.420376  0.214462  0.794085  1
