# generated using pymatgen
data_Te(PdO3)2
_symmetry_space_group_name_H-M   'P 1'
_cell_length_a   4.73837100
_cell_length_b   4.73837100
_cell_length_c   9.62050600
_cell_angle_alpha   90.00000000
_cell_angle_beta   90.00000000
_cell_angle_gamma   90.00000000
_symmetry_Int_Tables_number   1
_chemical_formula_structural   Te(PdO3)2
_chemical_formula_sum   'Te2 Pd4 O12'
_cell_volume   216.00113743
_cell_formula_units_Z   2
loop_
 _symmetry_equiv_pos_site_id
 _symmetry_equiv_pos_as_xyz
  1  'x, y, z'
loop_
 _atom_site_type_symbol
 _atom_site_label
 _atom_site_symmetry_multiplicity
 _atom_site_fract_x
 _atom_site_fract_y
 _atom_site_fract_z
 _atom_site_occupancy
  Te  Te0  1  0.000000  0.000000  0.000000  1
  Te  Te1  1  0.499999  0.499999  0.500000  1
  Pd  Pd2  1  0.499999  0.499999  0.167948  1
  Pd  Pd3  1  0.000000  0.000000  0.332052  1
  Pd  Pd4  1  0.000000  0.000000  0.667948  1
  Pd  Pd5  1  0.499999  0.499999  0.832053  1
  O  O6  1  0.303294  0.303294  0.000000  1
  O  O7  1  0.696706  0.696706  0.000000  1
  O  O8  1  0.808378  0.191622  0.163515  1
  O  O9  1  0.191622  0.808378  0.163515  1
  O  O10  1  0.308379  0.308379  0.336484  1
  O  O11  1  0.691621  0.691621  0.336484  1
  O  O12  1  0.803295  0.196705  0.500000  1
  O  O13  1  0.196705  0.803295  0.500000  1
  O  O14  1  0.308379  0.308379  0.663515  1
  O  O15  1  0.691621  0.691621  0.663515  1
  O  O16  1  0.808378  0.191622  0.836484  1
  O  O17  1  0.191622  0.808378  0.836484  1
