# generated using pymatgen
data_Li2Ho3Lu3(ThCo)2
_symmetry_space_group_name_H-M   'P 1'
_cell_length_a   9.53336811
_cell_length_b   9.53336761
_cell_length_c   9.53336800
_cell_angle_alpha   59.99999864
_cell_angle_beta   60.00000039
_cell_angle_gamma   60.00000052
_symmetry_Int_Tables_number   1
_chemical_formula_structural   Li2Ho3Lu3(ThCo)2
_chemical_formula_sum   'Li4 Ho6 Lu6 Th4 Co4'
_cell_volume   612.66639658
_cell_formula_units_Z   2
loop_
 _symmetry_equiv_pos_site_id
 _symmetry_equiv_pos_as_xyz
  1  'x, y, z'
loop_
 _atom_site_type_symbol
 _atom_site_label
 _atom_site_symmetry_multiplicity
 _atom_site_fract_x
 _atom_site_fract_y
 _atom_site_fract_z
 _atom_site_occupancy
  Li  Li0  1  0.579572  0.579572  0.579572  1
  Li  Li1  1  0.579572  0.579572  0.261282  1
  Li  Li2  1  0.579572  0.261282  0.579572  1
  Li  Li3  1  0.261282  0.579572  0.579572  1
  Ho  Ho4  1  0.935777  0.564223  0.564223  1
  Ho  Ho5  1  0.564223  0.935777  0.935777  1
  Ho  Ho6  1  0.564223  0.935777  0.564223  1
  Ho  Ho7  1  0.935777  0.564223  0.935777  1
  Ho  Ho8  1  0.564223  0.564223  0.935777  1
  Ho  Ho9  1  0.935777  0.935777  0.564223  1
  Lu  Lu10  1  0.815973  0.184027  0.184027  1
  Lu  Lu11  1  0.184027  0.815973  0.815973  1
  Lu  Lu12  1  0.184027  0.815973  0.184027  1
  Lu  Lu13  1  0.815973  0.184027  0.815973  1
  Lu  Lu14  1  0.184027  0.184027  0.815973  1
  Lu  Lu15  1  0.815973  0.815973  0.184027  1
  Th  Th16  1  0.345477  0.345477  0.345477  1
  Th  Th17  1  0.345477  0.345477  0.963571  1
  Th  Th18  1  0.345477  0.963571  0.345477  1
  Th  Th19  1  0.963571  0.345477  0.345477  1
  Co  Co20  1  0.144158  0.144158  0.144158  1
  Co  Co21  1  0.144158  0.144158  0.567525  1
  Co  Co22  1  0.144158  0.567525  0.144158  1
  Co  Co23  1  0.567525  0.144158  0.144158  1
