# generated using pymatgen
data_HfMg2(NbN2)3
_symmetry_space_group_name_H-M   'P 1'
_cell_length_a   5.31179500
_cell_length_b   5.31179490
_cell_length_c   10.57334300
_cell_angle_alpha   90.00000000
_cell_angle_beta   90.00000000
_cell_angle_gamma   120.00000688
_symmetry_Int_Tables_number   1
_chemical_formula_structural   HfMg2(NbN2)3
_chemical_formula_sum   'Hf2 Mg4 Nb6 N12'
_cell_volume   258.36014856
_cell_formula_units_Z   2
loop_
 _symmetry_equiv_pos_site_id
 _symmetry_equiv_pos_as_xyz
  1  'x, y, z'
loop_
 _atom_site_type_symbol
 _atom_site_label
 _atom_site_symmetry_multiplicity
 _atom_site_fract_x
 _atom_site_fract_y
 _atom_site_fract_z
 _atom_site_occupancy
  Hf  Hf0  1  0.000000  0.000000  0.500000  1
  Hf  Hf1  1  0.000000  0.000000  0.000000  1
  Mg  Mg2  1  0.333333  0.666667  0.000000  1
  Mg  Mg3  1  0.333333  0.666667  0.500000  1
  Mg  Mg4  1  0.666667  0.333333  0.500000  1
  Mg  Mg5  1  0.666667  0.333333  0.000000  1
  Nb  Nb6  1  0.000000  0.339546  0.250000  1
  Nb  Nb7  1  0.660454  0.000000  0.750000  1
  Nb  Nb8  1  0.339546  0.339546  0.750000  1
  Nb  Nb9  1  0.660454  0.660454  0.250000  1
  Nb  Nb10  1  0.339546  0.000000  0.250000  1
  Nb  Nb11  1  0.000000  0.660454  0.750000  1
  N  N12  1  0.667888  0.667888  0.623328  1
  N  N13  1  0.667888  0.667888  0.876672  1
  N  N14  1  0.332112  0.332112  0.123328  1
  N  N15  1  0.332112  0.332112  0.376672  1
  N  N16  1  0.332112  0.000000  0.876672  1
  N  N17  1  0.332112  0.000000  0.623328  1
  N  N18  1  0.000000  0.667888  0.376672  1
  N  N19  1  0.000000  0.667888  0.123328  1
  N  N20  1  0.667888  0.000000  0.123328  1
  N  N21  1  0.667888  0.000000  0.376672  1
  N  N22  1  0.000000  0.332112  0.876672  1
  N  N23  1  0.000000  0.332112  0.623328  1
