# generated using pymatgen
data_Rb2CrCuSe4
_symmetry_space_group_name_H-M   'P 1'
_cell_length_a   14.28768035
_cell_length_b   12.73195095
_cell_length_c   7.62661070
_cell_angle_alpha   85.23568303
_cell_angle_beta   62.62734537
_cell_angle_gamma   32.13695597
_symmetry_Int_Tables_number   1
_chemical_formula_structural   Rb2CrCuSe4
_chemical_formula_sum   'Rb4 Cr2 Cu2 Se8'
_cell_volume   498.95884169
_cell_formula_units_Z   2
loop_
 _symmetry_equiv_pos_site_id
 _symmetry_equiv_pos_as_xyz
  1  'x, y, z'
loop_
 _atom_site_type_symbol
 _atom_site_label
 _atom_site_symmetry_multiplicity
 _atom_site_fract_x
 _atom_site_fract_y
 _atom_site_fract_z
 _atom_site_occupancy
  Rb  Rb0  1  0.572360  0.572360  0.927640  1
  Rb  Rb1  1  0.927640  0.927640  0.572360  1
  Rb  Rb2  1  0.322360  0.322360  0.677640  1
  Rb  Rb3  1  0.677640  0.677640  0.322360  1
  Cr  Cr4  1  0.750000  0.750000  0.750000  1
  Cr  Cr5  1  0.500000  0.500000  0.500000  1
  Cu  Cu6  1  0.000000  0.000000  0.000000  1
  Cu  Cu7  1  0.250000  0.250000  0.250000  1
  Se  Se8  1  0.226395  0.879946  0.584962  1
  Se  Se9  1  0.308696  0.584962  0.879946  1
  Se  Se10  1  0.584962  0.308696  0.226395  1
  Se  Se11  1  0.879946  0.226395  0.308696  1
  Se  Se12  1  0.370054  0.023605  0.941304  1
  Se  Se13  1  0.941304  0.665038  0.370054  1
  Se  Se14  1  0.665038  0.941304  0.023605  1
  Se  Se15  1  0.023605  0.370054  0.665038  1
