# generated using pymatgen
data_LiHoHfS4
_symmetry_space_group_name_H-M   'P 1'
_cell_length_a   7.71428836
_cell_length_b   7.71428676
_cell_length_c   7.71428800
_cell_angle_alpha   118.36020072
_cell_angle_beta   121.81953412
_cell_angle_gamma   89.87059786
_symmetry_Int_Tables_number   1
_chemical_formula_structural   LiHoHfS4
_chemical_formula_sum   'Li2 Ho2 Hf2 S8'
_cell_volume   323.80566223
_cell_formula_units_Z   2
loop_
 _symmetry_equiv_pos_site_id
 _symmetry_equiv_pos_as_xyz
  1  'x, y, z'
loop_
 _atom_site_type_symbol
 _atom_site_label
 _atom_site_symmetry_multiplicity
 _atom_site_fract_x
 _atom_site_fract_y
 _atom_site_fract_z
 _atom_site_occupancy
  Li  Li0  1  0.376053  0.626053  0.750000  1
  Li  Li1  1  0.623947  0.373947  0.250000  1
  Ho  Ho2  1  0.000000  0.000000  0.500000  1
  Ho  Ho3  1  0.000000  0.500000  0.000000  1
  Hf  Hf4  1  0.000000  0.000000  0.000000  1
  Hf  Hf5  1  0.500000  0.000000  0.500000  1
  S  S6  1  0.250138  0.775809  0.025672  1
  S  S7  1  0.749862  0.775534  0.525672  1
  S  S8  1  0.229989  0.233083  0.996906  1
  S  S9  1  0.736175  0.233083  0.503094  1
  S  S10  1  0.770011  0.766917  0.003094  1
  S  S11  1  0.263825  0.766917  0.496906  1
  S  S12  1  0.749862  0.224191  0.974328  1
  S  S13  1  0.250138  0.224466  0.474328  1
