# generated using pymatgen
data_PrThFe3Re14C3
_symmetry_space_group_name_H-M   'P 1'
_cell_length_a   6.95781487
_cell_length_b   6.95781515
_cell_length_c   6.95781553
_cell_angle_alpha   82.81436218
_cell_angle_beta   82.81436171
_cell_angle_gamma   82.81434690
_symmetry_Int_Tables_number   1
_chemical_formula_structural   PrThFe3Re14C3
_chemical_formula_sum   'Pr1 Th1 Fe3 Re14 C3'
_cell_volume   329.51039514
_cell_formula_units_Z   1
loop_
 _symmetry_equiv_pos_site_id
 _symmetry_equiv_pos_as_xyz
  1  'x, y, z'
loop_
 _atom_site_type_symbol
 _atom_site_label
 _atom_site_symmetry_multiplicity
 _atom_site_fract_x
 _atom_site_fract_y
 _atom_site_fract_z
 _atom_site_occupancy
  Pr  Pr0  1  0.649758  0.649758  0.649758  1
  Th  Th1  1  0.351484  0.351484  0.351484  1
  Fe  Fe2  1  0.998850  0.998850  0.500370  1
  Fe  Fe3  1  0.500370  0.998850  0.998850  1
  Fe  Fe4  1  0.998850  0.500370  0.998850  1
  Re  Re5  1  0.722542  0.276828  0.999865  1
  Re  Re6  1  0.999865  0.722542  0.276828  1
  Re  Re7  1  0.276828  0.999865  0.722542  1
  Re  Re8  1  0.999865  0.276828  0.722542  1
  Re  Re9  1  0.722542  0.999865  0.276828  1
  Re  Re10  1  0.276828  0.722542  0.999865  1
  Re  Re11  1  0.344668  0.344668  0.864696  1
  Re  Re12  1  0.864696  0.344668  0.344668  1
  Re  Re13  1  0.344668  0.864696  0.344668  1
  Re  Re14  1  0.654373  0.654373  0.138219  1
  Re  Re15  1  0.138219  0.654373  0.654373  1
  Re  Re16  1  0.654373  0.138219  0.654373  1
  Re  Re17  1  0.898846  0.898846  0.898846  1
  Re  Re18  1  0.101868  0.101868  0.101868  1
  C  C19  1  0.500194  0.500194  0.000121  1
  C  C20  1  0.000121  0.500194  0.500194  1
  C  C21  1  0.500194  0.000121  0.500194  1
