# generated using pymatgen
data_BaSrDy2(Si4N7)2
_symmetry_space_group_name_H-M   'P 1'
_cell_length_a   6.08288500
_cell_length_b   6.08288517
_cell_length_c   9.89968700
_cell_angle_alpha   90.00000000
_cell_angle_beta   90.00000000
_cell_angle_gamma   119.99998276
_symmetry_Int_Tables_number   1
_chemical_formula_structural   BaSrDy2(Si4N7)2
_chemical_formula_sum   'Ba1 Sr1 Dy2 Si8 N14'
_cell_volume   317.22791358
_cell_formula_units_Z   1
loop_
 _symmetry_equiv_pos_site_id
 _symmetry_equiv_pos_as_xyz
  1  'x, y, z'
loop_
 _atom_site_type_symbol
 _atom_site_label
 _atom_site_symmetry_multiplicity
 _atom_site_fract_x
 _atom_site_fract_y
 _atom_site_fract_z
 _atom_site_occupancy
  Ba  Ba0  1  0.666667  0.333333  0.863427  1
  Sr  Sr1  1  0.333333  0.666667  0.365342  1
  Dy  Dy2  1  0.333333  0.666667  0.735196  1
  Dy  Dy3  1  0.666667  0.333333  0.237181  1
  Si  Si4  1  0.826141  0.652279  0.544958  1
  Si  Si5  1  0.174316  0.825684  0.047416  1
  Si  Si6  1  0.651367  0.825684  0.047416  1
  Si  Si7  1  0.347721  0.173859  0.544958  1
  Si  Si8  1  0.826141  0.173859  0.544958  1
  Si  Si9  1  0.174316  0.348633  0.047416  1
  Si  Si10  1  0.000000  0.000000  0.815265  1
  Si  Si11  1  0.000000  0.000000  0.313519  1
  N  N12  1  0.000000  0.000000  0.623547  1
  N  N13  1  0.000000  0.000000  0.123655  1
  N  N14  1  0.153094  0.306189  0.874545  1
  N  N15  1  0.847437  0.152563  0.372921  1
  N  N16  1  0.305128  0.152563  0.372921  1
  N  N17  1  0.693811  0.846906  0.874545  1
  N  N18  1  0.153094  0.846906  0.874545  1
  N  N19  1  0.847437  0.694872  0.372921  1
  N  N20  1  0.977396  0.488698  0.596113  1
  N  N21  1  0.487257  0.974514  0.100936  1
  N  N22  1  0.487257  0.512743  0.100936  1
  N  N23  1  0.511302  0.488698  0.596113  1
  N  N24  1  0.025486  0.512743  0.100936  1
  N  N25  1  0.511302  0.022604  0.596113  1
