# generated using pymatgen
data_DyPa3(TaN2)4
_symmetry_space_group_name_H-M   'P 1'
_cell_length_a   3.30386000
_cell_length_b   5.70522197
_cell_length_c   10.96769574
_cell_angle_alpha   90.10094833
_cell_angle_beta   90.00000000
_cell_angle_gamma   90.00000000
_symmetry_Int_Tables_number   1
_chemical_formula_structural   DyPa3(TaN2)4
_chemical_formula_sum   'Dy1 Pa3 Ta4 N8'
_cell_volume   206.73256935
_cell_formula_units_Z   1
loop_
 _symmetry_equiv_pos_site_id
 _symmetry_equiv_pos_as_xyz
  1  'x, y, z'
loop_
 _atom_site_type_symbol
 _atom_site_label
 _atom_site_symmetry_multiplicity
 _atom_site_fract_x
 _atom_site_fract_y
 _atom_site_fract_z
 _atom_site_occupancy
  Dy  Dy0  1  0.250000  0.578497  0.855191  1
  Pa  Pa1  1  0.750000  0.424264  0.138746  1
  Pa  Pa2  1  0.750000  0.922000  0.357089  1
  Pa  Pa3  1  0.250000  0.079515  0.645730  1
  Ta  Ta4  1  0.250000  0.921955  0.099393  1
  Ta  Ta5  1  0.750000  0.072069  0.902456  1
  Ta  Ta6  1  0.750000  0.577152  0.601657  1
  Ta  Ta7  1  0.250000  0.424256  0.399796  1
  N  N8  1  0.250000  0.661569  0.246535  1
  N  N9  1  0.750000  0.333509  0.752118  1
  N  N10  1  0.750000  0.842604  0.745093  1
  N  N11  1  0.250000  0.160317  0.254367  1
  N  N12  1  0.250000  0.758785  0.506884  1
  N  N13  1  0.750000  0.243165  0.494950  1
  N  N14  1  0.750000  0.739710  0.004390  1
  N  N15  1  0.250000  0.260632  0.995606  1
