# generated using pymatgen
data_Ba3LaInO6
_symmetry_space_group_name_H-M   'P 1'
_cell_length_a   7.40560182
_cell_length_b   7.40560164
_cell_length_c   7.40560192
_cell_angle_alpha   92.16715113
_cell_angle_beta   92.16715326
_cell_angle_gamma   92.16715510
_symmetry_Int_Tables_number   1
_chemical_formula_structural   Ba3LaInO6
_chemical_formula_sum   'Ba6 La2 In2 O12'
_cell_volume   405.25085078
_cell_formula_units_Z   2
loop_
 _symmetry_equiv_pos_site_id
 _symmetry_equiv_pos_as_xyz
  1  'x, y, z'
loop_
 _atom_site_type_symbol
 _atom_site_label
 _atom_site_symmetry_multiplicity
 _atom_site_fract_x
 _atom_site_fract_y
 _atom_site_fract_z
 _atom_site_occupancy
  Ba  Ba0  1  0.250000  0.885803  0.614197  1
  Ba  Ba1  1  0.885803  0.614197  0.250000  1
  Ba  Ba2  1  0.750000  0.114197  0.385803  1
  Ba  Ba3  1  0.385803  0.750000  0.114197  1
  Ba  Ba4  1  0.114197  0.385803  0.750000  1
  Ba  Ba5  1  0.614197  0.250000  0.885803  1
  La  La6  1  0.750000  0.750000  0.750000  1
  La  La7  1  0.250000  0.250000  0.250000  1
  In  In8  1  0.500000  0.500000  0.500000  1
  In  In9  1  0.000000  0.000000  0.000000  1
  O  O10  1  0.591931  0.788717  0.458185  1
  O  O11  1  0.458185  0.591931  0.788717  1
  O  O12  1  0.788717  0.458185  0.591931  1
  O  O13  1  0.908069  0.041815  0.711283  1
  O  O14  1  0.711283  0.908069  0.041815  1
  O  O15  1  0.041815  0.711283  0.908069  1
  O  O16  1  0.408069  0.211283  0.541815  1
  O  O17  1  0.541815  0.408069  0.211283  1
  O  O18  1  0.211283  0.541815  0.408069  1
  O  O19  1  0.091931  0.958185  0.288717  1
  O  O20  1  0.958185  0.288717  0.091931  1
  O  O21  1  0.288717  0.091931  0.958185  1
