# generated using pymatgen
data_Pr8Er12Ga15I
_symmetry_space_group_name_H-M   'P 1'
_cell_length_a   7.62018613
_cell_length_b   7.99795388
_cell_length_c   15.35679200
_cell_angle_alpha   90.07350066
_cell_angle_beta   90.12498756
_cell_angle_gamma   90.03255668
_symmetry_Int_Tables_number   1
_chemical_formula_structural   Pr8Er12Ga15I
_chemical_formula_sum   'Pr8 Er12 Ga15 I1'
_cell_volume   935.93031803
_cell_formula_units_Z   1
loop_
 _symmetry_equiv_pos_site_id
 _symmetry_equiv_pos_as_xyz
  1  'x, y, z'
loop_
 _atom_site_type_symbol
 _atom_site_label
 _atom_site_symmetry_multiplicity
 _atom_site_fract_x
 _atom_site_fract_y
 _atom_site_fract_z
 _atom_site_occupancy
  Pr  Pr0  1  0.481186  0.307040  0.901155  1
  Pr  Pr1  1  0.987382  0.180215  0.593263  1
  Pr  Pr2  1  0.511239  0.676909  0.406299  1
  Pr  Pr3  1  0.011204  0.828901  0.095310  1
  Pr  Pr4  1  0.493505  0.682933  0.098744  1
  Pr  Pr5  1  0.010574  0.822404  0.407437  1
  Pr  Pr6  1  0.486238  0.321109  0.594833  1
  Pr  Pr7  1  0.993702  0.175515  0.899304  1
  Er  Er8  1  0.336935  0.833012  0.874748  1
  Er  Er9  1  0.831805  0.675044  0.622697  1
  Er  Er10  1  0.669659  0.174500  0.376565  1
  Er  Er11  1  0.179976  0.321768  0.123821  1
  Er  Er12  1  0.656587  0.157907  0.128935  1
  Er  Er13  1  0.169906  0.326326  0.377158  1
  Er  Er14  1  0.328817  0.825650  0.622585  1
  Er  Er15  1  0.838042  0.685453  0.871836  1
  Er  Er16  1  0.169471  0.491043  0.748562  1
  Er  Er17  1  0.671160  0.011564  0.747396  1
  Er  Er18  1  0.832192  0.510536  0.261437  1
  Er  Er19  1  0.325956  0.989240  0.254080  1
  Ga  Ga20  1  0.340754  0.033822  0.040330  1
  Ga  Ga21  1  0.843243  0.466031  0.460726  1
  Ga  Ga22  1  0.655897  0.965689  0.539988  1
  Ga  Ga23  1  0.192962  0.542418  0.955128  1
  Ga  Ga24  1  0.664158  0.965940  0.962259  1
  Ga  Ga25  1  0.156826  0.532594  0.540467  1
  Ga  Ga26  1  0.343410  0.032750  0.459866  1
  Ga  Ga27  1  0.536716  0.613498  0.750282  1
  Ga  Ga28  1  0.038021  0.888129  0.748397  1
  Ga  Ga29  1  0.464771  0.387180  0.250752  1
  Ga  Ga30  1  0.961859  0.118009  0.246056  1
  Ga  Ga31  1  0.280124  0.122538  0.747966  1
  Ga  Ga32  1  0.782923  0.380911  0.754438  1
  Ga  Ga33  1  0.718269  0.872880  0.250132  1
  Ga  Ga34  1  0.211744  0.621730  0.247189  1
  I  I35  1  0.822786  0.458812  0.039860  1
