# generated using pymatgen
data_TbNd3Tl5
_symmetry_space_group_name_H-M   'P 1'
_cell_length_a   8.68828976
_cell_length_b   8.68828977
_cell_length_c   8.68829035
_cell_angle_alpha   66.36373437
_cell_angle_beta   66.36373506
_cell_angle_gamma   66.36371077
_symmetry_Int_Tables_number   1
_chemical_formula_structural   TbNd3Tl5
_chemical_formula_sum   'Tb2 Nd6 Tl10'
_cell_volume   527.40161209
_cell_formula_units_Z   2
loop_
 _symmetry_equiv_pos_site_id
 _symmetry_equiv_pos_as_xyz
  1  'x, y, z'
loop_
 _atom_site_type_symbol
 _atom_site_label
 _atom_site_symmetry_multiplicity
 _atom_site_fract_x
 _atom_site_fract_y
 _atom_site_fract_z
 _atom_site_occupancy
  Tb  Tb0  1  0.657728  0.657728  0.657728  1
  Tb  Tb1  1  0.342272  0.342272  0.342272  1
  Nd  Nd2  1  0.889436  0.187635  0.620452  1
  Nd  Nd3  1  0.620452  0.889436  0.187635  1
  Nd  Nd4  1  0.187635  0.620452  0.889436  1
  Nd  Nd5  1  0.110564  0.812365  0.379548  1
  Nd  Nd6  1  0.379548  0.110564  0.812365  1
  Nd  Nd7  1  0.812365  0.379548  0.110564  1
  Tl  Tl8  1  0.000000  0.000000  0.000000  1
  Tl  Tl9  1  0.500000  0.500000  0.500000  1
  Tl  Tl10  1  0.813689  0.813689  0.813689  1
  Tl  Tl11  1  0.186311  0.186311  0.186311  1
  Tl  Tl12  1  0.948616  0.569584  0.298862  1
  Tl  Tl13  1  0.298862  0.948616  0.569584  1
  Tl  Tl14  1  0.569584  0.298862  0.948616  1
  Tl  Tl15  1  0.051384  0.430416  0.701138  1
  Tl  Tl16  1  0.701138  0.051384  0.430416  1
  Tl  Tl17  1  0.430416  0.701138  0.051384  1
