# generated using pymatgen
data_Ba3Cu17SnP6
_symmetry_space_group_name_H-M   'P 1'
_cell_length_a   9.09426925
_cell_length_b   9.09426823
_cell_length_c   10.54930095
_cell_angle_alpha   59.34557614
_cell_angle_beta   59.34558125
_cell_angle_gamma   37.64197080
_symmetry_Int_Tables_number   1
_chemical_formula_structural   Ba3Cu17SnP6
_chemical_formula_sum   'Ba3 Cu17 Sn1 P6'
_cell_volume   448.93866238
_cell_formula_units_Z   1
loop_
 _symmetry_equiv_pos_site_id
 _symmetry_equiv_pos_as_xyz
  1  'x, y, z'
loop_
 _atom_site_type_symbol
 _atom_site_label
 _atom_site_symmetry_multiplicity
 _atom_site_fract_x
 _atom_site_fract_y
 _atom_site_fract_z
 _atom_site_occupancy
  Ba  Ba0  1  0.500000  0.500000  0.000000  1
  Ba  Ba1  1  0.836666  0.836666  0.992056  1
  Ba  Ba2  1  0.163334  0.163334  0.007944  1
  Cu  Cu3  1  0.439757  0.943759  0.676647  1
  Cu  Cu4  1  0.759259  0.299906  0.679221  1
  Cu  Cu5  1  0.120753  0.580949  0.681200  1
  Cu  Cu6  1  0.943759  0.439757  0.676647  1
  Cu  Cu7  1  0.299906  0.759259  0.679221  1
  Cu  Cu8  1  0.580949  0.120753  0.681200  1
  Cu  Cu9  1  0.560243  0.056241  0.323353  1
  Cu  Cu10  1  0.879247  0.419051  0.318800  1
  Cu  Cu11  1  0.240741  0.700094  0.320779  1
  Cu  Cu12  1  0.056241  0.560243  0.323353  1
  Cu  Cu13  1  0.419051  0.879247  0.318800  1
  Cu  Cu14  1  0.700094  0.240741  0.320779  1
  Cu  Cu15  1  0.167651  0.167651  0.498876  1
  Cu  Cu16  1  0.500000  0.500000  0.500000  1
  Cu  Cu17  1  0.832349  0.832349  0.501124  1
  Cu  Cu18  1  0.671022  0.671022  0.500533  1
  Cu  Cu19  1  0.328978  0.328978  0.499467  1
  Sn  Sn20  1  0.000000  0.000000  0.500000  1
  P  P21  1  0.068904  0.068904  0.793946  1
  P  P22  1  0.399314  0.399314  0.803778  1
  P  P23  1  0.735403  0.735403  0.794671  1
  P  P24  1  0.264597  0.264597  0.205329  1
  P  P25  1  0.600686  0.600686  0.196222  1
  P  P26  1  0.931096  0.931096  0.206054  1
