# generated using pymatgen
data_Tb5DySi10
_symmetry_space_group_name_H-M   'P 1'
_cell_length_a   6.64717700
_cell_length_b   6.66437541
_cell_length_c   8.32514500
_cell_angle_alpha   89.95535410
_cell_angle_beta   90.00000000
_cell_angle_gamma   119.91467446
_symmetry_Int_Tables_number   1
_chemical_formula_structural   Tb5DySi10
_chemical_formula_sum   'Tb5 Dy1 Si10'
_cell_volume   319.66252250
_cell_formula_units_Z   1
loop_
 _symmetry_equiv_pos_site_id
 _symmetry_equiv_pos_as_xyz
  1  'x, y, z'
loop_
 _atom_site_type_symbol
 _atom_site_label
 _atom_site_symmetry_multiplicity
 _atom_site_fract_x
 _atom_site_fract_y
 _atom_site_fract_z
 _atom_site_occupancy
  Tb  Tb0  1  0.330473  0.000000  0.500000  1
  Tb  Tb1  1  0.668819  0.669164  0.499805  1
  Tb  Tb2  1  0.999655  0.330836  0.500195  1
  Tb  Tb3  1  0.000033  0.331032  0.999741  1
  Tb  Tb4  1  0.669000  0.668968  0.000259  1
  Dy  Dy5  1  0.330653  0.000000  0.000000  1
  Si  Si6  1  0.000161  0.000351  0.750783  1
  Si  Si7  1  0.667923  0.050234  0.750744  1
  Si  Si8  1  0.382057  0.330727  0.750907  1
  Si  Si9  1  0.950426  0.619820  0.750092  1
  Si  Si10  1  0.333873  0.666383  0.750681  1
  Si  Si11  1  0.999811  0.999649  0.249217  1
  Si  Si12  1  0.667491  0.333617  0.249319  1
  Si  Si13  1  0.330606  0.380180  0.249908  1
  Si  Si14  1  0.051330  0.669273  0.249093  1
  Si  Si15  1  0.617689  0.949766  0.249256  1
