# generated using pymatgen
data_Pa8Be3Si12B
_symmetry_space_group_name_H-M   'P 1'
_cell_length_a   7.79224700
_cell_length_b   7.79224738
_cell_length_c   8.11506500
_cell_angle_alpha   90.00000000
_cell_angle_beta   90.00000000
_cell_angle_gamma   120.00000265
_symmetry_Int_Tables_number   1
_chemical_formula_structural   Pa8Be3Si12B
_chemical_formula_sum   'Pa8 Be3 Si12 B1'
_cell_volume   426.72497802
_cell_formula_units_Z   1
loop_
 _symmetry_equiv_pos_site_id
 _symmetry_equiv_pos_as_xyz
  1  'x, y, z'
loop_
 _atom_site_type_symbol
 _atom_site_label
 _atom_site_symmetry_multiplicity
 _atom_site_fract_x
 _atom_site_fract_y
 _atom_site_fract_z
 _atom_site_occupancy
  Pa  Pa0  1  0.000000  0.000000  0.251706  1
  Pa  Pa1  1  0.000000  0.000000  0.748211  1
  Pa  Pa2  1  0.997055  0.498526  0.252779  1
  Pa  Pa3  1  0.501474  0.498526  0.252779  1
  Pa  Pa4  1  0.501790  0.003584  0.747178  1
  Pa  Pa5  1  0.501474  0.002945  0.252779  1
  Pa  Pa6  1  0.501790  0.498210  0.747178  1
  Pa  Pa7  1  0.996416  0.498210  0.747178  1
  Be  Be8  1  0.333333  0.666667  0.999228  1
  Be  Be9  1  0.333333  0.666667  0.500126  1
  Be  Be10  1  0.666667  0.333333  0.001296  1
  Si  Si11  1  0.173287  0.346574  0.999961  1
  Si  Si12  1  0.653426  0.826713  0.999961  1
  Si  Si13  1  0.171514  0.343028  0.500229  1
  Si  Si14  1  0.347718  0.173860  0.999986  1
  Si  Si15  1  0.173287  0.826713  0.999961  1
  Si  Si16  1  0.656972  0.828486  0.500229  1
  Si  Si17  1  0.826140  0.652282  0.999986  1
  Si  Si18  1  0.359765  0.179882  0.499680  1
  Si  Si19  1  0.171514  0.828486  0.500229  1
  Si  Si20  1  0.820118  0.640235  0.499680  1
  Si  Si21  1  0.826140  0.173860  0.999986  1
  Si  Si22  1  0.820118  0.179882  0.499680  1
  B  B23  1  0.666667  0.333333  0.499995  1
