# generated using pymatgen
data_TmPa5(AlPt)6
_symmetry_space_group_name_H-M   'P 1'
_cell_length_a   7.04516654
_cell_length_b   7.04256872
_cell_length_c   8.34892700
_cell_angle_alpha   90.00000000
_cell_angle_beta   90.00000000
_cell_angle_gamma   120.18947685
_symmetry_Int_Tables_number   1
_chemical_formula_structural   TmPa5(AlPt)6
_chemical_formula_sum   'Tm1 Pa5 Al6 Pt6'
_cell_volume   358.05627252
_cell_formula_units_Z   1
loop_
 _symmetry_equiv_pos_site_id
 _symmetry_equiv_pos_as_xyz
  1  'x, y, z'
loop_
 _atom_site_type_symbol
 _atom_site_label
 _atom_site_symmetry_multiplicity
 _atom_site_fract_x
 _atom_site_fract_y
 _atom_site_fract_z
 _atom_site_occupancy
  Tm  Tm0  1  0.412947  0.413128  0.250000  1
  Pa  Pa1  1  0.998631  0.579628  0.750000  1
  Pa  Pa2  1  0.000913  0.576864  0.250000  1
  Pa  Pa3  1  0.577761  0.001864  0.250000  1
  Pa  Pa4  1  0.580047  0.997988  0.750000  1
  Pa  Pa5  1  0.428179  0.428978  0.750000  1
  Al  Al6  1  0.003163  0.238813  0.498867  1
  Al  Al7  1  0.758082  0.758313  0.003758  1
  Al  Al8  1  0.003163  0.238813  0.001133  1
  Al  Al9  1  0.239762  0.003686  0.498807  1
  Al  Al10  1  0.239762  0.003686  0.001193  1
  Al  Al11  1  0.758082  0.758313  0.496242  1
  Pt  Pt12  1  0.331091  0.670888  0.499893  1
  Pt  Pt13  1  0.670826  0.331877  0.500530  1
  Pt  Pt14  1  0.670826  0.331877  0.999470  1
  Pt  Pt15  1  0.993520  0.992964  0.250000  1
  Pt  Pt16  1  0.002157  0.001432  0.750000  1
  Pt  Pt17  1  0.331091  0.670888  0.000107  1
