# generated using pymatgen
data_Ta20Ir9Os
_symmetry_space_group_name_H-M   'P 1'
_cell_length_a   9.90894200
_cell_length_b   9.90894113
_cell_length_c   5.13182200
_cell_angle_alpha   90.00000000
_cell_angle_beta   90.00000000
_cell_angle_gamma   90.20773286
_symmetry_Int_Tables_number   1
_chemical_formula_structural   Ta20Ir9Os
_chemical_formula_sum   'Ta20 Ir9 Os1'
_cell_volume   503.87552569
_cell_formula_units_Z   1
loop_
 _symmetry_equiv_pos_site_id
 _symmetry_equiv_pos_as_xyz
  1  'x, y, z'
loop_
 _atom_site_type_symbol
 _atom_site_label
 _atom_site_symmetry_multiplicity
 _atom_site_fract_x
 _atom_site_fract_y
 _atom_site_fract_z
 _atom_site_occupancy
  Ta  Ta0  1  0.396646  0.396646  0.000000  1
  Ta  Ta1  1  0.895923  0.104077  0.500000  1
  Ta  Ta2  1  0.104077  0.895923  0.500000  1
  Ta  Ta3  1  0.603354  0.603354  0.000000  1
  Ta  Ta4  1  0.129801  0.462808  0.000000  1
  Ta  Ta5  1  0.963170  0.370507  0.500000  1
  Ta  Ta6  1  0.036830  0.629493  0.500000  1
  Ta  Ta7  1  0.870199  0.537192  0.000000  1
  Ta  Ta8  1  0.370507  0.963170  0.500000  1
  Ta  Ta9  1  0.629493  0.036830  0.500000  1
  Ta  Ta10  1  0.462808  0.129801  0.000000  1
  Ta  Ta11  1  0.537192  0.870199  0.000000  1
  Ta  Ta12  1  0.179462  0.179462  0.251038  1
  Ta  Ta13  1  0.679268  0.320732  0.750555  1
  Ta  Ta14  1  0.320732  0.679268  0.750555  1
  Ta  Ta15  1  0.820538  0.820538  0.251038  1
  Ta  Ta16  1  0.320732  0.679268  0.249445  1
  Ta  Ta17  1  0.679268  0.320732  0.249445  1
  Ta  Ta18  1  0.179462  0.179462  0.748962  1
  Ta  Ta19  1  0.820538  0.820538  0.748962  1
  Ir  Ir20  1  0.000000  0.000000  0.000000  1
  Ir  Ir21  1  0.262297  0.931169  0.000000  1
  Ir  Ir22  1  0.431372  0.237851  0.500000  1
  Ir  Ir23  1  0.568628  0.762149  0.500000  1
  Ir  Ir24  1  0.737703  0.068831  0.000000  1
  Ir  Ir25  1  0.237851  0.431372  0.500000  1
  Ir  Ir26  1  0.762149  0.568628  0.500000  1
  Ir  Ir27  1  0.931169  0.262297  0.000000  1
  Ir  Ir28  1  0.068831  0.737703  0.000000  1
  Os  Os29  1  0.500000  0.500000  0.500000  1
