# generated using pymatgen
data_Zr11ScP4
_symmetry_space_group_name_H-M   'P 1'
_cell_length_a   10.86002747
_cell_length_b   10.86162757
_cell_length_c   5.38148149
_cell_angle_alpha   90.03637209
_cell_angle_beta   89.96708071
_cell_angle_gamma   89.99211843
_symmetry_Int_Tables_number   1
_chemical_formula_structural   Zr11ScP4
_chemical_formula_sum   'Zr22 Sc2 P8'
_cell_volume   634.78626195
_cell_formula_units_Z   2
loop_
 _symmetry_equiv_pos_site_id
 _symmetry_equiv_pos_as_xyz
  1  'x, y, z'
loop_
 _atom_site_type_symbol
 _atom_site_label
 _atom_site_symmetry_multiplicity
 _atom_site_fract_x
 _atom_site_fract_y
 _atom_site_fract_z
 _atom_site_occupancy
  Zr  Zr0  1  0.637500  0.526659  0.780389  1
  Zr  Zr1  1  0.972931  0.137544  0.280516  1
  Zr  Zr2  1  0.473562  0.637562  0.221034  1
  Zr  Zr3  1  0.137763  0.027072  0.720566  1
  Zr  Zr4  1  0.862611  0.973434  0.720888  1
  Zr  Zr5  1  0.527403  0.362098  0.220512  1
  Zr  Zr6  1  0.283900  0.820721  0.987647  1
  Zr  Zr7  1  0.319875  0.215766  0.486426  1
  Zr  Zr8  1  0.679600  0.785029  0.485486  1
  Zr  Zr9  1  0.714504  0.180280  0.984493  1
  Zr  Zr10  1  0.215599  0.679492  0.512414  1
  Zr  Zr11  1  0.179170  0.284441  0.013258  1
  Zr  Zr12  1  0.819571  0.714605  0.013466  1
  Zr  Zr13  1  0.785688  0.319998  0.514121  1
  Zr  Zr14  1  0.893032  0.416678  0.036715  1
  Zr  Zr15  1  0.915823  0.608047  0.537262  1
  Zr  Zr16  1  0.084013  0.391762  0.537902  1
  Zr  Zr17  1  0.108863  0.584807  0.038606  1
  Zr  Zr18  1  0.607100  0.084934  0.461572  1
  Zr  Zr19  1  0.584669  0.893086  0.962552  1
  Zr  Zr20  1  0.415333  0.107021  0.964517  1
  Zr  Zr21  1  0.393307  0.915524  0.464918  1
  Sc  Sc22  1  0.026584  0.861441  0.275885  1
  Sc  Sc23  1  0.361399  0.473133  0.775809  1
  P  P24  1  0.540127  0.294395  0.713953  1
  P  P25  1  0.795061  0.959212  0.213483  1
  P  P26  1  0.205668  0.040987  0.214585  1
  P  P27  1  0.458528  0.705012  0.713772  1
  P  P28  1  0.959188  0.205800  0.787334  1
  P  P29  1  0.705980  0.540679  0.287755  1
  P  P30  1  0.294414  0.458591  0.285817  1
  P  P31  1  0.041234  0.794192  0.786347  1
