# generated using pymatgen
data_Ho2Er6Re3TcC8
_symmetry_space_group_name_H-M   'P 1'
_cell_length_a   5.06164900
_cell_length_b   6.54223179
_cell_length_c   9.80395402
_cell_angle_alpha   90.03160740
_cell_angle_beta   90.00000000
_cell_angle_gamma   90.00000000
_symmetry_Int_Tables_number   1
_chemical_formula_structural   Ho2Er6Re3TcC8
_chemical_formula_sum   'Ho2 Er6 Re3 Tc1 C8'
_cell_volume   324.65279964
_cell_formula_units_Z   1
loop_
 _symmetry_equiv_pos_site_id
 _symmetry_equiv_pos_as_xyz
  1  'x, y, z'
loop_
 _atom_site_type_symbol
 _atom_site_label
 _atom_site_symmetry_multiplicity
 _atom_site_fract_x
 _atom_site_fract_y
 _atom_site_fract_z
 _atom_site_occupancy
  Ho  Ho0  1  0.750000  0.533437  0.783578  1
  Ho  Ho1  1  0.250000  0.965748  0.283323  1
  Er  Er2  1  0.750000  0.677624  0.442426  1
  Er  Er3  1  0.250000  0.823674  0.942531  1
  Er  Er4  1  0.750000  0.177326  0.057917  1
  Er  Er5  1  0.250000  0.321839  0.558269  1
  Er  Er6  1  0.250000  0.465335  0.216959  1
  Er  Er7  1  0.750000  0.033992  0.716902  1
  Re  Re8  1  0.250000  0.782429  0.632253  1
  Re  Re9  1  0.750000  0.218419  0.367846  1
  Re  Re10  1  0.750000  0.718021  0.132230  1
  Tc  Tc11  1  0.250000  0.282019  0.867849  1
  C  C12  1  0.250000  0.674795  0.448437  1
  C  C13  1  0.250000  0.550252  0.757949  1
  C  C14  1  0.750000  0.451217  0.241102  1
  C  C15  1  0.750000  0.824713  0.948462  1
  C  C16  1  0.250000  0.048715  0.740647  1
  C  C17  1  0.250000  0.175214  0.050649  1
  C  C18  1  0.750000  0.324292  0.551674  1
  C  C19  1  0.750000  0.950934  0.258996  1
