# generated using pymatgen
data_PuThB10Pt
_symmetry_space_group_name_H-M   'P 1'
_cell_length_a   4.19606600
_cell_length_b   5.73844430
_cell_length_c   11.43241138
_cell_angle_alpha   90.11374506
_cell_angle_beta   90.00000000
_cell_angle_gamma   90.00000000
_symmetry_Int_Tables_number   1
_chemical_formula_structural   PuThB10Pt
_chemical_formula_sum   'Pu2 Th2 B20 Pt2'
_cell_volume   275.27924539
_cell_formula_units_Z   2
loop_
 _symmetry_equiv_pos_site_id
 _symmetry_equiv_pos_as_xyz
  1  'x, y, z'
loop_
 _atom_site_type_symbol
 _atom_site_label
 _atom_site_symmetry_multiplicity
 _atom_site_fract_x
 _atom_site_fract_y
 _atom_site_fract_z
 _atom_site_occupancy
  Pu  Pu0  1  0.500000  0.313129  0.857260  1
  Pu  Pu1  1  0.500000  0.686871  0.142740  1
  Th  Th2  1  0.500000  0.807550  0.641100  1
  Th  Th3  1  0.500000  0.192450  0.358900  1
  B  B4  1  0.000000  0.116109  0.544262  1
  B  B5  1  0.000000  0.883891  0.455738  1
  B  B6  1  0.000000  0.616156  0.956768  1
  B  B7  1  0.000000  0.383844  0.043232  1
  B  B8  1  0.000000  0.140473  0.699072  1
  B  B9  1  0.000000  0.859527  0.300928  1
  B  B10  1  0.302991  0.218165  0.118760  1
  B  B11  1  0.302991  0.781835  0.881240  1
  B  B12  1  0.696530  0.717048  0.378780  1
  B  B13  1  0.696530  0.282952  0.621220  1
  B  B14  1  0.697009  0.781835  0.881240  1
  B  B15  1  0.697009  0.218165  0.118760  1
  B  B16  1  0.303470  0.282952  0.621220  1
  B  B17  1  0.303470  0.717048  0.378780  1
  B  B18  1  0.000000  0.052310  0.193120  1
  B  B19  1  0.000000  0.947690  0.806880  1
  B  B20  1  0.000000  0.552652  0.304785  1
  B  B21  1  0.000000  0.447348  0.695215  1
  B  B22  1  0.000000  0.359354  0.196946  1
  B  B23  1  0.000000  0.640646  0.803054  1
  Pt  Pt24  1  0.000000  0.500000  0.500000  1
  Pt  Pt25  1  0.000000  0.000000  0.000000  1
