# generated using pymatgen
data_Dy3In3BiIr2
_symmetry_space_group_name_H-M   'P 1'
_cell_length_a   7.78713100
_cell_length_b   7.78713052
_cell_length_c   4.03979100
_cell_angle_alpha   90.00000000
_cell_angle_beta   90.00000000
_cell_angle_gamma   119.99999780
_symmetry_Int_Tables_number   1
_chemical_formula_structural   Dy3In3BiIr2
_chemical_formula_sum   'Dy3 In3 Bi1 Ir2'
_cell_volume   212.15070200
_cell_formula_units_Z   1
loop_
 _symmetry_equiv_pos_site_id
 _symmetry_equiv_pos_as_xyz
  1  'x, y, z'
loop_
 _atom_site_type_symbol
 _atom_site_label
 _atom_site_symmetry_multiplicity
 _atom_site_fract_x
 _atom_site_fract_y
 _atom_site_fract_z
 _atom_site_occupancy
  Dy  Dy0  1  0.584348  0.615011  0.000000  1
  Dy  Dy1  1  0.384989  0.969337  0.000000  1
  Dy  Dy2  1  0.030663  0.415652  0.000000  1
  In  In3  1  0.020584  0.763565  0.500000  1
  In  In4  1  0.236435  0.257019  0.500000  1
  In  In5  1  0.742981  0.979416  0.500000  1
  Bi  Bi6  1  0.666667  0.333333  0.500000  1
  Ir  Ir7  1  0.000000  0.000000  0.000000  1
  Ir  Ir8  1  0.333333  0.666667  0.500000  1
