# generated using pymatgen
data_Tm8Ta11Si16Pd
_symmetry_space_group_name_H-M   'P 1'
_cell_length_a   7.02125071
_cell_length_b   7.02125124
_cell_length_c   12.90590900
_cell_angle_alpha   90.24022472
_cell_angle_beta   89.75977526
_cell_angle_gamma   89.75346477
_symmetry_Int_Tables_number   1
_chemical_formula_structural   Tm8Ta11Si16Pd
_chemical_formula_sum   'Tm8 Ta11 Si16 Pd1'
_cell_volume   636.21793173
_cell_formula_units_Z   1
loop_
 _symmetry_equiv_pos_site_id
 _symmetry_equiv_pos_as_xyz
  1  'x, y, z'
loop_
 _atom_site_type_symbol
 _atom_site_label
 _atom_site_symmetry_multiplicity
 _atom_site_fract_x
 _atom_site_fract_y
 _atom_site_fract_z
 _atom_site_occupancy
  Tm  Tm0  1  0.340806  0.001017  0.467473  1
  Tm  Tm1  1  0.495634  0.842614  0.718228  1
  Tm  Tm2  1  0.502853  0.157815  0.216454  1
  Tm  Tm3  1  0.842614  0.495634  0.281772  1
  Tm  Tm4  1  0.157815  0.502853  0.783546  1
  Tm  Tm5  1  0.656803  0.002754  0.967924  1
  Tm  Tm6  1  0.001017  0.340806  0.532527  1
  Tm  Tm7  1  0.002754  0.656803  0.032076  1
  Ta  Ta8  1  0.173142  0.826118  0.248501  1
  Ta  Ta9  1  0.826118  0.173142  0.751499  1
  Ta  Ta10  1  0.670321  0.670321  0.500000  1
  Ta  Ta11  1  0.149565  0.007097  0.875552  1
  Ta  Ta12  1  0.497561  0.654265  0.121834  1
  Ta  Ta13  1  0.503086  0.348423  0.623484  1
  Ta  Ta14  1  0.654265  0.497561  0.878166  1
  Ta  Ta15  1  0.348423  0.503086  0.376516  1
  Ta  Ta16  1  0.848921  0.991715  0.373817  1
  Ta  Ta17  1  0.007097  0.149565  0.124448  1
  Ta  Ta18  1  0.991715  0.848921  0.626183  1
  Si  Si19  1  0.201940  0.137134  0.682587  1
  Si  Si20  1  0.369241  0.714874  0.929158  1
  Si  Si21  1  0.635984  0.293140  0.430382  1
  Si  Si22  1  0.714874  0.369241  0.070842  1
  Si  Si23  1  0.293140  0.635984  0.569618  1
  Si  Si24  1  0.796907  0.864015  0.180955  1
  Si  Si25  1  0.137134  0.201940  0.317413  1
  Si  Si26  1  0.864015  0.796907  0.819045  1
  Si  Si27  1  0.292443  0.948137  0.062891  1
  Si  Si28  1  0.544810  0.793528  0.312746  1
  Si  Si29  1  0.451920  0.208248  0.813598  1
  Si  Si30  1  0.793528  0.544810  0.687254  1
  Si  Si31  1  0.208248  0.451920  0.186402  1
  Si  Si32  1  0.702796  0.045000  0.563916  1
  Si  Si33  1  0.948137  0.292443  0.937109  1
  Si  Si34  1  0.045000  0.702796  0.436084  1
  Pd  Pd35  1  0.329374  0.329374  0.000000  1
