# generated using pymatgen
data_Dy3Y5(Tm3Pb4)4
_symmetry_space_group_name_H-M   'P 1'
_cell_length_a   8.17623701
_cell_length_b   8.24815903
_cell_length_c   15.57276800
_cell_angle_alpha   90.00072244
_cell_angle_beta   89.99660832
_cell_angle_gamma   90.00497373
_symmetry_Int_Tables_number   1
_chemical_formula_structural   Dy3Y5(Tm3Pb4)4
_chemical_formula_sum   'Dy3 Y5 Tm12 Pb16'
_cell_volume   1050.21038744
_cell_formula_units_Z   1
loop_
 _symmetry_equiv_pos_site_id
 _symmetry_equiv_pos_as_xyz
  1  'x, y, z'
loop_
 _atom_site_type_symbol
 _atom_site_label
 _atom_site_symmetry_multiplicity
 _atom_site_fract_x
 _atom_site_fract_y
 _atom_site_fract_z
 _atom_site_occupancy
  Dy  Dy0  1  0.963283  0.823392  0.400022  1
  Dy  Dy1  1  0.536699  0.323372  0.599866  1
  Dy  Dy2  1  0.036696  0.176610  0.900128  1
  Y  Y3  1  0.536660  0.323446  0.899998  1
  Y  Y4  1  0.036521  0.176603  0.599970  1
  Y  Y5  1  0.463361  0.676538  0.400118  1
  Y  Y6  1  0.963451  0.823343  0.099891  1
  Y  Y7  1  0.463349  0.676623  0.099891  1
  Tm  Tm8  1  0.376342  0.841431  0.878754  1
  Tm  Tm9  1  0.876420  0.658644  0.621180  1
  Tm  Tm10  1  0.623555  0.158641  0.378715  1
  Tm  Tm11  1  0.123523  0.341382  0.121283  1
  Tm  Tm12  1  0.623608  0.158551  0.121382  1
  Tm  Tm13  1  0.123625  0.341492  0.378650  1
  Tm  Tm14  1  0.376370  0.841479  0.621275  1
  Tm  Tm15  1  0.876310  0.658519  0.878745  1
  Tm  Tm16  1  0.208137  0.504908  0.750041  1
  Tm  Tm17  1  0.708131  0.995082  0.749957  1
  Tm  Tm18  1  0.791954  0.495052  0.250056  1
  Tm  Tm19  1  0.291880  0.005000  0.249990  1
  Pb  Pb20  1  0.282585  0.034191  0.042976  1
  Pb  Pb21  1  0.782466  0.466057  0.457005  1
  Pb  Pb22  1  0.717478  0.966044  0.542832  1
  Pb  Pb23  1  0.217292  0.533909  0.957075  1
  Pb  Pb24  1  0.717633  0.966189  0.957080  1
  Pb  Pb25  1  0.217672  0.533845  0.542924  1
  Pb  Pb26  1  0.282391  0.033836  0.456887  1
  Pb  Pb27  1  0.782681  0.465945  0.043047  1
  Pb  Pb28  1  0.570832  0.627211  0.749912  1
  Pb  Pb29  1  0.070870  0.872801  0.750047  1
  Pb  Pb30  1  0.429203  0.372335  0.250014  1
  Pb  Pb31  1  0.929183  0.127406  0.250111  1
  Pb  Pb32  1  0.347721  0.153563  0.749969  1
  Pb  Pb33  1  0.847709  0.346419  0.750026  1
  Pb  Pb34  1  0.652386  0.846560  0.250090  1
  Pb  Pb35  1  0.152022  0.653587  0.250094  1
