# generated using pymatgen
data_Ho2Tm2Tc3Os5
_symmetry_space_group_name_H-M   'P 1'
_cell_length_a   5.28541303
_cell_length_b   5.28635073
_cell_length_c   8.89267300
_cell_angle_alpha   90.00000000
_cell_angle_beta   89.99433049
_cell_angle_gamma   120.00585256
_symmetry_Int_Tables_number   1
_chemical_formula_structural   Ho2Tm2Tc3Os5
_chemical_formula_sum   'Ho2 Tm2 Tc3 Os5'
_cell_volume   215.16530349
_cell_formula_units_Z   1
loop_
 _symmetry_equiv_pos_site_id
 _symmetry_equiv_pos_as_xyz
  1  'x, y, z'
loop_
 _atom_site_type_symbol
 _atom_site_label
 _atom_site_symmetry_multiplicity
 _atom_site_fract_x
 _atom_site_fract_y
 _atom_site_fract_z
 _atom_site_occupancy
  Ho  Ho0  1  0.335844  0.667923  0.435373  1
  Ho  Ho1  1  0.668489  0.334244  0.563321  1
  Tm  Tm2  1  0.668481  0.334240  0.936891  1
  Tm  Tm3  1  0.335822  0.667912  0.064293  1
  Tc  Tc4  1  0.168127  0.339778  0.751110  1
  Tc  Tc5  1  0.168127  0.828350  0.751110  1
  Tc  Tc6  1  0.334373  0.167186  0.248987  1
  Os  Os7  1  0.822973  0.651404  0.248772  1
  Os  Os8  1  0.649815  0.824908  0.751378  1
  Os  Os9  1  0.012685  0.006343  0.000372  1
  Os  Os10  1  0.822973  0.171568  0.248772  1
  Os  Os11  1  0.012293  0.006147  0.499618  1
