# generated using pymatgen
data_Zr10Nb9Si16W
_symmetry_space_group_name_H-M   'P 1'
_cell_length_a   6.91729581
_cell_length_b   6.91729670
_cell_length_c   12.80296800
_cell_angle_alpha   89.83178087
_cell_angle_beta   90.16821916
_cell_angle_gamma   89.78508732
_symmetry_Int_Tables_number   1
_chemical_formula_structural   Zr10Nb9Si16W
_chemical_formula_sum   'Zr10 Nb9 Si16 W1'
_cell_volume   612.59944571
_cell_formula_units_Z   1
loop_
 _symmetry_equiv_pos_site_id
 _symmetry_equiv_pos_as_xyz
  1  'x, y, z'
loop_
 _atom_site_type_symbol
 _atom_site_label
 _atom_site_symmetry_multiplicity
 _atom_site_fract_x
 _atom_site_fract_y
 _atom_site_fract_z
 _atom_site_occupancy
  Zr  Zr0  1  0.998805  0.655986  0.032135  1
  Zr  Zr1  1  0.000301  0.344919  0.532240  1
  Zr  Zr2  1  0.655986  0.998805  0.967865  1
  Zr  Zr3  1  0.157432  0.501189  0.780394  1
  Zr  Zr4  1  0.842214  0.500313  0.281479  1
  Zr  Zr5  1  0.501189  0.157432  0.219606  1
  Zr  Zr6  1  0.500313  0.842214  0.718521  1
  Zr  Zr7  1  0.344919  0.000301  0.467760  1
  Zr  Zr8  1  0.828447  0.170897  0.749238  1
  Zr  Zr9  1  0.170897  0.828447  0.250762  1
  Nb  Nb10  1  0.346920  0.502885  0.378562  1
  Nb  Nb11  1  0.847574  0.996623  0.374312  1
  Nb  Nb12  1  0.004554  0.151733  0.125689  1
  Nb  Nb13  1  0.996623  0.847574  0.625688  1
  Nb  Nb14  1  0.651542  0.498696  0.877043  1
  Nb  Nb15  1  0.502885  0.346920  0.621438  1
  Nb  Nb16  1  0.498696  0.651542  0.122957  1
  Nb  Nb17  1  0.151733  0.004554  0.874311  1
  Nb  Nb18  1  0.330971  0.330971  0.000000  1
  Si  Si19  1  0.039837  0.701104  0.439256  1
  Si  Si20  1  0.956071  0.299656  0.938290  1
  Si  Si21  1  0.701104  0.039837  0.560744  1
  Si  Si22  1  0.205020  0.449983  0.186906  1
  Si  Si23  1  0.793160  0.551181  0.685222  1
  Si  Si24  1  0.449983  0.205020  0.813094  1
  Si  Si25  1  0.551181  0.793160  0.314778  1
  Si  Si26  1  0.299656  0.956071  0.061710  1
  Si  Si27  1  0.864871  0.790843  0.822766  1
  Si  Si28  1  0.135273  0.209240  0.322791  1
  Si  Si29  1  0.790843  0.864871  0.177234  1
  Si  Si30  1  0.294588  0.637237  0.572934  1
  Si  Si31  1  0.708039  0.362795  0.073091  1
  Si  Si32  1  0.637237  0.294588  0.427066  1
  Si  Si33  1  0.362795  0.708039  0.926909  1
  Si  Si34  1  0.209240  0.135273  0.677209  1
  W  W35  1  0.669098  0.669098  0.500000  1
