# generated using pymatgen
data_Lu2P4RuRh5
_symmetry_space_group_name_H-M   'P 1'
_cell_length_a   3.91319100
_cell_length_b   11.24389700
_cell_length_c   12.53192700
_cell_angle_alpha   90.00000000
_cell_angle_beta   90.00000000
_cell_angle_gamma   90.00000000
_symmetry_Int_Tables_number   1
_chemical_formula_structural   Lu2P4RuRh5
_chemical_formula_sum   'Lu6 P12 Ru3 Rh15'
_cell_volume   551.39872938
_cell_formula_units_Z   3
loop_
 _symmetry_equiv_pos_site_id
 _symmetry_equiv_pos_as_xyz
  1  'x, y, z'
loop_
 _atom_site_type_symbol
 _atom_site_label
 _atom_site_symmetry_multiplicity
 _atom_site_fract_x
 _atom_site_fract_y
 _atom_site_fract_z
 _atom_site_occupancy
  Lu  Lu0  1  0.000000  0.500000  0.523021  1
  Lu  Lu1  1  0.500000  0.000000  0.477837  1
  Lu  Lu2  1  0.500000  0.817292  0.205492  1
  Lu  Lu3  1  0.500000  0.182708  0.205492  1
  Lu  Lu4  1  0.000000  0.680417  0.795099  1
  Lu  Lu5  1  0.000000  0.319583  0.795099  1
  P  P6  1  0.500000  0.500000  0.879344  1
  P  P7  1  0.000000  0.000000  0.119285  1
  P  P8  1  0.500000  0.500000  0.350435  1
  P  P9  1  0.000000  0.000000  0.647728  1
  P  P10  1  0.500000  0.315585  0.620512  1
  P  P11  1  0.500000  0.684415  0.620512  1
  P  P12  1  0.000000  0.184942  0.379734  1
  P  P13  1  0.000000  0.815058  0.379734  1
  P  P14  1  0.500000  0.845342  0.892707  1
  P  P15  1  0.500000  0.154658  0.892707  1
  P  P16  1  0.000000  0.653363  0.108308  1
  P  P17  1  0.000000  0.346637  0.108308  1
  Ru  Ru18  1  0.500000  0.500000  0.163664  1
  Ru  Ru19  1  0.000000  0.500000  0.988364  1
  Ru  Ru20  1  0.500000  0.000000  0.014250  1
  Rh  Rh21  1  0.000000  0.000000  0.834869  1
  Rh  Rh22  1  0.500000  0.500000  0.698167  1
  Rh  Rh23  1  0.000000  0.000000  0.300917  1
  Rh  Rh24  1  0.500000  0.332233  0.989479  1
  Rh  Rh25  1  0.500000  0.667767  0.989479  1
  Rh  Rh26  1  0.000000  0.169017  0.010294  1
  Rh  Rh27  1  0.000000  0.830983  0.010294  1
  Rh  Rh28  1  0.500000  0.297168  0.431161  1
  Rh  Rh29  1  0.500000  0.702832  0.431161  1
  Rh  Rh30  1  0.000000  0.201549  0.567776  1
  Rh  Rh31  1  0.000000  0.798451  0.567776  1
  Rh  Rh32  1  0.500000  0.870549  0.711080  1
  Rh  Rh33  1  0.500000  0.129451  0.711080  1
  Rh  Rh34  1  0.000000  0.627157  0.289419  1
  Rh  Rh35  1  0.000000  0.372843  0.289419  1
