# generated using pymatgen
data_TbPaTeN2
_symmetry_space_group_name_H-M   'P 1'
_cell_length_a   6.91199793
_cell_length_b   6.91199656
_cell_length_c   6.91199872
_cell_angle_alpha   146.47824721
_cell_angle_beta   146.47822414
_cell_angle_gamma   48.13696404
_symmetry_Int_Tables_number   1
_chemical_formula_structural   TbPaTeN2
_chemical_formula_sum   'Tb1 Pa1 Te1 N2'
_cell_volume   100.29841897
_cell_formula_units_Z   1
loop_
 _symmetry_equiv_pos_site_id
 _symmetry_equiv_pos_as_xyz
  1  'x, y, z'
loop_
 _atom_site_type_symbol
 _atom_site_label
 _atom_site_symmetry_multiplicity
 _atom_site_fract_x
 _atom_site_fract_y
 _atom_site_fract_z
 _atom_site_occupancy
  Tb  Tb0  1  0.338907  0.338907  0.000000  1
  Pa  Pa1  1  0.669329  0.669329  0.000000  1
  Te  Te2  1  0.003897  0.003897  0.000000  1
  N  N3  1  0.743933  0.243933  0.500000  1
  N  N4  1  0.243933  0.743933  0.500000  1
