# generated using pymatgen
data_Sr2CaV2(GeO4)3
_symmetry_space_group_name_H-M   'P 1'
_cell_length_a   11.00790752
_cell_length_b   11.00796175
_cell_length_c   11.00796119
_cell_angle_alpha   108.72056178
_cell_angle_beta   109.84943863
_cell_angle_gamma   109.84944222
_symmetry_Int_Tables_number   1
_chemical_formula_structural   Sr2CaV2(GeO4)3
_chemical_formula_sum   'Sr8 Ca4 V8 Ge12 O48'
_cell_volume   1026.65299194
_cell_formula_units_Z   4
loop_
 _symmetry_equiv_pos_site_id
 _symmetry_equiv_pos_as_xyz
  1  'x, y, z'
loop_
 _atom_site_type_symbol
 _atom_site_label
 _atom_site_symmetry_multiplicity
 _atom_site_fract_x
 _atom_site_fract_y
 _atom_site_fract_z
 _atom_site_occupancy
  Sr  Sr0  1  0.250000  0.875005  0.624995  1
  Sr  Sr1  1  0.750000  0.624989  0.875011  1
  Sr  Sr2  1  0.624018  0.873999  0.749949  1
  Sr  Sr3  1  0.876001  0.626012  0.250016  1
  Sr  Sr4  1  0.623999  0.249984  0.873988  1
  Sr  Sr5  1  0.875982  0.750051  0.626001  1
  Sr  Sr6  1  0.750000  0.124995  0.375005  1
  Sr  Sr7  1  0.250000  0.375005  0.124995  1
  Ca  Ca8  1  0.376157  0.126175  0.250055  1
  Ca  Ca9  1  0.123846  0.373833  0.749992  1
  Ca  Ca10  1  0.376154  0.750008  0.126167  1
  Ca  Ca11  1  0.123843  0.249945  0.373825  1
  V  V12  1  0.496041  0.496788  0.497922  1
  V  V13  1  0.498853  0.000743  0.496785  1
  V  V14  1  0.001133  0.497926  0.501915  1
  V  V15  1  0.496022  0.499228  0.998091  1
  V  V16  1  0.001147  0.003215  0.499257  1
  V  V17  1  0.003978  0.501909  0.000772  1
  V  V18  1  0.498867  0.998085  0.002074  1
  V  V19  1  0.003959  0.002078  0.003212  1
  Ge  Ge20  1  0.128039  0.749931  0.878017  1
  Ge  Ge21  1  0.878460  0.250082  0.128512  1
  Ge  Ge22  1  0.621540  0.371488  0.249918  1
  Ge  Ge23  1  0.750028  0.875115  0.125146  1
  Ge  Ge24  1  0.878454  0.128530  0.749978  1
  Ge  Ge25  1  0.250019  0.624907  0.374899  1
  Ge  Ge26  1  0.749972  0.374854  0.624885  1
  Ge  Ge27  1  0.249981  0.125101  0.875093  1
  Ge  Ge28  1  0.128067  0.878018  0.250023  1
  Ge  Ge29  1  0.371961  0.621983  0.750069  1
  Ge  Ge30  1  0.621546  0.750022  0.371470  1
  Ge  Ge31  1  0.371933  0.249977  0.621982  1
  O  O32  1  0.412935  0.808673  0.801293  1
  O  O33  1  0.889219  0.395733  0.083665  1
  O  O34  1  0.102893  0.989772  0.687788  1
  O  O35  1  0.507390  0.611704  0.698842  1
  O  O36  1  0.687982  0.083707  0.694450  1
  O  O37  1  0.610778  0.694498  0.506401  1
  O  O38  1  0.610781  0.416335  0.104267  1
  O  O39  1  0.697984  0.510188  0.613095  1
  O  O40  1  0.812029  0.506438  0.395678  1
  O  O41  1  0.992610  0.801158  0.888296  1
  O  O42  1  0.802016  0.886905  0.989812  1
  O  O43  1  0.698091  0.687856  0.084933  1
  O  O44  1  0.412911  0.104275  0.611695  1
  O  O45  1  0.397107  0.812212  0.510228  1
  O  O46  1  0.087065  0.698707  0.691327  1
  O  O47  1  0.102937  0.613153  0.415033  1
  O  O48  1  0.507396  0.395706  0.808673  1
  O  O49  1  0.087089  0.888305  0.395725  1
  O  O50  1  0.992604  0.691327  0.104294  1
  O  O51  1  0.182608  0.482084  0.604757  1
  O  O52  1  0.687971  0.104322  0.993562  1
  O  O53  1  0.801909  0.415067  0.812144  1
  O  O54  1  0.397063  0.084967  0.886847  1
  O  O55  1  0.889222  0.993599  0.805502  1
  O  O56  1  0.578725  0.184734  0.200427  1
  O  O57  1  0.122688  0.604707  0.922139  1
  O  O58  1  0.900388  0.014423  0.309786  1
  O  O59  1  0.484335  0.378219  0.299447  1
  O  O60  1  0.317384  0.922095  0.299433  1
  O  O61  1  0.377306  0.299400  0.482083  1
  O  O62  1  0.377312  0.577861  0.895293  1
  O  O63  1  0.295395  0.485611  0.385990  1
  O  O64  1  0.122694  0.017917  0.200600  1
  O  O65  1  0.599661  0.909312  0.114066  1
  O  O66  1  0.204717  0.590641  0.190301  1
  O  O67  1  0.182616  0.200567  0.577905  1
  O  O68  1  0.317392  0.895243  0.017916  1
  O  O69  1  0.015716  0.315280  0.893954  1
  O  O70  1  0.921275  0.121781  0.606039  1
  O  O71  1  0.484284  0.606046  0.184720  1
  O  O72  1  0.900339  0.385934  0.590688  1
  O  O73  1  0.921275  0.299573  0.315266  1
  O  O74  1  0.599612  0.190214  0.485577  1
  O  O75  1  0.578725  0.893961  0.378219  1
  O  O76  1  0.295283  0.309699  0.909359  1
  O  O77  1  0.204605  0.114010  0.014389  1
  O  O78  1  0.015665  0.200553  0.121781  1
  O  O79  1  0.812018  0.805550  0.416293  1
