# generated using pymatgen
data_Y3Er3Mn16(CoP6)2
_symmetry_space_group_name_H-M   'P 1'
_cell_length_a   3.63128800
_cell_length_b   10.86061611
_cell_length_c   12.62622414
_cell_angle_alpha   89.98321756
_cell_angle_beta   90.00000000
_cell_angle_gamma   90.00000000
_symmetry_Int_Tables_number   1
_chemical_formula_structural   Y3Er3Mn16(CoP6)2
_chemical_formula_sum   'Y3 Er3 Mn16 Co2 P12'
_cell_volume   497.95332146
_cell_formula_units_Z   1
loop_
 _symmetry_equiv_pos_site_id
 _symmetry_equiv_pos_as_xyz
  1  'x, y, z'
loop_
 _atom_site_type_symbol
 _atom_site_label
 _atom_site_symmetry_multiplicity
 _atom_site_fract_x
 _atom_site_fract_y
 _atom_site_fract_z
 _atom_site_occupancy
  Y  Y0  1  0.000000  0.500251  0.531913  1
  Y  Y1  1  0.500000  0.000004  0.467852  1
  Y  Y2  1  0.000000  0.322878  0.793932  1
  Er  Er3  1  0.500000  0.823273  0.206273  1
  Er  Er4  1  0.500000  0.176537  0.206138  1
  Er  Er5  1  0.000000  0.676899  0.793880  1
  Mn  Mn6  1  0.500000  0.500530  0.165987  1
  Mn  Mn7  1  0.000000  0.998925  0.833760  1
  Mn  Mn8  1  0.000000  0.500105  0.993194  1
  Mn  Mn9  1  0.500000  0.999641  0.007335  1
  Mn  Mn10  1  0.500000  0.332423  0.997806  1
  Mn  Mn11  1  0.500000  0.668418  0.997684  1
  Mn  Mn12  1  0.000000  0.167200  0.002967  1
  Mn  Mn13  1  0.000000  0.831825  0.002750  1
  Mn  Mn14  1  0.500000  0.298131  0.432317  1
  Mn  Mn15  1  0.500000  0.701954  0.432768  1
  Mn  Mn16  1  0.000000  0.202007  0.567203  1
  Mn  Mn17  1  0.000000  0.798302  0.567622  1
  Mn  Mn18  1  0.500000  0.881350  0.702940  1
  Mn  Mn19  1  0.500000  0.118467  0.702094  1
  Mn  Mn20  1  0.000000  0.618851  0.296799  1
  Mn  Mn21  1  0.000000  0.381332  0.297150  1
  Co  Co22  1  0.500000  0.501031  0.706715  1
  Co  Co23  1  0.000000  0.999825  0.292978  1
  P  P24  1  0.500000  0.500891  0.881787  1
  P  P25  1  0.000000  0.999727  0.118862  1
  P  P26  1  0.500000  0.500158  0.358792  1
  P  P27  1  0.000000  0.999944  0.640950  1
  P  P28  1  0.500000  0.318070  0.618815  1
  P  P29  1  0.500000  0.682459  0.619878  1
  P  P30  1  0.000000  0.182019  0.379813  1
  P  P31  1  0.000000  0.817914  0.380118  1
  P  P32  1  0.500000  0.844704  0.884334  1
  P  P33  1  0.500000  0.153921  0.885003  1
  P  P34  1  0.000000  0.655320  0.115848  1
  P  P35  1  0.000000  0.344712  0.115745  1
