# generated using pymatgen
data_HfU6TaSb10
_symmetry_space_group_name_H-M   'P 1'
_cell_length_a   9.21987700
_cell_length_b   9.21987664
_cell_length_c   6.14009100
_cell_angle_alpha   90.00000000
_cell_angle_beta   90.00000000
_cell_angle_gamma   120.00000487
_symmetry_Int_Tables_number   1
_chemical_formula_structural   HfU6TaSb10
_chemical_formula_sum   'Hf1 U6 Ta1 Sb10'
_cell_volume   452.01792341
_cell_formula_units_Z   1
loop_
 _symmetry_equiv_pos_site_id
 _symmetry_equiv_pos_as_xyz
  1  'x, y, z'
loop_
 _atom_site_type_symbol
 _atom_site_label
 _atom_site_symmetry_multiplicity
 _atom_site_fract_x
 _atom_site_fract_y
 _atom_site_fract_z
 _atom_site_occupancy
  Hf  Hf0  1  0.000000  0.000000  0.500000  1
  U  U1  1  0.615096  0.000000  0.750636  1
  U  U2  1  0.384904  0.000000  0.249364  1
  U  U3  1  0.000000  0.615096  0.750636  1
  U  U4  1  0.000000  0.384904  0.249364  1
  U  U5  1  0.384904  0.384904  0.750636  1
  U  U6  1  0.615096  0.615096  0.249364  1
  Ta  Ta7  1  0.000000  0.000000  0.000000  1
  Sb  Sb8  1  0.268635  0.000000  0.752902  1
  Sb  Sb9  1  0.731365  0.000000  0.247098  1
  Sb  Sb10  1  0.000000  0.268635  0.752902  1
  Sb  Sb11  1  0.000000  0.731365  0.247098  1
  Sb  Sb12  1  0.731365  0.731365  0.752902  1
  Sb  Sb13  1  0.268635  0.268635  0.247098  1
  Sb  Sb14  1  0.333333  0.666667  0.500000  1
  Sb  Sb15  1  0.666667  0.333333  0.500000  1
  Sb  Sb16  1  0.666667  0.333333  0.000000  1
  Sb  Sb17  1  0.333333  0.666667  0.000000  1
