# generated using pymatgen
data_Cs12K5Rb(TlSb4)2
_symmetry_space_group_name_H-M   'P 1'
_cell_length_a   11.31448500
_cell_length_b   11.36117206
_cell_length_c   11.78543100
_cell_angle_alpha   90.00000000
_cell_angle_beta   90.00000000
_cell_angle_gamma   119.86414785
_symmetry_Int_Tables_number   1
_chemical_formula_structural   Cs12K5Rb(TlSb4)2
_chemical_formula_sum   'Cs12 K5 Rb1 Tl2 Sb8'
_cell_volume   1313.79294228
_cell_formula_units_Z   1
loop_
 _symmetry_equiv_pos_site_id
 _symmetry_equiv_pos_as_xyz
  1  'x, y, z'
loop_
 _atom_site_type_symbol
 _atom_site_label
 _atom_site_symmetry_multiplicity
 _atom_site_fract_x
 _atom_site_fract_y
 _atom_site_fract_z
 _atom_site_occupancy
  Cs  Cs0  1  0.208028  0.416055  0.542894  1
  Cs  Cs1  1  0.791971  0.208049  0.043103  1
  Cs  Cs2  1  0.416077  0.208049  0.043103  1
  Cs  Cs3  1  0.583448  0.792004  0.542578  1
  Cs  Cs4  1  0.208558  0.792004  0.542578  1
  Cs  Cs5  1  0.791632  0.583264  0.456050  1
  Cs  Cs6  1  0.791971  0.208049  0.456897  1
  Cs  Cs7  1  0.791632  0.583264  0.043950  1
  Cs  Cs8  1  0.416077  0.208049  0.456897  1
  Cs  Cs9  1  0.583448  0.792004  0.957422  1
  Cs  Cs10  1  0.208028  0.416055  0.957106  1
  Cs  Cs11  1  0.208558  0.792004  0.957422  1
  K  K12  1  0.119828  0.239653  0.250000  1
  K  K13  1  0.880500  0.120586  0.750000  1
  K  K14  1  0.240085  0.120586  0.750000  1
  K  K15  1  0.760746  0.880469  0.250000  1
  K  K16  1  0.119725  0.880469  0.250000  1
  Rb  Rb17  1  0.880934  0.761872  0.750000  1
  Tl  Tl18  1  0.333468  0.666938  0.250000  1
  Tl  Tl19  1  0.666549  0.333097  0.750000  1
  Sb  Sb20  1  0.481926  0.518829  0.250000  1
  Sb  Sb21  1  0.963343  0.477972  0.750000  1
  Sb  Sb22  1  0.518656  0.037314  0.750000  1
  Sb  Sb23  1  0.481177  0.962352  0.250000  1
  Sb  Sb24  1  0.036904  0.518829  0.250000  1
  Sb  Sb25  1  0.514628  0.477972  0.750000  1
  Sb  Sb26  1  0.001051  0.002104  0.002237  1
  Sb  Sb27  1  0.001051  0.002104  0.497763  1
