# generated using pymatgen
data_Tb3HfAl2Rh3
_symmetry_space_group_name_H-M   'P 1'
_cell_length_a   7.04358400
_cell_length_b   7.14958354
_cell_length_c   4.18634900
_cell_angle_alpha   90.00000000
_cell_angle_beta   90.00000000
_cell_angle_gamma   119.51075154
_symmetry_Int_Tables_number   1
_chemical_formula_structural   Tb3HfAl2Rh3
_chemical_formula_sum   'Tb3 Hf1 Al2 Rh3'
_cell_volume   183.46808673
_cell_formula_units_Z   1
loop_
 _symmetry_equiv_pos_site_id
 _symmetry_equiv_pos_as_xyz
  1  'x, y, z'
loop_
 _atom_site_type_symbol
 _atom_site_label
 _atom_site_symmetry_multiplicity
 _atom_site_fract_x
 _atom_site_fract_y
 _atom_site_fract_z
 _atom_site_occupancy
  Tb  Tb0  1  0.985739  0.565441  0.500000  1
  Tb  Tb1  1  0.420301  0.434559  0.500000  1
  Tb  Tb2  1  0.606695  0.000000  0.500000  1
  Hf  Hf3  1  0.239485  0.000000  0.000000  1
  Al  Al4  1  0.755911  0.757011  0.000000  1
  Al  Al5  1  0.998900  0.242989  0.000000  1
  Rh  Rh6  1  0.329806  0.671535  0.000000  1
  Rh  Rh7  1  0.004889  0.000000  0.500000  1
  Rh  Rh8  1  0.658272  0.328465  0.000000  1
