# generated using pymatgen
data_CeHo2Ni9
_symmetry_space_group_name_H-M   'P 1'
_cell_length_a   4.93828044
_cell_length_b   4.93828073
_cell_length_c   8.59340671
_cell_angle_alpha   73.30185145
_cell_angle_beta   73.30184983
_cell_angle_gamma   60.00000594
_symmetry_Int_Tables_number   1
_chemical_formula_structural   CeHo2Ni9
_chemical_formula_sum   'Ce1 Ho2 Ni9'
_cell_volume   171.20781624
_cell_formula_units_Z   1
loop_
 _symmetry_equiv_pos_site_id
 _symmetry_equiv_pos_as_xyz
  1  'x, y, z'
loop_
 _atom_site_type_symbol
 _atom_site_label
 _atom_site_symmetry_multiplicity
 _atom_site_fract_x
 _atom_site_fract_y
 _atom_site_fract_z
 _atom_site_occupancy
  Ce  Ce0  1  0.000000  0.000000  0.000000  1
  Ho  Ho1  1  0.139779  0.139779  0.580664  1
  Ho  Ho2  1  0.860221  0.860221  0.419336  1
  Ni  Ni3  1  0.081586  0.583973  0.750468  1
  Ni  Ni4  1  0.583973  0.583973  0.750468  1
  Ni  Ni5  1  0.583973  0.081586  0.750468  1
  Ni  Ni6  1  0.918414  0.416027  0.249532  1
  Ni  Ni7  1  0.416027  0.416027  0.249532  1
  Ni  Ni8  1  0.416027  0.918414  0.249532  1
  Ni  Ni9  1  0.333274  0.333274  0.000178  1
  Ni  Ni10  1  0.666726  0.666726  0.999822  1
  Ni  Ni11  1  0.500000  0.500000  0.500000  1
