# generated using pymatgen
data_LiY6Th2MgCo2
_symmetry_space_group_name_H-M   'P 1'
_cell_length_a   9.64445969
_cell_length_b   9.64445912
_cell_length_c   9.65442600
_cell_angle_alpha   59.96580850
_cell_angle_beta   59.96581047
_cell_angle_gamma   59.81798967
_symmetry_Int_Tables_number   1
_chemical_formula_structural   LiY6Th2MgCo2
_chemical_formula_sum   'Li2 Y12 Th4 Mg2 Co4'
_cell_volume   633.78545735
_cell_formula_units_Z   2
loop_
 _symmetry_equiv_pos_site_id
 _symmetry_equiv_pos_as_xyz
  1  'x, y, z'
loop_
 _atom_site_type_symbol
 _atom_site_label
 _atom_site_symmetry_multiplicity
 _atom_site_fract_x
 _atom_site_fract_y
 _atom_site_fract_z
 _atom_site_occupancy
  Li  Li0  1  0.578570  0.578570  0.578092  1
  Li  Li1  1  0.578570  0.578570  0.264767  1
  Y  Y2  1  0.813756  0.185856  0.186847  1
  Y  Y3  1  0.185856  0.813756  0.813541  1
  Y  Y4  1  0.185856  0.813756  0.186847  1
  Y  Y5  1  0.813756  0.185856  0.813541  1
  Y  Y6  1  0.187572  0.187572  0.812428  1
  Y  Y7  1  0.815436  0.815436  0.184564  1
  Y  Y8  1  0.935006  0.564408  0.564559  1
  Y  Y9  1  0.564408  0.935006  0.936027  1
  Y  Y10  1  0.564408  0.935006  0.564559  1
  Y  Y11  1  0.935006  0.564408  0.936027  1
  Y  Y12  1  0.564422  0.564422  0.935578  1
  Y  Y13  1  0.935296  0.935296  0.564704  1
  Th  Th14  1  0.344137  0.344137  0.343654  1
  Th  Th15  1  0.344137  0.344137  0.968073  1
  Th  Th16  1  0.343618  0.968712  0.343836  1
  Th  Th17  1  0.968712  0.343618  0.343836  1
  Mg  Mg18  1  0.580149  0.261484  0.579183  1
  Mg  Mg19  1  0.261484  0.580149  0.579183  1
  Co  Co20  1  0.145968  0.145968  0.145570  1
  Co  Co21  1  0.145968  0.145968  0.562492  1
  Co  Co22  1  0.145308  0.562601  0.146045  1
  Co  Co23  1  0.562601  0.145308  0.146045  1
