# generated using pymatgen
data_Tb8Lu9Sc2Si16Tc
_symmetry_space_group_name_H-M   'P 1'
_cell_length_a   7.16548502
_cell_length_b   7.54973105
_cell_length_c   14.21006000
_cell_angle_alpha   90.00000000
_cell_angle_beta   90.00000000
_cell_angle_gamma   90.10663994
_symmetry_Int_Tables_number   1
_chemical_formula_structural   Tb8Lu9Sc2Si16Tc
_chemical_formula_sum   'Tb8 Lu9 Sc2 Si16 Tc1'
_cell_volume   768.72717242
_cell_formula_units_Z   1
loop_
 _symmetry_equiv_pos_site_id
 _symmetry_equiv_pos_as_xyz
  1  'x, y, z'
loop_
 _atom_site_type_symbol
 _atom_site_label
 _atom_site_symmetry_multiplicity
 _atom_site_fract_x
 _atom_site_fract_y
 _atom_site_fract_z
 _atom_site_occupancy
  Tb  Tb0  1  0.017481  0.181494  0.094685  1
  Tb  Tb1  1  0.987647  0.814380  0.899991  1
  Tb  Tb2  1  0.481092  0.674101  0.902614  1
  Tb  Tb3  1  0.987647  0.814380  0.600009  1
  Tb  Tb4  1  0.518652  0.319190  0.097769  1
  Tb  Tb5  1  0.017481  0.181494  0.405315  1
  Tb  Tb6  1  0.518652  0.319190  0.402231  1
  Tb  Tb7  1  0.481092  0.674101  0.597386  1
  Lu  Lu8  1  0.650072  0.987424  0.750000  1
  Lu  Lu9  1  0.318847  0.180322  0.626729  1
  Lu  Lu10  1  0.679722  0.824256  0.373946  1
  Lu  Lu11  1  0.179041  0.673832  0.376289  1
  Lu  Lu12  1  0.679722  0.824256  0.126054  1
  Lu  Lu13  1  0.820997  0.331256  0.627894  1
  Lu  Lu14  1  0.318847  0.180322  0.873271  1
  Lu  Lu15  1  0.820997  0.331256  0.872106  1
  Lu  Lu16  1  0.179041  0.673832  0.123711  1
  Sc  Sc17  1  0.847703  0.490435  0.250000  1
  Sc  Sc18  1  0.346943  0.010422  0.250000  1
  Si  Si19  1  0.021474  0.109351  0.750000  1
  Si  Si20  1  0.984449  0.897245  0.250000  1
  Si  Si21  1  0.480068  0.605717  0.250000  1
  Si  Si22  1  0.506705  0.406348  0.750000  1
  Si  Si23  1  0.275364  0.851482  0.750000  1
  Si  Si24  1  0.722964  0.135182  0.250000  1
  Si  Si25  1  0.218950  0.365833  0.250000  1
  Si  Si26  1  0.789965  0.630394  0.750000  1
  Si  Si27  1  0.151255  0.471299  0.548044  1
  Si  Si28  1  0.846525  0.532760  0.461802  1
  Si  Si29  1  0.349775  0.968259  0.461467  1
  Si  Si30  1  0.846525  0.532760  0.038198  1
  Si  Si31  1  0.654402  0.032400  0.539191  1
  Si  Si32  1  0.151255  0.471299  0.951956  1
  Si  Si33  1  0.654402  0.032400  0.960809  1
  Si  Si34  1  0.349775  0.968259  0.038533  1
  Tc  Tc35  1  0.144473  0.503066  0.750000  1
