# generated using pymatgen
data_Nd8Zn5In3Rh8
_symmetry_space_group_name_H-M   'P 1'
_cell_length_a   7.49954265
_cell_length_b   4.07074600
_cell_length_c   16.74153063
_cell_angle_alpha   90.00000000
_cell_angle_beta   90.19482244
_cell_angle_gamma   90.00000000
_symmetry_Int_Tables_number   1
_chemical_formula_structural   Nd8Zn5In3Rh8
_chemical_formula_sum   'Nd8 Zn5 In3 Rh8'
_cell_volume   511.09476777
_cell_formula_units_Z   1
loop_
 _symmetry_equiv_pos_site_id
 _symmetry_equiv_pos_as_xyz
  1  'x, y, z'
loop_
 _atom_site_type_symbol
 _atom_site_label
 _atom_site_symmetry_multiplicity
 _atom_site_fract_x
 _atom_site_fract_y
 _atom_site_fract_z
 _atom_site_occupancy
  Nd  Nd0  1  0.046027  0.249999  0.281762  1
  Nd  Nd1  1  0.450378  0.750000  0.789206  1
  Nd  Nd2  1  0.557450  0.249999  0.211594  1
  Nd  Nd3  1  0.950843  0.750000  0.712565  1
  Nd  Nd4  1  0.169475  0.249999  0.062467  1
  Nd  Nd5  1  0.319485  0.750000  0.558643  1
  Nd  Nd6  1  0.679001  0.249999  0.439003  1
  Nd  Nd7  1  0.821497  0.750000  0.942854  1
  Zn  Zn8  1  0.880711  0.750000  0.149796  1
  Zn  Zn9  1  0.000676  0.249999  0.560387  1
  Zn  Zn10  1  0.502772  0.750000  0.062334  1
  Zn  Zn11  1  0.500992  0.249999  0.942489  1
  Zn  Zn12  1  0.000177  0.750000  0.437301  1
  In  In13  1  0.117708  0.249999  0.850562  1
  In  In14  1  0.381019  0.750000  0.346981  1
  In  In15  1  0.616454  0.249999  0.650411  1
  Rh  Rh16  1  0.234921  0.249999  0.435365  1
  Rh  Rh17  1  0.263458  0.750000  0.941049  1
  Rh  Rh18  1  0.746431  0.249999  0.066072  1
  Rh  Rh19  1  0.763938  0.750000  0.560622  1
  Rh  Rh20  1  0.244564  0.249999  0.685818  1
  Rh  Rh21  1  0.252323  0.750000  0.184487  1
  Rh  Rh22  1  0.743384  0.249999  0.815159  1
  Rh  Rh23  1  0.756319  0.750000  0.313066  1
