# generated using pymatgen
data_Ho5ZrSn6(Ir2Rh)2
_symmetry_space_group_name_H-M   'P 1'
_cell_length_a   7.56018409
_cell_length_b   7.49785352
_cell_length_c   7.67632500
_cell_angle_alpha   90.00000000
_cell_angle_beta   90.00000000
_cell_angle_gamma   120.30538041
_symmetry_Int_Tables_number   1
_chemical_formula_structural   Ho5ZrSn6(Ir2Rh)2
_chemical_formula_sum   'Ho5 Zr1 Sn6 Ir4 Rh2'
_cell_volume   375.67184506
_cell_formula_units_Z   1
loop_
 _symmetry_equiv_pos_site_id
 _symmetry_equiv_pos_as_xyz
  1  'x, y, z'
loop_
 _atom_site_type_symbol
 _atom_site_label
 _atom_site_symmetry_multiplicity
 _atom_site_fract_x
 _atom_site_fract_y
 _atom_site_fract_z
 _atom_site_occupancy
  Ho  Ho0  1  0.411737  0.001723  0.250000  1
  Ho  Ho1  1  0.593751  0.593278  0.750000  1
  Ho  Ho2  1  0.591135  0.594440  0.250000  1
  Ho  Ho3  1  0.994831  0.404973  0.250000  1
  Ho  Ho4  1  0.004935  0.408683  0.750000  1
  Zr  Zr5  1  0.403883  0.998260  0.750000  1
  Sn  Sn6  1  0.261681  0.263400  0.498742  1
  Sn  Sn7  1  0.261681  0.263400  0.001258  1
  Sn  Sn8  1  0.742048  0.000347  0.991875  1
  Sn  Sn9  1  0.997515  0.736144  0.499048  1
  Sn  Sn10  1  0.742048  0.000347  0.508125  1
  Sn  Sn11  1  0.997515  0.736144  0.000952  1
  Ir  Ir12  1  0.657293  0.321751  0.514021  1
  Ir  Ir13  1  0.657293  0.321751  0.985979  1
  Ir  Ir14  1  0.335261  0.677713  0.992363  1
  Ir  Ir15  1  0.335261  0.677713  0.507637  1
  Rh  Rh16  1  0.013319  0.999980  0.750000  1
  Rh  Rh17  1  0.998813  0.999951  0.250000  1
