# generated using pymatgen
data_Mg2Rh6C
_symmetry_space_group_name_H-M   'P 1'
_cell_length_a   5.61960415
_cell_length_b   5.61960446
_cell_length_c   5.61960400
_cell_angle_alpha   60.00000273
_cell_angle_beta   60.00000090
_cell_angle_gamma   60.00000243
_symmetry_Int_Tables_number   1
_chemical_formula_structural   Mg2Rh6C
_chemical_formula_sum   'Mg2 Rh6 C1'
_cell_volume   125.48800318
_cell_formula_units_Z   1
loop_
 _symmetry_equiv_pos_site_id
 _symmetry_equiv_pos_as_xyz
  1  'x, y, z'
loop_
 _atom_site_type_symbol
 _atom_site_label
 _atom_site_symmetry_multiplicity
 _atom_site_fract_x
 _atom_site_fract_y
 _atom_site_fract_z
 _atom_site_occupancy
  Mg  Mg0  1  0.250000  0.250000  0.250000  1
  Mg  Mg1  1  0.750000  0.750000  0.750000  1
  Rh  Rh2  1  0.757171  0.757171  0.242828  1
  Rh  Rh3  1  0.757171  0.242828  0.242828  1
  Rh  Rh4  1  0.242828  0.757171  0.242828  1
  Rh  Rh5  1  0.242828  0.242828  0.757171  1
  Rh  Rh6  1  0.757171  0.242828  0.757171  1
  Rh  Rh7  1  0.242828  0.757171  0.757171  1
  C  C8  1  0.500000  0.500000  0.500000  1
