# generated using pymatgen
data_La3Y3IrBr10
_symmetry_space_group_name_H-M   'P 1'
_cell_length_a   7.56188161
_cell_length_b   9.61083817
_cell_length_c   9.48485737
_cell_angle_alpha   107.54615184
_cell_angle_beta   94.83871420
_cell_angle_gamma   105.71488843
_symmetry_Int_Tables_number   1
_chemical_formula_structural   La3Y3IrBr10
_chemical_formula_sum   'La3 Y3 Ir1 Br10'
_cell_volume   622.24906212
_cell_formula_units_Z   1
loop_
 _symmetry_equiv_pos_site_id
 _symmetry_equiv_pos_as_xyz
  1  'x, y, z'
loop_
 _atom_site_type_symbol
 _atom_site_label
 _atom_site_symmetry_multiplicity
 _atom_site_fract_x
 _atom_site_fract_y
 _atom_site_fract_z
 _atom_site_occupancy
  La  La0  1  0.124887  0.047251  0.753958  1
  La  La1  1  0.870969  0.953326  0.244446  1
  La  La2  1  0.970646  0.308704  0.097591  1
  Y  Y3  1  0.640081  0.863149  0.826730  1
  Y  Y4  1  0.359314  0.128971  0.171656  1
  Y  Y5  1  0.030180  0.706058  0.906370  1
  Ir  Ir6  1  0.999193  0.000968  0.999590  1
  Br  Br7  1  0.360250  0.436358  0.267706  1
  Br  Br8  1  0.663263  0.561377  0.738078  1
  Br  Br9  1  0.736617  0.913148  0.553522  1
  Br  Br10  1  0.084906  0.379866  0.822166  1
  Br  Br11  1  0.921467  0.636155  0.168884  1
  Br  Br12  1  0.445123  0.824419  0.080900  1
  Br  Br13  1  0.546151  0.166179  0.914147  1
  Br  Br14  1  0.759715  0.249134  0.343025  1
  Br  Br15  1  0.229403  0.743916  0.666065  1
  Br  Br16  1  0.257834  0.081015  0.445165  1
