# generated using pymatgen
data_Er5Si9P3Ir7Rh12
_symmetry_space_group_name_H-M   'P 1'
_cell_length_a   12.79964900
_cell_length_b   12.79964908
_cell_length_c   3.92460800
_cell_angle_alpha   90.00000000
_cell_angle_beta   90.00000000
_cell_angle_gamma   120.00000237
_symmetry_Int_Tables_number   1
_chemical_formula_structural   Er5Si9P3Ir7Rh12
_chemical_formula_sum   'Er5 Si9 P3 Ir7 Rh12'
_cell_volume   556.83051809
_cell_formula_units_Z   1
loop_
 _symmetry_equiv_pos_site_id
 _symmetry_equiv_pos_as_xyz
  1  'x, y, z'
loop_
 _atom_site_type_symbol
 _atom_site_label
 _atom_site_symmetry_multiplicity
 _atom_site_fract_x
 _atom_site_fract_y
 _atom_site_fract_z
 _atom_site_occupancy
  Er  Er0  1  0.666667  0.333333  0.000000  1
  Er  Er1  1  0.333333  0.666667  0.000000  1
  Er  Er2  1  0.814830  0.814830  0.500000  1
  Er  Er3  1  0.185170  0.000000  0.500000  1
  Er  Er4  1  0.000000  0.185170  0.500000  1
  Si  Si5  1  0.685433  0.165680  0.500000  1
  Si  Si6  1  0.834320  0.519753  0.500000  1
  Si  Si7  1  0.480247  0.314567  0.500000  1
  Si  Si8  1  0.165680  0.685433  0.500000  1
  Si  Si9  1  0.519753  0.834320  0.500000  1
  Si  Si10  1  0.314567  0.480247  0.500000  1
  Si  Si11  1  0.630855  0.630855  0.000000  1
  Si  Si12  1  0.369145  0.000000  0.000000  1
  Si  Si13  1  0.000000  0.369145  0.000000  1
  P  P14  1  0.179799  0.179799  0.000000  1
  P  P15  1  0.820201  0.000000  0.000000  1
  P  P16  1  0.000000  0.820201  0.000000  1
  Ir  Ir17  1  0.872464  0.358262  0.500000  1
  Ir  Ir18  1  0.641738  0.514202  0.500000  1
  Ir  Ir19  1  0.485798  0.127536  0.500000  1
  Ir  Ir20  1  0.358262  0.872464  0.500000  1
  Ir  Ir21  1  0.514202  0.641738  0.500000  1
  Ir  Ir22  1  0.127536  0.485798  0.500000  1
  Ir  Ir23  1  0.000000  0.000000  0.000000  1
  Rh  Rh24  1  0.808002  0.178864  0.000000  1
  Rh  Rh25  1  0.821136  0.629138  0.000000  1
  Rh  Rh26  1  0.370862  0.191998  0.000000  1
  Rh  Rh27  1  0.178864  0.808002  0.000000  1
  Rh  Rh28  1  0.629138  0.821136  0.000000  1
  Rh  Rh29  1  0.191998  0.370862  0.000000  1
  Rh  Rh30  1  0.446171  0.446171  0.000000  1
  Rh  Rh31  1  0.553829  0.000000  0.000000  1
  Rh  Rh32  1  0.000000  0.553829  0.000000  1
  Rh  Rh33  1  0.276621  0.276621  0.500000  1
  Rh  Rh34  1  0.723379  0.000000  0.500000  1
  Rh  Rh35  1  0.000000  0.723379  0.500000  1
