# generated using pymatgen
data_Er2TeC2
_symmetry_space_group_name_H-M   'P 1'
_cell_length_a   7.33595287
_cell_length_b   7.33595197
_cell_length_c   6.88311956
_cell_angle_alpha   100.97638922
_cell_angle_beta   100.97638780
_cell_angle_gamma   32.74093523
_symmetry_Int_Tables_number   1
_chemical_formula_structural   Er2TeC2
_chemical_formula_sum   'Er4 Te2 C4'
_cell_volume   196.35571657
_cell_formula_units_Z   2
loop_
 _symmetry_equiv_pos_site_id
 _symmetry_equiv_pos_as_xyz
  1  'x, y, z'
loop_
 _atom_site_type_symbol
 _atom_site_label
 _atom_site_symmetry_multiplicity
 _atom_site_fract_x
 _atom_site_fract_y
 _atom_site_fract_z
 _atom_site_occupancy
  Er  Er0  1  0.470265  0.837588  0.141434  1
  Er  Er1  1  0.162412  0.529735  0.358566  1
  Er  Er2  1  0.837588  0.470266  0.641434  1
  Er  Er3  1  0.529735  0.162412  0.858566  1
  Te  Te4  1  0.789830  0.210169  0.250000  1
  Te  Te5  1  0.210169  0.789830  0.750000  1
  C  C6  1  0.104813  0.353987  0.035374  1
  C  C7  1  0.646013  0.895187  0.464625  1
  C  C8  1  0.353987  0.104813  0.535374  1
  C  C9  1  0.895187  0.646013  0.964626  1
