# generated using pymatgen
data_Dy6Al25Ru7
_symmetry_space_group_name_H-M   'P 1'
_cell_length_a   8.85978824
_cell_length_b   8.85978898
_cell_length_c   9.56387851
_cell_angle_alpha   90.24078054
_cell_angle_beta   89.75921779
_cell_angle_gamma   120.00054088
_symmetry_Int_Tables_number   1
_chemical_formula_structural   Dy6Al25Ru7
_chemical_formula_sum   'Dy6 Al25 Ru7'
_cell_volume   650.13556131
_cell_formula_units_Z   1
loop_
 _symmetry_equiv_pos_site_id
 _symmetry_equiv_pos_as_xyz
  1  'x, y, z'
loop_
 _atom_site_type_symbol
 _atom_site_label
 _atom_site_symmetry_multiplicity
 _atom_site_fract_x
 _atom_site_fract_y
 _atom_site_fract_z
 _atom_site_occupancy
  Dy  Dy0  1  0.806336  0.193664  0.744717  1
  Dy  Dy1  1  0.193664  0.806336  0.255283  1
  Dy  Dy2  1  0.385006  0.193546  0.754539  1
  Dy  Dy3  1  0.614994  0.806454  0.245461  1
  Dy  Dy4  1  0.806454  0.614994  0.754539  1
  Dy  Dy5  1  0.193546  0.385006  0.245461  1
  Al  Al6  1  0.673741  0.326259  0.978580  1
  Al  Al7  1  0.326259  0.673741  0.021420  1
  Al  Al8  1  0.333746  0.666254  0.482657  1
  Al  Al9  1  0.666254  0.333746  0.517343  1
  Al  Al10  1  0.837562  0.162438  0.421323  1
  Al  Al11  1  0.162438  0.837562  0.578677  1
  Al  Al12  1  0.324275  0.161613  0.425770  1
  Al  Al13  1  0.162482  0.837518  0.921164  1
  Al  Al14  1  0.675725  0.838387  0.574230  1
  Al  Al15  1  0.837518  0.162482  0.078836  1
  Al  Al16  1  0.838387  0.675725  0.425770  1
  Al  Al17  1  0.678953  0.852928  0.917258  1
  Al  Al18  1  0.161613  0.324275  0.574230  1
  Al  Al19  1  0.321047  0.147072  0.082742  1
  Al  Al20  1  0.147072  0.321047  0.917258  1
  Al  Al21  1  0.852928  0.678953  0.082742  1
  Al  Al22  1  0.434383  0.565617  0.740697  1
  Al  Al23  1  0.565617  0.434383  0.259303  1
  Al  Al24  1  0.120843  0.561869  0.751021  1
  Al  Al25  1  0.879157  0.438131  0.248979  1
  Al  Al26  1  0.438131  0.879157  0.751021  1
  Al  Al27  1  0.561869  0.120843  0.248979  1
  Al  Al28  1  0.000865  0.999135  0.749242  1
  Al  Al29  1  0.999135  0.000865  0.250758  1
  Al  Al30  1  0.500000  0.500000  0.000000  1
  Ru  Ru31  1  0.000000  0.500000  0.000000  1
  Ru  Ru32  1  0.500000  0.500000  0.500000  1
  Ru  Ru33  1  0.500000  0.000000  0.000000  1
  Ru  Ru34  1  0.000000  0.500000  0.500000  1
  Ru  Ru35  1  0.500000  0.000000  0.500000  1
  Ru  Ru36  1  0.000000  0.000000  0.000000  1
  Ru  Ru37  1  0.000000  0.000000  0.500000  1
