# generated using pymatgen
data_LaY2(Ir2Rh)3
_symmetry_space_group_name_H-M   'P 1'
_cell_length_a   5.34951478
_cell_length_b   5.34439688
_cell_length_c   17.52660802
_cell_angle_alpha   89.99980633
_cell_angle_beta   90.00478118
_cell_angle_gamma   119.96775929
_symmetry_Int_Tables_number   1
_chemical_formula_structural   LaY2(Ir2Rh)3
_chemical_formula_sum   'La2 Y4 Ir12 Rh6'
_cell_volume   434.09281556
_cell_formula_units_Z   2
loop_
 _symmetry_equiv_pos_site_id
 _symmetry_equiv_pos_as_xyz
  1  'x, y, z'
loop_
 _atom_site_type_symbol
 _atom_site_label
 _atom_site_symmetry_multiplicity
 _atom_site_fract_x
 _atom_site_fract_y
 _atom_site_fract_z
 _atom_site_occupancy
  La  La0  1  0.333238  0.666605  0.749650  1
  La  La1  1  0.666488  0.333251  0.250443  1
  Y  Y2  1  0.333017  0.666506  0.958853  1
  Y  Y3  1  0.667566  0.333786  0.040946  1
  Y  Y4  1  0.666797  0.333397  0.459481  1
  Y  Y5  1  0.333229  0.666613  0.540466  1
  Ir  Ir6  1  0.167529  0.832226  0.375295  1
  Ir  Ir7  1  0.167521  0.335322  0.375287  1
  Ir  Ir8  1  0.665161  0.832580  0.374901  1
  Ir  Ir9  1  0.832477  0.167823  0.624790  1
  Ir  Ir10  1  0.832484  0.664642  0.624797  1
  Ir  Ir11  1  0.335386  0.167688  0.624714  1
  Ir  Ir12  1  0.832070  0.167243  0.874963  1
  Ir  Ir13  1  0.832070  0.664826  0.874953  1
  Ir  Ir14  1  0.334823  0.167407  0.875129  1
  Ir  Ir15  1  0.165949  0.831451  0.125094  1
  Ir  Ir16  1  0.165941  0.334504  0.125106  1
  Ir  Ir17  1  0.999558  0.999781  0.500077  1
  Rh  Rh18  1  0.664275  0.832142  0.124877  1
  Rh  Rh19  1  0.332959  0.666536  0.249555  1
  Rh  Rh20  1  0.666721  0.333310  0.750462  1
  Rh  Rh21  1  0.001998  0.000961  0.249961  1
  Rh  Rh22  1  0.999755  0.999913  0.750059  1
  Rh  Rh23  1  0.002986  0.001487  0.000141  1
