# generated using pymatgen
data_ErZrB(Ir2Rh)2
_symmetry_space_group_name_H-M   'P 1'
_cell_length_a   5.76851256
_cell_length_b   5.77929305
_cell_length_c   5.76826849
_cell_angle_alpha   60.18089746
_cell_angle_beta   59.99859134
_cell_angle_gamma   60.06168589
_symmetry_Int_Tables_number   1
_chemical_formula_structural   ErZrB(Ir2Rh)2
_chemical_formula_sum   'Er1 Zr1 B1 Ir4 Rh2'
_cell_volume   136.22512703
_cell_formula_units_Z   1
loop_
 _symmetry_equiv_pos_site_id
 _symmetry_equiv_pos_as_xyz
  1  'x, y, z'
loop_
 _atom_site_type_symbol
 _atom_site_label
 _atom_site_symmetry_multiplicity
 _atom_site_fract_x
 _atom_site_fract_y
 _atom_site_fract_z
 _atom_site_occupancy
  Er  Er0  1  0.749875  0.750065  0.750185  1
  Zr  Zr1  1  0.250167  0.249661  0.250004  1
  B  B2  1  0.999982  0.000112  0.999923  1
  Ir  Ir3  1  0.742322  0.257235  0.258121  1
  Ir  Ir4  1  0.258452  0.258267  0.741716  1
  Ir  Ir5  1  0.741564  0.258267  0.741716  1
  Ir  Ir6  1  0.257602  0.741971  0.742824  1
  Rh  Rh7  1  0.742426  0.742211  0.257756  1
  Rh  Rh8  1  0.257608  0.742211  0.257756  1
