# generated using pymatgen
data_GdEr2TaO7
_symmetry_space_group_name_H-M   'P 1'
_cell_length_a   6.35828688
_cell_length_b   6.49594020
_cell_length_c   7.57783266
_cell_angle_alpha   106.71566149
_cell_angle_beta   89.73255831
_cell_angle_gamma   97.63738950
_symmetry_Int_Tables_number   1
_chemical_formula_structural   GdEr2TaO7
_chemical_formula_sum   'Gd2 Er4 Ta2 O14'
_cell_volume   296.91708035
_cell_formula_units_Z   2
loop_
 _symmetry_equiv_pos_site_id
 _symmetry_equiv_pos_as_xyz
  1  'x, y, z'
loop_
 _atom_site_type_symbol
 _atom_site_label
 _atom_site_symmetry_multiplicity
 _atom_site_fract_x
 _atom_site_fract_y
 _atom_site_fract_z
 _atom_site_occupancy
  Gd  Gd0  1  0.261621  0.537287  0.388352  1
  Gd  Gd1  1  0.262567  0.535692  0.883167  1
  Er  Er2  1  0.736578  0.460422  0.114396  1
  Er  Er3  1  0.730114  0.445037  0.604065  1
  Er  Er4  1  0.546216  0.990305  0.749747  1
  Er  Er5  1  0.456364  0.005614  0.248791  1
  Ta  Ta6  1  0.998783  0.999593  0.001604  1
  Ta  Ta7  1  0.998415  0.996885  0.497935  1
  O  O8  1  0.705161  0.066755  0.481571  1
  O  O9  1  0.918849  0.682481  0.957251  1
  O  O10  1  0.705419  0.069975  0.050687  1
  O  O11  1  0.919004  0.673722  0.391619  1
  O  O12  1  0.914803  0.965123  0.741131  1
  O  O13  1  0.563339  0.343620  0.833347  1
  O  O14  1  0.543779  0.356796  0.338562  1
  O  O15  1  0.468188  0.638967  0.658520  1
  O  O16  1  0.450847  0.654627  0.164759  1
  O  O17  1  0.095619  0.045742  0.262655  1
  O  O18  1  0.067195  0.335670  0.602858  1
  O  O19  1  0.292362  0.932990  0.946881  1
  O  O20  1  0.073858  0.327506  0.060528  1
  O  O21  1  0.290919  0.935190  0.521573  1
