# generated using pymatgen
data_CaThAu2
_symmetry_space_group_name_H-M   'P 1'
_cell_length_a   5.91395862
_cell_length_b   5.91395858
_cell_length_c   4.90067900
_cell_angle_alpha   90.00000000
_cell_angle_beta   90.00000000
_cell_angle_gamma   142.91462512
_symmetry_Int_Tables_number   1
_chemical_formula_structural   CaThAu2
_chemical_formula_sum   'Ca1 Th1 Au2'
_cell_volume   103.35542643
_cell_formula_units_Z   1
loop_
 _symmetry_equiv_pos_site_id
 _symmetry_equiv_pos_as_xyz
  1  'x, y, z'
loop_
 _atom_site_type_symbol
 _atom_site_label
 _atom_site_symmetry_multiplicity
 _atom_site_fract_x
 _atom_site_fract_y
 _atom_site_fract_z
 _atom_site_occupancy
  Ca  Ca0  1  0.861893  0.138107  0.250000  1
  Th  Th1  1  0.134402  0.865598  0.750000  1
  Au  Au2  1  0.411889  0.588111  0.750000  1
  Au  Au3  1  0.591816  0.408184  0.250000  1
