# generated using pymatgen
data_Zr6Nb3Al13FeCo6
_symmetry_space_group_name_H-M   'P 1'
_cell_length_a   8.68464364
_cell_length_b   8.68464232
_cell_length_c   8.68464344
_cell_angle_alpha   59.71517764
_cell_angle_beta   59.71518232
_cell_angle_gamma   59.71517678
_symmetry_Int_Tables_number   1
_chemical_formula_structural   Zr6Nb3Al13FeCo6
_chemical_formula_sum   'Zr6 Nb3 Al13 Fe1 Co6'
_cell_volume   460.17426053
_cell_formula_units_Z   1
loop_
 _symmetry_equiv_pos_site_id
 _symmetry_equiv_pos_as_xyz
  1  'x, y, z'
loop_
 _atom_site_type_symbol
 _atom_site_label
 _atom_site_symmetry_multiplicity
 _atom_site_fract_x
 _atom_site_fract_y
 _atom_site_fract_z
 _atom_site_occupancy
  Zr  Zr0  1  0.694185  0.694185  0.303335  1
  Zr  Zr1  1  0.307851  0.691593  0.307851  1
  Zr  Zr2  1  0.691593  0.307851  0.307851  1
  Zr  Zr3  1  0.307851  0.307851  0.691593  1
  Zr  Zr4  1  0.694185  0.303335  0.694185  1
  Zr  Zr5  1  0.303335  0.694185  0.694185  1
  Nb  Nb6  1  0.881055  0.881055  0.356010  1
  Nb  Nb7  1  0.881055  0.356010  0.881055  1
  Nb  Nb8  1  0.356010  0.881055  0.881055  1
  Al  Al9  1  0.882391  0.882391  0.882391  1
  Al  Al10  1  0.117986  0.117986  0.641251  1
  Al  Al11  1  0.117986  0.641251  0.117986  1
  Al  Al12  1  0.641251  0.117986  0.117986  1
  Al  Al13  1  0.120683  0.120683  0.120683  1
  Al  Al14  1  0.667863  0.667863  0.003854  1
  Al  Al15  1  0.667863  0.003854  0.667863  1
  Al  Al16  1  0.003854  0.667863  0.667863  1
  Al  Al17  1  0.662857  0.662857  0.662857  1
  Al  Al18  1  0.334873  0.334873  0.996545  1
  Al  Al19  1  0.334873  0.996545  0.334873  1
  Al  Al20  1  0.996545  0.334873  0.334873  1
  Al  Al21  1  0.334405  0.334405  0.334405  1
  Fe  Fe22  1  0.002416  0.002416  0.002416  1
  Co  Co23  1  0.998570  0.998570  0.496097  1
  Co  Co24  1  0.503328  0.997141  0.503328  1
  Co  Co25  1  0.997141  0.503328  0.503328  1
  Co  Co26  1  0.503328  0.503328  0.997141  1
  Co  Co27  1  0.998570  0.496097  0.998570  1
  Co  Co28  1  0.496097  0.998570  0.998570  1
