# generated using pymatgen
data_Tb8DyHoIn6
_symmetry_space_group_name_H-M   'P 1'
_cell_length_a   6.05660246
_cell_length_b   9.21235535
_cell_length_c   9.21235622
_cell_angle_alpha   83.79662918
_cell_angle_beta   70.80879530
_cell_angle_gamma   70.80880138
_symmetry_Int_Tables_number   1
_chemical_formula_structural   Tb8DyHoIn6
_chemical_formula_sum   'Tb8 Dy1 Ho1 In6'
_cell_volume   458.46599980
_cell_formula_units_Z   1
loop_
 _symmetry_equiv_pos_site_id
 _symmetry_equiv_pos_as_xyz
  1  'x, y, z'
loop_
 _atom_site_type_symbol
 _atom_site_label
 _atom_site_symmetry_multiplicity
 _atom_site_fract_x
 _atom_site_fract_y
 _atom_site_fract_z
 _atom_site_occupancy
  Tb  Tb0  1  0.719518  0.862519  0.698520  1
  Tb  Tb1  1  0.280556  0.137481  0.301480  1
  Tb  Tb2  1  0.780482  0.301480  0.137481  1
  Tb  Tb3  1  0.219444  0.698520  0.862519  1
  Tb  Tb4  1  0.581962  0.698520  0.137481  1
  Tb  Tb5  1  0.417963  0.301480  0.862519  1
  Tb  Tb6  1  0.082037  0.137481  0.698520  1
  Tb  Tb7  1  0.918038  0.862519  0.301480  1
  Dy  Dy8  1  0.750000  0.500000  0.500000  1
  Ho  Ho9  1  0.250000  0.500000  0.500000  1
  In  In10  1  0.161998  0.500000  0.176363  1
  In  In11  1  0.838362  0.500000  0.823637  1
  In  In12  1  0.338002  0.823637  0.500000  1
  In  In13  1  0.661638  0.176363  0.500000  1
  In  In14  1  0.250000  0.000000  0.000000  1
  In  In15  1  0.750000  0.000000  0.000000  1
