# generated using pymatgen
data_Cs3RbNa4Ti8(PO5)8
_symmetry_space_group_name_H-M   'P 1'
_cell_length_a   6.39985800
_cell_length_b   10.70330500
_cell_length_c   12.98808000
_cell_angle_alpha   90.00000000
_cell_angle_beta   90.00000000
_cell_angle_gamma   90.00000000
_symmetry_Int_Tables_number   1
_chemical_formula_structural   Cs3RbNa4Ti8(PO5)8
_chemical_formula_sum   'Cs3 Rb1 Na4 Ti8 P8 O40'
_cell_volume   889.67870208
_cell_formula_units_Z   1
loop_
 _symmetry_equiv_pos_site_id
 _symmetry_equiv_pos_as_xyz
  1  'x, y, z'
loop_
 _atom_site_type_symbol
 _atom_site_label
 _atom_site_symmetry_multiplicity
 _atom_site_fract_x
 _atom_site_fract_y
 _atom_site_fract_z
 _atom_site_occupancy
  Cs  Cs0  1  0.145721  0.585561  0.094518  1
  Cs  Cs1  1  0.853149  0.085999  0.905596  1
  Cs  Cs2  1  0.353543  0.585772  0.594237  1
  Rb  Rb3  1  0.655800  0.082540  0.403863  1
  Na  Na4  1  0.743717  0.298561  0.154672  1
  Na  Na5  1  0.257255  0.799092  0.845698  1
  Na  Na6  1  0.756762  0.298328  0.653440  1
  Na  Na7  1  0.243108  0.799433  0.346442  1
  Ti  Ti8  1  0.474120  0.011311  0.128831  1
  Ti  Ti9  1  0.526539  0.511059  0.872432  1
  Ti  Ti10  1  0.024532  0.011791  0.626307  1
  Ti  Ti11  1  0.973669  0.511134  0.372496  1
  Ti  Ti12  1  0.245577  0.270742  0.248788  1
  Ti  Ti13  1  0.756587  0.772315  0.752428  1
  Ti  Ti14  1  0.256449  0.271434  0.747074  1
  Ti  Ti15  1  0.742615  0.772356  0.253044  1
  P  P16  1  0.339468  0.275034  0.999750  1
  P  P17  1  0.660733  0.775746  0.001142  1
  P  P18  1  0.160885  0.274239  0.498801  1
  P  P19  1  0.838259  0.776304  0.500479  1
  P  P20  1  0.983219  0.025240  0.187906  1
  P  P21  1  0.016413  0.524641  0.813250  1
  P  P22  1  0.515574  0.024836  0.684051  1
  P  P23  1  0.483647  0.524650  0.313409  1
  O  O24  1  0.014797  0.391039  0.489923  1
  O  O25  1  0.987871  0.891513  0.508251  1
  O  O26  1  0.487875  0.390818  0.991069  1
  O  O27  1  0.511231  0.891002  0.009908  1
  O  O28  1  0.283863  0.551304  0.375945  1
  O  O29  1  0.712772  0.050948  0.619164  1
  O  O30  1  0.216331  0.550952  0.875840  1
  O  O31  1  0.784212  0.051046  0.124463  1
  O  O32  1  0.441466  0.156360  0.219184  1
  O  O33  1  0.562134  0.657656  0.784130  1
  O  O34  1  0.060294  0.157588  0.715443  1
  O  O35  1  0.937121  0.657791  0.284190  1
  O  O36  1  0.011911  0.399353  0.272314  1
  O  O37  1  0.988205  0.900893  0.727534  1
  O  O38  1  0.489967  0.399837  0.771537  1
  O  O39  1  0.509524  0.900307  0.229857  1
  O  O40  1  0.455132  0.412255  0.239320  1
  O  O41  1  0.545107  0.913304  0.759001  1
  O  O42  1  0.044786  0.412445  0.738952  1
  O  O43  1  0.953799  0.913346  0.262302  1
  O  O44  1  0.166989  0.999574  0.114105  1
  O  O45  1  0.833538  0.498666  0.887579  1
  O  O46  1  0.330685  0.998867  0.610958  1
  O  O47  1  0.666558  0.498637  0.387709  1
  O  O48  1  0.471224  0.157098  0.015866  1
  O  O49  1  0.530131  0.657286  0.985627  1
  O  O50  1  0.024264  0.157833  0.513051  1
  O  O51  1  0.968943  0.657919  0.484988  1
  O  O52  1  0.019412  0.145394  0.253170  1
  O  O53  1  0.978954  0.644951  0.748360  1
  O  O54  1  0.479708  0.144754  0.749709  1
  O  O55  1  0.521067  0.644716  0.248382  1
  O  O56  1  0.294406  0.261073  0.398890  1
  O  O57  1  0.710694  0.764880  0.602306  1
  O  O58  1  0.211741  0.263642  0.897834  1
  O  O59  1  0.789213  0.765102  0.102826  1
  O  O60  1  0.185431  0.296081  0.091612  1
  O  O61  1  0.814996  0.797819  0.909442  1
  O  O62  1  0.313417  0.295692  0.591152  1
  O  O63  1  0.682890  0.799333  0.409449  1
