# generated using pymatgen
data_Er7TmLu8(Ga3Co)2
_symmetry_space_group_name_H-M   'P 1'
_cell_length_a   9.81346811
_cell_length_b   9.81346764
_cell_length_c   6.89001906
_cell_angle_alpha   90.00360672
_cell_angle_beta   89.99639950
_cell_angle_gamma   119.99199480
_symmetry_Int_Tables_number   1
_chemical_formula_structural   Er7TmLu8(Ga3Co)2
_chemical_formula_sum   'Er7 Tm1 Lu8 Ga6 Co2'
_cell_volume   574.68662706
_cell_formula_units_Z   1
loop_
 _symmetry_equiv_pos_site_id
 _symmetry_equiv_pos_as_xyz
  1  'x, y, z'
loop_
 _atom_site_type_symbol
 _atom_site_label
 _atom_site_symmetry_multiplicity
 _atom_site_fract_x
 _atom_site_fract_y
 _atom_site_fract_z
 _atom_site_occupancy
  Er  Er0  1  0.073024  0.536467  0.208528  1
  Er  Er1  1  0.463533  0.926976  0.208528  1
  Er  Er2  1  0.536308  0.463692  0.708417  1
  Er  Er3  1  0.927190  0.463626  0.708493  1
  Er  Er4  1  0.536374  0.072810  0.708493  1
  Er  Er5  1  0.999982  0.000018  0.232315  1
  Er  Er6  1  0.000019  0.999981  0.732302  1
  Tm  Tm7  1  0.463443  0.536557  0.208221  1
  Lu  Lu8  1  0.174008  0.825992  0.512757  1
  Lu  Lu9  1  0.651902  0.825783  0.512521  1
  Lu  Lu10  1  0.174217  0.348098  0.512521  1
  Lu  Lu11  1  0.825980  0.174020  0.012780  1
  Lu  Lu12  1  0.348150  0.174311  0.013005  1
  Lu  Lu13  1  0.825689  0.651850  0.013005  1
  Lu  Lu14  1  0.333469  0.666531  0.826206  1
  Lu  Lu15  1  0.666529  0.333471  0.325821  1
  Ga  Ga16  1  0.163570  0.836430  0.956156  1
  Ga  Ga17  1  0.672597  0.836201  0.956408  1
  Ga  Ga18  1  0.163799  0.327403  0.956408  1
  Ga  Ga19  1  0.836411  0.163589  0.456325  1
  Ga  Ga20  1  0.327209  0.163604  0.456120  1
  Ga  Ga21  1  0.836396  0.672791  0.456120  1
  Co  Co22  1  0.333557  0.666443  0.446596  1
  Co  Co23  1  0.666643  0.333357  0.946785  1
