# generated using pymatgen
data_Tb2Ho2Al4NiRh3
_symmetry_space_group_name_H-M   'P 1'
_cell_length_a   4.22112100
_cell_length_b   6.83597895
_cell_length_c   7.91232229
_cell_angle_alpha   89.40487022
_cell_angle_beta   90.00000000
_cell_angle_gamma   90.00000000
_symmetry_Int_Tables_number   1
_chemical_formula_structural   Tb2Ho2Al4NiRh3
_chemical_formula_sum   'Tb2 Ho2 Al4 Ni1 Rh3'
_cell_volume   228.30165456
_cell_formula_units_Z   1
loop_
 _symmetry_equiv_pos_site_id
 _symmetry_equiv_pos_as_xyz
  1  'x, y, z'
loop_
 _atom_site_type_symbol
 _atom_site_label
 _atom_site_symmetry_multiplicity
 _atom_site_fract_x
 _atom_site_fract_y
 _atom_site_fract_z
 _atom_site_occupancy
  Tb  Tb0  1  0.250000  0.539538  0.177285  1
  Tb  Tb1  1  0.750000  0.466128  0.821059  1
  Ho  Ho2  1  0.750000  0.962159  0.681589  1
  Ho  Ho3  1  0.250000  0.036340  0.322011  1
  Al  Al4  1  0.250000  0.637267  0.563412  1
  Al  Al5  1  0.750000  0.364011  0.439999  1
  Al  Al6  1  0.750000  0.863472  0.055893  1
  Al  Al7  1  0.250000  0.128651  0.939439  1
  Ni  Ni8  1  0.250000  0.770144  0.875643  1
  Rh  Rh9  1  0.750000  0.233377  0.121317  1
  Rh  Rh10  1  0.750000  0.738132  0.381052  1
  Rh  Rh11  1  0.250000  0.260780  0.621304  1
