# generated using pymatgen
data_Dy4TmGa3P9Ir19
_symmetry_space_group_name_H-M   'P 1'
_cell_length_a   12.85626400
_cell_length_b   12.85626367
_cell_length_c   3.95775300
_cell_angle_alpha   90.00000000
_cell_angle_beta   90.00000000
_cell_angle_gamma   119.99999055
_symmetry_Int_Tables_number   1
_chemical_formula_structural   Dy4TmGa3P9Ir19
_chemical_formula_sum   'Dy4 Tm1 Ga3 P9 Ir19'
_cell_volume   566.51173797
_cell_formula_units_Z   1
loop_
 _symmetry_equiv_pos_site_id
 _symmetry_equiv_pos_as_xyz
  1  'x, y, z'
loop_
 _atom_site_type_symbol
 _atom_site_label
 _atom_site_symmetry_multiplicity
 _atom_site_fract_x
 _atom_site_fract_y
 _atom_site_fract_z
 _atom_site_occupancy
  Dy  Dy0  1  0.333333  0.666667  0.500000  1
  Dy  Dy1  1  0.181741  0.181763  0.000000  1
  Dy  Dy2  1  0.818237  0.999979  0.000000  1
  Dy  Dy3  1  0.000021  0.818259  0.000000  1
  Tm  Tm4  1  0.666667  0.333333  0.500000  1
  Ga  Ga5  1  0.357585  0.357540  0.500000  1
  Ga  Ga6  1  0.642460  0.000044  0.500000  1
  Ga  Ga7  1  0.999956  0.642415  0.500000  1
  P  P8  1  0.309331  0.826205  0.000000  1
  P  P9  1  0.173795  0.483126  0.000000  1
  P  P10  1  0.516874  0.690669  0.000000  1
  P  P11  1  0.825520  0.309258  0.000000  1
  P  P12  1  0.483738  0.174480  0.000000  1
  P  P13  1  0.690742  0.516262  0.000000  1
  P  P14  1  0.820717  0.820591  0.500000  1
  P  P15  1  0.179409  0.000126  0.500000  1
  P  P16  1  0.999874  0.179283  0.500000  1
  Ir  Ir17  1  0.205432  0.826038  0.500000  1
  Ir  Ir18  1  0.173962  0.379394  0.500000  1
  Ir  Ir19  1  0.620606  0.794568  0.500000  1
  Ir  Ir20  1  0.825749  0.205633  0.500000  1
  Ir  Ir21  1  0.379884  0.174251  0.500000  1
  Ir  Ir22  1  0.794367  0.620116  0.500000  1
  Ir  Ir23  1  0.133104  0.636887  0.000000  1
  Ir  Ir24  1  0.363113  0.496216  0.000000  1
  Ir  Ir25  1  0.503784  0.866896  0.000000  1
  Ir  Ir26  1  0.636936  0.134081  0.000000  1
  Ir  Ir27  1  0.497145  0.363064  0.000000  1
  Ir  Ir28  1  0.865919  0.502855  0.000000  1
  Ir  Ir29  1  0.550036  0.549977  0.500000  1
  Ir  Ir30  1  0.450023  0.000059  0.500000  1
  Ir  Ir31  1  0.999941  0.449964  0.500000  1
  Ir  Ir32  1  0.716349  0.716161  0.000000  1
  Ir  Ir33  1  0.283839  0.000188  0.000000  1
  Ir  Ir34  1  0.999812  0.283651  0.000000  1
  Ir  Ir35  1  0.000000  0.000000  0.500000  1
