# generated using pymatgen
data_SmEr19Si15Rh
_symmetry_space_group_name_H-M   'P 1'
_cell_length_a   7.38582671
_cell_length_b   7.62802821
_cell_length_c   14.46956726
_cell_angle_alpha   90.24354603
_cell_angle_beta   90.38679352
_cell_angle_gamma   90.13659296
_symmetry_Int_Tables_number   1
_chemical_formula_structural   SmEr19Si15Rh
_chemical_formula_sum   'Sm1 Er19 Si15 Rh1'
_cell_volume   815.17689851
_cell_formula_units_Z   1
loop_
 _symmetry_equiv_pos_site_id
 _symmetry_equiv_pos_as_xyz
  1  'x, y, z'
loop_
 _atom_site_type_symbol
 _atom_site_label
 _atom_site_symmetry_multiplicity
 _atom_site_fract_x
 _atom_site_fract_y
 _atom_site_fract_z
 _atom_site_occupancy
  Sm  Sm0  1  0.024324  0.819136  0.599028  1
  Er  Er1  1  0.525157  0.683012  0.597648  1
  Er  Er2  1  0.321376  0.818967  0.121924  1
  Er  Er3  1  0.816895  0.679980  0.122478  1
  Er  Er4  1  0.851247  0.505745  0.749595  1
  Er  Er5  1  0.471233  0.316071  0.099484  1
  Er  Er6  1  0.028207  0.818107  0.901425  1
  Er  Er7  1  0.472378  0.316163  0.401724  1
  Er  Er8  1  0.652608  0.012122  0.257593  1
  Er  Er9  1  0.529635  0.682333  0.900721  1
  Er  Er10  1  0.680997  0.179981  0.877756  1
  Er  Er11  1  0.178623  0.321314  0.623949  1
  Er  Er12  1  0.184375  0.322999  0.875980  1
  Er  Er13  1  0.816358  0.687934  0.381911  1
  Er  Er14  1  0.323768  0.824992  0.377627  1
  Er  Er15  1  0.352721  0.990836  0.747827  1
  Er  Er16  1  0.682685  0.165699  0.618282  1
  Er  Er17  1  0.147338  0.490283  0.252062  1
  Er  Er18  1  0.971380  0.181306  0.098258  1
  Er  Er19  1  0.971611  0.177238  0.401145  1
  Si  Si20  1  0.234520  0.628159  0.751633  1
  Si  Si21  1  0.345151  0.030209  0.540512  1
  Si  Si22  1  0.027040  0.892928  0.246552  1
  Si  Si23  1  0.732582  0.869653  0.752902  1
  Si  Si24  1  0.265732  0.128326  0.246189  1
  Si  Si25  1  0.850419  0.469821  0.541298  1
  Si  Si26  1  0.481382  0.391983  0.748801  1
  Si  Si27  1  0.148364  0.529851  0.460751  1
  Si  Si28  1  0.147312  0.527999  0.040087  1
  Si  Si29  1  0.977480  0.105600  0.752453  1
  Si  Si30  1  0.768259  0.375859  0.248761  1
  Si  Si31  1  0.350999  0.029906  0.959908  1
  Si  Si32  1  0.856037  0.471635  0.959181  1
  Si  Si33  1  0.646615  0.970989  0.039256  1
  Si  Si34  1  0.521941  0.603213  0.248453  1
  Rh  Rh35  1  0.643252  0.979651  0.456846  1
