# generated using pymatgen
data_Rb2LiCrS4
_symmetry_space_group_name_H-M   'P 1'
_cell_length_a   13.57751430
_cell_length_b   12.17888415
_cell_length_c   7.30137587
_cell_angle_alpha   84.42208753
_cell_angle_beta   63.21984455
_cell_angle_gamma   32.35806376
_symmetry_Int_Tables_number   1
_chemical_formula_structural   Rb2LiCrS4
_chemical_formula_sum   'Rb4 Li2 Cr2 S8'
_cell_volume   464.44093671
_cell_formula_units_Z   2
loop_
 _symmetry_equiv_pos_site_id
 _symmetry_equiv_pos_as_xyz
  1  'x, y, z'
loop_
 _atom_site_type_symbol
 _atom_site_label
 _atom_site_symmetry_multiplicity
 _atom_site_fract_x
 _atom_site_fract_y
 _atom_site_fract_z
 _atom_site_occupancy
  Rb  Rb0  1  0.678224  0.678224  0.321776  1
  Rb  Rb1  1  0.928224  0.928224  0.571776  1
  Rb  Rb2  1  0.571776  0.571776  0.928224  1
  Rb  Rb3  1  0.321776  0.321776  0.678224  1
  Li  Li4  1  0.000000  0.000000  0.000000  1
  Li  Li5  1  0.250000  0.250000  0.250000  1
  Cr  Cr6  1  0.500000  0.500000  0.500000  1
  Cr  Cr7  1  0.750000  0.750000  0.750000  1
  S  S8  1  0.920408  0.682949  0.395120  1
  S  S9  1  0.329592  0.567051  0.854880  1
  S  S10  1  0.682949  0.920408  0.001521  1
  S  S11  1  0.854880  0.248479  0.329592  1
  S  S12  1  0.567051  0.329592  0.248479  1
  S  S13  1  0.248479  0.854880  0.567051  1
  S  S14  1  0.395120  0.001521  0.920408  1
  S  S15  1  0.001521  0.395120  0.682949  1
