# generated using pymatgen
data_NaFe3(NO3)8
_symmetry_space_group_name_H-M   'P 1'
_cell_length_a   7.63994486
_cell_length_b   7.64673127
_cell_length_c   7.64091900
_cell_angle_alpha   90.45006991
_cell_angle_beta   90.43169790
_cell_angle_gamma   90.43057138
_symmetry_Int_Tables_number   1
_chemical_formula_structural   NaFe3(NO3)8
_chemical_formula_sum   'Na1 Fe3 N8 O24'
_cell_volume   446.34786585
_cell_formula_units_Z   1
loop_
 _symmetry_equiv_pos_site_id
 _symmetry_equiv_pos_as_xyz
  1  'x, y, z'
loop_
 _atom_site_type_symbol
 _atom_site_label
 _atom_site_symmetry_multiplicity
 _atom_site_fract_x
 _atom_site_fract_y
 _atom_site_fract_z
 _atom_site_occupancy
  Na  Na0  1  0.000000  0.000000  0.000000  1
  Fe  Fe1  1  0.000000  0.500000  0.500000  1
  Fe  Fe2  1  0.500000  0.500000  0.000000  1
  Fe  Fe3  1  0.500000  0.000000  0.500000  1
  N  N4  1  0.335532  0.341217  0.328088  1
  N  N5  1  0.834042  0.160000  0.635349  1
  N  N6  1  0.166639  0.631013  0.833977  1
  N  N7  1  0.640770  0.827152  0.157517  1
  N  N8  1  0.165958  0.840000  0.364651  1
  N  N9  1  0.664468  0.658783  0.671912  1
  N  N10  1  0.359230  0.172848  0.842483  1
  N  N11  1  0.833361  0.368987  0.166023  1
  O  O12  1  0.974439  0.251054  0.621855  1
  O  O13  1  0.025561  0.748946  0.378145  1
  O  O14  1  0.624824  0.965244  0.248091  1
  O  O15  1  0.257173  0.613201  0.977543  1
  O  O16  1  0.334712  0.229638  0.447083  1
  O  O17  1  0.456434  0.334525  0.211540  1
  O  O18  1  0.222384  0.458661  0.320319  1
  O  O19  1  0.665288  0.770362  0.552917  1
  O  O20  1  0.543566  0.665475  0.788460  1
  O  O21  1  0.777616  0.541339  0.679681  1
  O  O22  1  0.713619  0.179320  0.520334  1
  O  O23  1  0.524565  0.704390  0.176779  1
  O  O24  1  0.187832  0.520535  0.712198  1
  O  O25  1  0.286381  0.820680  0.479666  1
  O  O26  1  0.475435  0.295610  0.823221  1
  O  O27  1  0.812168  0.479465  0.287802  1
  O  O28  1  0.183109  0.944812  0.242757  1
  O  O29  1  0.238537  0.191359  0.947518  1
  O  O30  1  0.937176  0.246731  0.177154  1
  O  O31  1  0.816891  0.055188  0.757243  1
  O  O32  1  0.761463  0.808641  0.052482  1
  O  O33  1  0.062824  0.753269  0.822846  1
  O  O34  1  0.375176  0.034756  0.751909  1
  O  O35  1  0.742827  0.386799  0.022457  1
