# generated using pymatgen
data_Y6ReBi2
_symmetry_space_group_name_H-M   'P 1'
_cell_length_a   8.29048900
_cell_length_b   8.29048954
_cell_length_c   4.35101700
_cell_angle_alpha   90.00000000
_cell_angle_beta   90.00000000
_cell_angle_gamma   119.99999384
_symmetry_Int_Tables_number   1
_chemical_formula_structural   Y6ReBi2
_chemical_formula_sum   'Y6 Re1 Bi2'
_cell_volume   258.98926437
_cell_formula_units_Z   1
loop_
 _symmetry_equiv_pos_site_id
 _symmetry_equiv_pos_as_xyz
  1  'x, y, z'
loop_
 _atom_site_type_symbol
 _atom_site_label
 _atom_site_symmetry_multiplicity
 _atom_site_fract_x
 _atom_site_fract_y
 _atom_site_fract_z
 _atom_site_occupancy
  Y  Y0  1  0.232540  0.000000  0.500000  1
  Y  Y1  1  0.000000  0.232540  0.500000  1
  Y  Y2  1  0.767460  0.767460  0.500000  1
  Y  Y3  1  0.609213  0.000000  0.000000  1
  Y  Y4  1  0.000000  0.609213  0.000000  1
  Y  Y5  1  0.390787  0.390787  0.000000  1
  Re  Re6  1  0.000000  0.000000  0.000000  1
  Bi  Bi7  1  0.333333  0.666667  0.500000  1
  Bi  Bi8  1  0.666667  0.333333  0.500000  1
