# generated using pymatgen
data_TbEr5(SbO7)2
_symmetry_space_group_name_H-M   'P 1'
_cell_length_a   6.43435814
_cell_length_b   6.43435862
_cell_length_c   7.49332013
_cell_angle_alpha   90.01778177
_cell_angle_beta   89.98221589
_cell_angle_gamma   109.35061028
_symmetry_Int_Tables_number   1
_chemical_formula_structural   TbEr5(SbO7)2
_chemical_formula_sum   'Tb1 Er5 Sb2 O14'
_cell_volume   292.70532810
_cell_formula_units_Z   1
loop_
 _symmetry_equiv_pos_site_id
 _symmetry_equiv_pos_as_xyz
  1  'x, y, z'
loop_
 _atom_site_type_symbol
 _atom_site_label
 _atom_site_symmetry_multiplicity
 _atom_site_fract_x
 _atom_site_fract_y
 _atom_site_fract_z
 _atom_site_occupancy
  Tb  Tb0  1  0.500000  0.500000  0.000000  1
  Er  Er1  1  0.500000  0.500000  0.500000  1
  Er  Er2  1  0.531454  0.000504  0.749191  1
  Er  Er3  1  0.000504  0.531454  0.250809  1
  Er  Er4  1  0.468546  0.999496  0.250809  1
  Er  Er5  1  0.999496  0.468546  0.749191  1
  Sb  Sb6  1  0.000000  0.000000  0.500000  1
  Sb  Sb7  1  0.000000  0.000000  0.000000  1
  O  O8  1  0.676119  0.927014  0.469987  1
  O  O9  1  0.927014  0.676119  0.530013  1
  O  O10  1  0.676015  0.927976  0.030102  1
  O  O11  1  0.927976  0.676015  0.969898  1
  O  O12  1  0.323881  0.072986  0.530013  1
  O  O13  1  0.072986  0.323881  0.469987  1
  O  O14  1  0.323985  0.072024  0.969898  1
  O  O15  1  0.072024  0.323985  0.030102  1
  O  O16  1  0.928575  0.071425  0.750074  1
  O  O17  1  0.071425  0.928575  0.249926  1
  O  O18  1  0.368551  0.631449  0.747236  1
  O  O19  1  0.631449  0.368551  0.252764  1
  O  O20  1  0.638572  0.361428  0.747712  1
  O  O21  1  0.361428  0.638572  0.252288  1
