# generated using pymatgen
data_Dy3Er13In4OsRh3
_symmetry_space_group_name_H-M   'P 1'
_cell_length_a   9.57841558
_cell_length_b   9.61821975
_cell_length_c   9.59496700
_cell_angle_alpha   60.07994396
_cell_angle_beta   59.94282549
_cell_angle_gamma   60.10586254
_symmetry_Int_Tables_number   1
_chemical_formula_structural   Dy3Er13In4OsRh3
_chemical_formula_sum   'Dy3 Er13 In4 Os1 Rh3'
_cell_volume   625.65757469
_cell_formula_units_Z   1
loop_
 _symmetry_equiv_pos_site_id
 _symmetry_equiv_pos_as_xyz
  1  'x, y, z'
loop_
 _atom_site_type_symbol
 _atom_site_label
 _atom_site_symmetry_multiplicity
 _atom_site_fract_x
 _atom_site_fract_y
 _atom_site_fract_z
 _atom_site_occupancy
  Dy  Dy0  1  0.188387  0.192590  0.809512  1
  Dy  Dy1  1  0.438020  0.061361  0.062476  1
  Dy  Dy2  1  0.438020  0.061361  0.438143  1
  Er  Er3  1  0.058108  0.437956  0.059219  1
  Er  Er4  1  0.649827  0.048767  0.650703  1
  Er  Er5  1  0.191234  0.808932  0.809446  1
  Er  Er6  1  0.060391  0.060928  0.439340  1
  Er  Er7  1  0.810108  0.192960  0.188671  1
  Er  Er8  1  0.811241  0.808424  0.190168  1
  Er  Er9  1  0.650762  0.650109  0.046910  1
  Er  Er10  1  0.650762  0.650109  0.652217  1
  Er  Er11  1  0.058108  0.437956  0.444717  1
  Er  Er12  1  0.047847  0.649833  0.651159  1
  Er  Er13  1  0.810108  0.192960  0.808261  1
  Er  Er14  1  0.444652  0.438082  0.058633  1
  Er  Er15  1  0.191234  0.808932  0.190389  1
  In  In16  1  0.417777  0.746945  0.417639  1
  In  In17  1  0.417665  0.416644  0.748640  1
  In  In18  1  0.749229  0.416228  0.417272  1
  In  In19  1  0.417665  0.416644  0.417051  1
  Os  Os20  1  0.856730  0.425709  0.858781  1
  Rh  Rh21  1  0.858878  0.859519  0.423671  1
  Rh  Rh22  1  0.424366  0.857534  0.859049  1
  Rh  Rh23  1  0.858878  0.859519  0.857931  1
