# generated using pymatgen
data_TbHo6Co6Sn22Pd
_symmetry_space_group_name_H-M   'P 1'
_cell_length_a   9.64331200
_cell_length_b   9.64331099
_cell_length_c   9.88511200
_cell_angle_alpha   90.00000000
_cell_angle_beta   90.00000000
_cell_angle_gamma   120.00000347
_symmetry_Int_Tables_number   1
_chemical_formula_structural   TbHo6Co6Sn22Pd
_chemical_formula_sum   'Tb1 Ho6 Co6 Sn22 Pd1'
_cell_volume   796.09445977
_cell_formula_units_Z   1
loop_
 _symmetry_equiv_pos_site_id
 _symmetry_equiv_pos_as_xyz
  1  'x, y, z'
loop_
 _atom_site_type_symbol
 _atom_site_label
 _atom_site_symmetry_multiplicity
 _atom_site_fract_x
 _atom_site_fract_y
 _atom_site_fract_z
 _atom_site_occupancy
  Tb  Tb0  1  0.000000  0.000000  0.000000  1
  Ho  Ho1  1  0.479746  0.520254  0.306944  1
  Ho  Ho2  1  0.520254  0.479746  0.693056  1
  Ho  Ho3  1  0.479746  0.959492  0.306944  1
  Ho  Ho4  1  0.520254  0.040508  0.693056  1
  Ho  Ho5  1  0.040508  0.520254  0.306944  1
  Ho  Ho6  1  0.959492  0.479746  0.693056  1
  Co  Co7  1  0.831366  0.168634  0.196972  1
  Co  Co8  1  0.168634  0.831366  0.803028  1
  Co  Co9  1  0.831366  0.662731  0.196972  1
  Co  Co10  1  0.168634  0.337269  0.803028  1
  Co  Co11  1  0.337269  0.168634  0.196972  1
  Co  Co12  1  0.662731  0.831366  0.803028  1
  Sn  Sn13  1  0.346358  0.000000  0.000000  1
  Sn  Sn14  1  0.653642  0.000000  0.000000  1
  Sn  Sn15  1  0.000000  0.346358  0.000000  1
  Sn  Sn16  1  0.000000  0.653642  0.000000  1
  Sn  Sn17  1  0.653642  0.653642  0.000000  1
  Sn  Sn18  1  0.346358  0.346358  0.000000  1
  Sn  Sn19  1  0.333333  0.666667  0.815180  1
  Sn  Sn20  1  0.666667  0.333333  0.184820  1
  Sn  Sn21  1  0.785117  0.214883  0.453815  1
  Sn  Sn22  1  0.214883  0.785117  0.546185  1
  Sn  Sn23  1  0.785117  0.570235  0.453815  1
  Sn  Sn24  1  0.214883  0.429765  0.546185  1
  Sn  Sn25  1  0.429765  0.214883  0.453815  1
  Sn  Sn26  1  0.570235  0.785117  0.546185  1
  Sn  Sn27  1  0.333333  0.666667  0.120664  1
  Sn  Sn28  1  0.666667  0.333333  0.879336  1
  Sn  Sn29  1  0.111414  0.888586  0.283042  1
  Sn  Sn30  1  0.888586  0.111414  0.716958  1
  Sn  Sn31  1  0.111414  0.222829  0.283042  1
  Sn  Sn32  1  0.888586  0.777171  0.716958  1
  Sn  Sn33  1  0.777171  0.888586  0.283042  1
  Sn  Sn34  1  0.222829  0.111414  0.716958  1
  Pd  Pd35  1  0.000000  0.000000  0.500000  1
