# generated using pymatgen
data_Er2Tm2Ga4IrRh3
_symmetry_space_group_name_H-M   'P 1'
_cell_length_a   4.24930700
_cell_length_b   6.79400447
_cell_length_c   7.80203681
_cell_angle_alpha   89.93886006
_cell_angle_beta   90.00000000
_cell_angle_gamma   90.00000000
_symmetry_Int_Tables_number   1
_chemical_formula_structural   Er2Tm2Ga4IrRh3
_chemical_formula_sum   'Er2 Tm2 Ga4 Ir1 Rh3'
_cell_volume   225.24319807
_cell_formula_units_Z   1
loop_
 _symmetry_equiv_pos_site_id
 _symmetry_equiv_pos_as_xyz
  1  'x, y, z'
loop_
 _atom_site_type_symbol
 _atom_site_label
 _atom_site_symmetry_multiplicity
 _atom_site_fract_x
 _atom_site_fract_y
 _atom_site_fract_z
 _atom_site_occupancy
  Er  Er0  1  0.750000  0.028427  0.687446  1
  Er  Er1  1  0.750000  0.527624  0.812088  1
  Tm  Tm2  1  0.250000  0.974611  0.311636  1
  Tm  Tm3  1  0.250000  0.471197  0.189320  1
  Ga  Ga4  1  0.250000  0.347776  0.569245  1
  Ga  Ga5  1  0.250000  0.847033  0.932555  1
  Ga  Ga6  1  0.750000  0.653841  0.431696  1
  Ga  Ga7  1  0.750000  0.151548  0.067918  1
  Ir  Ir8  1  0.750000  0.265253  0.386383  1
  Rh  Rh9  1  0.250000  0.234463  0.888713  1
  Rh  Rh10  1  0.250000  0.734662  0.611806  1
  Rh  Rh11  1  0.750000  0.763566  0.111194  1
