# generated using pymatgen
data_Sc22FeIr5Ru2
_symmetry_space_group_name_H-M   'P 1'
_cell_length_a   9.44669000
_cell_length_b   9.44669034
_cell_length_c   9.47201400
_cell_angle_alpha   59.91128376
_cell_angle_beta   59.91128256
_cell_angle_gamma   60.06337812
_symmetry_Int_Tables_number   1
_chemical_formula_structural   Sc22FeIr5Ru2
_chemical_formula_sum   'Sc22 Fe1 Ir5 Ru2'
_cell_volume   597.18656719
_cell_formula_units_Z   1
loop_
 _symmetry_equiv_pos_site_id
 _symmetry_equiv_pos_as_xyz
  1  'x, y, z'
loop_
 _atom_site_type_symbol
 _atom_site_label
 _atom_site_symmetry_multiplicity
 _atom_site_fract_x
 _atom_site_fract_y
 _atom_site_fract_z
 _atom_site_occupancy
  Sc  Sc0  1  0.802953  0.802953  0.197047  1
  Sc  Sc1  1  0.196984  0.803016  0.196936  1
  Sc  Sc2  1  0.803016  0.196984  0.196936  1
  Sc  Sc3  1  0.197047  0.197047  0.802953  1
  Sc  Sc4  1  0.803016  0.196984  0.803064  1
  Sc  Sc5  1  0.196984  0.803016  0.803064  1
  Sc  Sc6  1  0.614642  0.614642  0.156197  1
  Sc  Sc7  1  0.614851  0.156018  0.614566  1
  Sc  Sc8  1  0.156018  0.614851  0.614566  1
  Sc  Sc9  1  0.614642  0.614642  0.614518  1
  Sc  Sc10  1  0.385358  0.385358  0.843803  1
  Sc  Sc11  1  0.385149  0.843982  0.385434  1
  Sc  Sc12  1  0.843982  0.385149  0.385434  1
  Sc  Sc13  1  0.385358  0.385358  0.385482  1
  Sc  Sc14  1  0.843164  0.843164  0.471708  1
  Sc  Sc15  1  0.842398  0.472076  0.842763  1
  Sc  Sc16  1  0.472076  0.842398  0.842763  1
  Sc  Sc17  1  0.843164  0.843164  0.841963  1
  Sc  Sc18  1  0.156836  0.156836  0.528292  1
  Sc  Sc19  1  0.157602  0.527924  0.157237  1
  Sc  Sc20  1  0.527924  0.157602  0.157237  1
  Sc  Sc21  1  0.156836  0.156836  0.158037  1
  Fe  Fe22  1  0.500000  0.500000  0.500000  1
  Ir  Ir23  1  0.500000  0.000000  0.500000  1
  Ir  Ir24  1  0.000000  0.500000  0.500000  1
  Ir  Ir25  1  0.500000  0.500000  0.000000  1
  Ir  Ir26  1  0.000000  0.500000  0.000000  1
  Ir  Ir27  1  0.500000  0.000000  0.000000  1
  Ru  Ru28  1  0.000000  0.000000  0.000000  1
  Ru  Ru29  1  0.000000  0.000000  0.500000  1
