# generated using pymatgen
data_Pr3Nd5(HgRu)2
_symmetry_space_group_name_H-M   'P 1'
_cell_length_a   9.92634480
_cell_length_b   9.92634467
_cell_length_c   9.92634400
_cell_angle_alpha   60.00000223
_cell_angle_beta   60.00000268
_cell_angle_gamma   60.00000711
_symmetry_Int_Tables_number   1
_chemical_formula_structural   Pr3Nd5(HgRu)2
_chemical_formula_sum   'Pr6 Nd10 Hg4 Ru4'
_cell_volume   691.59695297
_cell_formula_units_Z   2
loop_
 _symmetry_equiv_pos_site_id
 _symmetry_equiv_pos_as_xyz
  1  'x, y, z'
loop_
 _atom_site_type_symbol
 _atom_site_label
 _atom_site_symmetry_multiplicity
 _atom_site_fract_x
 _atom_site_fract_y
 _atom_site_fract_z
 _atom_site_occupancy
  Pr  Pr0  1  0.939770  0.560230  0.560230  1
  Pr  Pr1  1  0.560230  0.939770  0.939770  1
  Pr  Pr2  1  0.560230  0.939770  0.560230  1
  Pr  Pr3  1  0.939770  0.560230  0.939770  1
  Pr  Pr4  1  0.560230  0.560230  0.939770  1
  Pr  Pr5  1  0.939770  0.939770  0.560230  1
  Nd  Nd6  1  0.346779  0.346779  0.346779  1
  Nd  Nd7  1  0.346779  0.346779  0.959663  1
  Nd  Nd8  1  0.346779  0.959663  0.346779  1
  Nd  Nd9  1  0.959663  0.346779  0.346779  1
  Nd  Nd10  1  0.809910  0.190090  0.190090  1
  Nd  Nd11  1  0.190090  0.809910  0.809910  1
  Nd  Nd12  1  0.190090  0.809910  0.190090  1
  Nd  Nd13  1  0.809910  0.190090  0.809910  1
  Nd  Nd14  1  0.190090  0.190090  0.809910  1
  Nd  Nd15  1  0.809910  0.809910  0.190090  1
  Hg  Hg16  1  0.582419  0.582419  0.582419  1
  Hg  Hg17  1  0.582419  0.582419  0.252741  1
  Hg  Hg18  1  0.582419  0.252741  0.582419  1
  Hg  Hg19  1  0.252741  0.582419  0.582419  1
  Ru  Ru20  1  0.138164  0.138164  0.138164  1
  Ru  Ru21  1  0.138164  0.138164  0.585509  1
  Ru  Ru22  1  0.138164  0.585509  0.138164  1
  Ru  Ru23  1  0.585509  0.138164  0.138164  1
