# generated using pymatgen
data_CeAl10ReIr
_symmetry_space_group_name_H-M   'P 1'
_cell_length_a   6.91514800
_cell_length_b   6.91496750
_cell_length_c   9.24447500
_cell_angle_alpha   90.00000000
_cell_angle_beta   90.00000000
_cell_angle_gamma   96.43342667
_symmetry_Int_Tables_number   1
_chemical_formula_structural   CeAl10ReIr
_chemical_formula_sum   'Ce2 Al20 Re2 Ir2'
_cell_volume   439.26879506
_cell_formula_units_Z   2
loop_
 _symmetry_equiv_pos_site_id
 _symmetry_equiv_pos_as_xyz
  1  'x, y, z'
loop_
 _atom_site_type_symbol
 _atom_site_label
 _atom_site_symmetry_multiplicity
 _atom_site_fract_x
 _atom_site_fract_y
 _atom_site_fract_z
 _atom_site_occupancy
  Ce  Ce0  1  0.883972  0.136333  0.750000  1
  Ce  Ce1  1  0.116028  0.863667  0.250000  1
  Al  Al2  1  0.624293  0.379425  0.550102  1
  Al  Al3  1  0.375707  0.620575  0.449898  1
  Al  Al4  1  0.375707  0.620575  0.050102  1
  Al  Al5  1  0.624293  0.379425  0.949898  1
  Al  Al6  1  0.222444  0.222492  0.501781  1
  Al  Al7  1  0.777556  0.777508  0.498219  1
  Al  Al8  1  0.777556  0.777508  0.001781  1
  Al  Al9  1  0.222444  0.222492  0.998219  1
  Al  Al10  1  0.841112  0.157981  0.102905  1
  Al  Al11  1  0.158888  0.842019  0.897095  1
  Al  Al12  1  0.158888  0.842019  0.602905  1
  Al  Al13  1  0.841112  0.157981  0.397095  1
  Al  Al14  1  0.858071  0.592104  0.750000  1
  Al  Al15  1  0.141929  0.407896  0.250000  1
  Al  Al16  1  0.412803  0.144247  0.750000  1
  Al  Al17  1  0.587197  0.855753  0.250000  1
  Al  Al18  1  0.221634  0.484840  0.750000  1
  Al  Al19  1  0.778366  0.515160  0.250000  1
  Al  Al20  1  0.520340  0.780867  0.750000  1
  Al  Al21  1  0.479660  0.219133  0.250000  1
  Re  Re22  1  0.000000  0.500000  0.500000  1
  Re  Re23  1  0.000000  0.500000  0.000000  1
  Ir  Ir24  1  0.500000  0.000000  0.000000  1
  Ir  Ir25  1  0.500000  0.000000  0.500000  1
