# generated using pymatgen
data_Ho6Si12PdPt7
_symmetry_space_group_name_H-M   'P 1'
_cell_length_a   4.23618600
_cell_length_b   8.53839695
_cell_length_c   12.91511903
_cell_angle_alpha   80.28242963
_cell_angle_beta   90.00000000
_cell_angle_gamma   90.00000000
_symmetry_Int_Tables_number   1
_chemical_formula_structural   Ho6Si12PdPt7
_chemical_formula_sum   'Ho6 Si12 Pd1 Pt7'
_cell_volume   460.44024262
_cell_formula_units_Z   1
loop_
 _symmetry_equiv_pos_site_id
 _symmetry_equiv_pos_as_xyz
  1  'x, y, z'
loop_
 _atom_site_type_symbol
 _atom_site_label
 _atom_site_symmetry_multiplicity
 _atom_site_fract_x
 _atom_site_fract_y
 _atom_site_fract_z
 _atom_site_occupancy
  Ho  Ho0  1  0.250000  0.766224  0.439208  1
  Ho  Ho1  1  0.250000  0.583645  0.186321  1
  Ho  Ho2  1  0.750000  0.233804  0.560606  1
  Ho  Ho3  1  0.750000  0.416359  0.813296  1
  Ho  Ho4  1  0.750000  0.926555  0.815743  1
  Ho  Ho5  1  0.250000  0.073526  0.184096  1
  Si  Si6  1  0.750000  0.588645  0.571411  1
  Si  Si7  1  0.750000  0.126802  0.004874  1
  Si  Si8  1  0.750000  0.872838  0.573609  1
  Si  Si9  1  0.250000  0.696342  0.713855  1
  Si  Si10  1  0.750000  0.303509  0.286512  1
  Si  Si11  1  0.750000  0.805743  0.276883  1
  Si  Si12  1  0.250000  0.873110  0.995259  1
  Si  Si13  1  0.250000  0.194285  0.723126  1
  Si  Si14  1  0.250000  0.378785  0.001543  1
  Si  Si15  1  0.250000  0.127179  0.426439  1
  Si  Si16  1  0.750000  0.621483  0.998701  1
  Si  Si17  1  0.250000  0.411356  0.428705  1
  Pd  Pd18  1  0.750000  0.351865  0.099310  1
  Pt  Pt19  1  0.250000  0.971102  0.624190  1
  Pt  Pt20  1  0.750000  0.849171  0.089056  1
  Pt  Pt21  1  0.750000  0.028724  0.375884  1
  Pt  Pt22  1  0.250000  0.648359  0.900493  1
  Pt  Pt23  1  0.250000  0.150589  0.910830  1
  Pt  Pt24  1  0.750000  0.533249  0.376030  1
  Pt  Pt25  1  0.250000  0.466751  0.624021  1
