# generated using pymatgen
data_KDy(SeO4)2
_symmetry_space_group_name_H-M   'P 1'
_cell_length_a   5.35530947
_cell_length_b   5.35530959
_cell_length_c   8.40107566
_cell_angle_alpha   93.31921179
_cell_angle_beta   93.31921591
_cell_angle_gamma   65.91147833
_symmetry_Int_Tables_number   1
_chemical_formula_structural   KDy(SeO4)2
_chemical_formula_sum   'K1 Dy1 Se2 O8'
_cell_volume   219.43125639
_cell_formula_units_Z   1
loop_
 _symmetry_equiv_pos_site_id
 _symmetry_equiv_pos_as_xyz
  1  'x, y, z'
loop_
 _atom_site_type_symbol
 _atom_site_label
 _atom_site_symmetry_multiplicity
 _atom_site_fract_x
 _atom_site_fract_y
 _atom_site_fract_z
 _atom_site_occupancy
  K  K0  1  0.000000  0.000000  0.500000  1
  Dy  Dy1  1  0.000000  0.000000  0.000000  1
  Se  Se2  1  0.374334  0.374334  0.219952  1
  Se  Se3  1  0.625665  0.625665  0.780048  1
  O  O4  1  0.245230  0.245230  0.066088  1
  O  O5  1  0.715665  0.246270  0.198508  1
  O  O6  1  0.246270  0.715665  0.198508  1
  O  O7  1  0.307025  0.307025  0.396339  1
  O  O8  1  0.692973  0.692973  0.603660  1
  O  O9  1  0.753731  0.284335  0.801493  1
  O  O10  1  0.284335  0.753731  0.801493  1
  O  O11  1  0.754769  0.754769  0.933912  1
