# generated using pymatgen
data_Li2AcDyPt2
_symmetry_space_group_name_H-M   'P 1'
_cell_length_a   4.18039400
_cell_length_b   7.32012012
_cell_length_c   8.80800500
_cell_angle_alpha   89.09055495
_cell_angle_beta   90.00000000
_cell_angle_gamma   90.00000000
_symmetry_Int_Tables_number   1
_chemical_formula_structural   Li2AcDyPt2
_chemical_formula_sum   'Li4 Ac2 Dy2 Pt4'
_cell_volume   269.49968639
_cell_formula_units_Z   2
loop_
 _symmetry_equiv_pos_site_id
 _symmetry_equiv_pos_as_xyz
  1  'x, y, z'
loop_
 _atom_site_type_symbol
 _atom_site_label
 _atom_site_symmetry_multiplicity
 _atom_site_fract_x
 _atom_site_fract_y
 _atom_site_fract_z
 _atom_site_occupancy
  Li  Li0  1  0.250000  0.611570  0.551771  1
  Li  Li1  1  0.750000  0.388430  0.448229  1
  Li  Li2  1  0.750000  0.860191  0.054357  1
  Li  Li3  1  0.250000  0.139809  0.945643  1
  Ac  Ac4  1  0.750000  0.954553  0.690400  1
  Ac  Ac5  1  0.250000  0.045447  0.309600  1
  Dy  Dy6  1  0.250000  0.547722  0.174914  1
  Dy  Dy7  1  0.750000  0.452278  0.825086  1
  Pt  Pt8  1  0.250000  0.731680  0.884658  1
  Pt  Pt9  1  0.750000  0.268320  0.115342  1
  Pt  Pt10  1  0.750000  0.739308  0.364246  1
  Pt  Pt11  1  0.250000  0.260692  0.635754  1
