# generated using pymatgen
data_Dy8Tm12Si15Sb
_symmetry_space_group_name_H-M   'P 1'
_cell_length_a   7.43342591
_cell_length_b   7.62751320
_cell_length_c   14.51061251
_cell_angle_alpha   90.08984076
_cell_angle_beta   86.87410462
_cell_angle_gamma   90.10338720
_symmetry_Int_Tables_number   1
_chemical_formula_structural   Dy8Tm12Si15Sb
_chemical_formula_sum   'Dy8 Tm12 Si15 Sb1'
_cell_volume   821.50440365
_cell_formula_units_Z   1
loop_
 _symmetry_equiv_pos_site_id
 _symmetry_equiv_pos_as_xyz
  1  'x, y, z'
loop_
 _atom_site_type_symbol
 _atom_site_label
 _atom_site_symmetry_multiplicity
 _atom_site_fract_x
 _atom_site_fract_y
 _atom_site_fract_z
 _atom_site_occupancy
  Dy  Dy0  1  0.020585  0.182264  0.098891  1
  Dy  Dy1  1  0.979159  0.818786  0.901238  1
  Dy  Dy2  1  0.479522  0.681551  0.901175  1
  Dy  Dy3  1  0.999153  0.825248  0.599516  1
  Dy  Dy4  1  0.521176  0.318232  0.100132  1
  Dy  Dy5  1  0.997256  0.176234  0.399887  1
  Dy  Dy6  1  0.506939  0.315486  0.398078  1
  Dy  Dy7  1  0.512017  0.685373  0.601907  1
  Tm  Tm8  1  0.167252  0.504999  0.752126  1
  Tm  Tm9  1  0.831400  0.493908  0.253368  1
  Tm  Tm10  1  0.331281  0.008005  0.252723  1
  Tm  Tm11  1  0.671169  0.992993  0.748950  1
  Tm  Tm12  1  0.355051  0.154893  0.624696  1
  Tm  Tm13  1  0.649045  0.831533  0.377924  1
  Tm  Tm14  1  0.144836  0.679251  0.372199  1
  Tm  Tm15  1  0.672304  0.822326  0.122175  1
  Tm  Tm16  1  0.839114  0.329653  0.623052  1
  Tm  Tm17  1  0.326447  0.176876  0.877558  1
  Tm  Tm18  1  0.826514  0.322322  0.877319  1
  Tm  Tm19  1  0.172479  0.678118  0.122912  1
  Si  Si20  1  0.041705  0.111952  0.751860  1
  Si  Si21  1  0.956559  0.892279  0.246018  1
  Si  Si22  1  0.458007  0.610217  0.247620  1
  Si  Si23  1  0.539053  0.390059  0.752477  1
  Si  Si24  1  0.288549  0.866690  0.753384  1
  Si  Si25  1  0.713681  0.128736  0.246644  1
  Si  Si26  1  0.212770  0.372163  0.247735  1
  Si  Si27  1  0.789283  0.629892  0.752399  1
  Si  Si28  1  0.799896  0.536487  0.457250  1
  Si  Si29  1  0.304956  0.965915  0.456939  1
  Si  Si30  1  0.850891  0.530182  0.040716  1
  Si  Si31  1  0.696306  0.033992  0.542362  1
  Si  Si32  1  0.147791  0.470355  0.959807  1
  Si  Si33  1  0.648041  0.030024  0.959311  1
  Si  Si34  1  0.350889  0.971180  0.041416  1
  Sb  Sb35  1  0.198925  0.461828  0.538234  1
