# generated using pymatgen
data_NdHo(P2Rh3)2
_symmetry_space_group_name_H-M   'P 1'
_cell_length_a   3.93724600
_cell_length_b   11.27882807
_cell_length_c   12.85872008
_cell_angle_alpha   90.01276538
_cell_angle_beta   90.00000000
_cell_angle_gamma   90.00000000
_symmetry_Int_Tables_number   1
_chemical_formula_structural   NdHo(P2Rh3)2
_chemical_formula_sum   'Nd3 Ho3 P12 Rh18'
_cell_volume   571.02386399
_cell_formula_units_Z   3
loop_
 _symmetry_equiv_pos_site_id
 _symmetry_equiv_pos_as_xyz
  1  'x, y, z'
loop_
 _atom_site_type_symbol
 _atom_site_label
 _atom_site_symmetry_multiplicity
 _atom_site_fract_x
 _atom_site_fract_y
 _atom_site_fract_z
 _atom_site_occupancy
  Nd  Nd0  1  0.000000  0.499992  0.521914  1
  Nd  Nd1  1  0.500000  0.000125  0.478919  1
  Nd  Nd2  1  0.500000  0.814595  0.204293  1
  Ho  Ho3  1  0.500000  0.186370  0.204264  1
  Ho  Ho4  1  0.000000  0.685727  0.795630  1
  Ho  Ho5  1  0.000000  0.313903  0.795138  1
  P  P6  1  0.500000  0.313430  0.619714  1
  P  P7  1  0.500000  0.686095  0.620739  1
  P  P8  1  0.000000  0.187460  0.380529  1
  P  P9  1  0.000000  0.813415  0.383442  1
  P  P10  1  0.500000  0.499342  0.878531  1
  P  P11  1  0.000000  0.002051  0.119803  1
  P  P12  1  0.500000  0.845780  0.893389  1
  P  P13  1  0.500000  0.154322  0.892848  1
  P  P14  1  0.000000  0.650409  0.105411  1
  P  P15  1  0.000000  0.346667  0.106440  1
  P  P16  1  0.500000  0.500608  0.348441  1
  P  P17  1  0.000000  0.999848  0.651883  1
  Rh  Rh18  1  0.000000  0.498981  0.977340  1
  Rh  Rh19  1  0.500000  0.001189  0.019461  1
  Rh  Rh20  1  0.500000  0.293288  0.429709  1
  Rh  Rh21  1  0.500000  0.706244  0.431783  1
  Rh  Rh22  1  0.000000  0.207505  0.570567  1
  Rh  Rh23  1  0.000000  0.793184  0.571337  1
  Rh  Rh24  1  0.500000  0.872585  0.712985  1
  Rh  Rh25  1  0.500000  0.127396  0.712412  1
  Rh  Rh26  1  0.000000  0.623970  0.289900  1
  Rh  Rh27  1  0.000000  0.371845  0.287155  1
  Rh  Rh28  1  0.500000  0.334306  0.993690  1
  Rh  Rh29  1  0.500000  0.664823  0.992297  1
  Rh  Rh30  1  0.000000  0.166832  0.006115  1
  Rh  Rh31  1  0.000000  0.834435  0.003492  1
  Rh  Rh32  1  0.500000  0.499994  0.168550  1
  Rh  Rh33  1  0.000000  0.001204  0.830915  1
  Rh  Rh34  1  0.500000  0.499510  0.703770  1
  Rh  Rh35  1  0.000000  0.002569  0.297194  1
