# generated using pymatgen
data_Sc20Si12N
_symmetry_space_group_name_H-M   'P 1'
_cell_length_a   13.68081200
_cell_length_b   5.81266470
_cell_length_c   7.88214076
_cell_angle_alpha   89.93822989
_cell_angle_beta   90.00000000
_cell_angle_gamma   90.00000000
_symmetry_Int_Tables_number   1
_chemical_formula_structural   Sc20Si12N
_chemical_formula_sum   'Sc20 Si12 N1'
_cell_volume   626.80302089
_cell_formula_units_Z   1
loop_
 _symmetry_equiv_pos_site_id
 _symmetry_equiv_pos_as_xyz
  1  'x, y, z'
loop_
 _atom_site_type_symbol
 _atom_site_label
 _atom_site_symmetry_multiplicity
 _atom_site_fract_x
 _atom_site_fract_y
 _atom_site_fract_z
 _atom_site_occupancy
  Sc  Sc0  1  0.664483  0.500000  0.500000  1
  Sc  Sc1  1  0.170044  0.500000  0.000000  1
  Sc  Sc2  1  0.829956  0.500000  0.000000  1
  Sc  Sc3  1  0.335517  0.500000  0.500000  1
  Sc  Sc4  1  0.837457  0.000000  0.000000  1
  Sc  Sc5  1  0.330080  0.000000  0.500000  1
  Sc  Sc6  1  0.669920  0.000000  0.500000  1
  Sc  Sc7  1  0.162543  0.000000  0.000000  1
  Sc  Sc8  1  0.500000  0.247417  0.756797  1
  Sc  Sc9  1  0.000000  0.275426  0.268764  1
  Sc  Sc10  1  0.620679  0.248647  0.120894  1
  Sc  Sc11  1  0.116219  0.269788  0.617453  1
  Sc  Sc12  1  0.883781  0.269788  0.617453  1
  Sc  Sc13  1  0.379321  0.248647  0.120894  1
  Sc  Sc14  1  0.000000  0.724574  0.731236  1
  Sc  Sc15  1  0.500000  0.752583  0.243203  1
  Sc  Sc16  1  0.883781  0.730212  0.382547  1
  Sc  Sc17  1  0.379321  0.751353  0.879106  1
  Sc  Sc18  1  0.620679  0.751353  0.879106  1
  Sc  Sc19  1  0.116219  0.730212  0.382547  1
  Si  Si20  1  0.000000  0.263562  0.901515  1
  Si  Si21  1  0.500000  0.242946  0.395848  1
  Si  Si22  1  0.800599  0.254086  0.301028  1
  Si  Si23  1  0.301730  0.246441  0.802572  1
  Si  Si24  1  0.698270  0.246441  0.802572  1
  Si  Si25  1  0.199401  0.254086  0.301028  1
  Si  Si26  1  0.500000  0.757054  0.604152  1
  Si  Si27  1  0.000000  0.736438  0.098485  1
  Si  Si28  1  0.698270  0.753559  0.197428  1
  Si  Si29  1  0.199401  0.745914  0.698972  1
  Si  Si30  1  0.800599  0.745914  0.698972  1
  Si  Si31  1  0.301730  0.753559  0.197428  1
  N  N32  1  0.000000  0.500000  0.500000  1
