# generated using pymatgen
data_Tb9HoGa3CoBi2
_symmetry_space_group_name_H-M   'P 1'
_cell_length_a   8.64293747
_cell_length_b   8.64293847
_cell_length_c   8.82194126
_cell_angle_alpha   124.71515768
_cell_angle_beta   124.77834278
_cell_angle_gamma   80.58940177
_symmetry_Int_Tables_number   1
_chemical_formula_structural   Tb9HoGa3CoBi2
_chemical_formula_sum   'Tb9 Ho1 Ga3 Co1 Bi2'
_cell_volume   432.04000037
_cell_formula_units_Z   1
loop_
 _symmetry_equiv_pos_site_id
 _symmetry_equiv_pos_as_xyz
  1  'x, y, z'
loop_
 _atom_site_type_symbol
 _atom_site_label
 _atom_site_symmetry_multiplicity
 _atom_site_fract_x
 _atom_site_fract_y
 _atom_site_fract_z
 _atom_site_occupancy
  Tb  Tb0  1  0.703366  0.517153  0.499597  1
  Tb  Tb1  1  0.480773  0.999639  0.202436  1
  Tb  Tb2  1  0.777789  0.297686  0.797517  1
  Tb  Tb3  1  0.499831  0.019729  0.797517  1
  Tb  Tb4  1  0.996575  0.998030  0.994605  1
  Tb  Tb5  1  0.048132  0.191537  0.500601  1
  Tb  Tb6  1  0.309064  0.452468  0.500601  1
  Tb  Tb7  1  0.202797  0.721663  0.202436  1
  Tb  Tb8  1  0.982444  0.796231  0.499597  1
  Ho  Ho9  1  0.501806  0.503193  0.004999  1
  Ga  Ga10  1  0.142764  0.642015  0.784779  1
  Ga  Ga11  1  0.856827  0.358277  0.215105  1
  Ga  Ga12  1  0.631829  0.867085  0.498914  1
  Co  Co13  1  0.379388  0.121886  0.501274  1
  Bi  Bi14  1  0.243884  0.257280  0.000012  1
  Bi  Bi15  1  0.742732  0.756127  0.000012  1
