# generated using pymatgen
data_Lu2V2C3
_symmetry_space_group_name_H-M   'P 1'
_cell_length_a   5.69944657
_cell_length_b   5.69944606
_cell_length_c   5.45432989
_cell_angle_alpha   73.08604638
_cell_angle_beta   73.08604922
_cell_angle_gamma   33.99589053
_symmetry_Int_Tables_number   1
_chemical_formula_structural   Lu2V2C3
_chemical_formula_sum   'Lu2 V2 C3'
_cell_volume   94.36975932
_cell_formula_units_Z   1
loop_
 _symmetry_equiv_pos_site_id
 _symmetry_equiv_pos_as_xyz
  1  'x, y, z'
loop_
 _atom_site_type_symbol
 _atom_site_label
 _atom_site_symmetry_multiplicity
 _atom_site_fract_x
 _atom_site_fract_y
 _atom_site_fract_z
 _atom_site_occupancy
  Lu  Lu0  1  0.388490  0.388490  0.312117  1
  Lu  Lu1  1  0.611510  0.611510  0.687883  1
  V  V2  1  0.150738  0.150738  0.130211  1
  V  V3  1  0.849262  0.849262  0.869789  1
  C  C4  1  0.725628  0.725628  0.234392  1
  C  C5  1  0.274372  0.274372  0.765608  1
  C  C6  1  0.000000  0.000000  0.000000  1
