# generated using pymatgen
data_Ta4V4CuP3
_symmetry_space_group_name_H-M   'P 1'
_cell_length_a   3.37855100
_cell_length_b   6.45247825
_cell_length_c   7.80188108
_cell_angle_alpha   89.69857389
_cell_angle_beta   90.00000000
_cell_angle_gamma   90.00000000
_symmetry_Int_Tables_number   1
_chemical_formula_structural   Ta4V4CuP3
_chemical_formula_sum   'Ta4 V4 Cu1 P3'
_cell_volume   170.07886332
_cell_formula_units_Z   1
loop_
 _symmetry_equiv_pos_site_id
 _symmetry_equiv_pos_as_xyz
  1  'x, y, z'
loop_
 _atom_site_type_symbol
 _atom_site_label
 _atom_site_symmetry_multiplicity
 _atom_site_fract_x
 _atom_site_fract_y
 _atom_site_fract_z
 _atom_site_occupancy
  Ta  Ta0  1  0.250000  0.543362  0.169439  1
  Ta  Ta1  1  0.750000  0.449904  0.834958  1
  Ta  Ta2  1  0.750000  0.966723  0.660535  1
  Ta  Ta3  1  0.250000  0.036877  0.328624  1
  V  V4  1  0.250000  0.633397  0.554972  1
  V  V5  1  0.750000  0.363286  0.439816  1
  V  V6  1  0.750000  0.870140  0.065508  1
  V  V7  1  0.250000  0.137066  0.944347  1
  Cu  Cu8  1  0.250000  0.754938  0.858388  1
  P  P9  1  0.750000  0.244983  0.139512  1
  P  P10  1  0.750000  0.738898  0.361843  1
  P  P11  1  0.250000  0.260427  0.642058  1
