# generated using pymatgen
data_Dy10CoAu3
_symmetry_space_group_name_H-M   'P 1'
_cell_length_a   9.39820300
_cell_length_b   9.39820451
_cell_length_c   9.47547000
_cell_angle_alpha   90.00000000
_cell_angle_beta   90.00000000
_cell_angle_gamma   119.99999821
_symmetry_Int_Tables_number   1
_chemical_formula_structural   Dy10CoAu3
_chemical_formula_sum   'Dy20 Co2 Au6'
_cell_volume   724.80488733
_cell_formula_units_Z   2
loop_
 _symmetry_equiv_pos_site_id
 _symmetry_equiv_pos_as_xyz
  1  'x, y, z'
loop_
 _atom_site_type_symbol
 _atom_site_label
 _atom_site_symmetry_multiplicity
 _atom_site_fract_x
 _atom_site_fract_y
 _atom_site_fract_z
 _atom_site_occupancy
  Dy  Dy0  1  0.000000  0.000000  0.500000  1
  Dy  Dy1  1  0.000000  0.000000  0.000000  1
  Dy  Dy2  1  0.543293  0.456707  0.250000  1
  Dy  Dy3  1  0.543293  0.086586  0.250000  1
  Dy  Dy4  1  0.913414  0.456707  0.250000  1
  Dy  Dy5  1  0.456707  0.543293  0.750000  1
  Dy  Dy6  1  0.456707  0.913414  0.750000  1
  Dy  Dy7  1  0.086586  0.543293  0.750000  1
  Dy  Dy8  1  0.209151  0.790849  0.437029  1
  Dy  Dy9  1  0.209151  0.418303  0.437029  1
  Dy  Dy10  1  0.581697  0.790849  0.437029  1
  Dy  Dy11  1  0.790849  0.209151  0.562971  1
  Dy  Dy12  1  0.790849  0.581697  0.562971  1
  Dy  Dy13  1  0.418303  0.209151  0.562971  1
  Dy  Dy14  1  0.790849  0.209151  0.937029  1
  Dy  Dy15  1  0.790849  0.581697  0.937029  1
  Dy  Dy16  1  0.418303  0.209151  0.937029  1
  Dy  Dy17  1  0.209151  0.790849  0.062971  1
  Dy  Dy18  1  0.209151  0.418303  0.062971  1
  Dy  Dy19  1  0.581697  0.790849  0.062971  1
  Co  Co20  1  0.333333  0.666667  0.250000  1
  Co  Co21  1  0.666667  0.333333  0.750000  1
  Au  Au22  1  0.880346  0.119654  0.250000  1
  Au  Au23  1  0.880346  0.760691  0.250000  1
  Au  Au24  1  0.239309  0.119654  0.250000  1
  Au  Au25  1  0.119654  0.880346  0.750000  1
  Au  Au26  1  0.119654  0.239309  0.750000  1
  Au  Au27  1  0.760691  0.880346  0.750000  1
