# generated using pymatgen
data_SrTb2Zn11
_symmetry_space_group_name_H-M   'P 1'
_cell_length_a   8.30757243
_cell_length_b   8.30757258
_cell_length_c   8.30757253
_cell_angle_alpha   148.45711773
_cell_angle_beta   117.05189121
_cell_angle_gamma   72.11869289
_symmetry_Int_Tables_number   1
_chemical_formula_structural   SrTb2Zn11
_chemical_formula_sum   'Sr1 Tb2 Zn11'
_cell_volume   263.10390710
_cell_formula_units_Z   1
loop_
 _symmetry_equiv_pos_site_id
 _symmetry_equiv_pos_as_xyz
  1  'x, y, z'
loop_
 _atom_site_type_symbol
 _atom_site_label
 _atom_site_symmetry_multiplicity
 _atom_site_fract_x
 _atom_site_fract_y
 _atom_site_fract_z
 _atom_site_occupancy
  Sr  Sr0  1  0.000000  0.000000  0.000000  1
  Tb  Tb1  1  0.300026  0.300026  0.000000  1
  Tb  Tb2  1  0.699974  0.699974  0.000000  1
  Zn  Zn3  1  0.500000  0.000000  0.500000  1
  Zn  Zn4  1  0.676154  0.500000  0.176154  1
  Zn  Zn5  1  0.323846  0.500000  0.823846  1
  Zn  Zn6  1  0.690027  0.335787  0.354239  1
  Zn  Zn7  1  0.309973  0.664213  0.645761  1
  Zn  Zn8  1  0.981548  0.335787  0.645761  1
  Zn  Zn9  1  0.018452  0.664213  0.354239  1
  Zn  Zn10  1  0.430024  0.140613  0.289410  1
  Zn  Zn11  1  0.569976  0.859387  0.710590  1
  Zn  Zn12  1  0.851203  0.140613  0.710590  1
  Zn  Zn13  1  0.148797  0.859387  0.289410  1
