# generated using pymatgen
data_Ho8Er7Sc5Si15Ir
_symmetry_space_group_name_H-M   'P 1'
_cell_length_a   7.18991608
_cell_length_b   7.61821338
_cell_length_c   14.25718401
_cell_angle_alpha   90.12159662
_cell_angle_beta   90.04300141
_cell_angle_gamma   90.17791643
_symmetry_Int_Tables_number   1
_chemical_formula_structural   Ho8Er7Sc5Si15Ir
_chemical_formula_sum   'Ho8 Er7 Sc5 Si15 Ir1'
_cell_volume   780.92173892
_cell_formula_units_Z   1
loop_
 _symmetry_equiv_pos_site_id
 _symmetry_equiv_pos_as_xyz
  1  'x, y, z'
loop_
 _atom_site_type_symbol
 _atom_site_label
 _atom_site_symmetry_multiplicity
 _atom_site_fract_x
 _atom_site_fract_y
 _atom_site_fract_z
 _atom_site_occupancy
  Ho  Ho0  1  0.018194  0.182601  0.097182  1
  Ho  Ho1  1  0.986041  0.823225  0.905970  1
  Ho  Ho2  1  0.482460  0.681731  0.905070  1
  Ho  Ho3  1  0.984388  0.824004  0.596391  1
  Ho  Ho4  1  0.516907  0.319530  0.096241  1
  Ho  Ho5  1  0.018466  0.184193  0.400924  1
  Ho  Ho6  1  0.517741  0.319635  0.401738  1
  Ho  Ho7  1  0.483194  0.681212  0.595145  1
  Er  Er8  1  0.311041  0.172913  0.628087  1
  Er  Er9  1  0.678558  0.825459  0.372365  1
  Er  Er10  1  0.177409  0.678721  0.372983  1
  Er  Er11  1  0.677683  0.824673  0.125624  1
  Er  Er12  1  0.830182  0.317330  0.628420  1
  Er  Er13  1  0.311557  0.173637  0.873545  1
  Er  Er14  1  0.830200  0.319453  0.873763  1
  Sc  Sc15  1  0.155216  0.517645  0.750534  1
  Sc  Sc16  1  0.844944  0.489475  0.248409  1
  Sc  Sc17  1  0.344005  0.013052  0.248110  1
  Sc  Sc18  1  0.663524  0.985938  0.750631  1
  Sc  Sc19  1  0.177870  0.678065  0.127243  1
  Si  Si20  1  0.983075  0.896756  0.247076  1
  Si  Si21  1  0.477235  0.600686  0.246891  1
  Si  Si22  1  0.519105  0.402763  0.750707  1
  Si  Si23  1  0.282819  0.860461  0.750663  1
  Si  Si24  1  0.718460  0.137729  0.248885  1
  Si  Si25  1  0.219216  0.367970  0.248030  1
  Si  Si26  1  0.773714  0.630410  0.750565  1
  Si  Si27  1  0.154968  0.472331  0.538797  1
  Si  Si28  1  0.845452  0.531087  0.460276  1
  Si  Si29  1  0.347444  0.971262  0.459047  1
  Si  Si30  1  0.853910  0.531770  0.042450  1
  Si  Si31  1  0.650473  0.030875  0.539275  1
  Si  Si32  1  0.158779  0.474589  0.965597  1
  Si  Si33  1  0.650205  0.030067  0.960605  1
  Si  Si34  1  0.341972  0.964671  0.041390  1
  Ir  Ir35  1  0.013591  0.084080  0.751373  1
