# generated using pymatgen
data_Pr6Y4Sn20Pd3Rh5
_symmetry_space_group_name_H-M   'P 1'
_cell_length_a   14.24660204
_cell_length_b   14.21727935
_cell_length_c   4.60074500
_cell_angle_alpha   90.00000000
_cell_angle_beta   90.00000000
_cell_angle_gamma   90.07976535
_symmetry_Int_Tables_number   1
_chemical_formula_structural   Pr6Y4Sn20Pd3Rh5
_chemical_formula_sum   'Pr6 Y4 Sn20 Pd3 Rh5'
_cell_volume   931.87043195
_cell_formula_units_Z   1
loop_
 _symmetry_equiv_pos_site_id
 _symmetry_equiv_pos_as_xyz
  1  'x, y, z'
loop_
 _atom_site_type_symbol
 _atom_site_label
 _atom_site_symmetry_multiplicity
 _atom_site_fract_x
 _atom_site_fract_y
 _atom_site_fract_z
 _atom_site_occupancy
  Pr  Pr0  1  0.500174  0.500588  0.000000  1
  Pr  Pr1  1  0.997484  0.001794  0.000000  1
  Pr  Pr2  1  0.891459  0.389921  0.500000  1
  Pr  Pr3  1  0.108839  0.609372  0.500000  1
  Pr  Pr4  1  0.389538  0.109263  0.500000  1
  Pr  Pr5  1  0.609818  0.891135  0.500000  1
  Y  Y6  1  0.677328  0.177499  0.500000  1
  Y  Y7  1  0.324393  0.821112  0.500000  1
  Y  Y8  1  0.174502  0.320017  0.500000  1
  Y  Y9  1  0.825053  0.679350  0.500000  1
  Sn  Sn10  1  0.570106  0.071546  0.000000  1
  Sn  Sn11  1  0.433687  0.928908  0.000000  1
  Sn  Sn12  1  0.067565  0.428872  0.000000  1
  Sn  Sn13  1  0.933177  0.571846  0.000000  1
  Sn  Sn14  1  0.653312  0.702060  0.000000  1
  Sn  Sn15  1  0.346894  0.297168  0.000000  1
  Sn  Sn16  1  0.152293  0.798286  0.000000  1
  Sn  Sn17  1  0.847164  0.199560  0.000000  1
  Sn  Sn18  1  0.301169  0.654064  0.000000  1
  Sn  Sn19  1  0.699103  0.345232  0.000000  1
  Sn  Sn20  1  0.198164  0.153079  0.000000  1
  Sn  Sn21  1  0.800439  0.847941  0.000000  1
  Sn  Sn22  1  0.663967  0.504835  0.500000  1
  Sn  Sn23  1  0.336061  0.495066  0.500000  1
  Sn  Sn24  1  0.162706  0.994144  0.500000  1
  Sn  Sn25  1  0.835082  0.007664  0.500000  1
  Sn  Sn26  1  0.495267  0.663008  0.500000  1
  Sn  Sn27  1  0.505658  0.335715  0.500000  1
  Sn  Sn28  1  0.003715  0.164250  0.500000  1
  Sn  Sn29  1  0.993598  0.837191  0.500000  1
  Pd  Pd30  1  0.748063  0.532071  0.000000  1
  Pd  Pd31  1  0.252688  0.467355  0.000000  1
  Pd  Pd32  1  0.248581  0.967277  0.000000  1
  Rh  Rh33  1  0.753345  0.032149  0.000000  1
  Rh  Rh34  1  0.468547  0.744626  0.000000  1
  Rh  Rh35  1  0.531507  0.255031  0.000000  1
  Rh  Rh36  1  0.032192  0.244977  0.000000  1
  Rh  Rh37  1  0.967362  0.756022  0.000000  1
