# generated using pymatgen
data_Sc6Nb3Al12FeRu6W
_symmetry_space_group_name_H-M   'P 1'
_cell_length_a   8.82775254
_cell_length_b   8.82775189
_cell_length_c   8.82775200
_cell_angle_alpha   59.67784162
_cell_angle_beta   59.67785157
_cell_angle_gamma   59.67783769
_symmetry_Int_Tables_number   1
_chemical_formula_structural   Sc6Nb3Al12FeRu6W
_chemical_formula_sum   'Sc6 Nb3 Al12 Fe1 Ru6 W1'
_cell_volume   482.88666864
_cell_formula_units_Z   1
loop_
 _symmetry_equiv_pos_site_id
 _symmetry_equiv_pos_as_xyz
  1  'x, y, z'
loop_
 _atom_site_type_symbol
 _atom_site_label
 _atom_site_symmetry_multiplicity
 _atom_site_fract_x
 _atom_site_fract_y
 _atom_site_fract_z
 _atom_site_occupancy
  Sc  Sc0  1  0.706031  0.706031  0.292024  1
  Sc  Sc1  1  0.295054  0.705633  0.295054  1
  Sc  Sc2  1  0.705633  0.295054  0.295054  1
  Sc  Sc3  1  0.295054  0.295054  0.705633  1
  Sc  Sc4  1  0.706031  0.292024  0.706031  1
  Sc  Sc5  1  0.292024  0.706031  0.706031  1
  Nb  Nb6  1  0.882726  0.882726  0.352364  1
  Nb  Nb7  1  0.882726  0.352364  0.882726  1
  Nb  Nb8  1  0.352364  0.882726  0.882726  1
  Al  Al9  1  0.118998  0.118998  0.641894  1
  Al  Al10  1  0.118998  0.641894  0.118998  1
  Al  Al11  1  0.641894  0.118998  0.118998  1
  Al  Al12  1  0.119840  0.119840  0.119840  1
  Al  Al13  1  0.665557  0.665557  0.004430  1
  Al  Al14  1  0.665557  0.004430  0.665557  1
  Al  Al15  1  0.004430  0.665557  0.665557  1
  Al  Al16  1  0.664428  0.664428  0.664428  1
  Al  Al17  1  0.334927  0.334927  0.996377  1
  Al  Al18  1  0.334927  0.996377  0.334927  1
  Al  Al19  1  0.996377  0.334927  0.334927  1
  Al  Al20  1  0.334552  0.334552  0.334552  1
  Fe  Fe21  1  0.996430  0.996430  0.996430  1
  Ru  Ru22  1  0.998362  0.998362  0.505156  1
  Ru  Ru23  1  0.501465  0.998626  0.501465  1
  Ru  Ru24  1  0.998626  0.501465  0.501465  1
  Ru  Ru25  1  0.501465  0.501465  0.998626  1
  Ru  Ru26  1  0.998362  0.505156  0.998362  1
  Ru  Ru27  1  0.505156  0.998362  0.998362  1
  W  W28  1  0.882006  0.882006  0.882006  1
