# generated using pymatgen
data_Li2Lu2As6Rh7
_symmetry_space_group_name_H-M   'P 1'
_cell_length_a   7.05467715
_cell_length_b   7.13165802
_cell_length_c   7.05467731
_cell_angle_alpha   109.32847925
_cell_angle_beta   109.31793508
_cell_angle_gamma   109.32848069
_symmetry_Int_Tables_number   1
_chemical_formula_structural   Li2Lu2As6Rh7
_chemical_formula_sum   'Li2 Lu2 As6 Rh7'
_cell_volume   274.69611102
_cell_formula_units_Z   1
loop_
 _symmetry_equiv_pos_site_id
 _symmetry_equiv_pos_as_xyz
  1  'x, y, z'
loop_
 _atom_site_type_symbol
 _atom_site_label
 _atom_site_symmetry_multiplicity
 _atom_site_fract_x
 _atom_site_fract_y
 _atom_site_fract_z
 _atom_site_occupancy
  Li  Li0  1  0.500000  0.500000  0.500000  1
  Li  Li1  1  0.000000  0.500000  0.000000  1
  Lu  Lu2  1  0.500000  0.000000  0.000000  1
  Lu  Lu3  1  0.000000  0.000000  0.500000  1
  As  As4  1  0.685533  0.000000  0.685533  1
  As  As5  1  0.685483  0.673103  0.987619  1
  As  As6  1  0.314517  0.326897  0.012381  1
  As  As7  1  0.987619  0.673103  0.685483  1
  As  As8  1  0.012381  0.326897  0.314517  1
  As  As9  1  0.314467  0.000000  0.314467  1
  Rh  Rh10  1  0.750000  0.500000  0.250000  1
  Rh  Rh11  1  0.500312  0.249671  0.749359  1
  Rh  Rh12  1  0.749359  0.249671  0.500312  1
  Rh  Rh13  1  0.250641  0.750329  0.499688  1
  Rh  Rh14  1  0.250000  0.500000  0.750000  1
  Rh  Rh15  1  0.499688  0.750329  0.250641  1
  Rh  Rh16  1  0.000000  0.000000  0.000000  1
