# generated using pymatgen
data_Ga2AgI9
_symmetry_space_group_name_H-M   'P 1'
_cell_length_a   8.54543288
_cell_length_b   8.68907542
_cell_length_c   18.20365400
_cell_angle_alpha   86.04904062
_cell_angle_beta   86.06711038
_cell_angle_gamma   77.89463991
_symmetry_Int_Tables_number   1
_chemical_formula_structural   Ga2AgI9
_chemical_formula_sum   'Ga4 Ag2 I18'
_cell_volume   1316.42695953
_cell_formula_units_Z   2
loop_
 _symmetry_equiv_pos_site_id
 _symmetry_equiv_pos_as_xyz
  1  'x, y, z'
loop_
 _atom_site_type_symbol
 _atom_site_label
 _atom_site_symmetry_multiplicity
 _atom_site_fract_x
 _atom_site_fract_y
 _atom_site_fract_z
 _atom_site_occupancy
  Ga  Ga0  1  0.137399  0.711860  0.578501  1
  Ga  Ga1  1  0.862601  0.288140  0.421499  1
  Ga  Ga2  1  0.722330  0.299826  0.873002  1
  Ga  Ga3  1  0.277670  0.700174  0.126998  1
  Ag  Ag4  1  0.056043  0.220561  0.602089  1
  Ag  Ag5  1  0.943957  0.779439  0.397911  1
  I  I6  1  0.549184  0.860426  0.844931  1
  I  I7  1  0.450816  0.139574  0.155069  1
  I  I8  1  0.202220  0.450673  0.660885  1
  I  I9  1  0.797780  0.549327  0.339115  1
  I  I10  1  0.631725  0.553702  0.779548  1
  I  I11  1  0.368275  0.446298  0.220452  1
  I  I12  1  0.258599  0.920705  0.640442  1
  I  I13  1  0.741401  0.079295  0.359558  1
  I  I14  1  0.926713  0.123733  0.791292  1
  I  I15  1  0.073287  0.876267  0.208708  1
  I  I16  1  0.194152  0.631435  0.005482  1
  I  I17  1  0.805848  0.368565  0.994518  1
  I  I18  1  0.736848  0.321857  0.555689  1
  I  I19  1  0.263152  0.678143  0.444311  1
  I  I20  1  0.834434  0.802029  0.567167  1
  I  I21  1  0.165566  0.197971  0.432833  1
  I  I22  1  0.453660  0.182432  0.896637  1
  I  I23  1  0.546340  0.817568  0.103363  1
