# generated using pymatgen
data_RbEu(GaO2)4
_symmetry_space_group_name_H-M   'P 1'
_cell_length_a   6.70082477
_cell_length_b   6.70082456
_cell_length_c   6.70082500
_cell_angle_alpha   104.09541163
_cell_angle_beta   93.07543579
_cell_angle_gamma   134.65304524
_symmetry_Int_Tables_number   1
_chemical_formula_structural   RbEu(GaO2)4
_chemical_formula_sum   'Rb1 Eu1 Ga4 O8'
_cell_volume   196.26141579
_cell_formula_units_Z   1
loop_
 _symmetry_equiv_pos_site_id
 _symmetry_equiv_pos_as_xyz
  1  'x, y, z'
loop_
 _atom_site_type_symbol
 _atom_site_label
 _atom_site_symmetry_multiplicity
 _atom_site_fract_x
 _atom_site_fract_y
 _atom_site_fract_z
 _atom_site_occupancy
  Rb  Rb0  1  0.981621  0.981621  0.000000  1
  Eu  Eu1  1  0.088016  0.588016  0.500000  1
  Ga  Ga2  1  0.374657  0.837015  0.120859  1
  Ga  Ga3  1  0.716157  0.837015  0.462359  1
  Ga  Ga4  1  0.374656  0.253798  0.537641  1
  Ga  Ga5  1  0.716156  0.253798  0.879140  1
  O  O6  1  0.733113  0.210094  0.139953  1
  O  O7  1  0.406888  0.622181  0.215294  1
  O  O8  1  0.224857  0.904475  0.320382  1
  O  O9  1  0.070142  0.210093  0.476980  1
  O  O10  1  0.733113  0.593161  0.523019  1
  O  O11  1  0.584092  0.904475  0.679618  1
  O  O12  1  0.406887  0.191593  0.784706  1
  O  O13  1  0.070142  0.593160  0.860047  1
