# generated using pymatgen
data_Nd12Os3Rh
_symmetry_space_group_name_H-M   'P 1'
_cell_length_a   6.53571200
_cell_length_b   7.46932297
_cell_length_c   9.72493300
_cell_angle_alpha   90.00000000
_cell_angle_beta   90.00000000
_cell_angle_gamma   90.22898941
_symmetry_Int_Tables_number   1
_chemical_formula_structural   Nd12Os3Rh
_chemical_formula_sum   'Nd12 Os3 Rh1'
_cell_volume   474.74160582
_cell_formula_units_Z   1
loop_
 _symmetry_equiv_pos_site_id
 _symmetry_equiv_pos_as_xyz
  1  'x, y, z'
loop_
 _atom_site_type_symbol
 _atom_site_label
 _atom_site_symmetry_multiplicity
 _atom_site_fract_x
 _atom_site_fract_y
 _atom_site_fract_z
 _atom_site_occupancy
  Nd  Nd0  1  0.332613  0.674135  0.064720  1
  Nd  Nd1  1  0.170328  0.178322  0.435008  1
  Nd  Nd2  1  0.671788  0.323140  0.566534  1
  Nd  Nd3  1  0.826720  0.823724  0.930926  1
  Nd  Nd4  1  0.671788  0.323140  0.933466  1
  Nd  Nd5  1  0.826720  0.823724  0.569074  1
  Nd  Nd6  1  0.332613  0.674135  0.435280  1
  Nd  Nd7  1  0.170328  0.178322  0.064992  1
  Nd  Nd8  1  0.857831  0.537940  0.250000  1
  Nd  Nd9  1  0.640164  0.041844  0.250000  1
  Nd  Nd10  1  0.140768  0.462112  0.750000  1
  Nd  Nd11  1  0.357172  0.961295  0.750000  1
  Os  Os12  1  0.447147  0.384473  0.250000  1
  Os  Os13  1  0.949579  0.114427  0.750000  1
  Os  Os14  1  0.551200  0.615160  0.750000  1
  Rh  Rh15  1  0.053242  0.884109  0.250000  1
