# generated using pymatgen
data_La6NdPt3
_symmetry_space_group_name_H-M   'P 1'
_cell_length_a   10.35921900
_cell_length_b   10.35921941
_cell_length_c   6.57722100
_cell_angle_alpha   90.00000000
_cell_angle_beta   90.00000000
_cell_angle_gamma   120.00000189
_symmetry_Int_Tables_number   1
_chemical_formula_structural   La6NdPt3
_chemical_formula_sum   'La12 Nd2 Pt6'
_cell_volume   611.26158624
_cell_formula_units_Z   2
loop_
 _symmetry_equiv_pos_site_id
 _symmetry_equiv_pos_as_xyz
  1  'x, y, z'
loop_
 _atom_site_type_symbol
 _atom_site_label
 _atom_site_symmetry_multiplicity
 _atom_site_fract_x
 _atom_site_fract_y
 _atom_site_fract_z
 _atom_site_occupancy
  La  La0  1  0.872630  0.745259  0.750310  1
  La  La1  1  0.254741  0.127370  0.750310  1
  La  La2  1  0.872630  0.127370  0.750310  1
  La  La3  1  0.127370  0.254741  0.250310  1
  La  La4  1  0.745259  0.872630  0.250310  1
  La  La5  1  0.127370  0.872630  0.250310  1
  La  La6  1  0.461884  0.923769  0.562283  1
  La  La7  1  0.076231  0.538116  0.562283  1
  La  La8  1  0.461884  0.538116  0.562283  1
  La  La9  1  0.538116  0.076231  0.062283  1
  La  La10  1  0.923769  0.461884  0.062283  1
  La  La11  1  0.538116  0.461884  0.062283  1
  Nd  Nd12  1  0.666667  0.333333  0.540086  1
  Nd  Nd13  1  0.333333  0.666667  0.040086  1
  Pt  Pt14  1  0.188349  0.376699  0.809799  1
  Pt  Pt15  1  0.623301  0.811651  0.809799  1
  Pt  Pt16  1  0.188349  0.811651  0.809799  1
  Pt  Pt17  1  0.811651  0.623301  0.309799  1
  Pt  Pt18  1  0.376699  0.188349  0.309799  1
  Pt  Pt19  1  0.811651  0.188349  0.309799  1
