# generated using pymatgen
data_SrCaLu4(Si3Ru)8
_symmetry_space_group_name_H-M   'P 1'
_cell_length_a   10.10490600
_cell_length_b   10.10490681
_cell_length_c   8.10823000
_cell_angle_alpha   89.89184288
_cell_angle_beta   90.10815713
_cell_angle_gamma   132.67541259
_symmetry_Int_Tables_number   1
_chemical_formula_structural   SrCaLu4(Si3Ru)8
_chemical_formula_sum   'Sr1 Ca1 Lu4 Si24 Ru8'
_cell_volume   608.69327436
_cell_formula_units_Z   1
loop_
 _symmetry_equiv_pos_site_id
 _symmetry_equiv_pos_as_xyz
  1  'x, y, z'
loop_
 _atom_site_type_symbol
 _atom_site_label
 _atom_site_symmetry_multiplicity
 _atom_site_fract_x
 _atom_site_fract_y
 _atom_site_fract_z
 _atom_site_occupancy
  Sr  Sr0  1  0.502097  0.002097  0.750000  1
  Ca  Ca1  1  0.002485  0.502485  0.750000  1
  Lu  Lu2  1  0.500370  0.500421  0.500470  1
  Lu  Lu3  1  0.000421  0.000370  0.999530  1
  Lu  Lu4  1  0.999411  0.499411  0.250000  1
  Lu  Lu5  1  0.497773  0.997773  0.250000  1
  Si  Si6  1  0.797711  0.208355  0.496463  1
  Si  Si7  1  0.292663  0.703421  0.002776  1
  Si  Si8  1  0.203421  0.792663  0.497224  1
  Si  Si9  1  0.708355  0.297711  0.003537  1
  Si  Si10  1  0.332633  0.333678  0.832134  1
  Si  Si11  1  0.668037  0.669076  0.167085  1
  Si  Si12  1  0.169076  0.168037  0.332915  1
  Si  Si13  1  0.833678  0.832633  0.667866  1
  Si  Si14  1  0.118758  0.884792  0.728711  1
  Si  Si15  1  0.110355  0.878947  0.273270  1
  Si  Si16  1  0.609355  0.378036  0.227090  1
  Si  Si17  1  0.624385  0.390709  0.770646  1
  Si  Si18  1  0.878036  0.109355  0.272910  1
  Si  Si19  1  0.890709  0.124385  0.729354  1
  Si  Si20  1  0.384792  0.618758  0.771289  1
  Si  Si21  1  0.378947  0.610355  0.226730  1
  Si  Si22  1  0.343794  0.112004  0.500250  1
  Si  Si23  1  0.888063  0.655560  0.495198  1
  Si  Si24  1  0.387832  0.154779  0.008227  1
  Si  Si25  1  0.843984  0.612559  0.996335  1
  Si  Si26  1  0.654779  0.887832  0.491773  1
  Si  Si27  1  0.112559  0.343984  0.503665  1
  Si  Si28  1  0.612004  0.843794  0.999750  1
  Si  Si29  1  0.155560  0.388063  0.004802  1
  Ru  Ru30  1  0.669932  0.331979  0.493401  1
  Ru  Ru31  1  0.166621  0.829122  0.006885  1
  Ru  Ru32  1  0.329122  0.666621  0.493115  1
  Ru  Ru33  1  0.831979  0.169932  0.006599  1
  Ru  Ru34  1  0.126730  0.126256  0.627460  1
  Ru  Ru35  1  0.873603  0.873711  0.373813  1
  Ru  Ru36  1  0.373711  0.373603  0.126187  1
  Ru  Ru37  1  0.626256  0.626730  0.872540  1
