# generated using pymatgen
data_Mg2Zn3Pt5
_symmetry_space_group_name_H-M   'P 1'
_cell_length_a   4.12382600
_cell_length_b   3.62080400
_cell_length_c   20.50082500
_cell_angle_alpha   90.00000000
_cell_angle_beta   90.00000000
_cell_angle_gamma   90.00000000
_symmetry_Int_Tables_number   1
_chemical_formula_structural   Mg2Zn3Pt5
_chemical_formula_sum   'Mg4 Zn6 Pt10'
_cell_volume   306.10941490
_cell_formula_units_Z   2
loop_
 _symmetry_equiv_pos_site_id
 _symmetry_equiv_pos_as_xyz
  1  'x, y, z'
loop_
 _atom_site_type_symbol
 _atom_site_label
 _atom_site_symmetry_multiplicity
 _atom_site_fract_x
 _atom_site_fract_y
 _atom_site_fract_z
 _atom_site_occupancy
  Mg  Mg0  1  0.000000  0.000000  0.199397  1
  Mg  Mg1  1  0.000000  0.000000  0.400217  1
  Mg  Mg2  1  0.000000  0.000000  0.599783  1
  Mg  Mg3  1  0.000000  0.000000  0.800603  1
  Zn  Zn4  1  0.500000  0.000000  0.099356  1
  Zn  Zn5  1  0.500000  0.000000  0.300278  1
  Zn  Zn6  1  0.500000  0.000000  0.500000  1
  Zn  Zn7  1  0.500000  0.000000  0.699722  1
  Zn  Zn8  1  0.500000  0.000000  0.900644  1
  Zn  Zn9  1  0.000000  0.000000  0.000000  1
  Pt  Pt10  1  0.500000  0.500000  0.000000  1
  Pt  Pt11  1  0.500000  0.500000  0.199494  1
  Pt  Pt12  1  0.500000  0.500000  0.400383  1
  Pt  Pt13  1  0.500000  0.500000  0.599617  1
  Pt  Pt14  1  0.500000  0.500000  0.800506  1
  Pt  Pt15  1  0.000000  0.500000  0.098059  1
  Pt  Pt16  1  0.000000  0.500000  0.300005  1
  Pt  Pt17  1  0.000000  0.500000  0.500000  1
  Pt  Pt18  1  0.000000  0.500000  0.699995  1
  Pt  Pt19  1  0.000000  0.500000  0.901941  1
