# generated using pymatgen
data_Ca4SmDy(Si3Ru)8
_symmetry_space_group_name_H-M   'P 1'
_cell_length_a   10.17964796
_cell_length_b   10.17964653
_cell_length_c   8.15804549
_cell_angle_alpha   90.08433401
_cell_angle_beta   89.91565926
_cell_angle_gamma   132.76949481
_symmetry_Int_Tables_number   1
_chemical_formula_structural   Ca4SmDy(Si3Ru)8
_chemical_formula_sum   'Ca4 Sm1 Dy1 Si24 Ru8'
_cell_volume   620.58492127
_cell_formula_units_Z   1
loop_
 _symmetry_equiv_pos_site_id
 _symmetry_equiv_pos_as_xyz
  1  'x, y, z'
loop_
 _atom_site_type_symbol
 _atom_site_label
 _atom_site_symmetry_multiplicity
 _atom_site_fract_x
 _atom_site_fract_y
 _atom_site_fract_z
 _atom_site_occupancy
  Ca  Ca0  1  0.499658  0.499632  0.499585  1
  Ca  Ca1  1  0.999632  0.999658  0.000415  1
  Ca  Ca2  1  0.998971  0.498971  0.250000  1
  Ca  Ca3  1  0.499080  0.999080  0.250000  1
  Sm  Sm4  1  0.500498  0.000498  0.750000  1
  Dy  Dy5  1  0.000084  0.500084  0.750000  1
  Si  Si6  1  0.796368  0.206431  0.497320  1
  Si  Si7  1  0.293532  0.703628  0.002309  1
  Si  Si8  1  0.203628  0.793532  0.497691  1
  Si  Si9  1  0.706431  0.296368  0.002680  1
  Si  Si10  1  0.333288  0.333063  0.832240  1
  Si  Si11  1  0.665183  0.665394  0.167652  1
  Si  Si12  1  0.165394  0.165183  0.332348  1
  Si  Si13  1  0.833063  0.833288  0.667760  1
  Si  Si14  1  0.122901  0.891156  0.729042  1
  Si  Si15  1  0.109602  0.877154  0.270084  1
  Si  Si16  1  0.609466  0.376626  0.230197  1
  Si  Si17  1  0.624376  0.392096  0.770707  1
  Si  Si18  1  0.876626  0.109466  0.269803  1
  Si  Si19  1  0.892096  0.124376  0.729293  1
  Si  Si20  1  0.391156  0.622901  0.770958  1
  Si  Si21  1  0.377154  0.609602  0.229916  1
  Si  Si22  1  0.346215  0.113344  0.506956  1
  Si  Si23  1  0.886906  0.654486  0.492919  1
  Si  Si24  1  0.386866  0.153808  0.007532  1
  Si  Si25  1  0.846271  0.613579  0.991781  1
  Si  Si26  1  0.653808  0.886866  0.492468  1
  Si  Si27  1  0.113579  0.346271  0.508219  1
  Si  Si28  1  0.613344  0.846215  0.993044  1
  Si  Si29  1  0.154486  0.386906  0.007081  1
  Ru  Ru30  1  0.671841  0.331417  0.502112  1
  Ru  Ru31  1  0.170033  0.829662  0.997492  1
  Ru  Ru32  1  0.329662  0.670033  0.502508  1
  Ru  Ru33  1  0.831417  0.171841  0.997888  1
  Ru  Ru34  1  0.125812  0.125998  0.624793  1
  Ru  Ru35  1  0.872457  0.873115  0.375450  1
  Ru  Ru36  1  0.373115  0.372457  0.124550  1
  Ru  Ru37  1  0.625998  0.625812  0.875207  1
