# generated using pymatgen
data_Zr13Al9(CoIr3)2
_symmetry_space_group_name_H-M   'P 1'
_cell_length_a   9.15349747
_cell_length_b   9.15349612
_cell_length_c   9.15349745
_cell_angle_alpha   59.74290958
_cell_angle_beta   59.74291250
_cell_angle_gamma   59.74291970
_symmetry_Int_Tables_number   1
_chemical_formula_structural   Zr13Al9(CoIr3)2
_chemical_formula_sum   'Zr13 Al9 Co2 Ir6'
_cell_volume   539.14208462
_cell_formula_units_Z   1
loop_
 _symmetry_equiv_pos_site_id
 _symmetry_equiv_pos_as_xyz
  1  'x, y, z'
loop_
 _atom_site_type_symbol
 _atom_site_label
 _atom_site_symmetry_multiplicity
 _atom_site_fract_x
 _atom_site_fract_y
 _atom_site_fract_z
 _atom_site_occupancy
  Zr  Zr0  1  0.198803  0.198803  0.798680  1
  Zr  Zr1  1  0.798680  0.198803  0.198803  1
  Zr  Zr2  1  0.198803  0.798680  0.198803  1
  Zr  Zr3  1  0.806605  0.806605  0.175126  1
  Zr  Zr4  1  0.175126  0.806605  0.806605  1
  Zr  Zr5  1  0.806605  0.175126  0.806605  1
  Zr  Zr6  1  0.381280  0.381280  0.381280  1
  Zr  Zr7  1  0.382281  0.856714  0.382281  1
  Zr  Zr8  1  0.856714  0.382281  0.382281  1
  Zr  Zr9  1  0.382281  0.382281  0.856714  1
  Zr  Zr10  1  0.837761  0.493177  0.837761  1
  Zr  Zr11  1  0.493177  0.837761  0.837761  1
  Zr  Zr12  1  0.837761  0.837761  0.493177  1
  Al  Al13  1  0.160383  0.160383  0.160383  1
  Al  Al14  1  0.163804  0.511444  0.163804  1
  Al  Al15  1  0.511444  0.163804  0.163804  1
  Al  Al16  1  0.163804  0.163804  0.511444  1
  Al  Al17  1  0.616286  0.616286  0.616286  1
  Al  Al18  1  0.617525  0.153100  0.617525  1
  Al  Al19  1  0.153100  0.617525  0.617525  1
  Al  Al20  1  0.617525  0.617525  0.153100  1
  Al  Al21  1  0.828873  0.828873  0.828873  1
  Co  Co22  1  0.501151  0.501151  0.501151  1
  Co  Co23  1  0.001856  0.001856  0.001856  1
  Ir  Ir24  1  0.005608  0.005608  0.501921  1
  Ir  Ir25  1  0.501921  0.005608  0.005608  1
  Ir  Ir26  1  0.005608  0.501921  0.005608  1
  Ir  Ir27  1  0.493590  0.493590  0.008053  1
  Ir  Ir28  1  0.008053  0.493590  0.493590  1
  Ir  Ir29  1  0.493590  0.008053  0.493590  1
