# generated using pymatgen
data_U3TiGeAs4
_symmetry_space_group_name_H-M   'P 1'
_cell_length_a   8.50653500
_cell_length_b   8.50653576
_cell_length_c   5.71424400
_cell_angle_alpha   90.00000000
_cell_angle_beta   90.00000000
_cell_angle_gamma   120.00000092
_symmetry_Int_Tables_number   1
_chemical_formula_structural   U3TiGeAs4
_chemical_formula_sum   'U6 Ti2 Ge2 As8'
_cell_volume   358.09217753
_cell_formula_units_Z   2
loop_
 _symmetry_equiv_pos_site_id
 _symmetry_equiv_pos_as_xyz
  1  'x, y, z'
loop_
 _atom_site_type_symbol
 _atom_site_label
 _atom_site_symmetry_multiplicity
 _atom_site_fract_x
 _atom_site_fract_y
 _atom_site_fract_z
 _atom_site_occupancy
  U  U0  1  0.613446  0.000000  0.250000  1
  U  U1  1  0.613446  0.613446  0.750000  1
  U  U2  1  0.000000  0.386554  0.750000  1
  U  U3  1  0.000000  0.613446  0.250000  1
  U  U4  1  0.386554  0.386554  0.250000  1
  U  U5  1  0.386554  0.000000  0.750000  1
  Ti  Ti6  1  0.000000  0.000000  0.000000  1
  Ti  Ti7  1  0.000000  0.000000  0.500000  1
  Ge  Ge8  1  0.666667  0.333333  0.000000  1
  Ge  Ge9  1  0.333333  0.666667  0.500000  1
  As  As10  1  0.262085  0.000000  0.250000  1
  As  As11  1  0.262085  0.262085  0.750000  1
  As  As12  1  0.000000  0.737915  0.750000  1
  As  As13  1  0.000000  0.262085  0.250000  1
  As  As14  1  0.737915  0.737915  0.250000  1
  As  As15  1  0.737915  0.000000  0.750000  1
  As  As16  1  0.333333  0.666667  0.000000  1
  As  As17  1  0.666667  0.333333  0.500000  1
