# generated using pymatgen
data_RbBa11(SnAu)12
_symmetry_space_group_name_H-M   'P 1'
_cell_length_a   5.01621300
_cell_length_b   8.53935279
_cell_length_c   25.37908728
_cell_angle_alpha   89.81603950
_cell_angle_beta   90.00000000
_cell_angle_gamma   90.00000000
_symmetry_Int_Tables_number   1
_chemical_formula_structural   RbBa11(SnAu)12
_chemical_formula_sum   'Rb1 Ba11 Sn12 Au12'
_cell_volume   1087.11299200
_cell_formula_units_Z   1
loop_
 _symmetry_equiv_pos_site_id
 _symmetry_equiv_pos_as_xyz
  1  'x, y, z'
loop_
 _atom_site_type_symbol
 _atom_site_label
 _atom_site_symmetry_multiplicity
 _atom_site_fract_x
 _atom_site_fract_y
 _atom_site_fract_z
 _atom_site_occupancy
  Rb  Rb0  1  0.750000  0.197679  0.166823  1
  Ba  Ba1  1  0.750000  0.207540  0.497078  1
  Ba  Ba2  1  0.250000  0.805084  0.165925  1
  Ba  Ba3  1  0.250000  0.792716  0.502521  1
  Ba  Ba4  1  0.250000  0.791902  0.833361  1
  Ba  Ba5  1  0.250000  0.704777  0.333678  1
  Ba  Ba6  1  0.750000  0.206167  0.834343  1
  Ba  Ba7  1  0.750000  0.297439  0.998370  1
  Ba  Ba8  1  0.750000  0.292829  0.666699  1
  Ba  Ba9  1  0.750000  0.296785  0.332958  1
  Ba  Ba10  1  0.250000  0.704570  0.665946  1
  Ba  Ba11  1  0.250000  0.703550  0.002167  1
  Sn  Sn12  1  0.250000  0.413895  0.562389  1
  Sn  Sn13  1  0.250000  0.081535  0.395451  1
  Sn  Sn14  1  0.250000  0.083285  0.057708  1
  Sn  Sn15  1  0.250000  0.417227  0.895589  1
  Sn  Sn16  1  0.750000  0.582030  0.105701  1
  Sn  Sn17  1  0.250000  0.418472  0.771850  1
  Sn  Sn18  1  0.750000  0.581704  0.227257  1
  Sn  Sn19  1  0.750000  0.585271  0.437720  1
  Sn  Sn20  1  0.750000  0.915886  0.938255  1
  Sn  Sn21  1  0.250000  0.079885  0.274175  1
  Sn  Sn22  1  0.750000  0.917836  0.604855  1
  Sn  Sn23  1  0.750000  0.918599  0.728319  1
  Au  Au24  1  0.250000  0.087819  0.593631  1
  Au  Au25  1  0.250000  0.086351  0.740240  1
  Au  Au26  1  0.750000  0.587954  0.907091  1
  Au  Au27  1  0.750000  0.912475  0.406159  1
  Au  Au28  1  0.750000  0.580238  0.566065  1
  Au  Au29  1  0.750000  0.586208  0.759859  1
  Au  Au30  1  0.250000  0.419051  0.433314  1
  Au  Au31  1  0.250000  0.419906  0.241815  1
  Au  Au32  1  0.750000  0.915652  0.064098  1
  Au  Au33  1  0.250000  0.417064  0.091174  1
  Au  Au34  1  0.250000  0.081048  0.934633  1
  Au  Au35  1  0.750000  0.909571  0.262781  1
