# generated using pymatgen
data_La3Pr13Mg4Ir3Pt
_symmetry_space_group_name_H-M   'P 1'
_cell_length_a   10.12956619
_cell_length_b   10.14432515
_cell_length_c   10.14246409
_cell_angle_alpha   60.15742377
_cell_angle_beta   60.00309177
_cell_angle_gamma   60.02386568
_symmetry_Int_Tables_number   1
_chemical_formula_structural   La3Pr13Mg4Ir3Pt
_chemical_formula_sum   'La3 Pr13 Mg4 Ir3 Pt1'
_cell_volume   737.98094935
_cell_formula_units_Z   1
loop_
 _symmetry_equiv_pos_site_id
 _symmetry_equiv_pos_as_xyz
  1  'x, y, z'
loop_
 _atom_site_type_symbol
 _atom_site_label
 _atom_site_symmetry_multiplicity
 _atom_site_fract_x
 _atom_site_fract_y
 _atom_site_fract_z
 _atom_site_occupancy
  La  La0  1  0.344438  0.344739  0.344828  1
  La  La1  1  0.348655  0.349876  0.960310  1
  La  La2  1  0.348648  0.960112  0.349956  1
  Pr  Pr3  1  0.955884  0.350040  0.349950  1
  Pr  Pr4  1  0.807741  0.188331  0.188373  1
  Pr  Pr5  1  0.186742  0.811093  0.811125  1
  Pr  Pr6  1  0.188396  0.807581  0.188577  1
  Pr  Pr7  1  0.811555  0.187164  0.810642  1
  Pr  Pr8  1  0.188312  0.188573  0.807604  1
  Pr  Pr9  1  0.811592  0.810711  0.187088  1
  Pr  Pr10  1  0.938208  0.563147  0.563082  1
  Pr  Pr11  1  0.563584  0.937095  0.937108  1
  Pr  Pr12  1  0.563692  0.938456  0.563501  1
  Pr  Pr13  1  0.937266  0.562964  0.937724  1
  Pr  Pr14  1  0.563654  0.563560  0.938355  1
  Pr  Pr15  1  0.937179  0.937712  0.563073  1
  Mg  Mg16  1  0.580321  0.578977  0.578908  1
  Mg  Mg17  1  0.579235  0.578122  0.263310  1
  Mg  Mg18  1  0.579202  0.263318  0.578185  1
  Mg  Mg19  1  0.263130  0.578614  0.578564  1
  Ir  Ir20  1  0.143723  0.141610  0.573354  1
  Ir  Ir21  1  0.143710  0.573296  0.141654  1
  Ir  Ir22  1  0.572688  0.142281  0.142359  1
  Pt  Pt23  1  0.142444  0.142628  0.142370  1
