# generated using pymatgen
data_Er4Zn2OsRu5
_symmetry_space_group_name_H-M   'P 1'
_cell_length_a   5.28056298
_cell_length_b   5.33682935
_cell_length_c   8.79505200
_cell_angle_alpha   90.00000000
_cell_angle_beta   90.00000000
_cell_angle_gamma   120.35310567
_symmetry_Int_Tables_number   1
_chemical_formula_structural   Er4Zn2OsRu5
_chemical_formula_sum   'Er4 Zn2 Os1 Ru5'
_cell_volume   213.88301026
_cell_formula_units_Z   1
loop_
 _symmetry_equiv_pos_site_id
 _symmetry_equiv_pos_as_xyz
  1  'x, y, z'
loop_
 _atom_site_type_symbol
 _atom_site_label
 _atom_site_symmetry_multiplicity
 _atom_site_fract_x
 _atom_site_fract_y
 _atom_site_fract_z
 _atom_site_occupancy
  Er  Er0  1  0.333402  0.666702  0.432171  1
  Er  Er1  1  0.660553  0.330276  0.556576  1
  Er  Er2  1  0.660553  0.330276  0.943424  1
  Er  Er3  1  0.333402  0.666702  0.067829  1
  Zn  Zn4  1  0.183167  0.344217  0.750000  1
  Zn  Zn5  1  0.183167  0.838949  0.750000  1
  Os  Os6  1  0.332653  0.166327  0.250000  1
  Ru  Ru7  1  0.822427  0.654061  0.250000  1
  Ru  Ru8  1  0.678691  0.839345  0.750000  1
  Ru  Ru9  1  0.994779  0.997389  0.000120  1
  Ru  Ru10  1  0.822427  0.168366  0.250000  1
  Ru  Ru11  1  0.994779  0.997389  0.499880  1
