# generated using pymatgen
data_Sr4Ca2Sn8HgBi
_symmetry_space_group_name_H-M   'P 1'
_cell_length_a   8.89840017
_cell_length_b   8.89508446
_cell_length_c   8.89996736
_cell_angle_alpha   119.89587200
_cell_angle_beta   119.90798987
_cell_angle_gamma   90.18976225
_symmetry_Int_Tables_number   1
_chemical_formula_structural   Sr4Ca2Sn8HgBi
_chemical_formula_sum   'Sr4 Ca2 Sn8 Hg1 Bi1'
_cell_volume   498.77105141
_cell_formula_units_Z   1
loop_
 _symmetry_equiv_pos_site_id
 _symmetry_equiv_pos_as_xyz
  1  'x, y, z'
loop_
 _atom_site_type_symbol
 _atom_site_label
 _atom_site_symmetry_multiplicity
 _atom_site_fract_x
 _atom_site_fract_y
 _atom_site_fract_z
 _atom_site_occupancy
  Sr  Sr0  1  0.157352  0.661421  0.818800  1
  Sr  Sr1  1  0.842648  0.338579  0.181200  1
  Sr  Sr2  1  0.661439  0.842636  0.504070  1
  Sr  Sr3  1  0.338561  0.157364  0.495930  1
  Ca  Ca4  1  0.246787  0.246910  0.999953  1
  Ca  Ca5  1  0.753213  0.753090  0.000047  1
  Sn  Sn6  1  0.829858  0.338095  0.791377  1
  Sn  Sn7  1  0.170142  0.661905  0.208623  1
  Sn  Sn8  1  0.546811  0.038598  0.208689  1
  Sn  Sn9  1  0.338087  0.546762  0.508192  1
  Sn  Sn10  1  0.961472  0.170101  0.508259  1
  Sn  Sn11  1  0.453189  0.961402  0.791311  1
  Sn  Sn12  1  0.661913  0.453238  0.491808  1
  Sn  Sn13  1  0.038528  0.829899  0.491741  1
  Hg  Hg14  1  0.500000  0.500000  0.000000  1
  Bi  Bi15  1  0.000000  0.000000  0.000000  1
