# generated using pymatgen
data_DyHo(ZrIr)2
_symmetry_space_group_name_H-M   'P 1'
_cell_length_a   4.55806700
_cell_length_b   7.13097400
_cell_length_c   8.31782300
_cell_angle_alpha   90.00000000
_cell_angle_beta   90.00000000
_cell_angle_gamma   90.00000000
_symmetry_Int_Tables_number   1
_chemical_formula_structural   DyHo(ZrIr)2
_chemical_formula_sum   'Dy2 Ho2 Zr4 Ir4'
_cell_volume   270.35800444
_cell_formula_units_Z   2
loop_
 _symmetry_equiv_pos_site_id
 _symmetry_equiv_pos_as_xyz
  1  'x, y, z'
loop_
 _atom_site_type_symbol
 _atom_site_label
 _atom_site_symmetry_multiplicity
 _atom_site_fract_x
 _atom_site_fract_y
 _atom_site_fract_z
 _atom_site_occupancy
  Dy  Dy0  1  0.250000  0.984113  0.324606  1
  Dy  Dy1  1  0.250000  0.484113  0.175394  1
  Ho  Ho2  1  0.750000  0.015758  0.675751  1
  Ho  Ho3  1  0.750000  0.515758  0.824249  1
  Zr  Zr4  1  0.250000  0.356936  0.575093  1
  Zr  Zr5  1  0.250000  0.856936  0.924907  1
  Zr  Zr6  1  0.750000  0.643087  0.424890  1
  Zr  Zr7  1  0.750000  0.143087  0.075110  1
  Ir  Ir8  1  0.250000  0.232908  0.907196  1
  Ir  Ir9  1  0.250000  0.732908  0.592804  1
  Ir  Ir10  1  0.750000  0.767196  0.092914  1
  Ir  Ir11  1  0.750000  0.267196  0.407086  1
