# generated using pymatgen
data_Y12Ga2Co3Ni
_symmetry_space_group_name_H-M   'P 1'
_cell_length_a   8.32233087
_cell_length_b   8.32233038
_cell_length_c   8.32233068
_cell_angle_alpha   107.58473446
_cell_angle_beta   109.21292403
_cell_angle_gamma   111.64190583
_symmetry_Int_Tables_number   1
_chemical_formula_structural   Y12Ga2Co3Ni
_chemical_formula_sum   'Y12 Ga2 Co3 Ni1'
_cell_volume   443.15838776
_cell_formula_units_Z   1
loop_
 _symmetry_equiv_pos_site_id
 _symmetry_equiv_pos_as_xyz
  1  'x, y, z'
loop_
 _atom_site_type_symbol
 _atom_site_label
 _atom_site_symmetry_multiplicity
 _atom_site_fract_x
 _atom_site_fract_y
 _atom_site_fract_z
 _atom_site_occupancy
  Y  Y0  1  0.696348  0.259884  0.956232  1
  Y  Y1  1  0.303218  0.738897  0.042116  1
  Y  Y2  1  0.696348  0.740116  0.436463  1
  Y  Y3  1  0.303218  0.261103  0.564321  1
  Y  Y4  1  0.811984  0.135069  0.326519  1
  Y  Y5  1  0.811984  0.485465  0.676915  1
  Y  Y6  1  0.191450  0.864931  0.676915  1
  Y  Y7  1  0.191450  0.514535  0.326519  1
  Y  Y8  1  0.597975  0.778721  0.819254  1
  Y  Y9  1  0.961090  0.783094  0.177996  1
  Y  Y10  1  0.040532  0.221279  0.819254  1
  Y  Y11  1  0.394901  0.216906  0.177996  1
  Ga  Ga12  1  0.499098  0.500000  0.999098  1
  Ga  Ga13  1  0.499749  0.000000  0.499749  1
  Co  Co14  1  0.159930  0.500000  0.659930  1
  Co  Co15  1  0.997737  0.113777  0.111514  1
  Co  Co16  1  0.997737  0.886223  0.883960  1
  Ni  Ni17  1  0.845250  0.500000  0.345250  1
