# generated using pymatgen
data_CaHo7(Si4Mo3)4
_symmetry_space_group_name_H-M   'P 1'
_cell_length_a   6.75879096
_cell_length_b   6.94907342
_cell_length_c   12.92797461
_cell_angle_alpha   90.09053356
_cell_angle_beta   89.96466612
_cell_angle_gamma   90.11444052
_symmetry_Int_Tables_number   1
_chemical_formula_structural   CaHo7(Si4Mo3)4
_chemical_formula_sum   'Ca1 Ho7 Si16 Mo12'
_cell_volume   607.19042622
_cell_formula_units_Z   1
loop_
 _symmetry_equiv_pos_site_id
 _symmetry_equiv_pos_as_xyz
  1  'x, y, z'
loop_
 _atom_site_type_symbol
 _atom_site_label
 _atom_site_symmetry_multiplicity
 _atom_site_fract_x
 _atom_site_fract_y
 _atom_site_fract_z
 _atom_site_occupancy
  Ca  Ca0  1  0.997163  0.166342  0.091565  1
  Ho  Ho1  1  0.497994  0.331989  0.094413  1
  Ho  Ho2  1  0.997686  0.168092  0.405663  1
  Ho  Ho3  1  0.503266  0.667692  0.593960  1
  Ho  Ho4  1  0.002580  0.833215  0.906859  1
  Ho  Ho5  1  0.502873  0.667377  0.906356  1
  Ho  Ho6  1  0.003116  0.832534  0.594144  1
  Ho  Ho7  1  0.497318  0.332237  0.405468  1
  Si  Si8  1  0.660695  0.042535  0.546432  1
  Si  Si9  1  0.159140  0.457961  0.952486  1
  Si  Si10  1  0.341246  0.958069  0.047272  1
  Si  Si11  1  0.839803  0.542698  0.453612  1
  Si  Si12  1  0.339262  0.957520  0.453460  1
  Si  Si13  1  0.840998  0.541373  0.047437  1
  Si  Si14  1  0.658281  0.042468  0.952911  1
  Si  Si15  1  0.160389  0.457149  0.546394  1
  Si  Si16  1  0.533924  0.366203  0.749930  1
  Si  Si17  1  0.034271  0.134597  0.750651  1
  Si  Si18  1  0.465392  0.632973  0.250566  1
  Si  Si19  1  0.965522  0.866623  0.250208  1
  Si  Si20  1  0.803694  0.630644  0.750237  1
  Si  Si21  1  0.302877  0.870057  0.750107  1
  Si  Si22  1  0.195613  0.369533  0.249038  1
  Si  Si23  1  0.698312  0.128913  0.248981  1
  Mo  Mo24  1  0.829672  0.335866  0.625174  1
  Mo  Mo25  1  0.330958  0.164212  0.874463  1
  Mo  Mo26  1  0.170189  0.666378  0.126011  1
  Mo  Mo27  1  0.669159  0.835732  0.374439  1
  Mo  Mo28  1  0.170236  0.663573  0.375343  1
  Mo  Mo29  1  0.668427  0.832428  0.125241  1
  Mo  Mo30  1  0.828677  0.336983  0.873908  1
  Mo  Mo31  1  0.330392  0.164703  0.625308  1
  Mo  Mo32  1  0.666063  0.999059  0.749702  1
  Mo  Mo33  1  0.166113  0.500944  0.749945  1
  Mo  Mo34  1  0.334709  0.999756  0.251126  1
  Mo  Mo35  1  0.833993  0.501574  0.251195  1
