# generated using pymatgen
data_Y2Ho3Bi3C
_symmetry_space_group_name_H-M   'P 1'
_cell_length_a   6.49718700
_cell_length_b   9.13923918
_cell_length_c   9.13844100
_cell_angle_alpha   120.00288124
_cell_angle_beta   90.00000000
_cell_angle_gamma   90.00000000
_symmetry_Int_Tables_number   1
_chemical_formula_structural   Y2Ho3Bi3C
_chemical_formula_sum   'Y4 Ho6 Bi6 C2'
_cell_volume   469.92174757
_cell_formula_units_Z   2
loop_
 _symmetry_equiv_pos_site_id
 _symmetry_equiv_pos_as_xyz
  1  'x, y, z'
loop_
 _atom_site_type_symbol
 _atom_site_label
 _atom_site_symmetry_multiplicity
 _atom_site_fract_x
 _atom_site_fract_y
 _atom_site_fract_z
 _atom_site_occupancy
  Y  Y0  1  0.499998  0.333327  0.666652  1
  Y  Y1  1  0.499998  0.666675  0.333348  1
  Y  Y2  1  0.999998  0.666673  0.333348  1
  Y  Y3  1  0.999998  0.333325  0.666652  1
  Ho  Ho4  1  0.749998  0.206956  0.000000  1
  Ho  Ho5  1  0.750007  0.792961  0.792972  1
  Ho  Ho6  1  0.750007  0.999989  0.207028  1
  Ho  Ho7  1  0.249998  0.793044  0.000000  1
  Ho  Ho8  1  0.250007  0.207039  0.207028  1
  Ho  Ho9  1  0.250007  0.000011  0.792972  1
  Bi  Bi10  1  0.750003  0.598904  0.000000  1
  Bi  Bi11  1  0.749996  0.401137  0.401161  1
  Bi  Bi12  1  0.749996  0.999976  0.598839  1
  Bi  Bi13  1  0.250003  0.401096  0.000000  1
  Bi  Bi14  1  0.249996  0.598863  0.598839  1
  Bi  Bi15  1  0.249996  0.000024  0.401161  1
  C  C16  1  0.499998  0.999999  0.000000  1
  C  C17  1  0.999998  0.000001  0.000000  1
