# generated using pymatgen
data_Dy19Ho(Ga2Bi)4
_symmetry_space_group_name_H-M   'P 1'
_cell_length_a   8.03711400
_cell_length_b   8.03711400
_cell_length_c   13.37096100
_cell_angle_alpha   90.00000000
_cell_angle_beta   90.00000000
_cell_angle_gamma   90.00000000
_symmetry_Int_Tables_number   1
_chemical_formula_structural   Dy19Ho(Ga2Bi)4
_chemical_formula_sum   'Dy19 Ho1 Ga8 Bi4'
_cell_volume   863.69991936
_cell_formula_units_Z   1
loop_
 _symmetry_equiv_pos_site_id
 _symmetry_equiv_pos_as_xyz
  1  'x, y, z'
loop_
 _atom_site_type_symbol
 _atom_site_label
 _atom_site_symmetry_multiplicity
 _atom_site_fract_x
 _atom_site_fract_y
 _atom_site_fract_z
 _atom_site_occupancy
  Dy  Dy0  1  0.000000  0.500000  0.751455  1
  Dy  Dy1  1  0.000000  0.500000  0.251458  1
  Dy  Dy2  1  0.500000  0.000000  0.248545  1
  Dy  Dy3  1  0.653953  0.653809  0.608958  1
  Dy  Dy4  1  0.654001  0.346287  0.108948  1
  Dy  Dy5  1  0.846005  0.846282  0.391052  1
  Dy  Dy6  1  0.154086  0.846330  0.891044  1
  Dy  Dy7  1  0.346047  0.346191  0.608958  1
  Dy  Dy8  1  0.345999  0.653713  0.108948  1
  Dy  Dy9  1  0.153995  0.153718  0.391052  1
  Dy  Dy10  1  0.845914  0.153670  0.891044  1
  Dy  Dy11  1  0.653718  0.346005  0.391052  1
  Dy  Dy12  1  0.346330  0.345914  0.891044  1
  Dy  Dy13  1  0.153809  0.846047  0.608958  1
  Dy  Dy14  1  0.846287  0.845999  0.108948  1
  Dy  Dy15  1  0.346282  0.653995  0.391052  1
  Dy  Dy16  1  0.653670  0.654086  0.891044  1
  Dy  Dy17  1  0.846191  0.153953  0.608958  1
  Dy  Dy18  1  0.153713  0.154001  0.108948  1
  Ho  Ho19  1  0.500000  0.000000  0.748533  1
  Ga  Ga20  1  0.854745  0.854927  0.749997  1
  Ga  Ga21  1  0.854888  0.145069  0.250001  1
  Ga  Ga22  1  0.645069  0.645112  0.250001  1
  Ga  Ga23  1  0.354927  0.645255  0.749997  1
  Ga  Ga24  1  0.145255  0.145073  0.749997  1
  Ga  Ga25  1  0.145112  0.854931  0.250001  1
  Ga  Ga26  1  0.354931  0.354888  0.250001  1
  Ga  Ga27  1  0.645073  0.354745  0.749997  1
  Bi  Bi28  1  0.000000  0.500000  0.500874  1
  Bi  Bi29  1  0.000000  0.500000  0.000892  1
  Bi  Bi30  1  0.500000  0.000000  0.499239  1
  Bi  Bi31  1  0.500000  0.000000  0.999005  1
