# generated using pymatgen
data_Nd12Rh(AuI4)3
_symmetry_space_group_name_H-M   'P 1'
_cell_length_a   11.00323540
_cell_length_b   10.85350401
_cell_length_c   10.85350300
_cell_angle_alpha   109.19007552
_cell_angle_beta   109.75092841
_cell_angle_gamma   109.75092301
_symmetry_Int_Tables_number   1
_chemical_formula_structural   Nd12Rh(AuI4)3
_chemical_formula_sum   'Nd12 Rh1 Au3 I12'
_cell_volume   994.32323606
_cell_formula_units_Z   1
loop_
 _symmetry_equiv_pos_site_id
 _symmetry_equiv_pos_as_xyz
  1  'x, y, z'
loop_
 _atom_site_type_symbol
 _atom_site_label
 _atom_site_symmetry_multiplicity
 _atom_site_fract_x
 _atom_site_fract_y
 _atom_site_fract_z
 _atom_site_occupancy
  Nd  Nd0  1  0.461470  0.486702  0.225726  1
  Nd  Nd1  1  0.750000  0.233336  0.266664  1
  Nd  Nd2  1  0.750000  0.015347  0.484653  1
  Nd  Nd3  1  0.234653  0.469304  0.484653  1
  Nd  Nd4  1  0.264255  0.739024  0.225726  1
  Nd  Nd5  1  0.038530  0.274274  0.013298  1
  Nd  Nd6  1  0.016664  0.033329  0.266664  1
  Nd  Nd7  1  0.474769  0.739024  0.013298  1
  Nd  Nd8  1  0.483336  0.233336  0.466671  1
  Nd  Nd9  1  0.025231  0.486702  0.760976  1
  Nd  Nd10  1  0.265347  0.015347  0.030696  1
  Nd  Nd11  1  0.235745  0.274274  0.760976  1
  Rh  Rh12  1  0.250000  0.500000  0.000000  1
  Au  Au13  1  0.250000  0.251003  0.248997  1
  Au  Au14  1  0.498997  0.997992  0.248997  1
  Au  Au15  1  0.001003  0.251003  0.502008  1
  I  I16  1  0.250000  0.758921  0.741079  1
  I  I17  1  0.517234  0.507550  0.757378  1
  I  I18  1  0.982766  0.742622  0.992450  1
  I  I19  1  0.740142  0.249829  0.757378  1
  I  I20  1  0.991079  0.982159  0.741079  1
  I  I21  1  0.250000  0.992521  0.507479  1
  I  I22  1  0.757479  0.514956  0.507479  1
  I  I23  1  0.509686  0.249829  0.992450  1
  I  I24  1  0.759858  0.742622  0.250171  1
  I  I25  1  0.742521  0.992521  0.985044  1
  I  I26  1  0.990314  0.507550  0.250171  1
  I  I27  1  0.508921  0.758921  0.517841  1
