# generated using pymatgen
data_Zr5Pa4NbSi8
_symmetry_space_group_name_H-M   'P 1'
_cell_length_a   7.27204631
_cell_length_b   7.05252180
_cell_length_c   7.25020700
_cell_angle_alpha   72.08446335
_cell_angle_beta   89.94532037
_cell_angle_gamma   89.96847503
_symmetry_Int_Tables_number   1
_chemical_formula_structural   Zr5Pa4NbSi8
_chemical_formula_sum   'Zr5 Pa4 Nb1 Si8'
_cell_volume   353.80591604
_cell_formula_units_Z   1
loop_
 _symmetry_equiv_pos_site_id
 _symmetry_equiv_pos_as_xyz
  1  'x, y, z'
loop_
 _atom_site_type_symbol
 _atom_site_label
 _atom_site_symmetry_multiplicity
 _atom_site_fract_x
 _atom_site_fract_y
 _atom_site_fract_z
 _atom_site_occupancy
  Zr  Zr0  1  0.500000  0.000000  0.500000  1
  Zr  Zr1  1  0.175691  0.252782  0.248379  1
  Zr  Zr2  1  0.677586  0.250417  0.751177  1
  Zr  Zr3  1  0.824309  0.747218  0.751621  1
  Zr  Zr4  1  0.322414  0.749583  0.248823  1
  Pa  Pa5  1  0.672042  0.429763  0.190909  1
  Pa  Pa6  1  0.170194  0.070577  0.808149  1
  Pa  Pa7  1  0.327958  0.570237  0.809091  1
  Pa  Pa8  1  0.829806  0.929423  0.191851  1
  Nb  Nb9  1  0.000000  0.500000  0.500000  1
  Si  Si10  1  0.466408  0.134048  0.081514  1
  Si  Si11  1  0.966421  0.366306  0.916053  1
  Si  Si12  1  0.533592  0.865952  0.918486  1
  Si  Si13  1  0.033579  0.633694  0.083947  1
  Si  Si14  1  0.877535  0.131083  0.492244  1
  Si  Si15  1  0.373542  0.373216  0.507538  1
  Si  Si16  1  0.122465  0.868917  0.507756  1
  Si  Si17  1  0.626458  0.626784  0.492462  1
