# generated using pymatgen
data_La16Mg4Tc3Pd
_symmetry_space_group_name_H-M   'P 1'
_cell_length_a   10.10029219
_cell_length_b   10.24237274
_cell_length_c   10.24237200
_cell_angle_alpha   60.00000239
_cell_angle_beta   59.53356938
_cell_angle_gamma   59.53357144
_symmetry_Int_Tables_number   1
_chemical_formula_structural   La16Mg4Tc3Pd
_chemical_formula_sum   'La16 Mg4 Tc3 Pd1'
_cell_volume   743.91275909
_cell_formula_units_Z   1
loop_
 _symmetry_equiv_pos_site_id
 _symmetry_equiv_pos_as_xyz
  1  'x, y, z'
loop_
 _atom_site_type_symbol
 _atom_site_label
 _atom_site_symmetry_multiplicity
 _atom_site_fract_x
 _atom_site_fract_y
 _atom_site_fract_z
 _atom_site_occupancy
  La  La0  1  0.339565  0.348823  0.348823  1
  La  La1  1  0.339565  0.348823  0.962787  1
  La  La2  1  0.339565  0.962787  0.348823  1
  La  La3  1  0.970064  0.343312  0.343312  1
  La  La4  1  0.823060  0.187117  0.187117  1
  La  La5  1  0.187634  0.813930  0.813930  1
  La  La6  1  0.187634  0.813930  0.184506  1
  La  La7  1  0.823060  0.187117  0.802706  1
  La  La8  1  0.187634  0.184506  0.813930  1
  La  La9  1  0.823060  0.802706  0.187117  1
  La  La10  1  0.940886  0.558282  0.558282  1
  La  La11  1  0.555815  0.940921  0.940921  1
  La  La12  1  0.555815  0.940921  0.562343  1
  La  La13  1  0.940886  0.558282  0.942550  1
  La  La14  1  0.555815  0.562343  0.940921  1
  La  La15  1  0.940886  0.942550  0.558282  1
  Mg  Mg16  1  0.578341  0.577826  0.577826  1
  Mg  Mg17  1  0.578341  0.577826  0.266009  1
  Mg  Mg18  1  0.578341  0.266009  0.577826  1
  Mg  Mg19  1  0.265107  0.578298  0.578298  1
  Tc  Tc20  1  0.136126  0.135112  0.135112  1
  Tc  Tc21  1  0.136126  0.135112  0.593649  1
  Tc  Tc22  1  0.136126  0.593649  0.135112  1
  Pd  Pd23  1  0.580550  0.139817  0.139817  1
