# generated using pymatgen
data_Tb2Lu8Cd3Co
_symmetry_space_group_name_H-M   'P 1'
_cell_length_a   9.44734309
_cell_length_b   9.44961506
_cell_length_c   9.50954900
_cell_angle_alpha   90.00000000
_cell_angle_beta   90.00000000
_cell_angle_gamma   120.00794719
_symmetry_Int_Tables_number   1
_chemical_formula_structural   Tb2Lu8Cd3Co
_chemical_formula_sum   'Tb4 Lu16 Cd6 Co2'
_cell_volume   735.15611276
_cell_formula_units_Z   2
loop_
 _symmetry_equiv_pos_site_id
 _symmetry_equiv_pos_as_xyz
  1  'x, y, z'
loop_
 _atom_site_type_symbol
 _atom_site_label
 _atom_site_symmetry_multiplicity
 _atom_site_fract_x
 _atom_site_fract_y
 _atom_site_fract_z
 _atom_site_occupancy
  Tb  Tb0  1  0.914942  0.457471  0.250000  1
  Tb  Tb1  1  0.458216  0.541736  0.750000  1
  Tb  Tb2  1  0.458216  0.916480  0.750000  1
  Tb  Tb3  1  0.083312  0.541656  0.750000  1
  Lu  Lu4  1  0.000088  0.000044  0.500390  1
  Lu  Lu5  1  0.000088  0.000044  0.999610  1
  Lu  Lu6  1  0.541277  0.457499  0.250000  1
  Lu  Lu7  1  0.541277  0.083778  0.250000  1
  Lu  Lu8  1  0.212717  0.789265  0.435207  1
  Lu  Lu9  1  0.212717  0.423454  0.435207  1
  Lu  Lu10  1  0.576630  0.788316  0.435035  1
  Lu  Lu11  1  0.787588  0.211509  0.563656  1
  Lu  Lu12  1  0.787588  0.576077  0.563656  1
  Lu  Lu13  1  0.423756  0.211877  0.563201  1
  Lu  Lu14  1  0.787588  0.211509  0.936344  1
  Lu  Lu15  1  0.787588  0.576077  0.936344  1
  Lu  Lu16  1  0.423756  0.211877  0.936799  1
  Lu  Lu17  1  0.212717  0.789265  0.064793  1
  Lu  Lu18  1  0.212717  0.423454  0.064793  1
  Lu  Lu19  1  0.576630  0.788316  0.064965  1
  Cd  Cd20  1  0.884591  0.113988  0.250000  1
  Cd  Cd21  1  0.884591  0.770603  0.250000  1
  Cd  Cd22  1  0.230386  0.115193  0.250000  1
  Cd  Cd23  1  0.113914  0.886494  0.750000  1
  Cd  Cd24  1  0.113914  0.227420  0.750000  1
  Cd  Cd25  1  0.772234  0.886117  0.750000  1
  Co  Co26  1  0.333768  0.666884  0.250000  1
  Co  Co27  1  0.667198  0.333598  0.750000  1
