# generated using pymatgen
data_Cs6YErBr12
_symmetry_space_group_name_H-M   'P 1'
_cell_length_a   9.98651591
_cell_length_b   9.99441174
_cell_length_c   8.28170300
_cell_angle_alpha   90.00000000
_cell_angle_beta   90.00000000
_cell_angle_gamma   89.86207185
_symmetry_Int_Tables_number   1
_chemical_formula_structural   Cs6YErBr12
_chemical_formula_sum   'Cs6 Y1 Er1 Br12'
_cell_volume   826.58901328
_cell_formula_units_Z   1
loop_
 _symmetry_equiv_pos_site_id
 _symmetry_equiv_pos_as_xyz
  1  'x, y, z'
loop_
 _atom_site_type_symbol
 _atom_site_label
 _atom_site_symmetry_multiplicity
 _atom_site_fract_x
 _atom_site_fract_y
 _atom_site_fract_z
 _atom_site_occupancy
  Cs  Cs0  1  0.000000  0.000000  0.500000  1
  Cs  Cs1  1  0.000000  0.000000  0.000000  1
  Cs  Cs2  1  0.234898  0.585319  0.500000  1
  Cs  Cs3  1  0.765102  0.414681  0.500000  1
  Cs  Cs4  1  0.413979  0.233878  0.000000  1
  Cs  Cs5  1  0.586021  0.766122  0.000000  1
  Y  Y6  1  0.500000  0.000000  0.500000  1
  Er  Er7  1  0.000000  0.500000  0.000000  1
  Br  Br8  1  0.692544  0.058544  0.741668  1
  Br  Br9  1  0.307456  0.941456  0.741668  1
  Br  Br10  1  0.941708  0.690902  0.239443  1
  Br  Br11  1  0.058292  0.309098  0.239443  1
  Br  Br12  1  0.307456  0.941456  0.258332  1
  Br  Br13  1  0.692544  0.058544  0.258332  1
  Br  Br14  1  0.058292  0.309098  0.760557  1
  Br  Br15  1  0.941708  0.690902  0.760557  1
  Br  Br16  1  0.570997  0.728127  0.500000  1
  Br  Br17  1  0.429003  0.271873  0.500000  1
  Br  Br18  1  0.269804  0.569492  0.000000  1
  Br  Br19  1  0.730196  0.430508  0.000000  1
