# generated using pymatgen
data_Li3Tb3MgSn4
_symmetry_space_group_name_H-M   'P 1'
_cell_length_a   4.62643823
_cell_length_b   7.26413553
_cell_length_c   8.78581777
_cell_angle_alpha   115.41880818
_cell_angle_beta   105.26539121
_cell_angle_gamma   89.99999667
_symmetry_Int_Tables_number   1
_chemical_formula_structural   Li3Tb3MgSn4
_chemical_formula_sum   'Li3 Tb3 Mg1 Sn4'
_cell_volume   255.09966089
_cell_formula_units_Z   1
loop_
 _symmetry_equiv_pos_site_id
 _symmetry_equiv_pos_as_xyz
  1  'x, y, z'
loop_
 _atom_site_type_symbol
 _atom_site_label
 _atom_site_symmetry_multiplicity
 _atom_site_fract_x
 _atom_site_fract_y
 _atom_site_fract_z
 _atom_site_occupancy
  Li  Li0  1  0.326779  0.012854  0.653556  1
  Li  Li1  1  0.673051  0.976441  0.346103  1
  Li  Li2  1  0.325512  0.635669  0.651024  1
  Tb  Tb3  1  0.874986  0.374283  0.749972  1
  Tb  Tb4  1  0.126439  0.638994  0.252878  1
  Tb  Tb5  1  0.000551  0.000143  0.001100  1
  Mg  Mg6  1  0.673579  0.365955  0.347158  1
  Sn  Sn7  1  0.217266  0.200675  0.434532  1
  Sn  Sn8  1  0.787182  0.795738  0.574365  1
  Sn  Sn9  1  0.495660  0.298264  0.991319  1
  Sn  Sn10  1  0.498995  0.700987  0.997990  1
