# generated using pymatgen
data_K2EuDyTe8
_symmetry_space_group_name_H-M   'P 1'
_cell_length_a   6.84244400
_cell_length_b   6.84244400
_cell_length_c   9.22589700
_cell_angle_alpha   90.00000000
_cell_angle_beta   90.00000000
_cell_angle_gamma   90.00000000
_symmetry_Int_Tables_number   1
_chemical_formula_structural   K2EuDyTe8
_chemical_formula_sum   'K2 Eu1 Dy1 Te8'
_cell_volume   431.94763969
_cell_formula_units_Z   1
loop_
 _symmetry_equiv_pos_site_id
 _symmetry_equiv_pos_as_xyz
  1  'x, y, z'
loop_
 _atom_site_type_symbol
 _atom_site_label
 _atom_site_symmetry_multiplicity
 _atom_site_fract_x
 _atom_site_fract_y
 _atom_site_fract_z
 _atom_site_occupancy
  K  K0  1  0.500000  0.500000  0.000000  1
  K  K1  1  0.000000  0.000000  0.000000  1
  Eu  Eu2  1  0.500000  0.500000  0.500000  1
  Dy  Dy3  1  0.000000  0.000000  0.500000  1
  Te  Te4  1  0.341998  0.864341  0.285976  1
  Te  Te5  1  0.135659  0.341998  0.285976  1
  Te  Te6  1  0.864341  0.658002  0.285976  1
  Te  Te7  1  0.341998  0.135659  0.714024  1
  Te  Te8  1  0.658002  0.864341  0.714024  1
  Te  Te9  1  0.658002  0.135659  0.285976  1
  Te  Te10  1  0.864341  0.341998  0.714024  1
  Te  Te11  1  0.135659  0.658002  0.714024  1
