# generated using pymatgen
data_Tm20Ir7Rh5
_symmetry_space_group_name_H-M   'P 1'
_cell_length_a   10.72548902
_cell_length_b   10.72548902
_cell_length_c   6.30854900
_cell_angle_alpha   89.99823705
_cell_angle_beta   89.99823705
_cell_angle_gamma   89.92977378
_symmetry_Int_Tables_number   1
_chemical_formula_structural   Tm20Ir7Rh5
_chemical_formula_sum   'Tm20 Ir7 Rh5'
_cell_volume   725.71042021
_cell_formula_units_Z   1
loop_
 _symmetry_equiv_pos_site_id
 _symmetry_equiv_pos_as_xyz
  1  'x, y, z'
loop_
 _atom_site_type_symbol
 _atom_site_label
 _atom_site_symmetry_multiplicity
 _atom_site_fract_x
 _atom_site_fract_y
 _atom_site_fract_z
 _atom_site_occupancy
  Tm  Tm0  1  0.290415  0.088150  0.378340  1
  Tm  Tm1  1  0.290639  0.911721  0.877740  1
  Tm  Tm2  1  0.708798  0.087935  0.877349  1
  Tm  Tm3  1  0.708846  0.910216  0.378554  1
  Tm  Tm4  1  0.588195  0.790484  0.878204  1
  Tm  Tm5  1  0.586939  0.209579  0.378013  1
  Tm  Tm6  1  0.411541  0.790581  0.378065  1
  Tm  Tm7  1  0.411639  0.209353  0.877943  1
  Tm  Tm8  1  0.209516  0.411805  0.621796  1
  Tm  Tm9  1  0.209419  0.588459  0.121935  1
  Tm  Tm10  1  0.790421  0.413061  0.121987  1
  Tm  Tm11  1  0.790647  0.588361  0.622057  1
  Tm  Tm12  1  0.911850  0.709585  0.121660  1
  Tm  Tm13  1  0.912065  0.291202  0.622651  1
  Tm  Tm14  1  0.088279  0.709361  0.622260  1
  Tm  Tm15  1  0.089784  0.291154  0.121446  1
  Tm  Tm16  1  0.000085  0.999792  0.499951  1
  Tm  Tm17  1  0.000208  0.999915  0.000049  1
  Tm  Tm18  1  0.499920  0.499826  0.999913  1
  Tm  Tm19  1  0.500174  0.500080  0.500087  1
  Ir  Ir20  1  0.845969  0.846702  0.750002  1
  Ir  Ir21  1  0.153298  0.154031  0.749998  1
  Ir  Ir22  1  0.153968  0.846032  0.250000  1
  Ir  Ir23  1  0.654633  0.345367  0.750000  1
  Ir  Ir24  1  0.654081  0.653823  0.249860  1
  Ir  Ir25  1  0.346177  0.345919  0.250140  1
  Ir  Ir26  1  0.346010  0.653990  0.750000  1
  Rh  Rh27  1  0.845982  0.154018  0.250000  1
  Rh  Rh28  1  0.500508  0.000216  0.123392  1
  Rh  Rh29  1  0.500444  0.000235  0.622866  1
  Rh  Rh30  1  0.999765  0.499556  0.877134  1
  Rh  Rh31  1  0.999784  0.499492  0.376608  1
