# generated using pymatgen
data_Ce3Ho13(CdIr)4
_symmetry_space_group_name_H-M   'P 1'
_cell_length_a   9.60446498
_cell_length_b   9.63391468
_cell_length_c   9.63391500
_cell_angle_alpha   60.00000233
_cell_angle_beta   59.89851963
_cell_angle_gamma   59.89852419
_symmetry_Int_Tables_number   1
_chemical_formula_structural   Ce3Ho13(CdIr)4
_chemical_formula_sum   'Ce3 Ho13 Cd4 Ir4'
_cell_volume   629.35537948
_cell_formula_units_Z   1
loop_
 _symmetry_equiv_pos_site_id
 _symmetry_equiv_pos_as_xyz
  1  'x, y, z'
loop_
 _atom_site_type_symbol
 _atom_site_label
 _atom_site_symmetry_multiplicity
 _atom_site_fract_x
 _atom_site_fract_y
 _atom_site_fract_z
 _atom_site_occupancy
  Ce  Ce0  1  0.596827  0.599358  0.599358  1
  Ce  Ce1  1  0.596827  0.599358  0.204456  1
  Ce  Ce2  1  0.596827  0.204456  0.599358  1
  Ho  Ho3  1  0.197358  0.600881  0.600881  1
  Ho  Ho4  1  0.061802  0.439097  0.439097  1
  Ho  Ho5  1  0.438739  0.061640  0.061640  1
  Ho  Ho6  1  0.438739  0.061640  0.437980  1
  Ho  Ho7  1  0.061802  0.439097  0.060004  1
  Ho  Ho8  1  0.438739  0.437980  0.061640  1
  Ho  Ho9  1  0.061802  0.060004  0.439097  1
  Ho  Ho10  1  0.187060  0.813272  0.813272  1
  Ho  Ho11  1  0.813236  0.186545  0.186545  1
  Ho  Ho12  1  0.813236  0.186545  0.813674  1
  Ho  Ho13  1  0.187060  0.813272  0.186396  1
  Ho  Ho14  1  0.813236  0.813674  0.186545  1
  Ho  Ho15  1  0.187060  0.186396  0.813272  1
  Cd  Cd16  1  0.832969  0.831136  0.831136  1
  Cd  Cd17  1  0.832969  0.831136  0.504760  1
  Cd  Cd18  1  0.832969  0.504760  0.831136  1
  Cd  Cd19  1  0.504362  0.831879  0.831879  1
  Ir  Ir20  1  0.395035  0.391319  0.391319  1
  Ir  Ir21  1  0.395035  0.391319  0.822328  1
  Ir  Ir22  1  0.395035  0.822328  0.391319  1
  Ir  Ir23  1  0.821276  0.392908  0.392908  1
