# generated using pymatgen
data_La2NdCu4(P2O)2
_symmetry_space_group_name_H-M   'P 1'
_cell_length_a   4.01737249
_cell_length_b   4.01737096
_cell_length_c   13.80845841
_cell_angle_alpha   98.36437295
_cell_angle_beta   98.36437259
_cell_angle_gamma   90.00000404
_symmetry_Int_Tables_number   1
_chemical_formula_structural   La2NdCu4(P2O)2
_chemical_formula_sum   'La2 Nd1 Cu4 P4 O2'
_cell_volume   218.09164842
_cell_formula_units_Z   1
loop_
 _symmetry_equiv_pos_site_id
 _symmetry_equiv_pos_as_xyz
  1  'x, y, z'
loop_
 _atom_site_type_symbol
 _atom_site_label
 _atom_site_symmetry_multiplicity
 _atom_site_fract_x
 _atom_site_fract_y
 _atom_site_fract_z
 _atom_site_occupancy
  La  La0  1  0.703868  0.703868  0.407736  1
  La  La1  1  0.296132  0.296132  0.592264  1
  Nd  Nd2  1  0.000000  0.000000  0.000000  1
  Cu  Cu3  1  0.593190  0.093190  0.186380  1
  Cu  Cu4  1  0.093190  0.593190  0.186380  1
  Cu  Cu5  1  0.906811  0.406810  0.813620  1
  Cu  Cu6  1  0.406810  0.906811  0.813620  1
  P  P7  1  0.541348  0.541348  0.082694  1
  P  P8  1  0.138623  0.138623  0.277246  1
  P  P9  1  0.861378  0.861378  0.722753  1
  P  P10  1  0.458653  0.458653  0.917307  1
  O  O11  1  0.750001  0.250000  0.500000  1
  O  O12  1  0.250000  0.750001  0.500000  1
