# generated using pymatgen
data_BaTbDyF8
_symmetry_space_group_name_H-M   'P 1'
_cell_length_a   6.38493349
_cell_length_b   6.38493416
_cell_length_c   4.32722743
_cell_angle_alpha   95.25648449
_cell_angle_beta   95.25647247
_cell_angle_gamma   112.74115347
_symmetry_Int_Tables_number   1
_chemical_formula_structural   BaTbDyF8
_chemical_formula_sum   'Ba1 Tb1 Dy1 F8'
_cell_volume   160.45425521
_cell_formula_units_Z   1
loop_
 _symmetry_equiv_pos_site_id
 _symmetry_equiv_pos_as_xyz
  1  'x, y, z'
loop_
 _atom_site_type_symbol
 _atom_site_label
 _atom_site_symmetry_multiplicity
 _atom_site_fract_x
 _atom_site_fract_y
 _atom_site_fract_z
 _atom_site_occupancy
  Ba  Ba0  1  0.000145  0.999855  0.000000  1
  Tb  Tb1  1  0.675942  0.324059  0.500001  1
  Dy  Dy2  1  0.323722  0.676279  0.500001  1
  F  F3  1  0.740944  0.259058  0.000000  1
  F  F4  1  0.259808  0.740194  0.000000  1
  F  F5  1  0.390538  0.392117  0.225143  1
  F  F6  1  0.954521  0.672767  0.437199  1
  F  F7  1  0.671732  0.952465  0.437277  1
  F  F8  1  0.327233  0.045479  0.562802  1
  F  F9  1  0.047535  0.328268  0.562724  1
  F  F10  1  0.607883  0.609462  0.774859  1
