# generated using pymatgen
data_LiU3As5
_symmetry_space_group_name_H-M   'P 1'
_cell_length_a   8.53315500
_cell_length_b   8.53315525
_cell_length_c   5.62113200
_cell_angle_alpha   90.00000000
_cell_angle_beta   90.00000000
_cell_angle_gamma   120.00000292
_symmetry_Int_Tables_number   1
_chemical_formula_structural   LiU3As5
_chemical_formula_sum   'Li2 U6 As10'
_cell_volume   354.46526518
_cell_formula_units_Z   2
loop_
 _symmetry_equiv_pos_site_id
 _symmetry_equiv_pos_as_xyz
  1  'x, y, z'
loop_
 _atom_site_type_symbol
 _atom_site_label
 _atom_site_symmetry_multiplicity
 _atom_site_fract_x
 _atom_site_fract_y
 _atom_site_fract_z
 _atom_site_occupancy
  Li  Li0  1  0.000000  0.000000  0.000000  1
  Li  Li1  1  0.000000  0.000000  0.500000  1
  U  U2  1  0.383360  0.383360  0.750000  1
  U  U3  1  0.616640  0.000000  0.750000  1
  U  U4  1  0.000000  0.616640  0.750000  1
  U  U5  1  0.616640  0.616640  0.250000  1
  U  U6  1  0.383360  0.000000  0.250000  1
  U  U7  1  0.000000  0.383360  0.250000  1
  As  As8  1  0.736688  0.736688  0.750000  1
  As  As9  1  0.263312  0.000000  0.750000  1
  As  As10  1  0.000000  0.263312  0.750000  1
  As  As11  1  0.263312  0.263312  0.250000  1
  As  As12  1  0.736688  0.000000  0.250000  1
  As  As13  1  0.000000  0.736688  0.250000  1
  As  As14  1  0.666667  0.333333  0.000000  1
  As  As15  1  0.333333  0.666667  0.000000  1
  As  As16  1  0.333333  0.666667  0.500000  1
  As  As17  1  0.666667  0.333333  0.500000  1
