# generated using pymatgen
data_Ho6TaFe2(Co5P4)3
_symmetry_space_group_name_H-M   'P 1'
_cell_length_a   3.68784200
_cell_length_b   10.55459500
_cell_length_c   12.18613200
_cell_angle_alpha   90.00000000
_cell_angle_beta   90.00000000
_cell_angle_gamma   90.00000000
_symmetry_Int_Tables_number   1
_chemical_formula_structural   Ho6TaFe2(Co5P4)3
_chemical_formula_sum   'Ho6 Ta1 Fe2 Co15 P12'
_cell_volume   474.32908698
_cell_formula_units_Z   1
loop_
 _symmetry_equiv_pos_site_id
 _symmetry_equiv_pos_as_xyz
  1  'x, y, z'
loop_
 _atom_site_type_symbol
 _atom_site_label
 _atom_site_symmetry_multiplicity
 _atom_site_fract_x
 _atom_site_fract_y
 _atom_site_fract_z
 _atom_site_occupancy
  Ho  Ho0  1  0.000000  0.500000  0.527223  1
  Ho  Ho1  1  0.500000  0.000000  0.477968  1
  Ho  Ho2  1  0.500000  0.821426  0.205139  1
  Ho  Ho3  1  0.500000  0.178574  0.205139  1
  Ho  Ho4  1  0.000000  0.682131  0.796220  1
  Ho  Ho5  1  0.000000  0.317869  0.796220  1
  Ta  Ta6  1  0.500000  0.500000  0.154637  1
  Fe  Fe7  1  0.500000  0.000000  0.011036  1
  Fe  Fe8  1  0.000000  0.000000  0.843109  1
  Co  Co9  1  0.000000  0.500000  0.984978  1
  Co  Co10  1  0.500000  0.295199  0.432301  1
  Co  Co11  1  0.500000  0.704801  0.432301  1
  Co  Co12  1  0.000000  0.202456  0.569602  1
  Co  Co13  1  0.000000  0.797544  0.569602  1
  Co  Co14  1  0.500000  0.879221  0.708306  1
  Co  Co15  1  0.500000  0.120779  0.708306  1
  Co  Co16  1  0.000000  0.622407  0.293748  1
  Co  Co17  1  0.000000  0.377593  0.293748  1
  Co  Co18  1  0.500000  0.331209  0.990008  1
  Co  Co19  1  0.500000  0.668791  0.990008  1
  Co  Co20  1  0.000000  0.166525  0.003659  1
  Co  Co21  1  0.000000  0.833475  0.003659  1
  Co  Co22  1  0.500000  0.500000  0.700993  1
  Co  Co23  1  0.000000  0.000000  0.297995  1
  P  P24  1  0.500000  0.309399  0.617419  1
  P  P25  1  0.500000  0.690601  0.617419  1
  P  P26  1  0.000000  0.187998  0.385105  1
  P  P27  1  0.000000  0.812002  0.385105  1
  P  P28  1  0.500000  0.500000  0.880325  1
  P  P29  1  0.000000  0.000000  0.114994  1
  P  P30  1  0.500000  0.850095  0.890483  1
  P  P31  1  0.500000  0.149905  0.890483  1
  P  P32  1  0.000000  0.660754  0.104296  1
  P  P33  1  0.000000  0.339246  0.104296  1
  P  P34  1  0.500000  0.500000  0.356944  1
  P  P35  1  0.000000  0.000000  0.657230  1
