# generated using pymatgen
data_EuDy6IrI12
_symmetry_space_group_name_H-M   'P 1'
_cell_length_a   9.87804858
_cell_length_b   9.87804860
_cell_length_c   9.87804787
_cell_angle_alpha   106.89798998
_cell_angle_beta   106.89798870
_cell_angle_gamma   106.89798061
_symmetry_Int_Tables_number   1
_chemical_formula_structural   EuDy6IrI12
_chemical_formula_sum   'Eu1 Dy6 Ir1 I12'
_cell_volume   804.93422959
_cell_formula_units_Z   1
loop_
 _symmetry_equiv_pos_site_id
 _symmetry_equiv_pos_as_xyz
  1  'x, y, z'
loop_
 _atom_site_type_symbol
 _atom_site_label
 _atom_site_symmetry_multiplicity
 _atom_site_fract_x
 _atom_site_fract_y
 _atom_site_fract_z
 _atom_site_occupancy
  Eu  Eu0  1  0.500000  0.500000  0.500000  1
  Dy  Dy1  1  0.093819  0.021647  0.295704  1
  Dy  Dy2  1  0.295704  0.093819  0.021647  1
  Dy  Dy3  1  0.021647  0.295704  0.093819  1
  Dy  Dy4  1  0.906181  0.978353  0.704296  1
  Dy  Dy5  1  0.704296  0.906181  0.978353  1
  Dy  Dy6  1  0.978353  0.704296  0.906181  1
  Ir  Ir7  1  0.000000  0.000000  0.000000  1
  I  I8  1  0.070290  0.677628  0.221193  1
  I  I9  1  0.221193  0.070290  0.677628  1
  I  I10  1  0.677628  0.221193  0.070290  1
  I  I11  1  0.929710  0.322372  0.778807  1
  I  I12  1  0.778807  0.929710  0.322372  1
  I  I13  1  0.322372  0.778807  0.929710  1
  I  I14  1  0.451691  0.141552  0.372868  1
  I  I15  1  0.372868  0.451691  0.141552  1
  I  I16  1  0.141552  0.372868  0.451691  1
  I  I17  1  0.548309  0.858448  0.627132  1
  I  I18  1  0.627132  0.548309  0.858448  1
  I  I19  1  0.858448  0.627132  0.548309  1
