# generated using pymatgen
data_Y16Cd4OsPd3
_symmetry_space_group_name_H-M   'P 1'
_cell_length_a   9.76232872
_cell_length_b   9.76232940
_cell_length_c   9.76232846
_cell_angle_alpha   59.43704123
_cell_angle_beta   59.43704000
_cell_angle_gamma   59.43703870
_symmetry_Int_Tables_number   1
_chemical_formula_structural   Y16Cd4OsPd3
_chemical_formula_sum   'Y16 Cd4 Os1 Pd3'
_cell_volume   649.45174123
_cell_formula_units_Z   1
loop_
 _symmetry_equiv_pos_site_id
 _symmetry_equiv_pos_as_xyz
  1  'x, y, z'
loop_
 _atom_site_type_symbol
 _atom_site_label
 _atom_site_symmetry_multiplicity
 _atom_site_fract_x
 _atom_site_fract_y
 _atom_site_fract_z
 _atom_site_occupancy
  Y  Y0  1  0.353606  0.353606  0.353606  1
  Y  Y1  1  0.351052  0.351052  0.943275  1
  Y  Y2  1  0.351052  0.943275  0.351052  1
  Y  Y3  1  0.943275  0.351052  0.351052  1
  Y  Y4  1  0.815979  0.188547  0.188547  1
  Y  Y5  1  0.188354  0.810444  0.810444  1
  Y  Y6  1  0.188547  0.815979  0.188547  1
  Y  Y7  1  0.810444  0.188354  0.810444  1
  Y  Y8  1  0.188547  0.188547  0.815979  1
  Y  Y9  1  0.810444  0.810444  0.188354  1
  Y  Y10  1  0.934820  0.565894  0.565894  1
  Y  Y11  1  0.559068  0.937003  0.937003  1
  Y  Y12  1  0.565894  0.934820  0.565894  1
  Y  Y13  1  0.937003  0.559068  0.937003  1
  Y  Y14  1  0.565894  0.565894  0.934820  1
  Y  Y15  1  0.937003  0.937003  0.559068  1
  Cd  Cd16  1  0.580800  0.580800  0.580800  1
  Cd  Cd17  1  0.581373  0.581373  0.253864  1
  Cd  Cd18  1  0.581373  0.253864  0.581373  1
  Cd  Cd19  1  0.253864  0.581373  0.581373  1
  Os  Os20  1  0.143939  0.143939  0.143939  1
  Pd  Pd21  1  0.144569  0.144569  0.568532  1
  Pd  Pd22  1  0.144569  0.568532  0.144569  1
  Pd  Pd23  1  0.568532  0.144569  0.144569  1
