# generated using pymatgen
data_Tb3DySc4(B6Ir)4
_symmetry_space_group_name_H-M   'P 1'
_cell_length_a   3.55310100
_cell_length_b   9.02033200
_cell_length_c   11.39439800
_cell_angle_alpha   90.00125739
_cell_angle_beta   90.00000000
_cell_angle_gamma   90.00000000
_symmetry_Int_Tables_number   1
_chemical_formula_structural   Tb3DySc4(B6Ir)4
_chemical_formula_sum   'Tb3 Dy1 Sc4 B24 Ir4'
_cell_volume   365.19217242
_cell_formula_units_Z   1
loop_
 _symmetry_equiv_pos_site_id
 _symmetry_equiv_pos_as_xyz
  1  'x, y, z'
loop_
 _atom_site_type_symbol
 _atom_site_label
 _atom_site_symmetry_multiplicity
 _atom_site_fract_x
 _atom_site_fract_y
 _atom_site_fract_z
 _atom_site_occupancy
  Tb  Tb0  1  0.500000  0.320027  0.414084  1
  Tb  Tb1  1  0.500000  0.679985  0.585920  1
  Tb  Tb2  1  0.500000  0.179958  0.914096  1
  Dy  Dy3  1  0.500000  0.819939  0.085889  1
  Sc  Sc4  1  0.500000  0.445196  0.124311  1
  Sc  Sc5  1  0.500000  0.554936  0.875740  1
  Sc  Sc6  1  0.500000  0.054850  0.624323  1
  Sc  Sc7  1  0.500000  0.945116  0.375650  1
  B  B8  1  0.000000  0.099947  0.472994  1
  B  B9  1  0.000000  0.900043  0.527002  1
  B  B10  1  0.000000  0.400040  0.972990  1
  B  B11  1  0.000000  0.600255  0.027079  1
  B  B12  1  0.000000  0.129698  0.318324  1
  B  B13  1  0.000000  0.870270  0.681654  1
  B  B14  1  0.000000  0.370282  0.818366  1
  B  B15  1  0.000000  0.629926  0.181529  1
  B  B16  1  0.000000  0.054639  0.066014  1
  B  B17  1  0.000000  0.945026  0.934178  1
  B  B18  1  0.000000  0.445137  0.566037  1
  B  B19  1  0.000000  0.554880  0.433940  1
  B  B20  1  0.000000  0.482059  0.284851  1
  B  B21  1  0.000000  0.518015  0.715137  1
  B  B22  1  0.000000  0.017983  0.784895  1
  B  B23  1  0.000000  0.981816  0.214988  1
  B  B24  1  0.000000  0.254103  0.080560  1
  B  B25  1  0.000000  0.745946  0.919688  1
  B  B26  1  0.000000  0.245868  0.580544  1
  B  B27  1  0.000000  0.754130  0.419411  1
  B  B28  1  0.000000  0.295595  0.235197  1
  B  B29  1  0.000000  0.704392  0.764818  1
  B  B30  1  0.000000  0.204363  0.735230  1
  B  B31  1  0.000000  0.795669  0.264576  1
  Ir  Ir32  1  0.500000  0.141344  0.181577  1
  Ir  Ir33  1  0.500000  0.858447  0.818531  1
  Ir  Ir34  1  0.500000  0.358441  0.681652  1
  Ir  Ir35  1  0.500000  0.641674  0.318225  1
