# generated using pymatgen
data_TbY3(TmPt)4
_symmetry_space_group_name_H-M   'P 1'
_cell_length_a   4.75027500
_cell_length_b   7.12520227
_cell_length_c   8.73855950
_cell_angle_alpha   89.88966952
_cell_angle_beta   90.00000000
_cell_angle_gamma   90.00000000
_symmetry_Int_Tables_number   1
_chemical_formula_structural   TbY3(TmPt)4
_chemical_formula_sum   'Tb1 Y3 Tm4 Pt4'
_cell_volume   295.77059307
_cell_formula_units_Z   1
loop_
 _symmetry_equiv_pos_site_id
 _symmetry_equiv_pos_as_xyz
  1  'x, y, z'
loop_
 _atom_site_type_symbol
 _atom_site_label
 _atom_site_symmetry_multiplicity
 _atom_site_fract_x
 _atom_site_fract_y
 _atom_site_fract_z
 _atom_site_occupancy
  Tb  Tb0  1  0.250000  0.990992  0.330274  1
  Y  Y1  1  0.250000  0.490057  0.170027  1
  Y  Y2  1  0.750000  0.009407  0.670673  1
  Y  Y3  1  0.750000  0.509581  0.829920  1
  Tm  Tm4  1  0.250000  0.856099  0.920818  1
  Tm  Tm5  1  0.250000  0.356092  0.579087  1
  Tm  Tm6  1  0.750000  0.143486  0.078632  1
  Tm  Tm7  1  0.750000  0.643998  0.420846  1
  Pt  Pt8  1  0.250000  0.254292  0.906480  1
  Pt  Pt9  1  0.250000  0.754981  0.593409  1
  Pt  Pt10  1  0.750000  0.745539  0.093390  1
  Pt  Pt11  1  0.750000  0.245475  0.406442  1
