# generated using pymatgen
data_Ho2Mn4Fe8P7
_symmetry_space_group_name_H-M   'P 1'
_cell_length_a   9.07860871
_cell_length_b   9.04446753
_cell_length_c   3.59848900
_cell_angle_alpha   90.00000000
_cell_angle_beta   90.00000000
_cell_angle_gamma   119.25498214
_symmetry_Int_Tables_number   1
_chemical_formula_structural   Ho2Mn4Fe8P7
_chemical_formula_sum   'Ho2 Mn4 Fe8 P7'
_cell_volume   257.78923573
_cell_formula_units_Z   1
loop_
 _symmetry_equiv_pos_site_id
 _symmetry_equiv_pos_as_xyz
  1  'x, y, z'
loop_
 _atom_site_type_symbol
 _atom_site_label
 _atom_site_symmetry_multiplicity
 _atom_site_fract_x
 _atom_site_fract_y
 _atom_site_fract_z
 _atom_site_occupancy
  Ho  Ho0  1  0.660657  0.330050  0.000000  1
  Ho  Ho1  1  0.338099  0.669412  0.500000  1
  Mn  Mn2  1  0.952205  0.562571  0.500000  1
  Mn  Mn3  1  0.107186  0.230449  0.500000  1
  Mn  Mn4  1  0.776632  0.879586  0.500000  1
  Mn  Mn5  1  0.122423  0.896187  0.500000  1
  Fe  Fe6  1  0.052544  0.429176  0.000000  1
  Fe  Fe7  1  0.573183  0.630810  0.000000  1
  Fe  Fe8  1  0.372467  0.946103  0.000000  1
  Fe  Fe9  1  0.271358  0.153296  0.000000  1
  Fe  Fe10  1  0.846574  0.118561  0.000000  1
  Fe  Fe11  1  0.880545  0.721453  0.000000  1
  Fe  Fe12  1  0.433407  0.384075  0.500000  1
  Fe  Fe13  1  0.613210  0.048794  0.500000  1
  P  P14  1  0.302755  0.413304  0.000000  1
  P  P15  1  0.589059  0.890086  0.000000  1
  P  P16  1  0.123397  0.710969  0.000000  1
  P  P17  1  0.405738  0.118088  0.500000  1
  P  P18  1  0.873866  0.278028  0.500000  1
  P  P19  1  0.704819  0.591497  0.500000  1
  P  P20  1  0.999875  0.997507  0.000000  1
