# generated using pymatgen
data_Ho16Al4NiRh3
_symmetry_space_group_name_H-M   'P 1'
_cell_length_a   9.45731994
_cell_length_b   9.49285594
_cell_length_c   9.49278900
_cell_angle_alpha   59.99918659
_cell_angle_beta   59.87505799
_cell_angle_gamma   59.87567971
_symmetry_Int_Tables_number   1
_chemical_formula_structural   Ho16Al4NiRh3
_chemical_formula_sum   'Ho16 Al4 Ni1 Rh3'
_cell_volume   601.47896552
_cell_formula_units_Z   1
loop_
 _symmetry_equiv_pos_site_id
 _symmetry_equiv_pos_as_xyz
  1  'x, y, z'
loop_
 _atom_site_type_symbol
 _atom_site_label
 _atom_site_symmetry_multiplicity
 _atom_site_fract_x
 _atom_site_fract_y
 _atom_site_fract_z
 _atom_site_occupancy
  Ho  Ho0  1  0.355231  0.349634  0.349666  1
  Ho  Ho1  1  0.355275  0.349642  0.945451  1
  Ho  Ho2  1  0.355260  0.945461  0.349652  1
  Ho  Ho3  1  0.940776  0.353068  0.353071  1
  Ho  Ho4  1  0.806776  0.190867  0.190866  1
  Ho  Ho5  1  0.191330  0.808513  0.808480  1
  Ho  Ho6  1  0.191317  0.808494  0.191678  1
  Ho  Ho7  1  0.806820  0.190867  0.811446  1
  Ho  Ho8  1  0.191308  0.191670  0.808500  1
  Ho  Ho9  1  0.806794  0.811465  0.190873  1
  Ho  Ho10  1  0.937190  0.562881  0.562894  1
  Ho  Ho11  1  0.563357  0.936090  0.936089  1
  Ho  Ho12  1  0.563346  0.936086  0.564459  1
  Ho  Ho13  1  0.937204  0.562912  0.936990  1
  Ho  Ho14  1  0.563348  0.564448  0.936089  1
  Ho  Ho15  1  0.937203  0.936997  0.562912  1
  Al  Al16  1  0.576359  0.579069  0.579062  1
  Al  Al17  1  0.576340  0.579082  0.265471  1
  Al  Al18  1  0.576347  0.265461  0.579082  1
  Al  Al19  1  0.268656  0.577165  0.577160  1
  Ni  Ni20  1  0.573751  0.142119  0.142102  1
  Rh  Rh21  1  0.142015  0.143002  0.143000  1
  Rh  Rh22  1  0.142001  0.143014  0.571993  1
  Rh  Rh23  1  0.141996  0.571997  0.143010  1
