# generated using pymatgen
data_Gd2DyRh2
_symmetry_space_group_name_H-M   'P 1'
_cell_length_a   7.41475721
_cell_length_b   7.41475616
_cell_length_c   7.41475800
_cell_angle_alpha   71.31289021
_cell_angle_beta   71.31289296
_cell_angle_gamma   71.31287811
_symmetry_Int_Tables_number   1
_chemical_formula_structural   Gd2DyRh2
_chemical_formula_sum   'Gd6 Dy3 Rh6'
_cell_volume   354.87222387
_cell_formula_units_Z   3
loop_
 _symmetry_equiv_pos_site_id
 _symmetry_equiv_pos_as_xyz
  1  'x, y, z'
loop_
 _atom_site_type_symbol
 _atom_site_label
 _atom_site_symmetry_multiplicity
 _atom_site_fract_x
 _atom_site_fract_y
 _atom_site_fract_z
 _atom_site_occupancy
  Gd  Gd0  1  0.159281  0.393814  0.666213  1
  Gd  Gd1  1  0.666213  0.159281  0.393814  1
  Gd  Gd2  1  0.393814  0.666213  0.159281  1
  Gd  Gd3  1  0.840719  0.606186  0.333787  1
  Gd  Gd4  1  0.333787  0.840719  0.606186  1
  Gd  Gd5  1  0.606186  0.333787  0.840719  1
  Dy  Dy6  1  0.000000  0.000000  0.000000  1
  Dy  Dy7  1  0.797951  0.797951  0.797951  1
  Dy  Dy8  1  0.202049  0.202049  0.202049  1
  Rh  Rh9  1  0.956509  0.164817  0.591159  1
  Rh  Rh10  1  0.591159  0.956509  0.164817  1
  Rh  Rh11  1  0.164817  0.591159  0.956509  1
  Rh  Rh12  1  0.043491  0.835183  0.408841  1
  Rh  Rh13  1  0.408841  0.043491  0.835183  1
  Rh  Rh14  1  0.835183  0.408841  0.043491  1
