# generated using pymatgen
data_Tc3GeAs6
_symmetry_space_group_name_H-M   'P 1'
_cell_length_a   7.61978741
_cell_length_b   7.61978738
_cell_length_c   7.62164403
_cell_angle_alpha   109.17377143
_cell_angle_beta   109.17377472
_cell_angle_gamma   110.05799791
_symmetry_Int_Tables_number   1
_chemical_formula_structural   Tc3GeAs6
_chemical_formula_sum   'Tc6 Ge2 As12'
_cell_volume   340.66699367
_cell_formula_units_Z   2
loop_
 _symmetry_equiv_pos_site_id
 _symmetry_equiv_pos_as_xyz
  1  'x, y, z'
loop_
 _atom_site_type_symbol
 _atom_site_label
 _atom_site_symmetry_multiplicity
 _atom_site_fract_x
 _atom_site_fract_y
 _atom_site_fract_z
 _atom_site_occupancy
  Tc  Tc0  1  0.339678  0.002497  0.342174  1
  Tc  Tc1  1  0.002497  0.339678  0.342174  1
  Tc  Tc2  1  0.002605  0.660334  0.662939  1
  Tc  Tc3  1  0.334654  0.334654  0.995049  1
  Tc  Tc4  1  0.660395  0.660395  0.995049  1
  Tc  Tc5  1  0.660334  0.002605  0.662939  1
  Ge  Ge6  1  0.748785  0.500670  0.249455  1
  Ge  Ge7  1  0.500670  0.748785  0.249455  1
  As  As8  1  0.500566  0.251089  0.751654  1
  As  As9  1  0.749500  0.249500  0.498999  1
  As  As10  1  0.249500  0.749500  0.498999  1
  As  As11  1  0.251089  0.500566  0.751654  1
  As  As12  1  0.996334  0.996334  0.328710  1
  As  As13  1  0.670036  0.001255  0.002382  1
  As  As14  1  0.001255  0.670036  0.002382  1
  As  As15  1  0.332376  0.332376  0.328710  1
  As  As16  1  0.001127  0.332346  0.002382  1
  As  As17  1  0.670143  0.670143  0.666257  1
  As  As18  1  0.332346  0.001127  0.002382  1
  As  As19  1  0.996114  0.996114  0.666257  1
