# generated using pymatgen
data_Dy16In4CoIrRu2
_symmetry_space_group_name_H-M   'P 1'
_cell_length_a   9.62554694
_cell_length_b   9.61403279
_cell_length_c   9.64552300
_cell_angle_alpha   59.89158653
_cell_angle_beta   59.93132186
_cell_angle_gamma   59.86782789
_symmetry_Int_Tables_number   1
_chemical_formula_structural   Dy16In4CoIrRu2
_chemical_formula_sum   'Dy16 In4 Co1 Ir1 Ru2'
_cell_volume   629.68684461
_cell_formula_units_Z   1
loop_
 _symmetry_equiv_pos_site_id
 _symmetry_equiv_pos_as_xyz
  1  'x, y, z'
loop_
 _atom_site_type_symbol
 _atom_site_label
 _atom_site_symmetry_multiplicity
 _atom_site_fract_x
 _atom_site_fract_y
 _atom_site_fract_z
 _atom_site_occupancy
  Dy  Dy0  1  0.595535  0.602198  0.595055  1
  Dy  Dy1  1  0.595535  0.602198  0.207212  1
  Dy  Dy2  1  0.598639  0.204077  0.598642  1
  Dy  Dy3  1  0.208234  0.601657  0.595054  1
  Dy  Dy4  1  0.059777  0.439089  0.442949  1
  Dy  Dy5  1  0.438963  0.056505  0.062935  1
  Dy  Dy6  1  0.438963  0.056505  0.441596  1
  Dy  Dy7  1  0.059777  0.439089  0.058184  1
  Dy  Dy8  1  0.441014  0.439814  0.059586  1
  Dy  Dy9  1  0.062272  0.054492  0.441618  1
  Dy  Dy10  1  0.188742  0.808613  0.812793  1
  Dy  Dy11  1  0.808139  0.190510  0.191281  1
  Dy  Dy12  1  0.808139  0.190510  0.810070  1
  Dy  Dy13  1  0.188742  0.808613  0.189853  1
  Dy  Dy14  1  0.812819  0.810943  0.188119  1
  Dy  Dy15  1  0.191837  0.191897  0.808133  1
  In  In16  1  0.832483  0.831236  0.832997  1
  In  In17  1  0.832483  0.831236  0.503285  1
  In  In18  1  0.832551  0.502508  0.832471  1
  In  In19  1  0.501779  0.831565  0.833328  1
  Co  Co20  1  0.391137  0.831528  0.388668  1
  Ir  Ir21  1  0.829330  0.391881  0.389394  1
  Ru  Ru22  1  0.391556  0.391668  0.387225  1
  Ru  Ru23  1  0.391556  0.391668  0.829552  1
