# generated using pymatgen
data_DyTm(NiIr)2
_symmetry_space_group_name_H-M   'P 1'
_cell_length_a   5.20029326
_cell_length_b   5.20029385
_cell_length_c   5.04776000
_cell_angle_alpha   60.96563512
_cell_angle_beta   60.96563152
_cell_angle_gamma   62.36203002
_symmetry_Int_Tables_number   1
_chemical_formula_structural   DyTm(NiIr)2
_chemical_formula_sum   'Dy1 Tm1 Ni2 Ir2'
_cell_volume   99.58906839
_cell_formula_units_Z   1
loop_
 _symmetry_equiv_pos_site_id
 _symmetry_equiv_pos_as_xyz
  1  'x, y, z'
loop_
 _atom_site_type_symbol
 _atom_site_label
 _atom_site_symmetry_multiplicity
 _atom_site_fract_x
 _atom_site_fract_y
 _atom_site_fract_z
 _atom_site_occupancy
  Dy  Dy0  1  0.002734  0.002734  0.997266  1
  Tm  Tm1  1  0.746875  0.746875  0.753125  1
  Ni  Ni2  1  0.375220  0.375220  0.374863  1
  Ni  Ni3  1  0.375220  0.375220  0.874697  1
  Ir  Ir4  1  0.874593  0.375356  0.375025  1
  Ir  Ir5  1  0.375356  0.874593  0.375025  1
