# generated using pymatgen
data_LiTb6Y3Cd3Ru
_symmetry_space_group_name_H-M   'P 1'
_cell_length_a   9.50661600
_cell_length_b   9.50661603
_cell_length_c   9.72361200
_cell_angle_alpha   90.00000000
_cell_angle_beta   90.00000000
_cell_angle_gamma   119.99999988
_symmetry_Int_Tables_number   1
_chemical_formula_structural   LiTb6Y3Cd3Ru
_chemical_formula_sum   'Li2 Tb12 Y6 Cd6 Ru2'
_cell_volume   761.04468700
_cell_formula_units_Z   2
loop_
 _symmetry_equiv_pos_site_id
 _symmetry_equiv_pos_as_xyz
  1  'x, y, z'
loop_
 _atom_site_type_symbol
 _atom_site_label
 _atom_site_symmetry_multiplicity
 _atom_site_fract_x
 _atom_site_fract_y
 _atom_site_fract_z
 _atom_site_occupancy
  Li  Li0  1  0.000000  0.000000  0.500000  1
  Li  Li1  1  0.000000  0.000000  0.000000  1
  Tb  Tb2  1  0.208182  0.791818  0.441288  1
  Tb  Tb3  1  0.208182  0.416365  0.441288  1
  Tb  Tb4  1  0.583635  0.791818  0.441288  1
  Tb  Tb5  1  0.791818  0.208182  0.558712  1
  Tb  Tb6  1  0.791818  0.583635  0.558712  1
  Tb  Tb7  1  0.416365  0.208182  0.558712  1
  Tb  Tb8  1  0.791818  0.208182  0.941288  1
  Tb  Tb9  1  0.791818  0.583635  0.941288  1
  Tb  Tb10  1  0.416365  0.208182  0.941288  1
  Tb  Tb11  1  0.208182  0.791818  0.058712  1
  Tb  Tb12  1  0.208182  0.416365  0.058712  1
  Tb  Tb13  1  0.583635  0.791818  0.058712  1
  Y  Y14  1  0.542372  0.457628  0.250000  1
  Y  Y15  1  0.542372  0.084745  0.250000  1
  Y  Y16  1  0.915255  0.457628  0.250000  1
  Y  Y17  1  0.457628  0.542372  0.750000  1
  Y  Y18  1  0.457628  0.915255  0.750000  1
  Y  Y19  1  0.084745  0.542372  0.750000  1
  Cd  Cd20  1  0.891682  0.108318  0.250000  1
  Cd  Cd21  1  0.891682  0.783364  0.250000  1
  Cd  Cd22  1  0.216636  0.108318  0.250000  1
  Cd  Cd23  1  0.108318  0.891682  0.750000  1
  Cd  Cd24  1  0.108318  0.216636  0.750000  1
  Cd  Cd25  1  0.783364  0.891682  0.750000  1
  Ru  Ru26  1  0.333333  0.666667  0.250000  1
  Ru  Ru27  1  0.666667  0.333333  0.750000  1
