# generated using pymatgen
data_La8Er12Si15Se
_symmetry_space_group_name_H-M   'P 1'
_cell_length_a   7.88540288
_cell_length_b   7.82742195
_cell_length_c   14.61299900
_cell_angle_alpha   90.36051373
_cell_angle_beta   89.09765659
_cell_angle_gamma   90.24623079
_symmetry_Int_Tables_number   1
_chemical_formula_structural   La8Er12Si15Se
_chemical_formula_sum   'La8 Er12 Si15 Se1'
_cell_volume   901.81135834
_cell_formula_units_Z   1
loop_
 _symmetry_equiv_pos_site_id
 _symmetry_equiv_pos_as_xyz
  1  'x, y, z'
loop_
 _atom_site_type_symbol
 _atom_site_label
 _atom_site_symmetry_multiplicity
 _atom_site_fract_x
 _atom_site_fract_y
 _atom_site_fract_z
 _atom_site_occupancy
  La  La0  1  0.995829  0.639917  0.043034  1
  La  La1  1  0.010076  0.358741  0.540473  1
  La  La2  1  0.644379  0.993614  0.957975  1
  La  La3  1  0.146664  0.508150  0.790138  1
  La  La4  1  0.843133  0.485865  0.285114  1
  La  La5  1  0.502862  0.141243  0.207570  1
  La  La6  1  0.501946  0.861288  0.711818  1
  La  La7  1  0.357220  0.003720  0.459363  1
  Er  Er8  1  0.353379  0.496466  0.380640  1
  Er  Er9  1  0.846976  0.012971  0.369493  1
  Er  Er10  1  0.992079  0.141542  0.125514  1
  Er  Er11  1  0.017367  0.854993  0.622153  1
  Er  Er12  1  0.645900  0.508215  0.876701  1
  Er  Er13  1  0.501651  0.351961  0.627816  1
  Er  Er14  1  0.505858  0.643124  0.123883  1
  Er  Er15  1  0.142786  0.993750  0.873891  1
  Er  Er16  1  0.667553  0.682792  0.502194  1
  Er  Er17  1  0.825157  0.181792  0.748913  1
  Er  Er18  1  0.176811  0.818028  0.245381  1
  Er  Er19  1  0.320010  0.317957  0.000755  1
  Si  Si20  1  0.938493  0.287768  0.937909  1
  Si  Si21  1  0.717103  0.059546  0.560900  1
  Si  Si22  1  0.209423  0.439454  0.189986  1
  Si  Si23  1  0.798278  0.562941  0.687671  1
  Si  Si24  1  0.441161  0.215215  0.814922  1
  Si  Si25  1  0.553128  0.788007  0.313171  1
  Si  Si26  1  0.289744  0.938397  0.061211  1
  Si  Si27  1  0.855349  0.795778  0.806937  1
  Si  Si28  1  0.146882  0.203798  0.313163  1
  Si  Si29  1  0.795862  0.849610  0.187899  1
  Si  Si30  1  0.318134  0.642934  0.577646  1
  Si  Si31  1  0.704172  0.350288  0.060227  1
  Si  Si32  1  0.649409  0.300630  0.440887  1
  Si  Si33  1  0.351233  0.705639  0.941353  1
  Si  Si34  1  0.203240  0.149026  0.688850  1
  Se  Se35  1  0.030754  0.714840  0.424451  1
