# generated using pymatgen
data_Hf3Ti3AlSb2
_symmetry_space_group_name_H-M   'P 1'
_cell_length_a   7.24409900
_cell_length_b   7.24410032
_cell_length_c   3.93681200
_cell_angle_alpha   90.00000000
_cell_angle_beta   90.00000000
_cell_angle_gamma   119.99999853
_symmetry_Int_Tables_number   1
_chemical_formula_structural   Hf3Ti3AlSb2
_chemical_formula_sum   'Hf3 Ti3 Al1 Sb2'
_cell_volume   178.91392651
_cell_formula_units_Z   1
loop_
 _symmetry_equiv_pos_site_id
 _symmetry_equiv_pos_as_xyz
  1  'x, y, z'
loop_
 _atom_site_type_symbol
 _atom_site_label
 _atom_site_symmetry_multiplicity
 _atom_site_fract_x
 _atom_site_fract_y
 _atom_site_fract_z
 _atom_site_occupancy
  Hf  Hf0  1  0.396358  0.000000  0.500001  1
  Hf  Hf1  1  0.000000  0.396358  0.500001  1
  Hf  Hf2  1  0.603642  0.603642  0.500001  1
  Ti  Ti3  1  0.765823  0.000000  0.000000  1
  Ti  Ti4  1  0.234176  0.234177  0.000000  1
  Ti  Ti5  1  0.000000  0.765823  0.000000  1
  Al  Al6  1  0.000000  0.000000  0.500001  1
  Sb  Sb7  1  0.666667  0.333334  0.000000  1
  Sb  Sb8  1  0.333333  0.666666  0.000000  1
