# generated using pymatgen
data_La17Y3Si15S
_symmetry_space_group_name_H-M   'P 1'
_cell_length_a   7.96424088
_cell_length_b   8.05087404
_cell_length_c   15.41362900
_cell_angle_alpha   90.33861529
_cell_angle_beta   95.18292519
_cell_angle_gamma   89.67598908
_symmetry_Int_Tables_number   1
_chemical_formula_structural   La17Y3Si15S
_chemical_formula_sum   'La17 Y3 Si15 S1'
_cell_volume   984.23698789
_cell_formula_units_Z   1
loop_
 _symmetry_equiv_pos_site_id
 _symmetry_equiv_pos_as_xyz
  1  'x, y, z'
loop_
 _atom_site_type_symbol
 _atom_site_label
 _atom_site_symmetry_multiplicity
 _atom_site_fract_x
 _atom_site_fract_y
 _atom_site_fract_z
 _atom_site_occupancy
  La  La0  1  0.636474  0.156297  0.610920  1
  La  La1  1  0.181103  0.322000  0.880428  1
  La  La2  1  0.317394  0.824488  0.121596  1
  La  La3  1  0.862561  0.667440  0.384101  1
  La  La4  1  0.365841  0.838278  0.387021  1
  La  La5  1  0.817786  0.678095  0.122252  1
  La  La6  1  0.679602  0.179176  0.880231  1
  La  La7  1  0.135684  0.336367  0.614342  1
  La  La8  1  0.487275  0.671577  0.605135  1
  La  La9  1  0.033755  0.808473  0.895473  1
  La  La10  1  0.467387  0.314623  0.104622  1
  La  La11  1  0.009486  0.184467  0.399470  1
  La  La12  1  0.509393  0.320757  0.396431  1
  La  La13  1  0.968472  0.188175  0.104312  1
  La  La14  1  0.535275  0.689621  0.897032  1
  La  La15  1  0.997766  0.810885  0.604119  1
  La  La16  1  0.832539  0.506183  0.744814  1
  Y  Y17  1  0.328703  0.990416  0.747654  1
  Y  Y18  1  0.173409  0.493512  0.253914  1
  Y  Y19  1  0.672515  0.011776  0.248096  1
  Si  Si20  1  0.131944  0.522369  0.047037  1
  Si  Si21  1  0.366786  0.022670  0.956224  1
  Si  Si22  1  0.782448  0.468906  0.541454  1
  Si  Si23  1  0.286874  0.020017  0.551778  1
  Si  Si24  1  0.868934  0.475112  0.959048  1
  Si  Si25  1  0.630947  0.980199  0.046819  1
  Si  Si26  1  0.208812  0.527072  0.449526  1
  Si  Si27  1  0.451869  0.393496  0.750399  1
  Si  Si28  1  0.952853  0.098284  0.750170  1
  Si  Si29  1  0.543670  0.602324  0.251524  1
  Si  Si30  1  0.045206  0.899553  0.252740  1
  Si  Si31  1  0.720096  0.880430  0.751741  1
  Si  Si32  1  0.228481  0.626205  0.751713  1
  Si  Si33  1  0.277561  0.128934  0.250465  1
  Si  Si34  1  0.779440  0.374281  0.250411  1
  S  S35  1  0.711656  0.987543  0.436988  1
