# generated using pymatgen
data_TmSc3(Pa2Ga5)4
_symmetry_space_group_name_H-M   'P 1'
_cell_length_a   6.02023005
_cell_length_b   9.40713100
_cell_length_c   11.55254508
_cell_angle_alpha   90.00000000
_cell_angle_beta   89.98605273
_cell_angle_gamma   90.00000000
_symmetry_Int_Tables_number   1
_chemical_formula_structural   TmSc3(Pa2Ga5)4
_chemical_formula_sum   'Tm1 Sc3 Pa8 Ga20'
_cell_volume   654.25633713
_cell_formula_units_Z   1
loop_
 _symmetry_equiv_pos_site_id
 _symmetry_equiv_pos_as_xyz
  1  'x, y, z'
loop_
 _atom_site_type_symbol
 _atom_site_label
 _atom_site_symmetry_multiplicity
 _atom_site_fract_x
 _atom_site_fract_y
 _atom_site_fract_z
 _atom_site_occupancy
  Tm  Tm0  1  0.856881  0.750000  0.069498  1
  Sc  Sc1  1  0.644550  0.750000  0.570848  1
  Sc  Sc2  1  0.145421  0.250000  0.928645  1
  Sc  Sc3  1  0.355577  0.250000  0.429007  1
  Pa  Pa4  1  0.879187  0.503359  0.353173  1
  Pa  Pa5  1  0.621169  0.997462  0.852087  1
  Pa  Pa6  1  0.121173  0.003461  0.646763  1
  Pa  Pa7  1  0.378695  0.497115  0.146937  1
  Pa  Pa8  1  0.121173  0.496539  0.646763  1
  Pa  Pa9  1  0.378695  0.002885  0.146937  1
  Pa  Pa10  1  0.879187  0.996641  0.353173  1
  Pa  Pa11  1  0.621169  0.502538  0.852087  1
  Ga  Ga12  1  0.872911  0.054970  0.089900  1
  Ga  Ga13  1  0.627036  0.451843  0.589379  1
  Ga  Ga14  1  0.128446  0.545935  0.908723  1
  Ga  Ga15  1  0.372957  0.952251  0.411055  1
  Ga  Ga16  1  0.128446  0.954065  0.908723  1
  Ga  Ga17  1  0.372957  0.547749  0.411055  1
  Ga  Ga18  1  0.872911  0.445030  0.089900  1
  Ga  Ga19  1  0.627036  0.048157  0.589379  1
  Ga  Ga20  1  0.153360  0.750000  0.262892  1
  Ga  Ga21  1  0.351862  0.750000  0.758077  1
  Ga  Ga22  1  0.852467  0.250000  0.741198  1
  Ga  Ga23  1  0.647436  0.250000  0.241672  1
  Ga  Ga24  1  0.388305  0.750000  0.991545  1
  Ga  Ga25  1  0.103137  0.750000  0.493824  1
  Ga  Ga26  1  0.600728  0.250000  0.006558  1
  Ga  Ga27  1  0.897115  0.250000  0.507278  1
  Ga  Ga28  1  0.592725  0.750000  0.292285  1
  Ga  Ga29  1  0.905531  0.750000  0.787086  1
  Ga  Ga30  1  0.406229  0.250000  0.711261  1
  Ga  Ga31  1  0.095528  0.250000  0.212291  1
