# generated using pymatgen
data_Lu3Sc5Al(B8Ir)3
_symmetry_space_group_name_H-M   'P 1'
_cell_length_a   3.49815500
_cell_length_b   8.95174110
_cell_length_c   11.29123461
_cell_angle_alpha   90.02741427
_cell_angle_beta   90.00000000
_cell_angle_gamma   90.00000000
_symmetry_Int_Tables_number   1
_chemical_formula_structural   Lu3Sc5Al(B8Ir)3
_chemical_formula_sum   'Lu3 Sc5 Al1 B24 Ir3'
_cell_volume   353.58020515
_cell_formula_units_Z   1
loop_
 _symmetry_equiv_pos_site_id
 _symmetry_equiv_pos_as_xyz
  1  'x, y, z'
loop_
 _atom_site_type_symbol
 _atom_site_label
 _atom_site_symmetry_multiplicity
 _atom_site_fract_x
 _atom_site_fract_y
 _atom_site_fract_z
 _atom_site_occupancy
  Lu  Lu0  1  0.500000  0.316053  0.410203  1
  Lu  Lu1  1  0.500000  0.680842  0.584378  1
  Lu  Lu2  1  0.500000  0.179940  0.917174  1
  Sc  Sc3  1  0.500000  0.822865  0.089050  1
  Sc  Sc4  1  0.500000  0.443903  0.125487  1
  Sc  Sc5  1  0.500000  0.557257  0.875866  1
  Sc  Sc6  1  0.500000  0.054654  0.625813  1
  Sc  Sc7  1  0.500000  0.946854  0.373535  1
  Al  Al8  1  0.500000  0.138228  0.179840  1
  B  B9  1  0.000000  0.100937  0.472617  1
  B  B10  1  0.000000  0.899565  0.527359  1
  B  B11  1  0.000000  0.399179  0.972412  1
  B  B12  1  0.000000  0.602545  0.028254  1
  B  B13  1  0.000000  0.129836  0.318201  1
  B  B14  1  0.000000  0.869485  0.680905  1
  B  B15  1  0.000000  0.369427  0.819380  1
  B  B16  1  0.000000  0.631133  0.182059  1
  B  B17  1  0.000000  0.051070  0.064391  1
  B  B18  1  0.000000  0.946055  0.936311  1
  B  B19  1  0.000000  0.445698  0.564898  1
  B  B20  1  0.000000  0.552939  0.433533  1
  B  B21  1  0.000000  0.479501  0.286030  1
  B  B22  1  0.000000  0.519482  0.714232  1
  B  B23  1  0.000000  0.018672  0.786983  1
  B  B24  1  0.000000  0.977704  0.212500  1
  B  B25  1  0.000000  0.253367  0.078612  1
  B  B26  1  0.000000  0.748803  0.923218  1
  B  B27  1  0.000000  0.246190  0.578449  1
  B  B28  1  0.000000  0.754981  0.419592  1
  B  B29  1  0.000000  0.297507  0.236019  1
  B  B30  1  0.000000  0.704843  0.763607  1
  B  B31  1  0.000000  0.204814  0.736153  1
  B  B32  1  0.000000  0.796576  0.263289  1
  Ir  Ir33  1  0.500000  0.857314  0.818161  1
  Ir  Ir34  1  0.500000  0.360404  0.680700  1
  Ir  Ir35  1  0.500000  0.641377  0.320787  1
