# generated using pymatgen
data_NdSc6Co6Sn23
_symmetry_space_group_name_H-M   'P 1'
_cell_length_a   9.58569600
_cell_length_b   9.58569578
_cell_length_c   9.82637800
_cell_angle_alpha   90.00000000
_cell_angle_beta   90.00000000
_cell_angle_gamma   120.00000074
_symmetry_Int_Tables_number   1
_chemical_formula_structural   NdSc6Co6Sn23
_chemical_formula_sum   'Nd1 Sc6 Co6 Sn23'
_cell_volume   781.93632453
_cell_formula_units_Z   1
loop_
 _symmetry_equiv_pos_site_id
 _symmetry_equiv_pos_as_xyz
  1  'x, y, z'
loop_
 _atom_site_type_symbol
 _atom_site_label
 _atom_site_symmetry_multiplicity
 _atom_site_fract_x
 _atom_site_fract_y
 _atom_site_fract_z
 _atom_site_occupancy
  Nd  Nd0  1  0.000000  0.000000  0.000000  1
  Sc  Sc1  1  0.517788  0.482212  0.692208  1
  Sc  Sc2  1  0.517788  0.035574  0.692208  1
  Sc  Sc3  1  0.964426  0.482212  0.692208  1
  Sc  Sc4  1  0.035574  0.517788  0.307792  1
  Sc  Sc5  1  0.482212  0.964426  0.307792  1
  Sc  Sc6  1  0.482212  0.517788  0.307792  1
  Co  Co7  1  0.169298  0.830702  0.801019  1
  Co  Co8  1  0.169298  0.338596  0.801019  1
  Co  Co9  1  0.661404  0.830702  0.801019  1
  Co  Co10  1  0.338596  0.169298  0.198981  1
  Co  Co11  1  0.830702  0.661404  0.198981  1
  Co  Co12  1  0.830702  0.169298  0.198981  1
  Sn  Sn13  1  0.666667  0.333333  0.177548  1
  Sn  Sn14  1  0.666667  0.333333  0.863064  1
  Sn  Sn15  1  0.333333  0.666667  0.136936  1
  Sn  Sn16  1  0.348806  0.348806  0.000000  1
  Sn  Sn17  1  0.000000  0.651194  0.000000  1
  Sn  Sn18  1  0.651194  0.000000  0.000000  1
  Sn  Sn19  1  0.651194  0.651194  0.000000  1
  Sn  Sn20  1  0.333333  0.666667  0.822452  1
  Sn  Sn21  1  0.441765  0.220883  0.453362  1
  Sn  Sn22  1  0.220883  0.779117  0.546638  1
  Sn  Sn23  1  0.220883  0.441765  0.546638  1
  Sn  Sn24  1  0.558235  0.779117  0.546638  1
  Sn  Sn25  1  0.122204  0.877796  0.277436  1
  Sn  Sn26  1  0.779117  0.558235  0.453362  1
  Sn  Sn27  1  0.779117  0.220883  0.453362  1
  Sn  Sn28  1  0.348806  0.000000  0.000000  1
  Sn  Sn29  1  0.122204  0.244406  0.277436  1
  Sn  Sn30  1  0.755594  0.877796  0.277436  1
  Sn  Sn31  1  0.244406  0.122204  0.722564  1
  Sn  Sn32  1  0.877796  0.755594  0.722564  1
  Sn  Sn33  1  0.877796  0.122204  0.722564  1
  Sn  Sn34  1  0.000000  0.000000  0.500000  1
  Sn  Sn35  1  0.000000  0.348806  0.000000  1
