# generated using pymatgen
data_DyEr3Ga17SiIr6
_symmetry_space_group_name_H-M   'P 1'
_cell_length_a   7.57806855
_cell_length_b   7.56250651
_cell_length_c   9.46930573
_cell_angle_alpha   90.08126190
_cell_angle_beta   89.73884695
_cell_angle_gamma   119.78571705
_symmetry_Int_Tables_number   1
_chemical_formula_structural   DyEr3Ga17SiIr6
_chemical_formula_sum   'Dy1 Er3 Ga17 Si1 Ir6'
_cell_volume   470.97955323
_cell_formula_units_Z   1
loop_
 _symmetry_equiv_pos_site_id
 _symmetry_equiv_pos_as_xyz
  1  'x, y, z'
loop_
 _atom_site_type_symbol
 _atom_site_label
 _atom_site_symmetry_multiplicity
 _atom_site_fract_x
 _atom_site_fract_y
 _atom_site_fract_z
 _atom_site_occupancy
  Dy  Dy0  1  0.330318  0.002366  0.749469  1
  Er  Er1  1  0.997265  0.664144  0.247966  1
  Er  Er2  1  0.002427  0.330921  0.751259  1
  Er  Er3  1  0.675070  0.003563  0.247943  1
  Ga  Ga4  1  0.129616  0.128861  0.250752  1
  Ga  Ga5  1  0.872337  0.874160  0.750709  1
  Ga  Ga6  1  0.999057  0.670620  0.917492  1
  Ga  Ga7  1  0.000348  0.665358  0.580546  1
  Ga  Ga8  1  0.333805  0.997397  0.418202  1
  Ga  Ga9  1  0.999263  0.334644  0.420113  1
  Ga  Ga10  1  0.665692  0.000608  0.580617  1
  Ga  Ga11  1  0.658725  0.994885  0.917523  1
  Ga  Ga12  1  0.333587  0.997266  0.082729  1
  Ga  Ga13  1  0.331922  0.331645  0.565331  1
  Ga  Ga14  1  0.669233  0.669817  0.433634  1
  Ga  Ga15  1  0.668595  0.669898  0.069194  1
  Ga  Ga16  1  0.337797  0.332312  0.933496  1
  Ga  Ga17  1  0.341377  0.547044  0.251442  1
  Ga  Ga18  1  0.661587  0.452374  0.751067  1
  Ga  Ga19  1  0.547718  0.339639  0.250585  1
  Ga  Ga20  1  0.451274  0.658600  0.750380  1
  Si  Si21  1  0.999336  0.334429  0.072977  1
  Ir  Ir22  1  0.683968  0.329376  0.003504  1
  Ir  Ir23  1  0.313091  0.656551  0.001689  1
  Ir  Ir24  1  0.327883  0.671066  0.500311  1
  Ir  Ir25  1  0.671482  0.328355  0.499951  1
  Ir  Ir26  1  0.997830  0.013982  0.001525  1
  Ir  Ir27  1  0.999397  0.000113  0.499596  1
