# generated using pymatgen
data_LaPrHo6(WO6)4
_symmetry_space_group_name_H-M   'P 1'
_cell_length_a   5.45022600
_cell_length_b   7.77327282
_cell_length_c   11.56343410
_cell_angle_alpha   75.57294962
_cell_angle_beta   90.00000000
_cell_angle_gamma   90.00000000
_symmetry_Int_Tables_number   1
_chemical_formula_structural   LaPrHo6(WO6)4
_chemical_formula_sum   'La1 Pr1 Ho6 W4 O24'
_cell_volume   474.44892799
_cell_formula_units_Z   1
loop_
 _symmetry_equiv_pos_site_id
 _symmetry_equiv_pos_as_xyz
  1  'x, y, z'
loop_
 _atom_site_type_symbol
 _atom_site_label
 _atom_site_symmetry_multiplicity
 _atom_site_fract_x
 _atom_site_fract_y
 _atom_site_fract_z
 _atom_site_occupancy
  La  La0  1  0.313282  0.500000  0.250000  1
  Pr  Pr1  1  0.685915  0.500000  0.750000  1
  Ho  Ho2  1  0.740627  0.000000  0.750000  1
  Ho  Ho3  1  0.259150  0.000000  0.250000  1
  Ho  Ho4  1  0.187760  0.798849  0.576863  1
  Ho  Ho5  1  0.811975  0.799664  0.076254  1
  Ho  Ho6  1  0.187760  0.201151  0.923137  1
  Ho  Ho7  1  0.811975  0.200336  0.423746  1
  W  W8  1  0.251992  0.728255  0.884084  1
  W  W9  1  0.748078  0.728655  0.384703  1
  W  W10  1  0.251992  0.271745  0.615916  1
  W  W11  1  0.748078  0.271345  0.115297  1
  O  O12  1  0.039146  0.942282  0.895437  1
  O  O13  1  0.530448  0.847349  0.930899  1
  O  O14  1  0.961360  0.941886  0.396155  1
  O  O15  1  0.455813  0.795566  0.727251  1
  O  O16  1  0.468996  0.847293  0.431017  1
  O  O17  1  0.986686  0.720560  0.769018  1
  O  O18  1  0.545566  0.796439  0.227569  1
  O  O19  1  0.857991  0.643054  0.545519  1
  O  O20  1  0.348032  0.493767  0.888052  1
  O  O21  1  0.012633  0.722196  0.268789  1
  O  O22  1  0.348032  0.506233  0.611948  1
  O  O23  1  0.857991  0.356946  0.954481  1
  O  O24  1  0.139932  0.642853  0.044134  1
  O  O25  1  0.654106  0.493959  0.388487  1
  O  O26  1  0.986686  0.279440  0.730982  1
  O  O27  1  0.654106  0.506041  0.111513  1
  O  O28  1  0.139932  0.357147  0.455866  1
  O  O29  1  0.455813  0.204434  0.772749  1
  O  O30  1  0.012633  0.277804  0.231211  1
  O  O31  1  0.530448  0.152651  0.569101  1
  O  O32  1  0.545566  0.203561  0.272431  1
  O  O33  1  0.039146  0.057718  0.604563  1
  O  O34  1  0.468996  0.152707  0.068983  1
  O  O35  1  0.961360  0.058114  0.103845  1
