# generated using pymatgen
data_Hf13Zr5Re6(NiW)2
_symmetry_space_group_name_H-M   'P 1'
_cell_length_a   8.70142034
_cell_length_b   8.68635517
_cell_length_c   8.42752900
_cell_angle_alpha   90.00000000
_cell_angle_beta   90.00000000
_cell_angle_gamma   119.94274966
_symmetry_Int_Tables_number   1
_chemical_formula_structural   Hf13Zr5Re6(NiW)2
_chemical_formula_sum   'Hf13 Zr5 Re6 Ni2 W2'
_cell_volume   551.96160802
_cell_formula_units_Z   1
loop_
 _symmetry_equiv_pos_site_id
 _symmetry_equiv_pos_as_xyz
  1  'x, y, z'
loop_
 _atom_site_type_symbol
 _atom_site_label
 _atom_site_symmetry_multiplicity
 _atom_site_fract_x
 _atom_site_fract_y
 _atom_site_fract_z
 _atom_site_occupancy
  Hf  Hf0  1  0.197583  0.801677  0.443263  1
  Hf  Hf1  1  0.197583  0.395905  0.443263  1
  Hf  Hf2  1  0.604890  0.802444  0.442750  1
  Hf  Hf3  1  0.802851  0.198424  0.557618  1
  Hf  Hf4  1  0.802851  0.604427  0.557618  1
  Hf  Hf5  1  0.395125  0.197563  0.557208  1
  Hf  Hf6  1  0.802851  0.198424  0.942382  1
  Hf  Hf7  1  0.802851  0.604427  0.942382  1
  Hf  Hf8  1  0.395125  0.197563  0.942792  1
  Hf  Hf9  1  0.197583  0.801677  0.056737  1
  Hf  Hf10  1  0.197583  0.395905  0.056737  1
  Hf  Hf11  1  0.604890  0.802444  0.057250  1
  Hf  Hf12  1  0.081205  0.540602  0.750000  1
  Zr  Zr13  1  0.540929  0.459087  0.250000  1
  Zr  Zr14  1  0.540929  0.081842  0.250000  1
  Zr  Zr15  1  0.917702  0.458851  0.250000  1
  Zr  Zr16  1  0.458399  0.541230  0.750000  1
  Zr  Zr17  1  0.458399  0.917169  0.750000  1
  Re  Re18  1  0.889868  0.110381  0.250000  1
  Re  Re19  1  0.889868  0.779485  0.250000  1
  Re  Re20  1  0.220510  0.110254  0.250000  1
  Re  Re21  1  0.109967  0.888477  0.750000  1
  Re  Re22  1  0.109967  0.221492  0.750000  1
  Re  Re23  1  0.779603  0.889803  0.750000  1
  Ni  Ni24  1  0.333667  0.666834  0.250000  1
  Ni  Ni25  1  0.666962  0.333481  0.750000  1
  W  W26  1  0.000131  0.000066  0.500317  1
  W  W27  1  0.000131  0.000066  0.999683  1
