# generated using pymatgen
data_Sc5Ti3(Si4Ru3)4
_symmetry_space_group_name_H-M   'P 1'
_cell_length_a   9.83437556
_cell_length_b   9.84034251
_cell_length_c   13.26507930
_cell_angle_alpha   54.09674712
_cell_angle_beta   54.04646624
_cell_angle_gamma   31.24612971
_symmetry_Int_Tables_number   1
_chemical_formula_structural   Sc5Ti3(Si4Ru3)4
_chemical_formula_sum   'Sc5 Ti3 Si16 Ru12'
_cell_volume   528.01028367
_cell_formula_units_Z   1
loop_
 _symmetry_equiv_pos_site_id
 _symmetry_equiv_pos_as_xyz
  1  'x, y, z'
loop_
 _atom_site_type_symbol
 _atom_site_label
 _atom_site_symmetry_multiplicity
 _atom_site_fract_x
 _atom_site_fract_y
 _atom_site_fract_z
 _atom_site_occupancy
  Sc  Sc0  1  0.292316  0.559927  0.646002  1
  Sc  Sc1  1  0.438604  0.708595  0.854207  1
  Sc  Sc2  1  0.707818  0.439832  0.353203  1
  Sc  Sc3  1  0.560930  0.291254  0.146672  1
  Sc  Sc4  1  0.035884  0.292979  0.639826  1
  Ti  Ti5  1  0.698576  0.960870  0.868690  1
  Ti  Ti6  1  0.961320  0.699153  0.368549  1
  Ti  Ti7  1  0.301000  0.038630  0.131752  1
  Si  Si8  1  0.878398  0.121037  0.250168  1
  Si  Si9  1  0.122721  0.874552  0.750147  1
  Si  Si10  1  0.380949  0.619969  0.249393  1
  Si  Si11  1  0.615917  0.380633  0.750705  1
  Si  Si12  1  0.973112  0.255762  0.891763  1
  Si  Si13  1  0.747730  0.023600  0.610857  1
  Si  Si14  1  0.024991  0.744952  0.111587  1
  Si  Si15  1  0.254004  0.976020  0.388696  1
  Si  Si16  1  0.573763  0.080130  0.063822  1
  Si  Si17  1  0.920283  0.427433  0.432712  1
  Si  Si18  1  0.426544  0.919731  0.935789  1
  Si  Si19  1  0.080135  0.574677  0.564203  1
  Si  Si20  1  0.390027  0.143794  0.396656  1
  Si  Si21  1  0.854974  0.611888  0.102373  1
  Si  Si22  1  0.612707  0.858535  0.601685  1
  Si  Si23  1  0.144866  0.388485  0.896798  1
  Ru  Ru24  1  0.651276  0.830861  0.280420  1
  Ru  Ru25  1  0.169942  0.348321  0.216534  1
  Ru  Ru26  1  0.758878  0.484210  0.068865  1
  Ru  Ru27  1  0.829152  0.652730  0.782478  1
  Ru  Ru28  1  0.897283  0.144580  0.584424  1
  Ru  Ru29  1  0.855738  0.101677  0.915027  1
  Ru  Ru30  1  0.102794  0.856447  0.414435  1
  Ru  Ru31  1  0.144980  0.897088  0.084994  1
  Ru  Ru32  1  0.241010  0.515099  0.931512  1
  Ru  Ru33  1  0.487982  0.757048  0.566787  1
  Ru  Ru34  1  0.513338  0.247357  0.429136  1
  Ru  Ru35  1  0.350061  0.172150  0.719141  1
