# generated using pymatgen
data_Y6Sc2PbAu9
_symmetry_space_group_name_H-M   'P 1'
_cell_length_a   8.03304091
_cell_length_b   8.03304073
_cell_length_c   8.03303968
_cell_angle_alpha   65.48079859
_cell_angle_beta   65.48079760
_cell_angle_gamma   65.48078972
_symmetry_Int_Tables_number   1
_chemical_formula_structural   Y6Sc2PbAu9
_chemical_formula_sum   'Y6 Sc2 Pb1 Au9'
_cell_volume   410.22504058
_cell_formula_units_Z   1
loop_
 _symmetry_equiv_pos_site_id
 _symmetry_equiv_pos_as_xyz
  1  'x, y, z'
loop_
 _atom_site_type_symbol
 _atom_site_label
 _atom_site_symmetry_multiplicity
 _atom_site_fract_x
 _atom_site_fract_y
 _atom_site_fract_z
 _atom_site_occupancy
  Y  Y0  1  0.898952  0.183614  0.622287  1
  Y  Y1  1  0.622287  0.898952  0.183614  1
  Y  Y2  1  0.183614  0.622287  0.898952  1
  Y  Y3  1  0.101048  0.816386  0.377713  1
  Y  Y4  1  0.377713  0.101048  0.816386  1
  Y  Y5  1  0.816386  0.377713  0.101048  1
  Sc  Sc6  1  0.663869  0.663869  0.663869  1
  Sc  Sc7  1  0.336131  0.336131  0.336131  1
  Pb  Pb8  1  0.500000  0.500000  0.500000  1
  Au  Au9  1  0.000000  0.000000  0.000000  1
  Au  Au10  1  0.807119  0.807119  0.807119  1
  Au  Au11  1  0.192881  0.192881  0.192881  1
  Au  Au12  1  0.939608  0.549903  0.320471  1
  Au  Au13  1  0.320471  0.939608  0.549903  1
  Au  Au14  1  0.549903  0.320471  0.939608  1
  Au  Au15  1  0.060392  0.450097  0.679529  1
  Au  Au16  1  0.679529  0.060392  0.450097  1
  Au  Au17  1  0.450097  0.679529  0.060392  1
