# generated using pymatgen
data_NdY11Al12V8O48
_symmetry_space_group_name_H-M   'P 1'
_cell_length_a   10.69346373
_cell_length_b   10.70077678
_cell_length_c   10.69379336
_cell_angle_alpha   109.61319673
_cell_angle_beta   109.16092839
_cell_angle_gamma   109.61386591
_symmetry_Int_Tables_number   1
_chemical_formula_structural   NdY11Al12V8O48
_chemical_formula_sum   'Nd1 Y11 Al12 V8 O48'
_cell_volume   942.26779732
_cell_formula_units_Z   1
loop_
 _symmetry_equiv_pos_site_id
 _symmetry_equiv_pos_as_xyz
  1  'x, y, z'
loop_
 _atom_site_type_symbol
 _atom_site_label
 _atom_site_symmetry_multiplicity
 _atom_site_fract_x
 _atom_site_fract_y
 _atom_site_fract_z
 _atom_site_occupancy
  Nd  Nd0  1  0.375027  0.750003  0.124976  1
  Y  Y1  1  0.250761  0.375230  0.126314  1
  Y  Y2  1  0.373649  0.124755  0.249231  1
  Y  Y3  1  0.875011  0.623758  0.250004  1
  Y  Y4  1  0.751115  0.124748  0.375558  1
  Y  Y5  1  0.125002  0.250003  0.374996  1
  Y  Y6  1  0.249972  0.876258  0.624992  1
  Y  Y7  1  0.874992  0.749993  0.625001  1
  Y  Y8  1  0.124436  0.375248  0.748912  1
  Y  Y9  1  0.626267  0.876248  0.751234  1
  Y  Y10  1  0.748790  0.623771  0.873771  1
  Y  Y11  1  0.624988  0.249988  0.874999  1
  Al  Al12  1  0.874757  0.249998  0.124758  1
  Al  Al13  1  0.751595  0.876163  0.125487  1
  Al  Al14  1  0.124557  0.876158  0.250666  1
  Al  Al15  1  0.625078  0.375368  0.250122  1
  Al  Al16  1  0.249340  0.623845  0.375442  1
  Al  Al17  1  0.626891  0.750019  0.376885  1
  Al  Al18  1  0.750279  0.375355  0.625246  1
  Al  Al19  1  0.375226  0.249974  0.625223  1
  Al  Al20  1  0.874751  0.124640  0.749707  1
  Al  Al21  1  0.374500  0.623840  0.748397  1
  Al  Al22  1  0.249888  0.124639  0.874941  1
  Al  Al23  1  0.123123  0.750006  0.873127  1
  V  V24  1  0.999805  0.000188  0.999740  1
  V  V25  1  0.500063  0.001123  0.999668  1
  V  V26  1  0.500361  0.498865  0.999921  1
  V  V27  1  0.998587  0.498922  0.998976  1
  V  V28  1  0.501018  0.001063  0.501411  1
  V  V29  1  0.999536  0.499817  0.499635  1
  V  V30  1  0.000365  0.000146  0.500450  1
  V  V31  1  0.500274  0.499821  0.500204  1
  O  O32  1  0.207389  0.123740  0.023424  1
  O  O33  1  0.310712  0.903366  0.021389  1
  O  O34  1  0.708227  0.685471  0.085342  1
  O  O35  1  0.875548  0.400577  0.086970  1
  O  O36  1  0.977205  0.685499  0.100124  1
  O  O37  1  0.623012  0.413817  0.099114  1
  O  O38  1  0.602649  0.917994  0.123033  1
  O  O39  1  0.023529  0.209132  0.123403  1
  O  O40  1  0.205018  0.581988  0.184644  1
  O  O41  1  0.478612  0.596634  0.189296  1
  O  O42  1  0.585141  0.185302  0.208235  1
  O  O43  1  0.123779  0.024523  0.210118  1
  O  O44  1  0.476616  0.376328  0.292693  1
  O  O45  1  0.315337  0.917984  0.294944  1
  O  O46  1  0.914266  0.290831  0.314361  1
  O  O47  1  0.900745  0.024534  0.314405  1
  O  O48  1  0.289896  0.475484  0.376219  1
  O  O49  1  0.592647  0.903362  0.381959  1
  O  O50  1  0.813547  0.524209  0.399618  1
  O  O51  1  0.084336  0.876746  0.400478  1
  O  O52  1  0.815955  0.790990  0.415076  1
  O  O53  1  0.099505  0.623194  0.415689  1
  O  O54  1  0.376531  0.290786  0.476447  1
  O  O55  1  0.600143  0.185289  0.477061  1
  O  O56  1  0.399857  0.814511  0.522765  1
  O  O57  1  0.624195  0.709155  0.525011  1
  O  O58  1  0.899707  0.376323  0.583647  1
  O  O59  1  0.185582  0.209093  0.585736  1
  O  O60  1  0.916332  0.123751  0.600320  1
  O  O61  1  0.185583  0.475459  0.599244  1
  O  O62  1  0.710636  0.524187  0.624587  1
  O  O63  1  0.413039  0.099422  0.624470  1
  O  O64  1  0.100395  0.975807  0.686473  1
  O  O65  1  0.084939  0.709109  0.684118  1
  O  O66  1  0.685269  0.086169  0.709175  1
  O  O67  1  0.523687  0.623186  0.707483  1
  O  O68  1  0.414662  0.814520  0.791747  1
  O  O69  1  0.875417  0.975810  0.789347  1
  O  O70  1  0.790855  0.413849  0.814739  1
  O  O71  1  0.525029  0.400558  0.813591  1
  O  O72  1  0.975016  0.790944  0.875870  1
  O  O73  1  0.400895  0.086178  0.876998  1
  O  O74  1  0.022967  0.314692  0.899873  1
  O  O75  1  0.376954  0.582006  0.897337  1
  O  O76  1  0.291793  0.314712  0.914853  1
  O  O77  1  0.118018  0.596630  0.907346  1
  O  O78  1  0.686396  0.099439  0.974966  1
  O  O79  1  0.792438  0.876754  0.976273  1
