# generated using pymatgen
data_Rb8Zr6CrI20
_symmetry_space_group_name_H-M   'P 1'
_cell_length_a   13.02368470
_cell_length_b   13.02368534
_cell_length_c   13.02368500
_cell_angle_alpha   60.00000340
_cell_angle_beta   60.00000177
_cell_angle_gamma   60.00000281
_symmetry_Int_Tables_number   1
_chemical_formula_structural   Rb8Zr6CrI20
_chemical_formula_sum   'Rb8 Zr6 Cr1 I20'
_cell_volume   1562.02032298
_cell_formula_units_Z   1
loop_
 _symmetry_equiv_pos_site_id
 _symmetry_equiv_pos_as_xyz
  1  'x, y, z'
loop_
 _atom_site_type_symbol
 _atom_site_label
 _atom_site_symmetry_multiplicity
 _atom_site_fract_x
 _atom_site_fract_y
 _atom_site_fract_z
 _atom_site_occupancy
  Rb  Rb0  1  0.361839  0.361839  0.361839  1
  Rb  Rb1  1  0.638161  0.638161  0.638161  1
  Rb  Rb2  1  0.361839  0.361839  0.914483  1
  Rb  Rb3  1  0.361839  0.914483  0.361839  1
  Rb  Rb4  1  0.638161  0.638161  0.085517  1
  Rb  Rb5  1  0.638161  0.085517  0.638161  1
  Rb  Rb6  1  0.914483  0.361839  0.361839  1
  Rb  Rb7  1  0.085517  0.638161  0.638161  1
  Zr  Zr8  1  0.863852  0.136148  0.136148  1
  Zr  Zr9  1  0.136148  0.863852  0.863852  1
  Zr  Zr10  1  0.136148  0.863852  0.136148  1
  Zr  Zr11  1  0.863852  0.136148  0.863852  1
  Zr  Zr12  1  0.136148  0.136148  0.863852  1
  Zr  Zr13  1  0.863852  0.863852  0.136148  1
  Cr  Cr14  1  0.000000  0.000000  0.000000  1
  I  I15  1  0.319080  0.000000  0.000000  1
  I  I16  1  0.680920  0.000000  0.000000  1
  I  I17  1  0.000000  0.319080  0.680920  1
  I  I18  1  0.000000  0.680920  0.319080  1
  I  I19  1  0.000000  0.319080  0.000000  1
  I  I20  1  0.680920  0.000000  0.319080  1
  I  I21  1  0.000000  0.680920  0.000000  1
  I  I22  1  0.319080  0.000000  0.680920  1
  I  I23  1  0.000000  0.000000  0.319080  1
  I  I24  1  0.000000  0.000000  0.680920  1
  I  I25  1  0.680920  0.319080  0.000000  1
  I  I26  1  0.319080  0.680920  0.000000  1
  I  I27  1  0.688471  0.311529  0.311529  1
  I  I28  1  0.311529  0.688471  0.688471  1
  I  I29  1  0.311529  0.688471  0.311529  1
  I  I30  1  0.688471  0.311529  0.688471  1
  I  I31  1  0.311529  0.311529  0.688471  1
  I  I32  1  0.688471  0.688471  0.311529  1
  I  I33  1  0.250000  0.250000  0.250000  1
  I  I34  1  0.750000  0.750000  0.750000  1
