# generated using pymatgen
data_Tb6ReIO16
_symmetry_space_group_name_H-M   'P 1'
_cell_length_a   6.12872400
_cell_length_b   7.32704579
_cell_length_c   7.32827300
_cell_angle_alpha   69.48178691
_cell_angle_beta   90.00000000
_cell_angle_gamma   90.00000000
_symmetry_Int_Tables_number   1
_chemical_formula_structural   Tb6ReIO16
_chemical_formula_sum   'Tb6 Re1 I1 O16'
_cell_volume   308.20280996
_cell_formula_units_Z   1
loop_
 _symmetry_equiv_pos_site_id
 _symmetry_equiv_pos_as_xyz
  1  'x, y, z'
loop_
 _atom_site_type_symbol
 _atom_site_label
 _atom_site_symmetry_multiplicity
 _atom_site_fract_x
 _atom_site_fract_y
 _atom_site_fract_z
 _atom_site_occupancy
  Tb  Tb0  1  0.750000  0.114402  0.657474  1
  Tb  Tb1  1  0.250000  0.890503  0.328957  1
  Tb  Tb2  1  0.250000  0.400334  0.400305  1
  Tb  Tb3  1  0.750000  0.595999  0.596064  1
  Tb  Tb4  1  0.250000  0.328824  0.890465  1
  Tb  Tb5  1  0.750000  0.657632  0.114450  1
  Re  Re6  1  0.750000  0.178591  0.178528  1
  I  I7  1  0.250000  0.818414  0.818480  1
  O  O8  1  0.000508  0.334783  0.666146  1
  O  O9  1  0.499487  0.666225  0.334869  1
  O  O10  1  0.000513  0.666225  0.334869  1
  O  O11  1  0.499492  0.334783  0.666146  1
  O  O12  1  0.943256  0.812957  0.812981  1
  O  O13  1  0.444664  0.194024  0.194035  1
  O  O14  1  0.055336  0.194024  0.194035  1
  O  O15  1  0.556744  0.812957  0.812981  1
  O  O16  1  0.750000  0.963606  0.418819  1
  O  O17  1  0.250000  0.034623  0.575565  1
  O  O18  1  0.750000  0.343456  0.343310  1
  O  O19  1  0.250000  0.660303  0.660416  1
  O  O20  1  0.750000  0.418930  0.963600  1
  O  O21  1  0.250000  0.575472  0.034654  1
  O  O22  1  0.750000  0.027597  0.027352  1
  O  O23  1  0.250000  0.975332  0.975499  1
