# generated using pymatgen
data_Y6Ho2Re(B8Os)3
_symmetry_space_group_name_H-M   'P 1'
_cell_length_a   3.66393600
_cell_length_b   9.16508073
_cell_length_c   11.55403714
_cell_angle_alpha   90.10456961
_cell_angle_beta   90.00000000
_cell_angle_gamma   90.00000000
_symmetry_Int_Tables_number   1
_chemical_formula_structural   Y6Ho2Re(B8Os)3
_chemical_formula_sum   'Y6 Ho2 Re1 B24 Os3'
_cell_volume   387.98703193
_cell_formula_units_Z   1
loop_
 _symmetry_equiv_pos_site_id
 _symmetry_equiv_pos_as_xyz
  1  'x, y, z'
loop_
 _atom_site_type_symbol
 _atom_site_label
 _atom_site_symmetry_multiplicity
 _atom_site_fract_x
 _atom_site_fract_y
 _atom_site_fract_z
 _atom_site_occupancy
  Y  Y0  1  0.000000  0.322702  0.414652  1
  Y  Y1  1  0.000000  0.679793  0.588277  1
  Y  Y2  1  0.000000  0.822313  0.083584  1
  Y  Y3  1  0.000000  0.176701  0.913250  1
  Y  Y4  1  0.000000  0.943301  0.371930  1
  Y  Y5  1  0.000000  0.055970  0.627705  1
  Ho  Ho6  1  0.000000  0.442845  0.127694  1
  Ho  Ho7  1  0.000000  0.556634  0.872806  1
  Re  Re8  1  0.000000  0.862176  0.821615  1
  B  B9  1  0.500000  0.553666  0.432955  1
  B  B10  1  0.500000  0.446509  0.567424  1
  B  B11  1  0.500000  0.053729  0.067443  1
  B  B12  1  0.500000  0.946982  0.933017  1
  B  B13  1  0.500000  0.747703  0.419144  1
  B  B14  1  0.500000  0.252407  0.580692  1
  B  B15  1  0.500000  0.248208  0.080922  1
  B  B16  1  0.500000  0.751401  0.919061  1
  B  B17  1  0.500000  0.789845  0.266175  1
  B  B18  1  0.500000  0.209755  0.733130  1
  B  B19  1  0.500000  0.291057  0.233481  1
  B  B20  1  0.500000  0.708341  0.766554  1
  B  B21  1  0.500000  0.630544  0.185493  1
  B  B22  1  0.500000  0.368927  0.814150  1
  B  B23  1  0.500000  0.131935  0.314261  1
  B  B24  1  0.500000  0.868378  0.686066  1
  B  B25  1  0.500000  0.983706  0.212510  1
  B  B26  1  0.500000  0.017322  0.787377  1
  B  B27  1  0.500000  0.482994  0.287407  1
  B  B28  1  0.500000  0.516977  0.713195  1
  B  B29  1  0.500000  0.605200  0.029931  1
  B  B30  1  0.500000  0.393144  0.970686  1
  B  B31  1  0.500000  0.108137  0.469689  1
  B  B32  1  0.500000  0.892464  0.529282  1
  Os  Os33  1  0.000000  0.636615  0.321133  1
  Os  Os34  1  0.000000  0.363349  0.678378  1
  Os  Os35  1  0.000000  0.138273  0.178931  1
