# generated using pymatgen
data_NdHo2Mg3AgPb2
_symmetry_space_group_name_H-M   'P 1'
_cell_length_a   7.62979349
_cell_length_b   7.62979428
_cell_length_c   4.62188600
_cell_angle_alpha   90.00000000
_cell_angle_beta   90.00000000
_cell_angle_gamma   120.56422061
_symmetry_Int_Tables_number   1
_chemical_formula_structural   NdHo2Mg3AgPb2
_chemical_formula_sum   'Nd1 Ho2 Mg3 Ag1 Pb2'
_cell_volume   231.67444106
_cell_formula_units_Z   1
loop_
 _symmetry_equiv_pos_site_id
 _symmetry_equiv_pos_as_xyz
  1  'x, y, z'
loop_
 _atom_site_type_symbol
 _atom_site_label
 _atom_site_symmetry_multiplicity
 _atom_site_fract_x
 _atom_site_fract_y
 _atom_site_fract_z
 _atom_site_occupancy
  Nd  Nd0  1  0.415041  0.415041  0.000000  1
  Ho  Ho1  1  0.589230  0.001789  0.000000  1
  Ho  Ho2  1  0.001789  0.589230  0.000000  1
  Mg  Mg3  1  0.233120  0.000089  0.500000  1
  Mg  Mg4  1  0.000089  0.233120  0.500000  1
  Mg  Mg5  1  0.765986  0.765986  0.500000  1
  Ag  Ag6  1  0.992366  0.992366  0.000000  1
  Pb  Pb7  1  0.331082  0.671297  0.500000  1
  Pb  Pb8  1  0.671297  0.331082  0.500000  1
