# generated using pymatgen
data_Ho7Lu4Th5(MgRu)4
_symmetry_space_group_name_H-M   'P 1'
_cell_length_a   9.68778993
_cell_length_b   9.74213593
_cell_length_c   9.73879694
_cell_angle_alpha   59.70148761
_cell_angle_beta   59.98860889
_cell_angle_gamma   60.02451113
_symmetry_Int_Tables_number   1
_chemical_formula_structural   Ho7Lu4Th5(MgRu)4
_chemical_formula_sum   'Ho7 Lu4 Th5 Mg4 Ru4'
_cell_volume   648.51888580
_cell_formula_units_Z   1
loop_
 _symmetry_equiv_pos_site_id
 _symmetry_equiv_pos_as_xyz
  1  'x, y, z'
loop_
 _atom_site_type_symbol
 _atom_site_label
 _atom_site_symmetry_multiplicity
 _atom_site_fract_x
 _atom_site_fract_y
 _atom_site_fract_z
 _atom_site_occupancy
  Ho  Ho0  1  0.815213  0.811370  0.182769  1
  Ho  Ho1  1  0.932447  0.568124  0.569502  1
  Ho  Ho2  1  0.562650  0.936379  0.935343  1
  Ho  Ho3  1  0.560653  0.936447  0.566176  1
  Ho  Ho4  1  0.937716  0.563586  0.935867  1
  Ho  Ho5  1  0.561305  0.565971  0.935889  1
  Ho  Ho6  1  0.936812  0.935858  0.564801  1
  Lu  Lu7  1  0.184026  0.815639  0.815190  1
  Lu  Lu8  1  0.191154  0.809454  0.184668  1
  Lu  Lu9  1  0.814748  0.184184  0.810453  1
  Lu  Lu10  1  0.190478  0.184440  0.809870  1
  Th  Th11  1  0.341624  0.349142  0.348843  1
  Th  Th12  1  0.348526  0.347500  0.957909  1
  Th  Th13  1  0.347048  0.958169  0.348181  1
  Th  Th14  1  0.959692  0.348693  0.350253  1
  Th  Th15  1  0.817817  0.182847  0.182071  1
  Mg  Mg16  1  0.580412  0.579071  0.580141  1
  Mg  Mg17  1  0.578186  0.581565  0.258234  1
  Mg  Mg18  1  0.578062  0.258870  0.581271  1
  Mg  Mg19  1  0.259454  0.578826  0.578685  1
  Ru  Ru20  1  0.132418  0.144965  0.145795  1
  Ru  Ru21  1  0.144653  0.140850  0.571061  1
  Ru  Ru22  1  0.146830  0.569536  0.140632  1
  Ru  Ru23  1  0.578077  0.148513  0.146396  1
