# generated using pymatgen
data_Dy8Hf12Si15P
_symmetry_space_group_name_H-M   'P 1'
_cell_length_a   7.27004655
_cell_length_b   7.26768324
_cell_length_c   13.36812606
_cell_angle_alpha   90.02909922
_cell_angle_beta   89.90439133
_cell_angle_gamma   89.99477043
_symmetry_Int_Tables_number   1
_chemical_formula_structural   Dy8Hf12Si15P
_chemical_formula_sum   'Dy8 Hf12 Si15 P1'
_cell_volume   706.32251797
_cell_formula_units_Z   1
loop_
 _symmetry_equiv_pos_site_id
 _symmetry_equiv_pos_as_xyz
  1  'x, y, z'
loop_
 _atom_site_type_symbol
 _atom_site_label
 _atom_site_symmetry_multiplicity
 _atom_site_fract_x
 _atom_site_fract_y
 _atom_site_fract_z
 _atom_site_occupancy
  Dy  Dy0  1  0.495108  0.153760  0.535282  1
  Dy  Dy1  1  0.507128  0.848774  0.035057  1
  Dy  Dy2  1  0.653678  0.005315  0.284762  1
  Dy  Dy3  1  0.345271  0.993557  0.785114  1
  Dy  Dy4  1  0.846233  0.502317  0.965872  1
  Dy  Dy5  1  0.154423  0.494733  0.464704  1
  Dy  Dy6  1  0.004812  0.654462  0.715133  1
  Dy  Dy7  1  0.994090  0.345198  0.213933  1
  Hf  Hf8  1  0.676202  0.324281  0.750560  1
  Hf  Hf9  1  0.324678  0.674834  0.249701  1
  Hf  Hf10  1  0.824709  0.824559  0.499916  1
  Hf  Hf11  1  0.176068  0.176092  0.000504  1
  Hf  Hf12  1  0.499411  0.349007  0.123528  1
  Hf  Hf13  1  0.503270  0.648227  0.625265  1
  Hf  Hf14  1  0.849519  0.004911  0.877717  1
  Hf  Hf15  1  0.148310  0.997017  0.374732  1
  Hf  Hf16  1  0.648552  0.502546  0.374876  1
  Hf  Hf17  1  0.350483  0.498610  0.874999  1
  Hf  Hf18  1  0.001233  0.853280  0.124705  1
  Hf  Hf19  1  0.997060  0.147885  0.625198  1
  Si  Si20  1  0.204643  0.860722  0.566720  1
  Si  Si21  1  0.640511  0.704651  0.817835  1
  Si  Si22  1  0.360610  0.296504  0.316066  1
  Si  Si23  1  0.860187  0.203895  0.432661  1
  Si  Si24  1  0.138276  0.796408  0.933655  1
  Si  Si25  1  0.704066  0.639215  0.182555  1
  Si  Si26  1  0.295532  0.360794  0.682799  1
  Si  Si27  1  0.543782  0.206786  0.932387  1
  Si  Si28  1  0.450059  0.794206  0.435637  1
  Si  Si29  1  0.705804  0.949662  0.686568  1
  Si  Si30  1  0.294395  0.049469  0.186012  1
  Si  Si31  1  0.794509  0.449693  0.563962  1
  Si  Si32  1  0.206192  0.550062  0.064889  1
  Si  Si33  1  0.950075  0.705370  0.313834  1
  Si  Si34  1  0.049536  0.294371  0.814313  1
  P  P35  1  0.801585  0.138826  0.068553  1
