# generated using pymatgen
data_Y4SiI6
_symmetry_space_group_name_H-M   'P 1'
_cell_length_a   4.21164400
_cell_length_b   14.01913700
_cell_length_c   14.79882200
_cell_angle_alpha   90.00000000
_cell_angle_beta   90.00000000
_cell_angle_gamma   90.00000000
_symmetry_Int_Tables_number   1
_chemical_formula_structural   Y4SiI6
_chemical_formula_sum   'Y8 Si2 I12'
_cell_volume   873.77593724
_cell_formula_units_Z   2
loop_
 _symmetry_equiv_pos_site_id
 _symmetry_equiv_pos_as_xyz
  1  'x, y, z'
loop_
 _atom_site_type_symbol
 _atom_site_label
 _atom_site_symmetry_multiplicity
 _atom_site_fract_x
 _atom_site_fract_y
 _atom_site_fract_z
 _atom_site_occupancy
  Y  Y0  1  0.500000  0.113903  0.347717  1
  Y  Y1  1  0.500000  0.886097  0.652283  1
  Y  Y2  1  0.500000  0.613903  0.152283  1
  Y  Y3  1  0.500000  0.386097  0.847717  1
  Y  Y4  1  0.000000  0.111415  0.574424  1
  Y  Y5  1  0.000000  0.888585  0.425576  1
  Y  Y6  1  0.000000  0.611415  0.925576  1
  Y  Y7  1  0.000000  0.388585  0.074424  1
  Si  Si8  1  0.500000  0.000000  0.500000  1
  Si  Si9  1  0.500000  0.500000  0.000000  1
  I  I10  1  0.500000  0.244941  0.161125  1
  I  I11  1  0.500000  0.755059  0.838875  1
  I  I12  1  0.500000  0.744941  0.338875  1
  I  I13  1  0.500000  0.255059  0.661125  1
  I  I14  1  0.000000  0.258593  0.413634  1
  I  I15  1  0.000000  0.741407  0.586366  1
  I  I16  1  0.000000  0.758593  0.086366  1
  I  I17  1  0.000000  0.241407  0.913634  1
  I  I18  1  0.000000  0.999223  0.240514  1
  I  I19  1  0.000000  0.000777  0.759486  1
  I  I20  1  0.000000  0.499223  0.259486  1
  I  I21  1  0.000000  0.500777  0.740514  1
