# generated using pymatgen
data_DyHo3(Ta3Ge4)2
_symmetry_space_group_name_H-M   'P 1'
_cell_length_a   7.00205100
_cell_length_b   7.15778775
_cell_length_c   13.54143201
_cell_angle_alpha   90.01787380
_cell_angle_beta   90.00000000
_cell_angle_gamma   90.00000000
_symmetry_Int_Tables_number   1
_chemical_formula_structural   DyHo3(Ta3Ge4)2
_chemical_formula_sum   'Dy2 Ho6 Ta12 Ge16'
_cell_volume   678.68563638
_cell_formula_units_Z   2
loop_
 _symmetry_equiv_pos_site_id
 _symmetry_equiv_pos_as_xyz
  1  'x, y, z'
loop_
 _atom_site_type_symbol
 _atom_site_label
 _atom_site_symmetry_multiplicity
 _atom_site_fract_x
 _atom_site_fract_y
 _atom_site_fract_z
 _atom_site_occupancy
  Dy  Dy0  1  0.495921  0.326552  0.405941  1
  Dy  Dy1  1  0.995921  0.173448  0.094059  1
  Ho  Ho2  1  0.495649  0.326391  0.094246  1
  Ho  Ho3  1  0.995649  0.173609  0.405754  1
  Ho  Ho4  1  0.504337  0.673685  0.594376  1
  Ho  Ho5  1  0.004337  0.826315  0.905624  1
  Ho  Ho6  1  0.504388  0.673605  0.905631  1
  Ho  Ho7  1  0.004388  0.826395  0.594369  1
  Ta  Ta8  1  0.663936  0.014456  0.749973  1
  Ta  Ta9  1  0.163936  0.485544  0.750027  1
  Ta  Ta10  1  0.335805  0.985476  0.250052  1
  Ta  Ta11  1  0.835805  0.514524  0.249948  1
  Ta  Ta12  1  0.840146  0.329925  0.626125  1
  Ta  Ta13  1  0.340146  0.170075  0.873875  1
  Ta  Ta14  1  0.159845  0.670262  0.126073  1
  Ta  Ta15  1  0.659845  0.829738  0.373927  1
  Ta  Ta16  1  0.159825  0.670183  0.373885  1
  Ta  Ta17  1  0.659825  0.829817  0.126115  1
  Ta  Ta18  1  0.839851  0.329949  0.873743  1
  Ta  Ta19  1  0.339851  0.170051  0.626257  1
  Ge  Ge20  1  0.804630  0.641331  0.749973  1
  Ge  Ge21  1  0.304630  0.858669  0.750027  1
  Ge  Ge22  1  0.195351  0.359703  0.250129  1
  Ge  Ge23  1  0.695351  0.140297  0.249871  1
  Ge  Ge24  1  0.539775  0.379122  0.750132  1
  Ge  Ge25  1  0.039775  0.120878  0.749868  1
  Ge  Ge26  1  0.460008  0.620860  0.249690  1
  Ge  Ge27  1  0.960008  0.879140  0.250310  1
  Ge  Ge28  1  0.676589  0.037755  0.541841  1
  Ge  Ge29  1  0.176589  0.462245  0.958159  1
  Ge  Ge30  1  0.324255  0.961393  0.041451  1
  Ge  Ge31  1  0.824255  0.538607  0.458549  1
  Ge  Ge32  1  0.323460  0.961491  0.458574  1
  Ge  Ge33  1  0.823460  0.538509  0.041426  1
  Ge  Ge34  1  0.676229  0.038091  0.958184  1
  Ge  Ge35  1  0.176229  0.461909  0.541816  1
