# generated using pymatgen
data_Th2Mn3Ni9P7
_symmetry_space_group_name_H-M   'P 1'
_cell_length_a   9.18099800
_cell_length_b   9.18099843
_cell_length_c   3.78061900
_cell_angle_alpha   90.00000000
_cell_angle_beta   90.00000000
_cell_angle_gamma   119.99999844
_symmetry_Int_Tables_number   1
_chemical_formula_structural   Th2Mn3Ni9P7
_chemical_formula_sum   'Th2 Mn3 Ni9 P7'
_cell_volume   275.97729729
_cell_formula_units_Z   1
loop_
 _symmetry_equiv_pos_site_id
 _symmetry_equiv_pos_as_xyz
  1  'x, y, z'
loop_
 _atom_site_type_symbol
 _atom_site_label
 _atom_site_symmetry_multiplicity
 _atom_site_fract_x
 _atom_site_fract_y
 _atom_site_fract_z
 _atom_site_occupancy
  Th  Th0  1  0.333333  0.666667  0.000000  1
  Th  Th1  1  0.000000  0.000000  0.500000  1
  Mn  Mn2  1  0.780581  0.232948  0.500000  1
  Mn  Mn3  1  0.767052  0.547633  0.500000  1
  Mn  Mn4  1  0.452367  0.219419  0.500000  1
  Ni  Ni5  1  0.034566  0.268513  0.000000  1
  Ni  Ni6  1  0.731487  0.766052  0.000000  1
  Ni  Ni7  1  0.233948  0.965434  0.000000  1
  Ni  Ni8  1  0.538755  0.057468  0.000000  1
  Ni  Ni9  1  0.942532  0.481287  0.000000  1
  Ni  Ni10  1  0.518713  0.461245  0.000000  1
  Ni  Ni11  1  0.613900  0.899181  0.500000  1
  Ni  Ni12  1  0.100819  0.714717  0.500000  1
  Ni  Ni13  1  0.285283  0.386100  0.500000  1
  P  P14  1  0.769727  0.034713  0.000000  1
  P  P15  1  0.965287  0.735015  0.000000  1
  P  P16  1  0.264985  0.230273  0.000000  1
  P  P17  1  0.372621  0.935726  0.500000  1
  P  P18  1  0.064274  0.436895  0.500000  1
  P  P19  1  0.563105  0.627379  0.500000  1
  P  P20  1  0.666667  0.333333  0.000000  1
