# generated using pymatgen
data_Lu5Cu2Sb
_symmetry_space_group_name_H-M   'P 1'
_cell_length_a   8.35369770
_cell_length_b   8.35369818
_cell_length_c   8.35369913
_cell_angle_alpha   125.00297079
_cell_angle_beta   125.00297463
_cell_angle_gamma   81.53310728
_symmetry_Int_Tables_number   1
_chemical_formula_structural   Lu5Cu2Sb
_chemical_formula_sum   'Lu10 Cu4 Sb2'
_cell_volume   376.50956609
_cell_formula_units_Z   2
loop_
 _symmetry_equiv_pos_site_id
 _symmetry_equiv_pos_as_xyz
  1  'x, y, z'
loop_
 _atom_site_type_symbol
 _atom_site_label
 _atom_site_symmetry_multiplicity
 _atom_site_fract_x
 _atom_site_fract_y
 _atom_site_fract_z
 _atom_site_occupancy
  Lu  Lu0  1  0.000000  0.000000  0.000000  1
  Lu  Lu1  1  0.500000  0.500000  0.000000  1
  Lu  Lu2  1  0.795777  0.295777  0.808902  1
  Lu  Lu3  1  0.204223  0.704223  0.191098  1
  Lu  Lu4  1  0.486876  0.986876  0.191098  1
  Lu  Lu5  1  0.295777  0.486876  0.500000  1
  Lu  Lu6  1  0.013124  0.204223  0.500000  1
  Lu  Lu7  1  0.513124  0.013124  0.808902  1
  Lu  Lu8  1  0.704223  0.513124  0.500000  1
  Lu  Lu9  1  0.986876  0.795777  0.500000  1
  Cu  Cu10  1  0.131875  0.631875  0.763749  1
  Cu  Cu11  1  0.868125  0.368125  0.236251  1
  Cu  Cu12  1  0.631875  0.868125  0.500000  1
  Cu  Cu13  1  0.368125  0.131875  0.500000  1
  Sb  Sb14  1  0.250000  0.250000  0.000000  1
  Sb  Sb15  1  0.750000  0.750000  0.000000  1
