# generated using pymatgen
data_Er5Ga5P7Ir19
_symmetry_space_group_name_H-M   'P 1'
_cell_length_a   12.92270122
_cell_length_b   12.92432755
_cell_length_c   3.95845200
_cell_angle_alpha   90.00000000
_cell_angle_beta   90.00000000
_cell_angle_gamma   120.12374877
_symmetry_Int_Tables_number   1
_chemical_formula_structural   Er5Ga5P7Ir19
_chemical_formula_sum   'Er5 Ga5 P7 Ir19'
_cell_volume   571.83978583
_cell_formula_units_Z   1
loop_
 _symmetry_equiv_pos_site_id
 _symmetry_equiv_pos_as_xyz
  1  'x, y, z'
loop_
 _atom_site_type_symbol
 _atom_site_label
 _atom_site_symmetry_multiplicity
 _atom_site_fract_x
 _atom_site_fract_y
 _atom_site_fract_z
 _atom_site_occupancy
  Er  Er0  1  0.667586  0.330428  0.000000  1
  Er  Er1  1  0.332869  0.668761  0.000000  1
  Er  Er2  1  0.817360  0.813133  0.500000  1
  Er  Er3  1  0.183069  0.002501  0.500000  1
  Er  Er4  1  0.997573  0.183102  0.500000  1
  Ga  Ga5  1  0.678017  0.157881  0.500000  1
  Ga  Ga6  1  0.836965  0.514378  0.500000  1
  Ga  Ga7  1  0.638166  0.640278  0.000000  1
  Ga  Ga8  1  0.359345  0.000132  0.000000  1
  Ga  Ga9  1  0.003236  0.363287  0.000000  1
  P  P10  1  0.480035  0.314623  0.500000  1
  P  P11  1  0.176754  0.695211  0.500000  1
  P  P12  1  0.516341  0.823880  0.500000  1
  P  P13  1  0.305032  0.486242  0.500000  1
  P  P14  1  0.178441  0.182796  0.000000  1
  P  P15  1  0.821355  0.994986  0.000000  1
  P  P16  1  0.001279  0.822467  0.000000  1
  Ir  Ir17  1  0.809398  0.168862  0.000000  1
  Ir  Ir18  1  0.824949  0.633184  0.000000  1
  Ir  Ir19  1  0.373369  0.204608  0.000000  1
  Ir  Ir20  1  0.178335  0.793456  0.000000  1
  Ir  Ir21  1  0.610577  0.819371  0.000000  1
  Ir  Ir22  1  0.208964  0.386077  0.000000  1
  Ir  Ir23  1  0.449279  0.446709  0.000000  1
  Ir  Ir24  1  0.556598  0.007694  0.000000  1
  Ir  Ir25  1  0.993397  0.552054  0.000000  1
  Ir  Ir26  1  0.280776  0.285583  0.500000  1
  Ir  Ir27  1  0.721308  0.987682  0.500000  1
  Ir  Ir28  1  0.007886  0.729333  0.500000  1
  Ir  Ir29  1  0.873749  0.348083  0.500000  1
  Ir  Ir30  1  0.636761  0.504675  0.500000  1
  Ir  Ir31  1  0.478321  0.133303  0.500000  1
  Ir  Ir32  1  0.367611  0.869257  0.500000  1
  Ir  Ir33  1  0.499621  0.632640  0.500000  1
  Ir  Ir34  1  0.132023  0.501206  0.500000  1
  Ir  Ir35  1  0.003658  0.002139  0.000000  1
