# generated using pymatgen
data_MgPtBr6
_symmetry_space_group_name_H-M   'P 1'
_cell_length_a   6.62511935
_cell_length_b   6.62572840
_cell_length_c   21.43337881
_cell_angle_alpha   90.02843359
_cell_angle_beta   90.00370411
_cell_angle_gamma   120.00349447
_symmetry_Int_Tables_number   1
_chemical_formula_structural   MgPtBr6
_chemical_formula_sum   'Mg3 Pt3 Br18'
_cell_volume   814.76662707
_cell_formula_units_Z   3
loop_
 _symmetry_equiv_pos_site_id
 _symmetry_equiv_pos_as_xyz
  1  'x, y, z'
loop_
 _atom_site_type_symbol
 _atom_site_label
 _atom_site_symmetry_multiplicity
 _atom_site_fract_x
 _atom_site_fract_y
 _atom_site_fract_z
 _atom_site_occupancy
  Mg  Mg0  1  0.555196  0.110504  0.166579  1
  Mg  Mg1  1  0.889360  0.444687  0.500032  1
  Mg  Mg2  1  0.555323  0.444755  0.833382  1
  Pt  Pt3  1  0.222235  0.444467  0.166618  1
  Pt  Pt4  1  0.555460  0.777743  0.500038  1
  Pt  Pt5  1  0.222284  0.777787  0.833351  1
  Br  Br6  1  0.523426  0.766567  0.764883  1
  Br  Br7  1  0.909609  0.766700  0.901926  1
  Br  Br8  1  0.523881  0.090609  0.901847  1
  Br  Br9  1  0.856918  0.766390  0.431490  1
  Br  Br10  1  0.243080  0.476337  0.431545  1
  Br  Br11  1  0.909310  0.142727  0.098052  1
  Br  Br12  1  0.523580  0.756955  0.235084  1
  Br  Br13  1  0.909568  0.476280  0.764884  1
  Br  Br14  1  0.233487  0.476679  0.901894  1
  Br  Br15  1  0.566776  0.476420  0.568525  1
  Br  Br16  1  0.857184  0.090666  0.568573  1
  Br  Br17  1  0.243300  0.766836  0.568531  1
  Br  Br18  1  0.233505  0.143010  0.235137  1
  Br  Br19  1  0.566522  0.090248  0.431542  1
  Br  Br20  1  0.909746  0.433384  0.235075  1
  Br  Br21  1  0.523637  0.433146  0.098112  1
  Br  Br22  1  0.233351  0.090439  0.764838  1
  Br  Br23  1  0.233261  0.756663  0.098066  1
