# generated using pymatgen
data_BaGaAgPb2
_symmetry_space_group_name_H-M   'P 1'
_cell_length_a   4.91954620
_cell_length_b   4.91954557
_cell_length_c   7.04278288
_cell_angle_alpha   110.44215228
_cell_angle_beta   110.44214610
_cell_angle_gamma   89.99999914
_symmetry_Int_Tables_number   1
_chemical_formula_structural   BaGaAgPb2
_chemical_formula_sum   'Ba1 Ga1 Ag1 Pb2'
_cell_volume   148.20561938
_cell_formula_units_Z   1
loop_
 _symmetry_equiv_pos_site_id
 _symmetry_equiv_pos_as_xyz
  1  'x, y, z'
loop_
 _atom_site_type_symbol
 _atom_site_label
 _atom_site_symmetry_multiplicity
 _atom_site_fract_x
 _atom_site_fract_y
 _atom_site_fract_z
 _atom_site_occupancy
  Ba  Ba0  1  0.000497  0.000497  0.000994  1
  Ga  Ga1  1  0.606341  0.606341  0.212681  1
  Ag  Ag2  1  0.394232  0.394232  0.788465  1
  Pb  Pb3  1  0.749466  0.249465  0.498931  1
  Pb  Pb4  1  0.249465  0.749466  0.498931  1
