# generated using pymatgen
data_Gd2Sn2Pd3Pt
_symmetry_space_group_name_H-M   'P 1'
_cell_length_a   4.61841000
_cell_length_b   4.61840930
_cell_length_c   9.05415600
_cell_angle_alpha   90.00000000
_cell_angle_beta   90.00000000
_cell_angle_gamma   120.00001934
_symmetry_Int_Tables_number   1
_chemical_formula_structural   Gd2Sn2Pd3Pt
_chemical_formula_sum   'Gd2 Sn2 Pd3 Pt1'
_cell_volume   167.24895926
_cell_formula_units_Z   1
loop_
 _symmetry_equiv_pos_site_id
 _symmetry_equiv_pos_as_xyz
  1  'x, y, z'
loop_
 _atom_site_type_symbol
 _atom_site_label
 _atom_site_symmetry_multiplicity
 _atom_site_fract_x
 _atom_site_fract_y
 _atom_site_fract_z
 _atom_site_occupancy
  Gd  Gd0  1  0.333333  0.666667  0.250531  1
  Gd  Gd1  1  0.666667  0.333333  0.747680  1
  Sn  Sn2  1  0.000000  0.000000  0.502306  1
  Sn  Sn3  1  0.000000  0.000000  0.001668  1
  Pd  Pd4  1  0.333333  0.666667  0.916215  1
  Pd  Pd5  1  0.666667  0.333333  0.084550  1
  Pd  Pd6  1  0.666667  0.333333  0.411489  1
  Pt  Pt7  1  0.333333  0.666667  0.585561  1
