# generated using pymatgen
data_LaSn4IrRh
_symmetry_space_group_name_H-M   'P 1'
_cell_length_a   4.58379300
_cell_length_b   7.23851400
_cell_length_c   18.71070900
_cell_angle_alpha   90.00000000
_cell_angle_beta   90.00000000
_cell_angle_gamma   90.00000000
_symmetry_Int_Tables_number   1
_chemical_formula_structural   LaSn4IrRh
_chemical_formula_sum   'La4 Sn16 Ir4 Rh4'
_cell_volume   620.81851434
_cell_formula_units_Z   4
loop_
 _symmetry_equiv_pos_site_id
 _symmetry_equiv_pos_as_xyz
  1  'x, y, z'
loop_
 _atom_site_type_symbol
 _atom_site_label
 _atom_site_symmetry_multiplicity
 _atom_site_fract_x
 _atom_site_fract_y
 _atom_site_fract_z
 _atom_site_occupancy
  La  La0  1  0.250000  0.998334  0.858425  1
  La  La1  1  0.250000  0.501666  0.358425  1
  La  La2  1  0.750000  0.001666  0.141575  1
  La  La3  1  0.750000  0.498334  0.641575  1
  Sn  Sn4  1  0.250000  0.304278  0.182214  1
  Sn  Sn5  1  0.250000  0.195722  0.682214  1
  Sn  Sn6  1  0.750000  0.695722  0.817786  1
  Sn  Sn7  1  0.750000  0.804278  0.317786  1
  Sn  Sn8  1  0.250000  0.721098  0.194422  1
  Sn  Sn9  1  0.250000  0.778902  0.694422  1
  Sn  Sn10  1  0.750000  0.278902  0.805578  1
  Sn  Sn11  1  0.750000  0.221098  0.305578  1
  Sn  Sn12  1  0.250000  0.862372  0.031286  1
  Sn  Sn13  1  0.250000  0.637628  0.531286  1
  Sn  Sn14  1  0.750000  0.137628  0.968714  1
  Sn  Sn15  1  0.750000  0.362372  0.468714  1
  Sn  Sn16  1  0.250000  0.516740  0.931466  1
  Sn  Sn17  1  0.250000  0.983260  0.431466  1
  Sn  Sn18  1  0.750000  0.483260  0.068534  1
  Sn  Sn19  1  0.750000  0.016740  0.568534  1
  Ir  Ir20  1  0.250000  0.249649  0.034792  1
  Ir  Ir21  1  0.250000  0.250351  0.534792  1
  Ir  Ir22  1  0.750000  0.750351  0.965208  1
  Ir  Ir23  1  0.750000  0.749649  0.465208  1
  Rh  Rh24  1  0.250000  0.018055  0.286635  1
  Rh  Rh25  1  0.250000  0.481945  0.786635  1
  Rh  Rh26  1  0.750000  0.981945  0.713365  1
  Rh  Rh27  1  0.750000  0.518055  0.213365  1
