# generated using pymatgen
data_Er4AlGa17(OsPd2)2
_symmetry_space_group_name_H-M   'P 1'
_cell_length_a   7.61684222
_cell_length_b   7.61684177
_cell_length_c   9.53223554
_cell_angle_alpha   89.98057089
_cell_angle_beta   89.98057339
_cell_angle_gamma   119.59793828
_symmetry_Int_Tables_number   1
_chemical_formula_structural   Er4AlGa17(OsPd2)2
_chemical_formula_sum   'Er4 Al1 Ga17 Os2 Pd4'
_cell_volume   480.86203533
_cell_formula_units_Z   1
loop_
 _symmetry_equiv_pos_site_id
 _symmetry_equiv_pos_as_xyz
  1  'x, y, z'
loop_
 _atom_site_type_symbol
 _atom_site_label
 _atom_site_symmetry_multiplicity
 _atom_site_fract_x
 _atom_site_fract_y
 _atom_site_fract_z
 _atom_site_occupancy
  Er  Er0  1  0.999116  0.672693  0.249742  1
  Er  Er1  1  0.001700  0.326688  0.749675  1
  Er  Er2  1  0.672693  0.999116  0.249742  1
  Er  Er3  1  0.326688  0.001700  0.749675  1
  Al  Al4  1  0.330562  0.330562  0.944454  1
  Ga  Ga5  1  0.127567  0.127567  0.249616  1
  Ga  Ga6  1  0.871799  0.871799  0.749599  1
  Ga  Ga7  1  0.998613  0.333514  0.080037  1
  Ga  Ga8  1  0.000737  0.666557  0.917803  1
  Ga  Ga9  1  0.000129  0.666191  0.581821  1
  Ga  Ga10  1  0.332948  0.999326  0.417775  1
  Ga  Ga11  1  0.999326  0.332948  0.417775  1
  Ga  Ga12  1  0.666191  0.000129  0.581821  1
  Ga  Ga13  1  0.666557  0.000737  0.917803  1
  Ga  Ga14  1  0.333514  0.998613  0.080037  1
  Ga  Ga15  1  0.327031  0.327031  0.568181  1
  Ga  Ga16  1  0.671696  0.671696  0.430880  1
  Ga  Ga17  1  0.675284  0.675284  0.067953  1
  Ga  Ga18  1  0.343025  0.548967  0.250090  1
  Ga  Ga19  1  0.653367  0.449925  0.750425  1
  Ga  Ga20  1  0.548967  0.343025  0.250090  1
  Ga  Ga21  1  0.449925  0.653367  0.750425  1
  Os  Os22  1  0.003495  0.003495  0.998211  1
  Os  Os23  1  0.999242  0.999242  0.499158  1
  Pd  Pd24  1  0.669620  0.329929  0.998952  1
  Pd  Pd25  1  0.329929  0.669620  0.998952  1
  Pd  Pd26  1  0.329129  0.671151  0.499655  1
  Pd  Pd27  1  0.671151  0.329129  0.499655  1
