# generated using pymatgen
data_SrGd7(IO6)4
_symmetry_space_group_name_H-M   'P 1'
_cell_length_a   5.53675300
_cell_length_b   7.69453882
_cell_length_c   11.49371500
_cell_angle_alpha   77.00634764
_cell_angle_beta   90.00000000
_cell_angle_gamma   90.00000000
_symmetry_Int_Tables_number   1
_chemical_formula_structural   SrGd7(IO6)4
_chemical_formula_sum   'Sr1 Gd7 I4 O24'
_cell_volume   477.12613566
_cell_formula_units_Z   1
loop_
 _symmetry_equiv_pos_site_id
 _symmetry_equiv_pos_as_xyz
  1  'x, y, z'
loop_
 _atom_site_type_symbol
 _atom_site_label
 _atom_site_symmetry_multiplicity
 _atom_site_fract_x
 _atom_site_fract_y
 _atom_site_fract_z
 _atom_site_occupancy
  Sr  Sr0  1  0.743467  0.000000  0.750000  1
  Gd  Gd1  1  0.248896  0.000000  0.250000  1
  Gd  Gd2  1  0.181648  0.787682  0.576004  1
  Gd  Gd3  1  0.818647  0.788925  0.080653  1
  Gd  Gd4  1  0.688530  0.500000  0.750000  1
  Gd  Gd5  1  0.313000  0.500000  0.250000  1
  Gd  Gd6  1  0.181648  0.212318  0.923996  1
  Gd  Gd7  1  0.818647  0.211075  0.419347  1
  I  I8  1  0.255746  0.719945  0.884513  1
  I  I9  1  0.736311  0.722781  0.389382  1
  I  I10  1  0.255746  0.280055  0.615487  1
  I  I11  1  0.736311  0.277219  0.110618  1
  O  O12  1  0.080089  0.931384  0.894731  1
  O  O13  1  0.524196  0.823704  0.940756  1
  O  O14  1  0.977242  0.947736  0.405053  1
  O  O15  1  0.431564  0.786730  0.734613  1
  O  O16  1  0.468411  0.848453  0.435179  1
  O  O17  1  0.989930  0.694878  0.780230  1
  O  O18  1  0.550802  0.792181  0.228699  1
  O  O19  1  0.828137  0.650724  0.562892  1
  O  O20  1  0.371494  0.491529  0.884840  1
  O  O21  1  0.046761  0.716596  0.253367  1
  O  O22  1  0.371494  0.508471  0.615160  1
  O  O23  1  0.828137  0.349276  0.937108  1
  O  O24  1  0.127533  0.617074  0.035688  1
  O  O25  1  0.614543  0.491371  0.391782  1
  O  O26  1  0.989930  0.305122  0.719770  1
  O  O27  1  0.614543  0.508629  0.108218  1
  O  O28  1  0.127533  0.382926  0.464312  1
  O  O29  1  0.431564  0.213270  0.765387  1
  O  O30  1  0.046761  0.283404  0.246633  1
  O  O31  1  0.524196  0.176296  0.559244  1
  O  O32  1  0.550802  0.207819  0.271301  1
  O  O33  1  0.080089  0.068616  0.605269  1
  O  O34  1  0.468411  0.151547  0.064821  1
  O  O35  1  0.977242  0.052264  0.094947  1
