# generated using pymatgen
data_Ba3CaRuO6
_symmetry_space_group_name_H-M   'P 1'
_cell_length_a   7.18151481
_cell_length_b   7.18151456
_cell_length_c   7.18151536
_cell_angle_alpha   92.67183551
_cell_angle_beta   92.67184124
_cell_angle_gamma   92.67183333
_symmetry_Int_Tables_number   1
_chemical_formula_structural   Ba3CaRuO6
_chemical_formula_sum   'Ba6 Ca2 Ru2 O12'
_cell_volume   369.13370084
_cell_formula_units_Z   2
loop_
 _symmetry_equiv_pos_site_id
 _symmetry_equiv_pos_as_xyz
  1  'x, y, z'
loop_
 _atom_site_type_symbol
 _atom_site_label
 _atom_site_symmetry_multiplicity
 _atom_site_fract_x
 _atom_site_fract_y
 _atom_site_fract_z
 _atom_site_occupancy
  Ba  Ba0  1  0.110260  0.750000  0.389740  1
  Ba  Ba1  1  0.389740  0.110260  0.750000  1
  Ba  Ba2  1  0.889740  0.250000  0.610260  1
  Ba  Ba3  1  0.610260  0.889740  0.250000  1
  Ba  Ba4  1  0.750000  0.389740  0.110260  1
  Ba  Ba5  1  0.250000  0.610260  0.889740  1
  Ca  Ca6  1  0.250000  0.250000  0.250000  1
  Ca  Ca7  1  0.750000  0.750000  0.750000  1
  Ru  Ru8  1  0.000000  0.000000  0.000000  1
  Ru  Ru9  1  0.500000  0.500000  0.500000  1
  O  O10  1  0.456161  0.772343  0.587373  1
  O  O11  1  0.587373  0.456161  0.772343  1
  O  O12  1  0.772343  0.587373  0.456161  1
  O  O13  1  0.043839  0.912627  0.727657  1
  O  O14  1  0.727657  0.043839  0.912627  1
  O  O15  1  0.912627  0.727657  0.043839  1
  O  O16  1  0.543839  0.227657  0.412627  1
  O  O17  1  0.412627  0.543839  0.227657  1
  O  O18  1  0.227657  0.412627  0.543839  1
  O  O19  1  0.956161  0.087373  0.272343  1
  O  O20  1  0.087373  0.272343  0.956161  1
  O  O21  1  0.272343  0.956161  0.087373  1
