# generated using pymatgen
data_Tm8Hf12Si15Hg
_symmetry_space_group_name_H-M   'P 1'
_cell_length_a   7.08756863
_cell_length_b   7.23244661
_cell_length_c   13.79493531
_cell_angle_alpha   89.94071064
_cell_angle_beta   89.58510792
_cell_angle_gamma   90.12417575
_symmetry_Int_Tables_number   1
_chemical_formula_structural   Tm8Hf12Si15Hg
_chemical_formula_sum   'Tm8 Hf12 Si15 Hg1'
_cell_volume   707.11416323
_cell_formula_units_Z   1
loop_
 _symmetry_equiv_pos_site_id
 _symmetry_equiv_pos_as_xyz
  1  'x, y, z'
loop_
 _atom_site_type_symbol
 _atom_site_label
 _atom_site_symmetry_multiplicity
 _atom_site_fract_x
 _atom_site_fract_y
 _atom_site_fract_z
 _atom_site_occupancy
  Tm  Tm0  1  0.012388  0.176300  0.095971  1
  Tm  Tm1  1  0.988059  0.824994  0.905301  1
  Tm  Tm2  1  0.489723  0.675465  0.905253  1
  Tm  Tm3  1  0.988513  0.833091  0.597462  1
  Tm  Tm4  1  0.510972  0.324162  0.095679  1
  Tm  Tm5  1  0.005161  0.170947  0.399195  1
  Tm  Tm6  1  0.512629  0.322268  0.400158  1
  Tm  Tm7  1  0.499037  0.682820  0.598953  1
  Hf  Hf8  1  0.159419  0.499824  0.756464  1
  Hf  Hf9  1  0.841370  0.501347  0.248334  1
  Hf  Hf10  1  0.340622  0.998923  0.249081  1
  Hf  Hf11  1  0.659121  0.000805  0.750861  1
  Hf  Hf12  1  0.346340  0.165535  0.630712  1
  Hf  Hf13  1  0.665653  0.825596  0.372382  1
  Hf  Hf14  1  0.164761  0.680362  0.369774  1
  Hf  Hf15  1  0.669819  0.823435  0.124044  1
  Hf  Hf16  1  0.820659  0.324285  0.626459  1
  Hf  Hf17  1  0.329392  0.174500  0.875668  1
  Hf  Hf18  1  0.829637  0.324261  0.876263  1
  Hf  Hf19  1  0.168858  0.675863  0.124952  1
  Si  Si20  1  0.033673  0.119497  0.751049  1
  Si  Si21  1  0.963844  0.885079  0.247132  1
  Si  Si22  1  0.465655  0.615950  0.248841  1
  Si  Si23  1  0.533415  0.385070  0.752654  1
  Si  Si24  1  0.285933  0.866218  0.752480  1
  Si  Si25  1  0.711259  0.130300  0.247710  1
  Si  Si26  1  0.211778  0.367843  0.248561  1
  Si  Si27  1  0.791274  0.631624  0.751423  1
  Si  Si28  1  0.831022  0.536166  0.457753  1
  Si  Si29  1  0.337103  0.966502  0.458691  1
  Si  Si30  1  0.840276  0.531486  0.041570  1
  Si  Si31  1  0.663265  0.034680  0.538001  1
  Si  Si32  1  0.159134  0.466525  0.960310  1
  Si  Si33  1  0.657039  0.031866  0.959017  1
  Si  Si34  1  0.342237  0.967623  0.041620  1
  Hg  Hg35  1  0.170957  0.458786  0.540222  1
