# generated using pymatgen
data_CsPaZn4O7
_symmetry_space_group_name_H-M   'P 1'
_cell_length_a   6.40989500
_cell_length_b   6.40989533
_cell_length_c   10.42711400
_cell_angle_alpha   90.00000000
_cell_angle_beta   90.00000000
_cell_angle_gamma   120.00000345
_symmetry_Int_Tables_number   1
_chemical_formula_structural   CsPaZn4O7
_chemical_formula_sum   'Cs2 Pa2 Zn8 O14'
_cell_volume   371.01937686
_cell_formula_units_Z   2
loop_
 _symmetry_equiv_pos_site_id
 _symmetry_equiv_pos_as_xyz
  1  'x, y, z'
loop_
 _atom_site_type_symbol
 _atom_site_label
 _atom_site_symmetry_multiplicity
 _atom_site_fract_x
 _atom_site_fract_y
 _atom_site_fract_z
 _atom_site_occupancy
  Cs  Cs0  1  0.333333  0.666667  0.820423  1
  Cs  Cs1  1  0.666667  0.333333  0.320423  1
  Pa  Pa2  1  0.333333  0.666667  0.193917  1
  Pa  Pa3  1  0.666667  0.333333  0.693917  1
  Zn  Zn4  1  0.000000  0.000000  0.256274  1
  Zn  Zn5  1  0.000000  0.000000  0.756274  1
  Zn  Zn6  1  0.339776  0.169888  0.005855  1
  Zn  Zn7  1  0.830112  0.660224  0.005855  1
  Zn  Zn8  1  0.830112  0.169888  0.005855  1
  Zn  Zn9  1  0.660224  0.830112  0.505855  1
  Zn  Zn10  1  0.169888  0.339776  0.505855  1
  Zn  Zn11  1  0.169888  0.830112  0.505855  1
  O  O12  1  0.000000  0.000000  0.064936  1
  O  O13  1  0.000000  0.000000  0.564936  1
  O  O14  1  0.171150  0.342297  0.315395  1
  O  O15  1  0.171150  0.828850  0.315395  1
  O  O16  1  0.657703  0.828850  0.315395  1
  O  O17  1  0.828850  0.657703  0.815395  1
  O  O18  1  0.828850  0.171150  0.815395  1
  O  O19  1  0.342297  0.171150  0.815395  1
  O  O20  1  0.496174  0.992348  0.073674  1
  O  O21  1  0.496174  0.503826  0.073674  1
  O  O22  1  0.007652  0.503826  0.073674  1
  O  O23  1  0.503826  0.007652  0.573674  1
  O  O24  1  0.503826  0.496174  0.573674  1
  O  O25  1  0.992348  0.496174  0.573674  1
