# generated using pymatgen
data_Nb5Ga3B
_symmetry_space_group_name_H-M   'P 1'
_cell_length_a   7.82731700
_cell_length_b   7.82731693
_cell_length_c   5.37428400
_cell_angle_alpha   90.00000000
_cell_angle_beta   90.00000000
_cell_angle_gamma   120.00000451
_symmetry_Int_Tables_number   1
_chemical_formula_structural   Nb5Ga3B
_chemical_formula_sum   'Nb10 Ga6 B2'
_cell_volume   285.15242315
_cell_formula_units_Z   2
loop_
 _symmetry_equiv_pos_site_id
 _symmetry_equiv_pos_as_xyz
  1  'x, y, z'
loop_
 _atom_site_type_symbol
 _atom_site_label
 _atom_site_symmetry_multiplicity
 _atom_site_fract_x
 _atom_site_fract_y
 _atom_site_fract_z
 _atom_site_occupancy
  Nb  Nb0  1  0.666667  0.333333  0.500000  1
  Nb  Nb1  1  0.333333  0.666667  0.500000  1
  Nb  Nb2  1  0.333333  0.666667  0.000000  1
  Nb  Nb3  1  0.666667  0.333333  0.000000  1
  Nb  Nb4  1  0.757363  0.757363  0.250000  1
  Nb  Nb5  1  0.242637  0.000000  0.250000  1
  Nb  Nb6  1  0.000000  0.242637  0.250000  1
  Nb  Nb7  1  0.242637  0.242637  0.750000  1
  Nb  Nb8  1  0.757363  0.000000  0.750000  1
  Nb  Nb9  1  0.000000  0.757363  0.750000  1
  Ga  Ga10  1  0.399909  0.399909  0.250000  1
  Ga  Ga11  1  0.600091  0.000000  0.250000  1
  Ga  Ga12  1  0.000000  0.600091  0.250000  1
  Ga  Ga13  1  0.600091  0.600091  0.750000  1
  Ga  Ga14  1  0.399909  0.000000  0.750000  1
  Ga  Ga15  1  0.000000  0.399909  0.750000  1
  B  B16  1  0.000000  0.000000  0.500000  1
  B  B17  1  0.000000  0.000000  0.000000  1
