# generated using pymatgen
data_YZr7(Si4W3)4
_symmetry_space_group_name_H-M   'P 1'
_cell_length_a   6.63759153
_cell_length_b   6.79634313
_cell_length_c   12.73081906
_cell_angle_alpha   90.08497574
_cell_angle_beta   90.02755724
_cell_angle_gamma   90.00667263
_symmetry_Int_Tables_number   1
_chemical_formula_structural   YZr7(Si4W3)4
_chemical_formula_sum   'Y1 Zr7 Si16 W12'
_cell_volume   574.30372686
_cell_formula_units_Z   1
loop_
 _symmetry_equiv_pos_site_id
 _symmetry_equiv_pos_as_xyz
  1  'x, y, z'
loop_
 _atom_site_type_symbol
 _atom_site_label
 _atom_site_symmetry_multiplicity
 _atom_site_fract_x
 _atom_site_fract_y
 _atom_site_fract_z
 _atom_site_occupancy
  Y  Y0  1  0.997585  0.168361  0.090905  1
  Zr  Zr1  1  0.497344  0.329432  0.091871  1
  Zr  Zr2  1  0.996099  0.172156  0.407902  1
  Zr  Zr3  1  0.504635  0.672501  0.592715  1
  Zr  Zr4  1  0.004928  0.825677  0.904349  1
  Zr  Zr5  1  0.505776  0.671193  0.906111  1
  Zr  Zr6  1  0.004671  0.828591  0.593144  1
  Zr  Zr7  1  0.495003  0.328735  0.409568  1
  Si  Si8  1  0.666572  0.041361  0.543057  1
  Si  Si9  1  0.167523  0.461394  0.955092  1
  Si  Si10  1  0.337947  0.956126  0.041924  1
  Si  Si11  1  0.833355  0.541436  0.458047  1
  Si  Si12  1  0.332405  0.958421  0.458167  1
  Si  Si13  1  0.832787  0.544191  0.042163  1
  Si  Si14  1  0.665666  0.039988  0.955343  1
  Si  Si15  1  0.166299  0.458743  0.543630  1
  Si  Si16  1  0.532378  0.380182  0.749010  1
  Si  Si17  1  0.033084  0.121868  0.750532  1
  Si  Si18  1  0.466418  0.620826  0.250621  1
  Si  Si19  1  0.965775  0.875837  0.251771  1
  Si  Si20  1  0.798224  0.639593  0.748912  1
  Si  Si21  1  0.299654  0.861023  0.749335  1
  Si  Si22  1  0.202390  0.360476  0.251615  1
  Si  Si23  1  0.697602  0.141288  0.251433  1
  W  W24  1  0.831236  0.335512  0.624075  1
  W  W25  1  0.334201  0.164758  0.875130  1
  W  W26  1  0.168138  0.663356  0.124515  1
  W  W27  1  0.666227  0.835478  0.376949  1
  W  W28  1  0.169348  0.662437  0.376962  1
  W  W29  1  0.665451  0.834653  0.125067  1
  W  W30  1  0.829461  0.337884  0.874273  1
  W  W31  1  0.330914  0.164195  0.624168  1
  W  W32  1  0.665756  0.991266  0.748620  1
  W  W33  1  0.165317  0.510427  0.749682  1
  W  W34  1  0.335006  0.006016  0.251605  1
  W  W35  1  0.834825  0.494618  0.251734  1
