# generated using pymatgen
data_Ca7La8Sm5Pb16
_symmetry_space_group_name_H-M   'P 1'
_cell_length_a   8.21562939
_cell_length_b   8.65679599
_cell_length_c   16.35257100
_cell_angle_alpha   90.00470582
_cell_angle_beta   90.03331479
_cell_angle_gamma   90.04735989
_symmetry_Int_Tables_number   1
_chemical_formula_structural   Ca7La8Sm5Pb16
_chemical_formula_sum   'Ca7 La8 Sm5 Pb16'
_cell_volume   1163.01105428
_cell_formula_units_Z   1
loop_
 _symmetry_equiv_pos_site_id
 _symmetry_equiv_pos_as_xyz
  1  'x, y, z'
loop_
 _atom_site_type_symbol
 _atom_site_label
 _atom_site_symmetry_multiplicity
 _atom_site_fract_x
 _atom_site_fract_y
 _atom_site_fract_z
 _atom_site_occupancy
  Ca  Ca0  1  0.832668  0.664245  0.122975  1
  Ca  Ca1  1  0.666567  0.164459  0.877482  1
  Ca  Ca2  1  0.166365  0.334914  0.622298  1
  Ca  Ca3  1  0.832989  0.498541  0.749672  1
  Ca  Ca4  1  0.332595  0.001668  0.750231  1
  Ca  Ca5  1  0.167067  0.499432  0.249179  1
  Ca  Ca6  1  0.668155  0.999213  0.249208  1
  La  La7  1  0.502098  0.685044  0.595007  1
  La  La8  1  0.001362  0.815370  0.905887  1
  La  La9  1  0.499942  0.316860  0.094612  1
  La  La10  1  0.997805  0.184738  0.405603  1
  La  La11  1  0.497500  0.315932  0.405328  1
  La  La12  1  0.995932  0.185148  0.094471  1
  La  La13  1  0.503184  0.685956  0.905322  1
  La  La14  1  0.003173  0.815355  0.594367  1
  Sm  Sm15  1  0.662781  0.169414  0.624232  1
  Sm  Sm16  1  0.162458  0.331194  0.875872  1
  Sm  Sm17  1  0.336314  0.832089  0.124328  1
  Sm  Sm18  1  0.836078  0.668118  0.376191  1
  Sm  Sm19  1  0.336186  0.832209  0.376698  1
  Pb  Pb20  1  0.682071  0.960068  0.461358  1
  Pb  Pb21  1  0.181950  0.539173  0.038477  1
  Pb  Pb22  1  0.317635  0.039891  0.961574  1
  Pb  Pb23  1  0.816777  0.460648  0.538640  1
  Pb  Pb24  1  0.320023  0.038021  0.539465  1
  Pb  Pb25  1  0.821792  0.461841  0.958816  1
  Pb  Pb26  1  0.677178  0.961974  0.040949  1
  Pb  Pb27  1  0.180222  0.539534  0.459057  1
  Pb  Pb28  1  0.467193  0.387922  0.751494  1
  Pb  Pb29  1  0.966778  0.112182  0.748587  1
  Pb  Pb30  1  0.531400  0.614766  0.250894  1
  Pb  Pb31  1  0.032706  0.888118  0.250760  1
  Pb  Pb32  1  0.702425  0.855273  0.748907  1
  Pb  Pb33  1  0.202499  0.644362  0.750847  1
  Pb  Pb34  1  0.298951  0.142289  0.250159  1
  Pb  Pb35  1  0.799182  0.354040  0.251047  1
