# generated using pymatgen
data_Tb10Nd6Cd4NiOs3
_symmetry_space_group_name_H-M   'P 1'
_cell_length_a   9.64228044
_cell_length_b   9.81124284
_cell_length_c   9.81124300
_cell_angle_alpha   59.99999610
_cell_angle_beta   59.41862448
_cell_angle_gamma   59.41862725
_symmetry_Int_Tables_number   1
_chemical_formula_structural   Tb10Nd6Cd4NiOs3
_chemical_formula_sum   'Tb10 Nd6 Cd4 Ni1 Os3'
_cell_volume   650.48911247
_cell_formula_units_Z   1
loop_
 _symmetry_equiv_pos_site_id
 _symmetry_equiv_pos_as_xyz
  1  'x, y, z'
loop_
 _atom_site_type_symbol
 _atom_site_label
 _atom_site_symmetry_multiplicity
 _atom_site_fract_x
 _atom_site_fract_y
 _atom_site_fract_z
 _atom_site_occupancy
  Tb  Tb0  1  0.598400  0.595000  0.595000  1
  Tb  Tb1  1  0.598400  0.595000  0.211601  1
  Tb  Tb2  1  0.598400  0.211601  0.595000  1
  Tb  Tb3  1  0.218265  0.593912  0.593912  1
  Tb  Tb4  1  0.061392  0.438028  0.438028  1
  Tb  Tb5  1  0.435982  0.062395  0.062395  1
  Tb  Tb6  1  0.435982  0.062395  0.439229  1
  Tb  Tb7  1  0.061392  0.438028  0.062553  1
  Tb  Tb8  1  0.435982  0.439229  0.062395  1
  Tb  Tb9  1  0.061392  0.062553  0.438028  1
  Nd  Nd10  1  0.188544  0.809664  0.809664  1
  Nd  Nd11  1  0.805070  0.190161  0.190161  1
  Nd  Nd12  1  0.805070  0.190161  0.814608  1
  Nd  Nd13  1  0.188544  0.809664  0.192127  1
  Nd  Nd14  1  0.805070  0.814608  0.190161  1
  Nd  Nd15  1  0.188544  0.192127  0.809664  1
  Cd  Cd16  1  0.828523  0.828993  0.828993  1
  Cd  Cd17  1  0.828523  0.828993  0.513491  1
  Cd  Cd18  1  0.828523  0.513491  0.828993  1
  Cd  Cd19  1  0.510229  0.829924  0.829924  1
  Ni  Ni20  1  0.831193  0.389603  0.389603  1
  Os  Os21  1  0.395527  0.387151  0.387151  1
  Os  Os22  1  0.395527  0.387151  0.830169  1
  Os  Os23  1  0.395527  0.830169  0.387151  1
