# generated using pymatgen
data_Pr7Nd9Cd4(TcPd)2
_symmetry_space_group_name_H-M   'P 1'
_cell_length_a   10.03977056
_cell_length_b   10.03977043
_cell_length_c   10.11877286
_cell_angle_alpha   59.28926127
_cell_angle_beta   59.28933080
_cell_angle_gamma   59.19172424
_symmetry_Int_Tables_number   1
_chemical_formula_structural   Pr7Nd9Cd4(TcPd)2
_chemical_formula_sum   'Pr7 Nd9 Cd4 Tc2 Pd2'
_cell_volume   708.99799709
_cell_formula_units_Z   1
loop_
 _symmetry_equiv_pos_site_id
 _symmetry_equiv_pos_as_xyz
  1  'x, y, z'
loop_
 _atom_site_type_symbol
 _atom_site_label
 _atom_site_symmetry_multiplicity
 _atom_site_fract_x
 _atom_site_fract_y
 _atom_site_fract_z
 _atom_site_occupancy
  Pr  Pr0  1  0.806068  0.806067  0.195450  1
  Pr  Pr1  1  0.937081  0.556099  0.566753  1
  Pr  Pr2  1  0.555654  0.938409  0.941030  1
  Pr  Pr3  1  0.556099  0.937081  0.566753  1
  Pr  Pr4  1  0.938409  0.555654  0.941030  1
  Pr  Pr5  1  0.562786  0.562786  0.936195  1
  Pr  Pr6  1  0.940889  0.940888  0.559924  1
  Nd  Nd7  1  0.347425  0.347425  0.355759  1
  Nd  Nd8  1  0.348084  0.348084  0.948526  1
  Nd  Nd9  1  0.342298  0.958974  0.348455  1
  Nd  Nd10  1  0.958973  0.342299  0.348454  1
  Nd  Nd11  1  0.814970  0.190915  0.190530  1
  Nd  Nd12  1  0.190206  0.816031  0.803493  1
  Nd  Nd13  1  0.190915  0.814970  0.190530  1
  Nd  Nd14  1  0.816031  0.190206  0.803493  1
  Nd  Nd15  1  0.190317  0.190317  0.809319  1
  Cd  Cd16  1  0.579133  0.579133  0.579902  1
  Cd  Cd17  1  0.579416  0.579416  0.261053  1
  Cd  Cd18  1  0.579723  0.259873  0.579822  1
  Cd  Cd19  1  0.259873  0.579723  0.579822  1
  Tc  Tc20  1  0.141008  0.141008  0.133390  1
  Tc  Tc21  1  0.142938  0.142939  0.581224  1
  Pd  Pd22  1  0.147809  0.573895  0.139547  1
  Pd  Pd23  1  0.573895  0.147809  0.139547  1
