# generated using pymatgen
data_Y3ZnCo2Sn3
_symmetry_space_group_name_H-M   'P 1'
_cell_length_a   7.47427000
_cell_length_b   7.47427026
_cell_length_c   3.84082900
_cell_angle_alpha   90.00000000
_cell_angle_beta   90.00000000
_cell_angle_gamma   119.99999883
_symmetry_Int_Tables_number   1
_chemical_formula_structural   Y3ZnCo2Sn3
_chemical_formula_sum   'Y3 Zn1 Co2 Sn3'
_cell_volume   185.82031361
_cell_formula_units_Z   1
loop_
 _symmetry_equiv_pos_site_id
 _symmetry_equiv_pos_as_xyz
  1  'x, y, z'
loop_
 _atom_site_type_symbol
 _atom_site_label
 _atom_site_symmetry_multiplicity
 _atom_site_fract_x
 _atom_site_fract_y
 _atom_site_fract_z
 _atom_site_occupancy
  Y  Y0  1  0.391210  0.981789  0.500000  1
  Y  Y1  1  0.018211  0.409422  0.500000  1
  Y  Y2  1  0.590578  0.608790  0.500000  1
  Zn  Zn3  1  0.666667  0.333333  0.000000  1
  Co  Co4  1  0.333333  0.666667  0.000000  1
  Co  Co5  1  0.000000  0.000000  0.500000  1
  Sn  Sn6  1  0.743495  0.997320  0.000000  1
  Sn  Sn7  1  0.002680  0.746174  0.000000  1
  Sn  Sn8  1  0.253826  0.256505  0.000000  1
