# generated using pymatgen
data_Er2HfRuF14
_symmetry_space_group_name_H-M   'P 1'
_cell_length_a   5.57477800
_cell_length_b   8.92719896
_cell_length_c   11.98786508
_cell_angle_alpha   62.96853955
_cell_angle_beta   90.00000000
_cell_angle_gamma   90.00000000
_symmetry_Int_Tables_number   1
_chemical_formula_structural   Er2HfRuF14
_chemical_formula_sum   'Er4 Hf2 Ru2 F28'
_cell_volume   531.42739057
_cell_formula_units_Z   2
loop_
 _symmetry_equiv_pos_site_id
 _symmetry_equiv_pos_as_xyz
  1  'x, y, z'
loop_
 _atom_site_type_symbol
 _atom_site_label
 _atom_site_symmetry_multiplicity
 _atom_site_fract_x
 _atom_site_fract_y
 _atom_site_fract_z
 _atom_site_occupancy
  Er  Er0  1  0.757416  0.811775  0.772482  1
  Er  Er1  1  0.257416  0.188225  0.727518  1
  Er  Er2  1  0.242239  0.184431  0.238432  1
  Er  Er3  1  0.742239  0.815569  0.261568  1
  Hf  Hf4  1  0.755965  0.273306  0.956874  1
  Hf  Hf5  1  0.255965  0.726694  0.543126  1
  Ru  Ru6  1  0.242471  0.726542  0.045588  1
  Ru  Ru7  1  0.742471  0.273458  0.454412  1
  F  F8  1  0.439858  0.706661  0.916462  1
  F  F9  1  0.939858  0.293339  0.583538  1
  F  F10  1  0.538532  0.290020  0.082931  1
  F  F11  1  0.038532  0.709980  0.417069  1
  F  F12  1  0.444038  0.274626  0.544306  1
  F  F13  1  0.944038  0.725374  0.955694  1
  F  F14  1  0.554454  0.722549  0.449070  1
  F  F15  1  0.054454  0.277451  0.050930  1
  F  F16  1  0.773405  0.524379  0.861136  1
  F  F17  1  0.273405  0.475621  0.638864  1
  F  F18  1  0.225620  0.486982  0.139367  1
  F  F19  1  0.725620  0.513018  0.360633  1
  F  F20  1  0.759226  0.022696  0.056426  1
  F  F21  1  0.259226  0.977304  0.443574  1
  F  F22  1  0.245949  0.965285  0.952607  1
  F  F23  1  0.745949  0.034715  0.547393  1
  F  F24  1  0.977087  0.733992  0.646653  1
  F  F25  1  0.477087  0.266008  0.853347  1
  F  F26  1  0.030900  0.274190  0.359232  1
  F  F27  1  0.530900  0.725810  0.140768  1
  F  F28  1  0.049127  0.745732  0.177025  1
  F  F29  1  0.549127  0.254268  0.322975  1
  F  F30  1  0.967826  0.250105  0.828569  1
  F  F31  1  0.467826  0.749895  0.671431  1
  F  F32  1  0.420961  0.972082  0.233231  1
  F  F33  1  0.920961  0.027918  0.266769  1
  F  F34  1  0.574926  0.027695  0.766828  1
  F  F35  1  0.074926  0.972305  0.733172  1
