# generated using pymatgen
data_Rb6Li4ZrSnP6
_symmetry_space_group_name_H-M   'P 1'
_cell_length_a   10.16734371
_cell_length_b   10.16734350
_cell_length_c   15.79738200
_cell_angle_alpha   90.00000000
_cell_angle_beta   90.00000000
_cell_angle_gamma   142.94120213
_symmetry_Int_Tables_number   1
_chemical_formula_structural   Rb6Li4ZrSnP6
_chemical_formula_sum   'Rb12 Li8 Zr2 Sn2 P12'
_cell_volume   984.13335860
_cell_formula_units_Z   2
loop_
 _symmetry_equiv_pos_site_id
 _symmetry_equiv_pos_as_xyz
  1  'x, y, z'
loop_
 _atom_site_type_symbol
 _atom_site_label
 _atom_site_symmetry_multiplicity
 _atom_site_fract_x
 _atom_site_fract_y
 _atom_site_fract_z
 _atom_site_occupancy
  Rb  Rb0  1  0.106269  0.451486  0.671454  1
  Rb  Rb1  1  0.718393  0.715156  0.680298  1
  Rb  Rb2  1  0.215156  0.218393  0.819702  1
  Rb  Rb3  1  0.781607  0.784844  0.180298  1
  Rb  Rb4  1  0.951486  0.606269  0.828546  1
  Rb  Rb5  1  0.548514  0.893731  0.328546  1
  Rb  Rb6  1  0.393731  0.048514  0.171454  1
  Rb  Rb7  1  0.058142  0.398169  0.172715  1
  Rb  Rb8  1  0.898169  0.558142  0.327285  1
  Rb  Rb9  1  0.441858  0.101831  0.672715  1
  Rb  Rb10  1  0.601831  0.941859  0.827285  1
  Rb  Rb11  1  0.284844  0.281607  0.319702  1
  Li  Li12  1  0.914960  0.085040  0.000000  1
  Li  Li13  1  0.585040  0.414960  0.500000  1
  Li  Li14  1  0.083004  0.916996  0.000000  1
  Li  Li15  1  0.416996  0.583004  0.500000  1
  Li  Li16  1  0.751746  0.248254  0.000000  1
  Li  Li17  1  0.748254  0.251746  0.500000  1
  Li  Li18  1  0.248476  0.751524  0.000000  1
  Li  Li19  1  0.251524  0.748476  0.500000  1
  Zr  Zr20  1  0.915225  0.084775  0.500000  1
  Zr  Zr21  1  0.584775  0.415225  0.000000  1
  Sn  Sn22  1  0.087025  0.912975  0.500000  1
  Sn  Sn23  1  0.412975  0.587025  0.000000  1
  P  P24  1  0.892759  0.569143  0.086945  1
  P  P25  1  0.430857  0.107241  0.913055  1
  P  P26  1  0.607241  0.930857  0.586945  1
  P  P27  1  0.925477  0.602183  0.590281  1
  P  P28  1  0.102183  0.425477  0.909719  1
  P  P29  1  0.574523  0.897817  0.090281  1
  P  P30  1  0.397817  0.074523  0.409719  1
  P  P31  1  0.228015  0.230031  0.587529  1
  P  P32  1  0.730031  0.728015  0.912471  1
  P  P33  1  0.271985  0.269969  0.087529  1
  P  P34  1  0.069143  0.392759  0.413055  1
  P  P35  1  0.769969  0.771985  0.412471  1
