# generated using pymatgen
data_Pa4(Al8Pt3)3
_symmetry_space_group_name_H-M   'P 1'
_cell_length_a   7.57907479
_cell_length_b   7.59549155
_cell_length_c   13.15273074
_cell_angle_alpha   84.44058566
_cell_angle_beta   78.93025610
_cell_angle_gamma   59.92378487
_symmetry_Int_Tables_number   1
_chemical_formula_structural   Pa4(Al8Pt3)3
_chemical_formula_sum   'Pa4 Al24 Pt9'
_cell_volume   643.02512851
_cell_formula_units_Z   1
loop_
 _symmetry_equiv_pos_site_id
 _symmetry_equiv_pos_as_xyz
  1  'x, y, z'
loop_
 _atom_site_type_symbol
 _atom_site_label
 _atom_site_symmetry_multiplicity
 _atom_site_fract_x
 _atom_site_fract_y
 _atom_site_fract_z
 _atom_site_occupancy
  Pa  Pa0  1  0.394428  0.168084  0.805614  1
  Pa  Pa1  1  0.605572  0.831916  0.194386  1
  Pa  Pa2  1  0.735072  0.498046  0.805561  1
  Pa  Pa3  1  0.264928  0.501954  0.194439  1
  Al  Al4  1  0.682998  0.833741  0.947116  1
  Al  Al5  1  0.317002  0.166259  0.052884  1
  Al  Al6  1  0.145878  0.833487  0.560836  1
  Al  Al7  1  0.854122  0.166513  0.439164  1
  Al  Al8  1  0.481119  0.166678  0.558064  1
  Al  Al9  1  0.518881  0.833322  0.441936  1
  Al  Al10  1  0.214821  0.165320  0.331184  1
  Al  Al11  1  0.785179  0.834680  0.668816  1
  Al  Al12  1  0.435674  0.508839  0.669002  1
  Al  Al13  1  0.564326  0.491161  0.330998  1
  Al  Al14  1  0.110502  0.157051  0.667505  1
  Al  Al15  1  0.889498  0.842949  0.332495  1
  Al  Al16  1  0.351892  0.499415  0.947183  1
  Al  Al17  1  0.648108  0.500585  0.052817  1
  Al  Al18  1  0.015765  0.167861  0.952386  1
  Al  Al19  1  0.984235  0.832139  0.047614  1
  Al  Al20  1  0.186417  0.500144  0.441975  1
  Al  Al21  1  0.813583  0.499856  0.558025  1
  Al  Al22  1  0.735543  0.164346  0.182343  1
  Al  Al23  1  0.264457  0.835654  0.817657  1
  Al  Al24  1  0.061227  0.632327  0.816449  1
  Al  Al25  1  0.938773  0.367673  0.183551  1
  Al  Al26  1  0.856345  0.040088  0.817195  1
  Al  Al27  1  0.143655  0.959912  0.182805  1
  Pt  Pt28  1  0.120069  0.491926  0.639279  1
  Pt  Pt29  1  0.879931  0.508074  0.360721  1
  Pt  Pt30  1  0.659997  0.170048  0.999767  1
  Pt  Pt31  1  0.340003  0.829952  0.000233  1
  Pt  Pt32  1  0.537463  0.166954  0.360818  1
  Pt  Pt33  1  0.462537  0.833046  0.639182  1
  Pt  Pt34  1  0.778533  0.174849  0.638323  1
  Pt  Pt35  1  0.221467  0.825151  0.361677  1
  Pt  Pt36  1  0.000000  0.500000  0.000000  1
