# generated using pymatgen
data_Dy20Si12P
_symmetry_space_group_name_H-M   'P 1'
_cell_length_a   6.38372016
_cell_length_b   8.48214995
_cell_length_c   14.77696800
_cell_angle_alpha   90.00000675
_cell_angle_beta   90.00000000
_cell_angle_gamma   89.89115551
_symmetry_Int_Tables_number   1
_chemical_formula_structural   Dy20Si12P
_chemical_formula_sum   'Dy20 Si12 P1'
_cell_volume   800.13696702
_cell_formula_units_Z   1
loop_
 _symmetry_equiv_pos_site_id
 _symmetry_equiv_pos_as_xyz
  1  'x, y, z'
loop_
 _atom_site_type_symbol
 _atom_site_label
 _atom_site_symmetry_multiplicity
 _atom_site_fract_x
 _atom_site_fract_y
 _atom_site_fract_z
 _atom_site_occupancy
  Dy  Dy0  1  0.500000  0.999999  0.335855  1
  Dy  Dy1  1  0.500000  0.500001  0.829444  1
  Dy  Dy2  1  0.500000  0.500001  0.170556  1
  Dy  Dy3  1  0.500000  0.999999  0.664145  1
  Dy  Dy4  1  0.000000  0.499999  0.166246  1
  Dy  Dy5  1  0.000001  0.000001  0.666255  1
  Dy  Dy6  1  0.000001  0.000001  0.333745  1
  Dy  Dy7  1  0.000000  0.499999  0.833754  1
  Dy  Dy8  1  0.747531  0.253495  0.000000  1
  Dy  Dy9  1  0.748606  0.744373  0.500000  1
  Dy  Dy10  1  0.751758  0.377376  0.380114  1
  Dy  Dy11  1  0.748777  0.871817  0.872211  1
  Dy  Dy12  1  0.748777  0.871817  0.127789  1
  Dy  Dy13  1  0.751758  0.377376  0.619886  1
  Dy  Dy14  1  0.252464  0.746503  0.000000  1
  Dy  Dy15  1  0.251392  0.255626  0.500000  1
  Dy  Dy16  1  0.251223  0.128183  0.127789  1
  Dy  Dy17  1  0.248242  0.622625  0.619885  1
  Dy  Dy18  1  0.248242  0.622625  0.380115  1
  Dy  Dy19  1  0.251223  0.128183  0.872211  1
  Si  Si20  1  0.745422  0.605712  0.000000  1
  Si  Si21  1  0.750800  0.105641  0.500000  1
  Si  Si22  1  0.749513  0.198194  0.199161  1
  Si  Si23  1  0.752926  0.696034  0.695233  1
  Si  Si24  1  0.752926  0.696034  0.304767  1
  Si  Si25  1  0.749513  0.198194  0.800839  1
  Si  Si26  1  0.254577  0.394287  0.000000  1
  Si  Si27  1  0.249200  0.894360  0.500000  1
  Si  Si28  1  0.247079  0.303968  0.304768  1
  Si  Si29  1  0.250485  0.801806  0.800839  1
  Si  Si30  1  0.250485  0.801806  0.199161  1
  Si  Si31  1  0.247079  0.303968  0.695232  1
  P  P32  1  0.499998  0.999999  0.000000  1
