# generated using pymatgen
data_Tb6Tm10Cd4Ru3Pt
_symmetry_space_group_name_H-M   'P 1'
_cell_length_a   9.52598911
_cell_length_b   9.63392866
_cell_length_c   9.63392900
_cell_angle_alpha   59.99999540
_cell_angle_beta   59.62445365
_cell_angle_gamma   59.62445082
_symmetry_Int_Tables_number   1
_chemical_formula_structural   Tb6Tm10Cd4Ru3Pt
_chemical_formula_sum   'Tb6 Tm10 Cd4 Ru3 Pt1'
_cell_volume   621.60319729
_cell_formula_units_Z   1
loop_
 _symmetry_equiv_pos_site_id
 _symmetry_equiv_pos_as_xyz
  1  'x, y, z'
loop_
 _atom_site_type_symbol
 _atom_site_label
 _atom_site_symmetry_multiplicity
 _atom_site_fract_x
 _atom_site_fract_y
 _atom_site_fract_z
 _atom_site_occupancy
  Tb  Tb0  1  0.937194  0.561240  0.561240  1
  Tb  Tb1  1  0.557667  0.939615  0.939615  1
  Tb  Tb2  1  0.557667  0.939615  0.563102  1
  Tb  Tb3  1  0.937194  0.561240  0.940327  1
  Tb  Tb4  1  0.557667  0.563102  0.939615  1
  Tb  Tb5  1  0.937194  0.940327  0.561240  1
  Tm  Tm6  1  0.345512  0.349727  0.349727  1
  Tm  Tm7  1  0.345512  0.349727  0.955036  1
  Tm  Tm8  1  0.345512  0.955036  0.349727  1
  Tm  Tm9  1  0.966175  0.344608  0.344608  1
  Tm  Tm10  1  0.816078  0.188001  0.188001  1
  Tm  Tm11  1  0.185248  0.813354  0.813354  1
  Tm  Tm12  1  0.185248  0.813354  0.188044  1
  Tm  Tm13  1  0.816078  0.188001  0.807922  1
  Tm  Tm14  1  0.185248  0.188044  0.813354  1
  Tm  Tm15  1  0.816078  0.807922  0.188001  1
  Cd  Cd16  1  0.579555  0.579150  0.579150  1
  Cd  Cd17  1  0.579555  0.579150  0.262143  1
  Cd  Cd18  1  0.579555  0.262143  0.579150  1
  Cd  Cd19  1  0.257789  0.580736  0.580736  1
  Ru  Ru20  1  0.146034  0.138744  0.138744  1
  Ru  Ru21  1  0.146034  0.138744  0.576478  1
  Ru  Ru22  1  0.146034  0.576478  0.138744  1
  Pt  Pt23  1  0.574170  0.141944  0.141944  1
