# generated using pymatgen
data_PrEu3P4Ir3Rh
_symmetry_space_group_name_H-M   'P 1'
_cell_length_a   6.28852636
_cell_length_b   6.28852742
_cell_length_c   6.28852723
_cell_angle_alpha   90.03912459
_cell_angle_beta   90.03912494
_cell_angle_gamma   89.96088088
_symmetry_Int_Tables_number   1
_chemical_formula_structural   PrEu3P4Ir3Rh
_chemical_formula_sum   'Pr1 Eu3 P4 Ir3 Rh1'
_cell_volume   248.68322276
_cell_formula_units_Z   1
loop_
 _symmetry_equiv_pos_site_id
 _symmetry_equiv_pos_as_xyz
  1  'x, y, z'
loop_
 _atom_site_type_symbol
 _atom_site_label
 _atom_site_symmetry_multiplicity
 _atom_site_fract_x
 _atom_site_fract_y
 _atom_site_fract_z
 _atom_site_occupancy
  Pr  Pr0  1  0.399712  0.899712  0.600288  1
  Eu  Eu1  1  0.897031  0.602842  0.396463  1
  Eu  Eu2  1  0.603537  0.397031  0.897158  1
  Eu  Eu3  1  0.102842  0.103537  0.102969  1
  P  P4  1  0.673817  0.173817  0.326183  1
  P  P5  1  0.171460  0.326948  0.673153  1
  P  P6  1  0.326847  0.671460  0.173052  1
  P  P7  1  0.826948  0.826847  0.828540  1
  Ir  Ir8  1  0.579471  0.917511  0.081599  1
  Ir  Ir9  1  0.918401  0.079471  0.582489  1
  Ir  Ir10  1  0.417511  0.418401  0.420529  1
  Rh  Rh11  1  0.082425  0.582425  0.917575  1
