# generated using pymatgen
data_Al12Re2W
_symmetry_space_group_name_H-M   'P 1'
_cell_length_a   9.20318674
_cell_length_b   9.20403347
_cell_length_c   5.19930405
_cell_angle_alpha   86.90020302
_cell_angle_beta   87.02057857
_cell_angle_gamma   146.84738529
_symmetry_Int_Tables_number   1
_chemical_formula_structural   Al12Re2W
_chemical_formula_sum   'Al12 Re2 W1'
_cell_volume   236.65297579
_cell_formula_units_Z   1
loop_
 _symmetry_equiv_pos_site_id
 _symmetry_equiv_pos_as_xyz
  1  'x, y, z'
loop_
 _atom_site_type_symbol
 _atom_site_label
 _atom_site_symmetry_multiplicity
 _atom_site_fract_x
 _atom_site_fract_y
 _atom_site_fract_z
 _atom_site_occupancy
  Al  Al0  1  0.145285  0.145180  0.492712  1
  Al  Al1  1  0.497572  0.497799  0.849452  1
  Al  Al2  1  0.581823  0.737728  0.314599  1
  Al  Al3  1  0.737257  0.582598  0.313194  1
  Al  Al4  1  0.697343  0.936406  0.785165  1
  Al  Al5  1  0.934574  0.695787  0.783816  1
  Al  Al6  1  0.056858  0.306004  0.190611  1
  Al  Al7  1  0.306648  0.058519  0.192381  1
  Al  Al8  1  0.450617  0.919570  0.412291  1
  Al  Al9  1  0.921650  0.451137  0.411796  1
  Al  Al10  1  0.772646  0.272049  0.929512  1
  Al  Al11  1  0.272596  0.771196  0.931656  1
  Re  Re12  1  0.985667  0.987168  0.010079  1
  Re  Re13  1  0.195578  0.468258  0.667699  1
  W  W14  1  0.466884  0.193602  0.669036  1
