# generated using pymatgen
data_Ho10In8Ir3Pt
_symmetry_space_group_name_H-M   'P 1'
_cell_length_a   3.62698600
_cell_length_b   8.07154300
_cell_length_c   18.22850400
_cell_angle_alpha   90.00156826
_cell_angle_beta   90.00000000
_cell_angle_gamma   90.00000000
_symmetry_Int_Tables_number   1
_chemical_formula_structural   Ho10In8Ir3Pt
_chemical_formula_sum   'Ho10 In8 Ir3 Pt1'
_cell_volume   533.64626211
_cell_formula_units_Z   1
loop_
 _symmetry_equiv_pos_site_id
 _symmetry_equiv_pos_as_xyz
  1  'x, y, z'
loop_
 _atom_site_type_symbol
 _atom_site_label
 _atom_site_symmetry_multiplicity
 _atom_site_fract_x
 _atom_site_fract_y
 _atom_site_fract_z
 _atom_site_occupancy
  Ho  Ho0  1  0.000000  0.114875  0.412315  1
  Ho  Ho1  1  0.000000  0.884453  0.590024  1
  Ho  Ho2  1  0.000000  0.384326  0.910003  1
  Ho  Ho3  1  0.000000  0.616131  0.086502  1
  Ho  Ho4  1  0.000000  0.235681  0.222465  1
  Ho  Ho5  1  0.000000  0.756927  0.777639  1
  Ho  Ho6  1  0.000000  0.256587  0.722551  1
  Ho  Ho7  1  0.000000  0.751418  0.279489  1
  Ho  Ho8  1  0.000000  0.999156  0.999277  1
  Ho  Ho9  1  0.000000  0.500082  0.500177  1
  In  In10  1  0.500000  0.425275  0.351641  1
  In  In11  1  0.500000  0.570061  0.648580  1
  In  In12  1  0.500000  0.070975  0.851260  1
  In  In13  1  0.500000  0.927941  0.148428  1
  In  In14  1  0.500000  0.291548  0.065937  1
  In  In15  1  0.500000  0.706062  0.932054  1
  In  In16  1  0.500000  0.206632  0.567893  1
  In  In17  1  0.500000  0.793485  0.433091  1
  Ir  Ir18  1  0.500000  0.020585  0.304148  1
  Ir  Ir19  1  0.500000  0.983064  0.696282  1
  Ir  Ir20  1  0.500000  0.483325  0.803855  1
  Pt  Pt21  1  0.500000  0.521410  0.196390  1
