# generated using pymatgen
data_Er6Tm10CdAg3Pt4
_symmetry_space_group_name_H-M   'P 1'
_cell_length_a   9.50010348
_cell_length_b   9.50065427
_cell_length_c   9.50065400
_cell_angle_alpha   60.00000092
_cell_angle_beta   59.99808304
_cell_angle_gamma   59.99808640
_symmetry_Int_Tables_number   1
_chemical_formula_structural   Er6Tm10CdAg3Pt4
_chemical_formula_sum   'Er6 Tm10 Cd1 Ag3 Pt4'
_cell_volume   606.32822280
_cell_formula_units_Z   1
loop_
 _symmetry_equiv_pos_site_id
 _symmetry_equiv_pos_as_xyz
  1  'x, y, z'
loop_
 _atom_site_type_symbol
 _atom_site_label
 _atom_site_symmetry_multiplicity
 _atom_site_fract_x
 _atom_site_fract_y
 _atom_site_fract_z
 _atom_site_occupancy
  Er  Er0  1  0.932269  0.565933  0.565933  1
  Er  Er1  1  0.566088  0.934176  0.934176  1
  Er  Er2  1  0.566088  0.934176  0.565561  1
  Er  Er3  1  0.932269  0.565933  0.935864  1
  Er  Er4  1  0.566088  0.565561  0.934176  1
  Er  Er5  1  0.932269  0.935864  0.565933  1
  Tm  Tm6  1  0.354780  0.354155  0.354155  1
  Tm  Tm7  1  0.354780  0.354155  0.936910  1
  Tm  Tm8  1  0.354780  0.936910  0.354155  1
  Tm  Tm9  1  0.934334  0.355222  0.355222  1
  Tm  Tm10  1  0.811083  0.188851  0.188851  1
  Tm  Tm11  1  0.188490  0.811483  0.811483  1
  Tm  Tm12  1  0.188490  0.811483  0.188543  1
  Tm  Tm13  1  0.811083  0.188851  0.811215  1
  Tm  Tm14  1  0.188490  0.188543  0.811483  1
  Tm  Tm15  1  0.811083  0.811215  0.188851  1
  Cd  Cd16  1  0.256896  0.581035  0.581035  1
  Ag  Ag17  1  0.583462  0.582910  0.582910  1
  Ag  Ag18  1  0.583462  0.582910  0.250718  1
  Ag  Ag19  1  0.583462  0.250718  0.582910  1
  Pt  Pt20  1  0.143720  0.144108  0.144108  1
  Pt  Pt21  1  0.143720  0.144108  0.568063  1
  Pt  Pt22  1  0.143720  0.568063  0.144108  1
  Pt  Pt23  1  0.569087  0.143637  0.143637  1
