# generated using pymatgen
data_Sc8Re11Si16Rh
_symmetry_space_group_name_H-M   'P 1'
_cell_length_a   6.63400101
_cell_length_b   6.63400101
_cell_length_c   12.49998844
_cell_angle_alpha   89.97851585
_cell_angle_beta   90.02148415
_cell_angle_gamma   90.49897942
_symmetry_Int_Tables_number   1
_chemical_formula_structural   Sc8Re11Si16Rh
_chemical_formula_sum   'Sc8 Re11 Si16 Rh1'
_cell_volume   550.10317018
_cell_formula_units_Z   1
loop_
 _symmetry_equiv_pos_site_id
 _symmetry_equiv_pos_as_xyz
  1  'x, y, z'
loop_
 _atom_site_type_symbol
 _atom_site_label
 _atom_site_symmetry_multiplicity
 _atom_site_fract_x
 _atom_site_fract_y
 _atom_site_fract_z
 _atom_site_occupancy
  Sc  Sc0  1  0.006358  0.654232  0.030636  1
  Sc  Sc1  1  0.995954  0.336237  0.532775  1
  Sc  Sc2  1  0.336237  0.995954  0.467225  1
  Sc  Sc3  1  0.157697  0.490045  0.782652  1
  Sc  Sc4  1  0.841118  0.506828  0.278629  1
  Sc  Sc5  1  0.490045  0.157697  0.217348  1
  Sc  Sc6  1  0.506828  0.841118  0.721371  1
  Sc  Sc7  1  0.654232  0.006358  0.969364  1
  Re  Re8  1  0.165300  0.831494  0.249356  1
  Re  Re9  1  0.330158  0.330158  0.000000  1
  Re  Re10  1  0.021628  0.814109  0.631930  1
  Re  Re11  1  0.976019  0.193903  0.136808  1
  Re  Re12  1  0.814109  0.021628  0.368070  1
  Re  Re13  1  0.319207  0.487320  0.383485  1
  Re  Re14  1  0.686526  0.512513  0.882484  1
  Re  Re15  1  0.487320  0.319207  0.616515  1
  Re  Re16  1  0.512513  0.686526  0.117516  1
  Re  Re17  1  0.193903  0.976019  0.863192  1
  Re  Re18  1  0.831494  0.165300  0.750644  1
  Si  Si19  1  0.028196  0.720947  0.437679  1
  Si  Si20  1  0.620098  0.303967  0.431334  1
  Si  Si21  1  0.381619  0.693510  0.930811  1
  Si  Si22  1  0.198286  0.122109  0.678837  1
  Si  Si23  1  0.303967  0.620098  0.568666  1
  Si  Si24  1  0.693510  0.381619  0.069189  1
  Si  Si25  1  0.804045  0.880143  0.179546  1
  Si  Si26  1  0.122109  0.198286  0.321163  1
  Si  Si27  1  0.975659  0.267894  0.939326  1
  Si  Si28  1  0.720947  0.028196  0.562321  1
  Si  Si29  1  0.220805  0.474790  0.188980  1
  Si  Si30  1  0.781319  0.525393  0.688996  1
  Si  Si31  1  0.474790  0.220805  0.811020  1
  Si  Si32  1  0.525393  0.781319  0.311004  1
  Si  Si33  1  0.267894  0.975659  0.060674  1
  Si  Si34  1  0.880143  0.804045  0.820454  1
  Rh  Rh35  1  0.674576  0.674576  0.500000  1
