# generated using pymatgen
data_Pr3Al3IrPd2
_symmetry_space_group_name_H-M   'P 1'
_cell_length_a   7.26790300
_cell_length_b   7.26790270
_cell_length_c   4.23235500
_cell_angle_alpha   90.00000000
_cell_angle_beta   90.00000000
_cell_angle_gamma   120.00000590
_symmetry_Int_Tables_number   1
_chemical_formula_structural   Pr3Al3IrPd2
_chemical_formula_sum   'Pr3 Al3 Ir1 Pd2'
_cell_volume   193.61139816
_cell_formula_units_Z   1
loop_
 _symmetry_equiv_pos_site_id
 _symmetry_equiv_pos_as_xyz
  1  'x, y, z'
loop_
 _atom_site_type_symbol
 _atom_site_label
 _atom_site_symmetry_multiplicity
 _atom_site_fract_x
 _atom_site_fract_y
 _atom_site_fract_z
 _atom_site_occupancy
  Pr  Pr0  1  0.417123  0.417123  0.500000  1
  Pr  Pr1  1  0.582877  0.000000  0.500000  1
  Pr  Pr2  1  0.000000  0.582877  0.500000  1
  Al  Al3  1  0.778146  0.778146  0.000000  1
  Al  Al4  1  0.221854  0.000000  0.000000  1
  Al  Al5  1  0.000000  0.221854  0.000000  1
  Ir  Ir6  1  0.000000  0.000000  0.500000  1
  Pd  Pd7  1  0.666667  0.333333  0.000000  1
  Pd  Pd8  1  0.333333  0.666667  0.000000  1
