# generated using pymatgen
data_Er16Al4OsPt3
_symmetry_space_group_name_H-M   'P 1'
_cell_length_a   9.50518668
_cell_length_b   9.50518668
_cell_length_c   9.50518665
_cell_angle_alpha   59.88124743
_cell_angle_beta   59.88124574
_cell_angle_gamma   59.88124945
_symmetry_Int_Tables_number   1
_chemical_formula_structural   Er16Al4OsPt3
_chemical_formula_sum   'Er16 Al4 Os1 Pt3'
_cell_volume   605.61301828
_cell_formula_units_Z   1
loop_
 _symmetry_equiv_pos_site_id
 _symmetry_equiv_pos_as_xyz
  1  'x, y, z'
loop_
 _atom_site_type_symbol
 _atom_site_label
 _atom_site_symmetry_multiplicity
 _atom_site_fract_x
 _atom_site_fract_y
 _atom_site_fract_z
 _atom_site_occupancy
  Er  Er0  1  0.353893  0.353893  0.353893  1
  Er  Er1  1  0.352473  0.352473  0.939610  1
  Er  Er2  1  0.352473  0.939610  0.352473  1
  Er  Er3  1  0.939610  0.352473  0.352473  1
  Er  Er4  1  0.810950  0.192190  0.192190  1
  Er  Er5  1  0.193854  0.806068  0.806068  1
  Er  Er6  1  0.192190  0.810950  0.192190  1
  Er  Er7  1  0.806068  0.193854  0.806068  1
  Er  Er8  1  0.192190  0.192190  0.810950  1
  Er  Er9  1  0.806068  0.806068  0.193854  1
  Er  Er10  1  0.934692  0.564385  0.564385  1
  Er  Er11  1  0.557518  0.938617  0.938617  1
  Er  Er12  1  0.564385  0.934692  0.564385  1
  Er  Er13  1  0.938617  0.557518  0.938617  1
  Er  Er14  1  0.564385  0.564385  0.934692  1
  Er  Er15  1  0.938617  0.938617  0.557518  1
  Al  Al16  1  0.578761  0.578761  0.578761  1
  Al  Al17  1  0.578170  0.578170  0.266751  1
  Al  Al18  1  0.578170  0.266751  0.578170  1
  Al  Al19  1  0.266751  0.578170  0.578170  1
  Os  Os20  1  0.142753  0.142753  0.142753  1
  Pt  Pt21  1  0.143099  0.143099  0.571220  1
  Pt  Pt22  1  0.143099  0.571220  0.143099  1
  Pt  Pt23  1  0.571220  0.143099  0.143099  1
