# generated using pymatgen
data_Lu20ZnBi10Sb
_symmetry_space_group_name_H-M   'P 1'
_cell_length_a   8.04329018
_cell_length_b   9.33195700
_cell_length_c   11.73238700
_cell_angle_alpha   90.00000000
_cell_angle_beta   89.90447482
_cell_angle_gamma   90.00000000
_symmetry_Int_Tables_number   1
_chemical_formula_structural   Lu20ZnBi10Sb
_chemical_formula_sum   'Lu20 Zn1 Bi10 Sb1'
_cell_volume   880.62749819
_cell_formula_units_Z   1
loop_
 _symmetry_equiv_pos_site_id
 _symmetry_equiv_pos_as_xyz
  1  'x, y, z'
loop_
 _atom_site_type_symbol
 _atom_site_label
 _atom_site_symmetry_multiplicity
 _atom_site_fract_x
 _atom_site_fract_y
 _atom_site_fract_z
 _atom_site_occupancy
  Lu  Lu0  1  0.183473  0.573237  0.445736  1
  Lu  Lu1  1  0.691810  0.936184  0.060689  1
  Lu  Lu2  1  0.809582  0.048974  0.559076  1
  Lu  Lu3  1  0.309828  0.430769  0.942607  1
  Lu  Lu4  1  0.809582  0.451026  0.559076  1
  Lu  Lu5  1  0.309828  0.069231  0.942607  1
  Lu  Lu6  1  0.183473  0.926763  0.445736  1
  Lu  Lu7  1  0.691810  0.563816  0.060689  1
  Lu  Lu8  1  0.023656  0.750000  0.990305  1
  Lu  Lu9  1  0.537316  0.750000  0.508506  1
  Lu  Lu10  1  0.973663  0.250000  0.010657  1
  Lu  Lu11  1  0.480711  0.250000  0.490352  1
  Lu  Lu12  1  0.172129  0.750000  0.708891  1
  Lu  Lu13  1  0.693677  0.750000  0.778652  1
  Lu  Lu14  1  0.810325  0.250000  0.279748  1
  Lu  Lu15  1  0.315137  0.250000  0.213450  1
  Lu  Lu16  1  0.855140  0.750000  0.294089  1
  Lu  Lu17  1  0.351801  0.750000  0.216349  1
  Lu  Lu18  1  0.149739  0.250000  0.717556  1
  Lu  Lu19  1  0.647586  0.250000  0.784619  1
  Zn  Zn20  1  0.906210  0.750000  0.538617  1
  Bi  Bi21  1  0.936767  0.496519  0.825053  1
  Bi  Bi22  1  0.435674  0.001626  0.676379  1
  Bi  Bi23  1  0.063950  0.996729  0.175705  1
  Bi  Bi24  1  0.561530  0.502287  0.323286  1
  Bi  Bi25  1  0.063950  0.503271  0.175705  1
  Bi  Bi26  1  0.561530  0.997713  0.323286  1
  Bi  Bi27  1  0.936767  0.003481  0.825053  1
  Bi  Bi28  1  0.435674  0.498374  0.676379  1
  Bi  Bi29  1  0.404202  0.750000  0.953039  1
  Bi  Bi30  1  0.095158  0.250000  0.456437  1
  Sb  Sb31  1  0.598320  0.250000  0.041677  1
