# generated using pymatgen
data_Eu4GaMo3O14
_symmetry_space_group_name_H-M   'P 1'
_cell_length_a   7.51747001
_cell_length_b   7.51747046
_cell_length_c   7.37213349
_cell_angle_alpha   59.34568427
_cell_angle_beta   59.34568301
_cell_angle_gamma   59.99999949
_symmetry_Int_Tables_number   1
_chemical_formula_structural   Eu4GaMo3O14
_chemical_formula_sum   'Eu4 Ga1 Mo3 O14'
_cell_volume   291.64524487
_cell_formula_units_Z   1
loop_
 _symmetry_equiv_pos_site_id
 _symmetry_equiv_pos_as_xyz
  1  'x, y, z'
loop_
 _atom_site_type_symbol
 _atom_site_label
 _atom_site_symmetry_multiplicity
 _atom_site_fract_x
 _atom_site_fract_y
 _atom_site_fract_z
 _atom_site_occupancy
  Eu  Eu0  1  0.625000  0.125000  0.125000  1
  Eu  Eu1  1  0.125000  0.625000  0.125000  1
  Eu  Eu2  1  0.125000  0.125000  0.625000  1
  Eu  Eu3  1  0.125000  0.125000  0.125000  1
  Ga  Ga4  1  0.625000  0.625000  0.125000  1
  Mo  Mo5  1  0.125000  0.625000  0.625000  1
  Mo  Mo6  1  0.625000  0.125000  0.625000  1
  Mo  Mo7  1  0.625000  0.625000  0.625000  1
  O  O8  1  0.252297  0.252297  0.243109  1
  O  O9  1  0.997703  0.997703  0.006891  1
  O  O10  1  0.695686  0.695686  0.307417  1
  O  O11  1  0.298348  0.298348  0.699760  1
  O  O12  1  0.703543  0.298348  0.699760  1
  O  O13  1  0.301211  0.695686  0.307417  1
  O  O14  1  0.298348  0.703543  0.699760  1
  O  O15  1  0.695686  0.301211  0.307417  1
  O  O16  1  0.554314  0.554314  0.942583  1
  O  O17  1  0.951652  0.951652  0.550240  1
  O  O18  1  0.546457  0.951652  0.550240  1
  O  O19  1  0.948789  0.554314  0.942583  1
  O  O20  1  0.951652  0.546457  0.550240  1
  O  O21  1  0.554314  0.948789  0.942583  1
