# generated using pymatgen
data_Ba9Tb(Bi3S)2
_symmetry_space_group_name_H-M   'P 1'
_cell_length_a   10.21639594
_cell_length_b   10.11941845
_cell_length_c   7.96576700
_cell_angle_alpha   90.00000000
_cell_angle_beta   90.00000000
_cell_angle_gamma   119.68649288
_symmetry_Int_Tables_number   1
_chemical_formula_structural   Ba9Tb(Bi3S)2
_chemical_formula_sum   'Ba9 Tb1 Bi6 S2'
_cell_volume   715.44266151
_cell_formula_units_Z   1
loop_
 _symmetry_equiv_pos_site_id
 _symmetry_equiv_pos_as_xyz
  1  'x, y, z'
loop_
 _atom_site_type_symbol
 _atom_site_label
 _atom_site_symmetry_multiplicity
 _atom_site_fract_x
 _atom_site_fract_y
 _atom_site_fract_z
 _atom_site_occupancy
  Ba  Ba0  1  0.659279  0.330060  0.499957  1
  Ba  Ba1  1  0.340721  0.670782  0.499957  1
  Ba  Ba2  1  0.340721  0.670782  0.000043  1
  Ba  Ba3  1  0.659279  0.330060  0.000043  1
  Ba  Ba4  1  0.760395  0.752646  0.250000  1
  Ba  Ba5  1  0.239605  0.992251  0.250000  1
  Ba  Ba6  1  0.000000  0.226543  0.250000  1
  Ba  Ba7  1  0.244192  0.249562  0.750000  1
  Ba  Ba8  1  0.755808  0.005369  0.750000  1
  Tb  Tb9  1  0.000000  0.791547  0.750000  1
  Bi  Bi10  1  0.399475  0.396916  0.250000  1
  Bi  Bi11  1  0.600525  0.997441  0.250000  1
  Bi  Bi12  1  0.000000  0.577501  0.250000  1
  Bi  Bi13  1  0.624446  0.609704  0.750000  1
  Bi  Bi14  1  0.375554  0.985258  0.750000  1
  Bi  Bi15  1  0.000000  0.442999  0.750000  1
  S  S16  1  0.000000  0.985290  0.515790  1
  S  S17  1  0.000000  0.985290  0.984210  1
