# generated using pymatgen
data_La3Hg(Pt2O7)2
_symmetry_space_group_name_H-M   'P 1'
_cell_length_a   7.38801281
_cell_length_b   7.55799836
_cell_length_c   7.55799800
_cell_angle_alpha   60.00000158
_cell_angle_beta   59.23592947
_cell_angle_gamma   59.23593189
_symmetry_Int_Tables_number   1
_chemical_formula_structural   La3Hg(Pt2O7)2
_chemical_formula_sum   'La3 Hg1 Pt4 O14'
_cell_volume   294.92584556
_cell_formula_units_Z   1
loop_
 _symmetry_equiv_pos_site_id
 _symmetry_equiv_pos_as_xyz
  1  'x, y, z'
loop_
 _atom_site_type_symbol
 _atom_site_label
 _atom_site_symmetry_multiplicity
 _atom_site_fract_x
 _atom_site_fract_y
 _atom_site_fract_z
 _atom_site_occupancy
  La  La0  1  0.125000  0.125000  0.125000  1
  La  La1  1  0.125000  0.625000  0.125000  1
  La  La2  1  0.125000  0.125000  0.625000  1
  Hg  Hg3  1  0.625000  0.125000  0.125000  1
  Pt  Pt4  1  0.625000  0.625000  0.125000  1
  Pt  Pt5  1  0.625000  0.625000  0.625000  1
  Pt  Pt6  1  0.625000  0.125000  0.625000  1
  Pt  Pt7  1  0.125000  0.625000  0.625000  1
  O  O8  1  0.705469  0.299985  0.299985  1
  O  O9  1  0.705469  0.694561  0.299985  1
  O  O10  1  0.286827  0.710221  0.292732  1
  O  O11  1  0.985436  0.004855  0.004855  1
  O  O12  1  0.705469  0.299985  0.694561  1
  O  O13  1  0.963173  0.539779  0.539779  1
  O  O14  1  0.286827  0.710221  0.710221  1
  O  O15  1  0.544531  0.950015  0.555439  1
  O  O16  1  0.264564  0.245145  0.245145  1
  O  O17  1  0.963173  0.539779  0.957268  1
  O  O18  1  0.544531  0.555439  0.950015  1
  O  O19  1  0.963173  0.957268  0.539779  1
  O  O20  1  0.544531  0.950015  0.950015  1
  O  O21  1  0.286827  0.292732  0.710221  1
