# generated using pymatgen
data_AlGa2Pt4Rh
_symmetry_space_group_name_H-M   'P 1'
_cell_length_a   5.49155765
_cell_length_b   5.48004665
_cell_length_c   3.99653000
_cell_angle_alpha   90.00000000
_cell_angle_beta   90.00000000
_cell_angle_gamma   96.03244462
_symmetry_Int_Tables_number   1
_chemical_formula_structural   AlGa2Pt4Rh
_chemical_formula_sum   'Al1 Ga2 Pt4 Rh1'
_cell_volume   119.60554398
_cell_formula_units_Z   1
loop_
 _symmetry_equiv_pos_site_id
 _symmetry_equiv_pos_as_xyz
  1  'x, y, z'
loop_
 _atom_site_type_symbol
 _atom_site_label
 _atom_site_symmetry_multiplicity
 _atom_site_fract_x
 _atom_site_fract_y
 _atom_site_fract_z
 _atom_site_occupancy
  Al  Al0  1  0.714594  0.283062  0.500000  1
  Ga  Ga1  1  0.004391  0.007308  0.000000  1
  Ga  Ga2  1  0.283199  0.714123  0.500000  1
  Pt  Pt3  1  0.499685  0.496871  0.000000  1
  Pt  Pt4  1  0.996222  0.496718  0.000000  1
  Pt  Pt5  1  0.500587  0.000476  0.000000  1
  Pt  Pt6  1  0.790743  0.790946  0.500000  1
  Rh  Rh7  1  0.210579  0.210497  0.500000  1
