# generated using pymatgen
data_Ho12Fe4SnIr
_symmetry_space_group_name_H-M   'P 1'
_cell_length_a   8.27735169
_cell_length_b   8.27735079
_cell_length_c   8.27735007
_cell_angle_alpha   106.71359633
_cell_angle_beta   110.83175728
_cell_angle_gamma   110.90302382
_symmetry_Int_Tables_number   1
_chemical_formula_structural   Ho12Fe4SnIr
_chemical_formula_sum   'Ho12 Fe4 Sn1 Ir1'
_cell_volume   435.81421417
_cell_formula_units_Z   1
loop_
 _symmetry_equiv_pos_site_id
 _symmetry_equiv_pos_as_xyz
  1  'x, y, z'
loop_
 _atom_site_type_symbol
 _atom_site_label
 _atom_site_symmetry_multiplicity
 _atom_site_fract_x
 _atom_site_fract_y
 _atom_site_fract_z
 _atom_site_occupancy
  Ho  Ho0  1  0.469455  0.285059  0.184397  1
  Ho  Ho1  1  0.100662  0.285059  0.815603  1
  Ho  Ho2  1  0.899338  0.714941  0.184397  1
  Ho  Ho3  1  0.530545  0.714941  0.815603  1
  Ho  Ho4  1  0.302225  0.614801  0.312576  1
  Ho  Ho5  1  0.302225  0.989650  0.687424  1
  Ho  Ho6  1  0.697775  0.385199  0.687424  1
  Ho  Ho7  1  0.697775  0.010350  0.312576  1
  Ho  Ho8  1  0.195950  0.215824  0.411774  1
  Ho  Ho9  1  0.804050  0.784176  0.588226  1
  Ho  Ho10  1  0.195950  0.784176  0.980126  1
  Ho  Ho11  1  0.804050  0.215824  0.019874  1
  Fe  Fe12  1  0.500000  0.607879  0.107879  1
  Fe  Fe13  1  0.500000  0.392121  0.892121  1
  Fe  Fe14  1  0.384220  0.000000  0.384220  1
  Fe  Fe15  1  0.615780  0.000000  0.615780  1
  Sn  Sn16  1  0.000000  0.500000  0.500000  1
  Ir  Ir17  1  0.000000  0.000000  0.000000  1
