# generated using pymatgen
data_K2PaBr6
_symmetry_space_group_name_H-M   'P 1'
_cell_length_a   8.21943200
_cell_length_b   7.84414576
_cell_length_c   13.51712166
_cell_angle_alpha   54.87416680
_cell_angle_beta   90.00000000
_cell_angle_gamma   90.00000000
_symmetry_Int_Tables_number   1
_chemical_formula_structural   K2PaBr6
_chemical_formula_sum   'K4 Pa2 Br12'
_cell_volume   712.79851173
_cell_formula_units_Z   2
loop_
 _symmetry_equiv_pos_site_id
 _symmetry_equiv_pos_as_xyz
  1  'x, y, z'
loop_
 _atom_site_type_symbol
 _atom_site_label
 _atom_site_symmetry_multiplicity
 _atom_site_fract_x
 _atom_site_fract_y
 _atom_site_fract_z
 _atom_site_occupancy
  K  K0  1  0.072885  0.267166  0.248774  1
  K  K1  1  0.572885  0.732834  0.251226  1
  K  K2  1  0.927115  0.732834  0.751226  1
  K  K3  1  0.427115  0.267166  0.748774  1
  Pa  Pa4  1  0.500000  0.000000  0.500000  1
  Pa  Pa5  1  0.000000  0.000000  0.000000  1
  Br  Br6  1  0.515815  0.834840  0.747295  1
  Br  Br7  1  0.484185  0.165160  0.252705  1
  Br  Br8  1  0.811915  0.661810  0.044818  1
  Br  Br9  1  0.984185  0.834840  0.247295  1
  Br  Br10  1  0.188085  0.338190  0.955182  1
  Br  Br11  1  0.688085  0.661810  0.544818  1
  Br  Br12  1  0.288233  0.773842  0.039996  1
  Br  Br13  1  0.788233  0.226158  0.460004  1
  Br  Br14  1  0.711767  0.226158  0.960004  1
  Br  Br15  1  0.211767  0.773842  0.539996  1
  Br  Br16  1  0.311915  0.338190  0.455182  1
  Br  Br17  1  0.015815  0.165160  0.752705  1
