# generated using pymatgen
data_Ca6ZnSi3Pd4
_symmetry_space_group_name_H-M   'P 1'
_cell_length_a   5.71398700
_cell_length_b   8.03836500
_cell_length_c   13.47465200
_cell_angle_alpha   90.00000000
_cell_angle_beta   90.00000000
_cell_angle_gamma   90.00000000
_symmetry_Int_Tables_number   1
_chemical_formula_structural   Ca6ZnSi3Pd4
_chemical_formula_sum   'Ca12 Zn2 Si6 Pd8'
_cell_volume   618.90576515
_cell_formula_units_Z   2
loop_
 _symmetry_equiv_pos_site_id
 _symmetry_equiv_pos_as_xyz
  1  'x, y, z'
loop_
 _atom_site_type_symbol
 _atom_site_label
 _atom_site_symmetry_multiplicity
 _atom_site_fract_x
 _atom_site_fract_y
 _atom_site_fract_z
 _atom_site_occupancy
  Ca  Ca0  1  0.133923  0.615217  0.104093  1
  Ca  Ca1  1  0.133923  0.884783  0.895907  1
  Ca  Ca2  1  0.866077  0.115217  0.395907  1
  Ca  Ca3  1  0.866077  0.384783  0.604093  1
  Ca  Ca4  1  0.861159  0.393340  0.895029  1
  Ca  Ca5  1  0.861159  0.106660  0.104971  1
  Ca  Ca6  1  0.138841  0.893340  0.604971  1
  Ca  Ca7  1  0.138841  0.606660  0.395029  1
  Ca  Ca8  1  0.350037  0.256540  0.249751  1
  Ca  Ca9  1  0.350037  0.243460  0.750249  1
  Ca  Ca10  1  0.649963  0.756540  0.250249  1
  Ca  Ca11  1  0.649963  0.743460  0.749751  1
  Zn  Zn12  1  0.371553  0.250000  0.000000  1
  Zn  Zn13  1  0.628447  0.750000  0.500000  1
  Si  Si14  1  0.626162  0.750000  0.000000  1
  Si  Si15  1  0.373838  0.250000  0.500000  1
  Si  Si16  1  0.839545  0.405870  0.247617  1
  Si  Si17  1  0.839545  0.094130  0.752383  1
  Si  Si18  1  0.160455  0.905870  0.252383  1
  Si  Si19  1  0.160455  0.594130  0.747617  1
  Pd  Pd20  1  0.633284  0.478545  0.091242  1
  Pd  Pd21  1  0.633284  0.021455  0.908758  1
  Pd  Pd22  1  0.366716  0.978545  0.408758  1
  Pd  Pd23  1  0.366716  0.521455  0.591242  1
  Pd  Pd24  1  0.377058  0.541626  0.906993  1
  Pd  Pd25  1  0.377058  0.958374  0.093007  1
  Pd  Pd26  1  0.622942  0.041626  0.593007  1
  Pd  Pd27  1  0.622942  0.458374  0.406993  1
