# generated using pymatgen
data_Pr2B2IrRh4
_symmetry_space_group_name_H-M   'P 1'
_cell_length_a   11.15113383
_cell_length_b   11.15334064
_cell_length_c   11.15113513
_cell_angle_alpha   28.82654028
_cell_angle_beta   28.79991246
_cell_angle_gamma   28.82654444
_symmetry_Int_Tables_number   1
_chemical_formula_structural   Pr2B2IrRh4
_chemical_formula_sum   'Pr4 B4 Ir2 Rh8'
_cell_volume   284.94404464
_cell_formula_units_Z   2
loop_
 _symmetry_equiv_pos_site_id
 _symmetry_equiv_pos_as_xyz
  1  'x, y, z'
loop_
 _atom_site_type_symbol
 _atom_site_label
 _atom_site_symmetry_multiplicity
 _atom_site_fract_x
 _atom_site_fract_y
 _atom_site_fract_z
 _atom_site_occupancy
  Pr  Pr0  1  0.150365  0.152415  0.153011  1
  Pr  Pr1  1  0.949986  0.949952  0.950117  1
  Pr  Pr2  1  0.846989  0.847585  0.849635  1
  Pr  Pr3  1  0.049883  0.050048  0.050014  1
  B  B4  1  0.616525  0.617317  0.619975  1
  B  B5  1  0.719305  0.715260  0.715356  1
  B  B6  1  0.380025  0.382683  0.383475  1
  B  B7  1  0.284644  0.284740  0.280695  1
  Ir  Ir8  1  0.101062  0.590623  0.590630  1
  Ir  Ir9  1  0.409370  0.409377  0.898938  1
  Rh  Rh10  1  0.408935  0.901169  0.407906  1
  Rh  Rh11  1  0.901006  0.408984  0.407948  1
  Rh  Rh12  1  0.500686  0.500329  0.000027  1
  Rh  Rh13  1  0.500327  0.000000  0.499673  1
  Rh  Rh14  1  0.999973  0.499671  0.499314  1
  Rh  Rh15  1  0.496774  0.500000  0.503226  1
  Rh  Rh16  1  0.592094  0.098831  0.591065  1
  Rh  Rh17  1  0.592052  0.591016  0.098994  1
