# generated using pymatgen
data_Re(OsCl6)5
_symmetry_space_group_name_H-M   'P 1'
_cell_length_a   13.17096843
_cell_length_b   13.22337806
_cell_length_c   6.68405606
_cell_angle_alpha   86.43502493
_cell_angle_beta   86.43941507
_cell_angle_gamma   87.47681438
_symmetry_Int_Tables_number   1
_chemical_formula_structural   Re(OsCl6)5
_chemical_formula_sum   'Re1 Os5 Cl30'
_cell_volume   1158.68824957
_cell_formula_units_Z   1
loop_
 _symmetry_equiv_pos_site_id
 _symmetry_equiv_pos_as_xyz
  1  'x, y, z'
loop_
 _atom_site_type_symbol
 _atom_site_label
 _atom_site_symmetry_multiplicity
 _atom_site_fract_x
 _atom_site_fract_y
 _atom_site_fract_z
 _atom_site_occupancy
  Re  Re0  1  0.562527  0.770712  0.432382  1
  Os  Os1  1  0.897225  0.101970  0.000030  1
  Os  Os2  1  0.102381  0.897656  0.000296  1
  Os  Os3  1  0.768850  0.565580  0.433286  1
  Os  Os4  1  0.231198  0.435671  0.566974  1
  Os  Os5  1  0.435385  0.230863  0.566859  1
  Cl  Cl6  1  0.508013  0.312698  0.810441  1
  Cl  Cl7  1  0.268152  0.269265  0.736721  1
  Cl  Cl8  1  0.168663  0.973807  0.707326  1
  Cl  Cl9  1  0.601185  0.600717  0.604245  1
  Cl  Cl10  1  0.219100  0.584945  0.387110  1
  Cl  Cl11  1  0.733541  0.732244  0.262410  1
  Cl  Cl12  1  0.158344  0.353761  0.323759  1
  Cl  Cl13  1  0.067765  0.067680  0.125781  1
  Cl  Cl14  1  0.651264  0.834200  0.674743  1
  Cl  Cl15  1  0.585124  0.217118  0.387496  1
  Cl  Cl16  1  0.111924  0.744791  0.868171  1
  Cl  Cl17  1  0.026107  0.831635  0.293235  1
  Cl  Cl18  1  0.919147  0.552613  0.254849  1
  Cl  Cl19  1  0.830692  0.026012  0.293128  1
  Cl  Cl20  1  0.411331  0.785827  0.608640  1
  Cl  Cl21  1  0.782139  0.415878  0.611049  1
  Cl  Cl22  1  0.546939  0.920783  0.255344  1
  Cl  Cl23  1  0.973834  0.167935  0.707383  1
  Cl  Cl24  1  0.840077  0.647880  0.677807  1
  Cl  Cl25  1  0.887799  0.254987  0.132202  1
  Cl  Cl26  1  0.500109  0.682100  0.188934  1
  Cl  Cl27  1  0.352198  0.158878  0.324282  1
  Cl  Cl28  1  0.081353  0.449097  0.746900  1
  Cl  Cl29  1  0.743756  0.111025  0.867597  1
  Cl  Cl30  1  0.447353  0.081568  0.747435  1
  Cl  Cl31  1  0.398301  0.397183  0.397143  1
  Cl  Cl32  1  0.314096  0.507623  0.810078  1
  Cl  Cl33  1  0.256019  0.888927  0.132558  1
  Cl  Cl34  1  0.931771  0.931934  0.875076  1
  Cl  Cl35  1  0.686334  0.494435  0.188333  1
