# generated using pymatgen
data_Ba3GaHO4
_symmetry_space_group_name_H-M   'P 1'
_cell_length_a   7.39497800
_cell_length_b   8.33861300
_cell_length_c   10.69146200
_cell_angle_alpha   90.00000000
_cell_angle_beta   90.00000000
_cell_angle_gamma   90.00000000
_symmetry_Int_Tables_number   1
_chemical_formula_structural   Ba3GaHO4
_chemical_formula_sum   'Ba12 Ga4 H4 O16'
_cell_volume   659.27681260
_cell_formula_units_Z   4
loop_
 _symmetry_equiv_pos_site_id
 _symmetry_equiv_pos_as_xyz
  1  'x, y, z'
loop_
 _atom_site_type_symbol
 _atom_site_label
 _atom_site_symmetry_multiplicity
 _atom_site_fract_x
 _atom_site_fract_y
 _atom_site_fract_z
 _atom_site_occupancy
  Ba  Ba0  1  0.399549  0.025011  0.834978  1
  Ba  Ba1  1  0.100451  0.474989  0.334978  1
  Ba  Ba2  1  0.600451  0.525011  0.165022  1
  Ba  Ba3  1  0.899549  0.974989  0.665022  1
  Ba  Ba4  1  0.600451  0.974989  0.165022  1
  Ba  Ba5  1  0.899549  0.525011  0.665022  1
  Ba  Ba6  1  0.399549  0.474989  0.834978  1
  Ba  Ba7  1  0.100451  0.025011  0.334978  1
  Ba  Ba8  1  0.902553  0.250000  0.964809  1
  Ba  Ba9  1  0.597447  0.250000  0.464809  1
  Ba  Ba10  1  0.097447  0.750000  0.035191  1
  Ba  Ba11  1  0.402553  0.750000  0.535191  1
  Ga  Ga12  1  0.192022  0.250000  0.603192  1
  Ga  Ga13  1  0.307978  0.250000  0.103192  1
  Ga  Ga14  1  0.807978  0.750000  0.396808  1
  Ga  Ga15  1  0.692022  0.750000  0.896808  1
  H  H16  1  0.660208  0.250000  0.729801  1
  H  H17  1  0.839792  0.250000  0.229801  1
  H  H18  1  0.339792  0.750000  0.270199  1
  H  H19  1  0.160208  0.750000  0.770199  1
  O  O20  1  0.308954  0.056821  0.572277  1
  O  O21  1  0.191046  0.443179  0.072277  1
  O  O22  1  0.691046  0.556821  0.427723  1
  O  O23  1  0.808954  0.943179  0.927723  1
  O  O24  1  0.691046  0.943179  0.427723  1
  O  O25  1  0.808954  0.556821  0.927723  1
  O  O26  1  0.308954  0.443179  0.572277  1
  O  O27  1  0.191046  0.056821  0.072277  1
  O  O28  1  0.976042  0.250000  0.508367  1
  O  O29  1  0.523958  0.250000  0.008367  1
  O  O30  1  0.023958  0.750000  0.491633  1
  O  O31  1  0.476042  0.750000  0.991633  1
  O  O32  1  0.129075  0.250000  0.774615  1
  O  O33  1  0.370925  0.250000  0.274615  1
  O  O34  1  0.870925  0.750000  0.225385  1
  O  O35  1  0.629075  0.750000  0.725385  1
