# generated using pymatgen
data_Sr6PaWO12
_symmetry_space_group_name_H-M   'P 1'
_cell_length_a   7.05168032
_cell_length_b   7.05168037
_cell_length_c   7.05168041
_cell_angle_alpha   92.49720648
_cell_angle_beta   92.49721353
_cell_angle_gamma   92.49721448
_symmetry_Int_Tables_number   1
_chemical_formula_structural   Sr6PaWO12
_chemical_formula_sum   'Sr6 Pa1 W1 O12'
_cell_volume   349.62419915
_cell_formula_units_Z   1
loop_
 _symmetry_equiv_pos_site_id
 _symmetry_equiv_pos_as_xyz
  1  'x, y, z'
loop_
 _atom_site_type_symbol
 _atom_site_label
 _atom_site_symmetry_multiplicity
 _atom_site_fract_x
 _atom_site_fract_y
 _atom_site_fract_z
 _atom_site_occupancy
  Sr  Sr0  1  0.066892  0.261098  0.562513  1
  Sr  Sr1  1  0.437487  0.933108  0.738902  1
  Sr  Sr2  1  0.738902  0.437487  0.933108  1
  Sr  Sr3  1  0.261098  0.562513  0.066892  1
  Sr  Sr4  1  0.562513  0.066892  0.261098  1
  Sr  Sr5  1  0.933108  0.738902  0.437487  1
  Pa  Pa6  1  0.000000  0.000000  0.000000  1
  W  W7  1  0.500000  0.500000  0.500000  1
  O  O8  1  0.061459  0.291716  0.927954  1
  O  O9  1  0.072046  0.938541  0.708284  1
  O  O10  1  0.455638  0.574495  0.767209  1
  O  O11  1  0.708284  0.072046  0.938541  1
  O  O12  1  0.232791  0.544362  0.425505  1
  O  O13  1  0.425505  0.232791  0.544362  1
  O  O14  1  0.574495  0.767209  0.455638  1
  O  O15  1  0.767209  0.455638  0.574495  1
  O  O16  1  0.291716  0.927954  0.061459  1
  O  O17  1  0.544362  0.425505  0.232791  1
  O  O18  1  0.927954  0.061459  0.291716  1
  O  O19  1  0.938541  0.708284  0.072046  1
