# generated using pymatgen
data_Sr2TaH9
_symmetry_space_group_name_H-M   'P 1'
_cell_length_a   9.15759100
_cell_length_b   9.15759000
_cell_length_c   5.23533500
_cell_angle_alpha   90.00000000
_cell_angle_beta   90.00000000
_cell_angle_gamma   120.00000722
_symmetry_Int_Tables_number   1
_chemical_formula_structural   Sr2TaH9
_chemical_formula_sum   'Sr6 Ta3 H27'
_cell_volume   380.22223931
_cell_formula_units_Z   3
loop_
 _symmetry_equiv_pos_site_id
 _symmetry_equiv_pos_as_xyz
  1  'x, y, z'
loop_
 _atom_site_type_symbol
 _atom_site_label
 _atom_site_symmetry_multiplicity
 _atom_site_fract_x
 _atom_site_fract_y
 _atom_site_fract_z
 _atom_site_occupancy
  Sr  Sr0  1  0.000000  0.266274  0.500000  1
  Sr  Sr1  1  0.733726  0.733726  0.500000  1
  Sr  Sr2  1  0.266274  0.000000  0.500000  1
  Sr  Sr3  1  0.000000  0.600272  0.000000  1
  Sr  Sr4  1  0.399728  0.399728  0.000000  1
  Sr  Sr5  1  0.600272  0.000000  0.000000  1
  Ta  Ta6  1  0.666667  0.333333  0.500000  1
  Ta  Ta7  1  0.333333  0.666667  0.500000  1
  Ta  Ta8  1  0.000000  0.000000  0.000000  1
  H  H9  1  0.809728  0.332054  0.757584  1
  H  H10  1  0.667946  0.477673  0.757584  1
  H  H11  1  0.522327  0.190272  0.757584  1
  H  H12  1  0.190272  0.522327  0.242416  1
  H  H13  1  0.522327  0.190272  0.242416  1
  H  H14  1  0.809728  0.332054  0.242416  1
  H  H15  1  0.667946  0.477673  0.242416  1
  H  H16  1  0.332054  0.809728  0.757584  1
  H  H17  1  0.477673  0.667946  0.757584  1
  H  H18  1  0.203043  0.000000  0.000000  1
  H  H19  1  0.796957  0.796957  0.000000  1
  H  H20  1  0.000000  0.203043  0.000000  1
  H  H21  1  0.853989  0.000000  0.248792  1
  H  H22  1  0.146011  0.146011  0.751208  1
  H  H23  1  0.000000  0.853989  0.751208  1
  H  H24  1  0.000000  0.853989  0.248792  1
  H  H25  1  0.146011  0.146011  0.248792  1
  H  H26  1  0.853989  0.000000  0.751208  1
  H  H27  1  0.136214  0.673424  0.500000  1
  H  H28  1  0.537210  0.863786  0.500000  1
  H  H29  1  0.326576  0.462790  0.500000  1
  H  H30  1  0.462790  0.326576  0.500000  1
  H  H31  1  0.863786  0.537210  0.500000  1
  H  H32  1  0.673424  0.136214  0.500000  1
  H  H33  1  0.190272  0.522327  0.757584  1
  H  H34  1  0.332054  0.809728  0.242416  1
  H  H35  1  0.477673  0.667946  0.242416  1
