# generated using pymatgen
data_Er2AlB2Ir3Ru2
_symmetry_space_group_name_H-M   'P 1'
_cell_length_a   9.62287101
_cell_length_b   9.61741001
_cell_length_c   3.07251000
_cell_angle_alpha   90.00000000
_cell_angle_beta   90.00000000
_cell_angle_gamma   89.99560461
_symmetry_Int_Tables_number   1
_chemical_formula_structural   Er2AlB2Ir3Ru2
_chemical_formula_sum   'Er4 Al2 B4 Ir6 Ru4'
_cell_volume   284.35187685
_cell_formula_units_Z   2
loop_
 _symmetry_equiv_pos_site_id
 _symmetry_equiv_pos_as_xyz
  1  'x, y, z'
loop_
 _atom_site_type_symbol
 _atom_site_label
 _atom_site_symmetry_multiplicity
 _atom_site_fract_x
 _atom_site_fract_y
 _atom_site_fract_z
 _atom_site_occupancy
  Er  Er0  1  0.176271  0.676813  0.000000  1
  Er  Er1  1  0.321845  0.173638  0.000000  1
  Er  Er2  1  0.673581  0.825109  0.000000  1
  Er  Er3  1  0.828613  0.324912  0.000000  1
  Al  Al4  1  0.001533  0.000907  0.000000  1
  Al  Al5  1  0.499092  0.499818  0.000000  1
  B  B6  1  0.120651  0.375854  0.000000  1
  B  B7  1  0.375778  0.879218  0.000000  1
  B  B8  1  0.620458  0.120805  0.000000  1
  B  B9  1  0.878682  0.620888  0.000000  1
  Ir  Ir10  1  0.282618  0.431039  0.500000  1
  Ir  Ir11  1  0.431827  0.716723  0.500000  1
  Ir  Ir12  1  0.570243  0.282684  0.500000  1
  Ir  Ir13  1  0.717085  0.568674  0.500000  1
  Ir  Ir14  1  0.783889  0.068771  0.500000  1
  Ir  Ir15  1  0.930250  0.783985  0.500000  1
  Ru  Ru16  1  0.001270  0.502418  0.500000  1
  Ru  Ru17  1  0.069470  0.217199  0.500000  1
  Ru  Ru18  1  0.217186  0.930068  0.500000  1
  Ru  Ru19  1  0.499658  0.000476  0.500000  1
