# generated using pymatgen
data_Sc5ReWC7
_symmetry_space_group_name_H-M   'P 1'
_cell_length_a   7.93452861
_cell_length_b   7.93452712
_cell_length_c   3.22829600
_cell_angle_alpha   90.00000000
_cell_angle_beta   90.00000000
_cell_angle_gamma   120.51809155
_symmetry_Int_Tables_number   1
_chemical_formula_structural   Sc5ReWC7
_chemical_formula_sum   'Sc5 Re1 W1 C7'
_cell_volume   175.08748724
_cell_formula_units_Z   1
loop_
 _symmetry_equiv_pos_site_id
 _symmetry_equiv_pos_as_xyz
  1  'x, y, z'
loop_
 _atom_site_type_symbol
 _atom_site_label
 _atom_site_symmetry_multiplicity
 _atom_site_fract_x
 _atom_site_fract_y
 _atom_site_fract_z
 _atom_site_occupancy
  Sc  Sc0  1  0.498728  0.501272  0.000000  1
  Sc  Sc1  1  0.083709  0.339523  0.500000  1
  Sc  Sc2  1  0.919443  0.663305  0.500000  1
  Sc  Sc3  1  0.660477  0.916291  0.500000  1
  Sc  Sc4  1  0.336695  0.080557  0.500000  1
  Re  Re5  1  0.286202  0.713798  0.000000  1
  W  W6  1  0.714266  0.285734  0.000000  1
  C  C7  1  0.617452  0.382548  0.500000  1
  C  C8  1  0.381045  0.618955  0.500000  1
  C  C9  1  0.999887  0.000113  0.000000  1
  C  C10  1  0.172103  0.171205  0.000000  1
  C  C11  1  0.828795  0.827897  0.000000  1
  C  C12  1  0.001576  0.500381  0.000000  1
  C  C13  1  0.499619  0.998424  0.000000  1
