# generated using pymatgen
data_Ho8Ti10ReSi16Ir
_symmetry_space_group_name_H-M   'P 1'
_cell_length_a   6.99354763
_cell_length_b   6.99354689
_cell_length_c   12.79730482
_cell_angle_alpha   90.13292290
_cell_angle_beta   89.86707988
_cell_angle_gamma   89.78349977
_symmetry_Int_Tables_number   1
_chemical_formula_structural   Ho8Ti10ReSi16Ir
_chemical_formula_sum   'Ho8 Ti10 Re1 Si16 Ir1'
_cell_volume   625.90453215
_cell_formula_units_Z   1
loop_
 _symmetry_equiv_pos_site_id
 _symmetry_equiv_pos_as_xyz
  1  'x, y, z'
loop_
 _atom_site_type_symbol
 _atom_site_label
 _atom_site_symmetry_multiplicity
 _atom_site_fract_x
 _atom_site_fract_y
 _atom_site_fract_z
 _atom_site_occupancy
  Ho  Ho0  1  0.341702  0.001809  0.468522  1
  Ho  Ho1  1  0.498033  0.840253  0.716903  1
  Ho  Ho2  1  0.502221  0.158929  0.216633  1
  Ho  Ho3  1  0.840253  0.498033  0.283097  1
  Ho  Ho4  1  0.158929  0.502221  0.783367  1
  Ho  Ho5  1  0.658175  0.997582  0.969026  1
  Ho  Ho6  1  0.001809  0.341702  0.531478  1
  Ho  Ho7  1  0.997582  0.658175  0.030974  1
  Ti  Ti8  1  0.174245  0.826494  0.249020  1
  Ti  Ti9  1  0.826494  0.174245  0.750980  1
  Ti  Ti10  1  0.149296  0.001419  0.875202  1
  Ti  Ti11  1  0.493765  0.655460  0.126456  1
  Ti  Ti12  1  0.507706  0.350074  0.627578  1
  Ti  Ti13  1  0.655460  0.493765  0.873544  1
  Ti  Ti14  1  0.350074  0.507706  0.372422  1
  Ti  Ti15  1  0.847991  0.994062  0.375486  1
  Ti  Ti16  1  0.001419  0.149296  0.124798  1
  Ti  Ti17  1  0.994062  0.847991  0.624514  1
  Re  Re18  1  0.673395  0.673395  0.500000  1
  Si  Si19  1  0.202398  0.133295  0.684586  1
  Si  Si20  1  0.371558  0.700671  0.934386  1
  Si  Si21  1  0.629798  0.299712  0.434855  1
  Si  Si22  1  0.700671  0.371558  0.065614  1
  Si  Si23  1  0.299712  0.629798  0.565145  1
  Si  Si24  1  0.796939  0.867298  0.184178  1
  Si  Si25  1  0.133295  0.202398  0.315414  1
  Si  Si26  1  0.867298  0.796939  0.815822  1
  Si  Si27  1  0.286986  0.951635  0.063937  1
  Si  Si28  1  0.549375  0.792780  0.317656  1
  Si  Si29  1  0.448903  0.208412  0.818673  1
  Si  Si30  1  0.792780  0.549375  0.682344  1
  Si  Si31  1  0.208412  0.448903  0.181327  1
  Si  Si32  1  0.710205  0.046696  0.565386  1
  Si  Si33  1  0.951635  0.286986  0.936063  1
  Si  Si34  1  0.046696  0.710205  0.434614  1
  Ir  Ir35  1  0.330726  0.330726  0.000000  1
