# generated using pymatgen
data_Sm2In(SnPd2)3
_symmetry_space_group_name_H-M   'P 1'
_cell_length_a   4.78201100
_cell_length_b   10.28333200
_cell_length_c   9.82094500
_cell_angle_alpha   90.00000000
_cell_angle_beta   90.00000000
_cell_angle_gamma   90.00000000
_symmetry_Int_Tables_number   1
_chemical_formula_structural   Sm2In(SnPd2)3
_chemical_formula_sum   'Sm4 In2 Sn6 Pd12'
_cell_volume   482.94503657
_cell_formula_units_Z   2
loop_
 _symmetry_equiv_pos_site_id
 _symmetry_equiv_pos_as_xyz
  1  'x, y, z'
loop_
 _atom_site_type_symbol
 _atom_site_label
 _atom_site_symmetry_multiplicity
 _atom_site_fract_x
 _atom_site_fract_y
 _atom_site_fract_z
 _atom_site_occupancy
  Sm  Sm0  1  0.250000  0.433917  0.736804  1
  Sm  Sm1  1  0.250000  0.066083  0.236804  1
  Sm  Sm2  1  0.750000  0.566980  0.264710  1
  Sm  Sm3  1  0.750000  0.933020  0.764710  1
  In  In4  1  0.750000  0.848231  0.112244  1
  In  In5  1  0.750000  0.651769  0.612244  1
  Sn  Sn6  1  0.250000  0.872614  0.522255  1
  Sn  Sn7  1  0.250000  0.627386  0.022255  1
  Sn  Sn8  1  0.750000  0.124334  0.478642  1
  Sn  Sn9  1  0.750000  0.375666  0.978642  1
  Sn  Sn10  1  0.250000  0.152226  0.888104  1
  Sn  Sn11  1  0.250000  0.347774  0.388104  1
  Pd  Pd12  1  0.250000  0.139642  0.603526  1
  Pd  Pd13  1  0.250000  0.360358  0.103526  1
  Pd  Pd14  1  0.750000  0.861916  0.396250  1
  Pd  Pd15  1  0.750000  0.638084  0.896250  1
  Pd  Pd16  1  0.250000  0.728643  0.752144  1
  Pd  Pd17  1  0.250000  0.771357  0.252144  1
  Pd  Pd18  1  0.750000  0.269679  0.247276  1
  Pd  Pd19  1  0.750000  0.230321  0.747276  1
  Pd  Pd20  1  0.250000  0.906018  0.979887  1
  Pd  Pd21  1  0.250000  0.593982  0.479887  1
  Pd  Pd22  1  0.750000  0.097016  0.018157  1
  Pd  Pd23  1  0.750000  0.402984  0.518157  1
