# generated using pymatgen
data_Zr8Nb3Si16Mo9
_symmetry_space_group_name_H-M   'P 1'
_cell_length_a   6.79016552
_cell_length_b   6.79016552
_cell_length_c   12.56710674
_cell_angle_alpha   89.97208746
_cell_angle_beta   90.02791254
_cell_angle_gamma   89.87086745
_symmetry_Int_Tables_number   1
_chemical_formula_structural   Zr8Nb3Si16Mo9
_chemical_formula_sum   'Zr8 Nb3 Si16 Mo9'
_cell_volume   579.42178378
_cell_formula_units_Z   1
loop_
 _symmetry_equiv_pos_site_id
 _symmetry_equiv_pos_as_xyz
  1  'x, y, z'
loop_
 _atom_site_type_symbol
 _atom_site_label
 _atom_site_symmetry_multiplicity
 _atom_site_fract_x
 _atom_site_fract_y
 _atom_site_fract_z
 _atom_site_occupancy
  Zr  Zr0  1  0.005523  0.661383  0.031935  1
  Zr  Zr1  1  0.993530  0.338975  0.531877  1
  Zr  Zr2  1  0.661383  0.005523  0.968065  1
  Zr  Zr3  1  0.161714  0.495207  0.780822  1
  Zr  Zr4  1  0.837501  0.506443  0.282310  1
  Zr  Zr5  1  0.495207  0.161714  0.219178  1
  Zr  Zr6  1  0.506443  0.837501  0.717690  1
  Zr  Zr7  1  0.338975  0.993530  0.468123  1
  Nb  Nb8  1  0.833188  0.167434  0.748822  1
  Nb  Nb9  1  0.167434  0.833188  0.251178  1
  Nb  Nb10  1  0.333029  0.333029  0.000000  1
  Si  Si11  1  0.033909  0.712545  0.439677  1
  Si  Si12  1  0.960712  0.291053  0.936876  1
  Si  Si13  1  0.712545  0.033909  0.560323  1
  Si  Si14  1  0.208034  0.460490  0.187673  1
  Si  Si15  1  0.789220  0.541502  0.684085  1
  Si  Si16  1  0.460490  0.208034  0.812327  1
  Si  Si17  1  0.541502  0.789220  0.315915  1
  Si  Si18  1  0.291053  0.960712  0.063124  1
  Si  Si19  1  0.873553  0.791287  0.822991  1
  Si  Si20  1  0.127112  0.207738  0.323231  1
  Si  Si21  1  0.791287  0.873553  0.177009  1
  Si  Si22  1  0.296804  0.625077  0.571904  1
  Si  Si23  1  0.707608  0.372972  0.072921  1
  Si  Si24  1  0.625077  0.296804  0.428096  1
  Si  Si25  1  0.372972  0.707608  0.927079  1
  Si  Si26  1  0.207738  0.127112  0.676769  1
  Mo  Mo27  1  0.331267  0.497962  0.379353  1
  Mo  Mo28  1  0.834897  0.007157  0.368698  1
  Mo  Mo29  1  0.997879  0.164401  0.129149  1
  Mo  Mo30  1  0.007157  0.834897  0.631302  1
  Mo  Mo31  1  0.663252  0.501291  0.877524  1
  Mo  Mo32  1  0.497962  0.331267  0.620647  1
  Mo  Mo33  1  0.501291  0.663252  0.122476  1
  Mo  Mo34  1  0.164401  0.997879  0.870851  1
  Mo  Mo35  1  0.668349  0.668349  0.500000  1
