# generated using pymatgen
data_Hg5PdF18
_symmetry_space_group_name_H-M   'P 1'
_cell_length_a   8.39134104
_cell_length_b   8.31141906
_cell_length_c   8.49284858
_cell_angle_alpha   89.55224822
_cell_angle_beta   90.49162357
_cell_angle_gamma   120.42071913
_symmetry_Int_Tables_number   1
_chemical_formula_structural   Hg5PdF18
_chemical_formula_sum   'Hg5 Pd1 F18'
_cell_volume   510.75689478
_cell_formula_units_Z   1
loop_
 _symmetry_equiv_pos_site_id
 _symmetry_equiv_pos_as_xyz
  1  'x, y, z'
loop_
 _atom_site_type_symbol
 _atom_site_label
 _atom_site_symmetry_multiplicity
 _atom_site_fract_x
 _atom_site_fract_y
 _atom_site_fract_z
 _atom_site_occupancy
  Hg  Hg0  1  0.000000  0.500000  0.500000  1
  Hg  Hg1  1  0.000000  0.500000  0.000000  1
  Hg  Hg2  1  0.500000  0.000000  0.500000  1
  Hg  Hg3  1  0.500000  0.000000  0.000000  1
  Hg  Hg4  1  0.500000  0.500000  0.500000  1
  Pd  Pd5  1  0.500000  0.500000  0.000000  1
  F  F6  1  0.751817  0.574600  0.058646  1
  F  F7  1  0.248183  0.425400  0.941354  1
  F  F8  1  0.223514  0.430142  0.527334  1
  F  F9  1  0.776486  0.569858  0.472666  1
  F  F10  1  0.582224  0.756597  0.942528  1
  F  F11  1  0.417776  0.243403  0.057472  1
  F  F12  1  0.425425  0.218204  0.468062  1
  F  F13  1  0.574575  0.781796  0.531938  1
  F  F14  1  0.784831  0.218645  0.543321  1
  F  F15  1  0.215169  0.781355  0.456679  1
  F  F16  1  0.217778  0.775369  0.044662  1
  F  F17  1  0.782222  0.224631  0.955338  1
  F  F18  1  0.988866  0.435293  0.236255  1
  F  F19  1  0.011134  0.564707  0.763745  1
  F  F20  1  0.433080  0.985602  0.764123  1
  F  F21  1  0.566920  0.014398  0.235877  1
  F  F22  1  0.544663  0.449444  0.787288  1
  F  F23  1  0.455337  0.550556  0.212712  1
