# generated using pymatgen
data_YSi4P2(Pd10Pb)2
_symmetry_space_group_name_H-M   'P 1'
_cell_length_a   8.71054812
_cell_length_b   8.72584188
_cell_length_c   8.72584210
_cell_angle_alpha   59.88408015
_cell_angle_beta   60.05797334
_cell_angle_gamma   60.05797073
_symmetry_Int_Tables_number   1
_chemical_formula_structural   YSi4P2(Pd10Pb)2
_chemical_formula_sum   'Y1 Si4 P2 Pd20 Pb2'
_cell_volume   468.96733182
_cell_formula_units_Z   1
loop_
 _symmetry_equiv_pos_site_id
 _symmetry_equiv_pos_as_xyz
  1  'x, y, z'
loop_
 _atom_site_type_symbol
 _atom_site_label
 _atom_site_symmetry_multiplicity
 _atom_site_fract_x
 _atom_site_fract_y
 _atom_site_fract_z
 _atom_site_occupancy
  Y  Y0  1  0.000000  0.000000  0.000000  1
  Si  Si1  1  0.268494  0.731506  0.268494  1
  Si  Si2  1  0.731506  0.268494  0.731506  1
  Si  Si3  1  0.268494  0.268494  0.731506  1
  Si  Si4  1  0.731506  0.731506  0.268494  1
  P  P5  1  0.732931  0.267069  0.267069  1
  P  P6  1  0.267069  0.732931  0.732931  1
  Pd  Pd7  1  0.344385  0.000000  0.000000  1
  Pd  Pd8  1  0.655615  0.000000  0.000000  1
  Pd  Pd9  1  0.000000  0.344385  0.655615  1
  Pd  Pd10  1  0.000000  0.655615  0.344385  1
  Pd  Pd11  1  0.999345  0.343148  0.000655  1
  Pd  Pd12  1  0.656852  0.000655  0.343148  1
  Pd  Pd13  1  0.000655  0.656852  0.999345  1
  Pd  Pd14  1  0.343148  0.999345  0.656852  1
  Pd  Pd15  1  0.999345  0.000655  0.343148  1
  Pd  Pd16  1  0.000655  0.999345  0.656852  1
  Pd  Pd17  1  0.656852  0.343148  0.000655  1
  Pd  Pd18  1  0.343148  0.656852  0.999345  1
  Pd  Pd19  1  0.385443  0.383245  0.383245  1
  Pd  Pd20  1  0.614557  0.616755  0.616755  1
  Pd  Pd21  1  0.383245  0.385443  0.848067  1
  Pd  Pd22  1  0.383245  0.848067  0.385443  1
  Pd  Pd23  1  0.616755  0.614557  0.151933  1
  Pd  Pd24  1  0.616755  0.151933  0.614557  1
  Pd  Pd25  1  0.848067  0.383245  0.383245  1
  Pd  Pd26  1  0.151933  0.616755  0.616755  1
  Pb  Pb27  1  0.250000  0.250000  0.250000  1
  Pb  Pb28  1  0.750000  0.750000  0.750000  1
