# generated using pymatgen
data_Er8Tl3Pd
_symmetry_space_group_name_H-M   'P 1'
_cell_length_a   10.46208800
_cell_length_b   10.46208888
_cell_length_c   6.87300500
_cell_angle_alpha   90.00000000
_cell_angle_beta   90.00000000
_cell_angle_gamma   119.99999722
_symmetry_Int_Tables_number   1
_chemical_formula_structural   Er8Tl3Pd
_chemical_formula_sum   'Er16 Tl6 Pd2'
_cell_volume   651.49948630
_cell_formula_units_Z   2
loop_
 _symmetry_equiv_pos_site_id
 _symmetry_equiv_pos_as_xyz
  1  'x, y, z'
loop_
 _atom_site_type_symbol
 _atom_site_label
 _atom_site_symmetry_multiplicity
 _atom_site_fract_x
 _atom_site_fract_y
 _atom_site_fract_z
 _atom_site_occupancy
  Er  Er0  1  0.529059  0.058116  0.797322  1
  Er  Er1  1  0.941884  0.470941  0.797322  1
  Er  Er2  1  0.529059  0.470941  0.797322  1
  Er  Er3  1  0.470941  0.941884  0.297322  1
  Er  Er4  1  0.058116  0.529059  0.297322  1
  Er  Er5  1  0.470941  0.529059  0.297322  1
  Er  Er6  1  0.825198  0.650396  0.502522  1
  Er  Er7  1  0.349604  0.174802  0.502522  1
  Er  Er8  1  0.825198  0.174802  0.502522  1
  Er  Er9  1  0.174802  0.349604  0.002522  1
  Er  Er10  1  0.650396  0.825198  0.002522  1
  Er  Er11  1  0.174802  0.825198  0.002522  1
  Er  Er12  1  0.666667  0.333333  0.166689  1
  Er  Er13  1  0.333333  0.666667  0.666689  1
  Er  Er14  1  0.000000  0.000000  0.774901  1
  Er  Er15  1  0.000000  0.000000  0.274901  1
  Tl  Tl16  1  0.837060  0.674122  0.036711  1
  Tl  Tl17  1  0.325878  0.162940  0.036711  1
  Tl  Tl18  1  0.837060  0.162940  0.036711  1
  Tl  Tl19  1  0.162940  0.325878  0.536711  1
  Tl  Tl20  1  0.674122  0.837060  0.536711  1
  Tl  Tl21  1  0.162940  0.837060  0.536711  1
  Pd  Pd22  1  0.666667  0.333333  0.566701  1
  Pd  Pd23  1  0.333333  0.666667  0.066701  1
