# generated using pymatgen
data_Ho12Co4SnRh
_symmetry_space_group_name_H-M   'P 1'
_cell_length_a   8.24474950
_cell_length_b   8.24475149
_cell_length_c   8.24474987
_cell_angle_alpha   110.86463816
_cell_angle_beta   110.76740208
_cell_angle_gamma   106.81387788
_symmetry_Int_Tables_number   1
_chemical_formula_structural   Ho12Co4SnRh
_chemical_formula_sum   'Ho12 Co4 Sn1 Rh1'
_cell_volume   430.73798489
_cell_formula_units_Z   1
loop_
 _symmetry_equiv_pos_site_id
 _symmetry_equiv_pos_as_xyz
  1  'x, y, z'
loop_
 _atom_site_type_symbol
 _atom_site_label
 _atom_site_symmetry_multiplicity
 _atom_site_fract_x
 _atom_site_fract_y
 _atom_site_fract_z
 _atom_site_occupancy
  Ho  Ho0  1  0.409196  0.214568  0.194628  1
  Ho  Ho1  1  0.590804  0.785432  0.805372  1
  Ho  Ho2  1  0.019940  0.214568  0.805372  1
  Ho  Ho3  1  0.980060  0.785432  0.194628  1
  Ho  Ho4  1  0.185317  0.289501  0.474817  1
  Ho  Ho5  1  0.814683  0.710499  0.525183  1
  Ho  Ho6  1  0.185317  0.710499  0.895815  1
  Ho  Ho7  1  0.814683  0.289501  0.104185  1
  Ho  Ho8  1  0.315461  0.622538  0.307077  1
  Ho  Ho9  1  0.684539  0.377462  0.692923  1
  Ho  Ho10  1  0.315461  0.008383  0.692923  1
  Ho  Ho11  1  0.684539  0.991617  0.307077  1
  Co  Co12  1  0.373182  0.000000  0.373182  1
  Co  Co13  1  0.626818  0.000000  0.626818  1
  Co  Co14  1  0.112331  0.612331  0.500000  1
  Co  Co15  1  0.887669  0.387669  0.500000  1
  Sn  Sn16  1  0.500000  0.500000  0.000000  1
  Rh  Rh17  1  0.000000  0.000000  0.000000  1
