# generated using pymatgen
data_Rb2Li14Pu3O14
_symmetry_space_group_name_H-M   'P 1'
_cell_length_a   8.59212227
_cell_length_b   8.59212277
_cell_length_c   8.59212269
_cell_angle_alpha   128.80962572
_cell_angle_beta   123.76798611
_cell_angle_gamma   79.48075013
_symmetry_Int_Tables_number   1
_chemical_formula_structural   Rb2Li14Pu3O14
_chemical_formula_sum   'Rb2 Li14 Pu3 O14'
_cell_volume   397.20240147
_cell_formula_units_Z   1
loop_
 _symmetry_equiv_pos_site_id
 _symmetry_equiv_pos_as_xyz
  1  'x, y, z'
loop_
 _atom_site_type_symbol
 _atom_site_label
 _atom_site_symmetry_multiplicity
 _atom_site_fract_x
 _atom_site_fract_y
 _atom_site_fract_z
 _atom_site_occupancy
  Rb  Rb0  1  0.500000  0.237835  0.737835  1
  Rb  Rb1  1  0.500000  0.762165  0.262165  1
  Li  Li2  1  0.844123  0.500000  0.344123  1
  Li  Li3  1  0.155877  0.500000  0.655877  1
  Li  Li4  1  0.411349  0.768474  0.642876  1
  Li  Li5  1  0.588651  0.231526  0.357124  1
  Li  Li6  1  0.874402  0.231526  0.642876  1
  Li  Li7  1  0.125598  0.768474  0.357124  1
  Li  Li8  1  0.707699  0.587349  0.565836  1
  Li  Li9  1  0.292301  0.858136  0.879650  1
  Li  Li10  1  0.978487  0.412651  0.120350  1
  Li  Li11  1  0.021513  0.141864  0.434164  1
  Li  Li12  1  0.292301  0.412651  0.434164  1
  Li  Li13  1  0.707699  0.141864  0.120350  1
  Li  Li14  1  0.021513  0.587349  0.879650  1
  Li  Li15  1  0.978487  0.858136  0.565836  1
  Pu  Pu16  1  0.730974  0.730974  0.000000  1
  Pu  Pu17  1  0.269026  0.269026  0.000000  1
  Pu  Pu18  1  0.000000  0.000000  0.000000  1
  O  O19  1  0.749677  0.041345  0.291667  1
  O  O20  1  0.250323  0.541990  0.291667  1
  O  O21  1  0.250323  0.958655  0.708333  1
  O  O22  1  0.749677  0.458010  0.708333  1
  O  O23  1  0.000000  0.708124  0.708124  1
  O  O24  1  0.000000  0.291876  0.291876  1
  O  O25  1  0.686150  0.868733  0.817416  1
  O  O26  1  0.313850  0.131267  0.182584  1
  O  O27  1  0.948683  0.131267  0.817416  1
  O  O28  1  0.051317  0.868733  0.182584  1
  O  O29  1  0.409603  0.627420  0.782184  1
  O  O30  1  0.590397  0.372580  0.217816  1
  O  O31  1  0.154764  0.372580  0.782184  1
  O  O32  1  0.845236  0.627420  0.217816  1
