# generated using pymatgen
data_Y6Ho3Tm11Pt16
_symmetry_space_group_name_H-M   'P 1'
_cell_length_a   7.44542508
_cell_length_b   7.51980213
_cell_length_c   14.63548616
_cell_angle_alpha   89.97474166
_cell_angle_beta   89.99638737
_cell_angle_gamma   90.00238942
_symmetry_Int_Tables_number   1
_chemical_formula_structural   Y6Ho3Tm11Pt16
_chemical_formula_sum   'Y6 Ho3 Tm11 Pt16'
_cell_volume   819.41332237
_cell_formula_units_Z   1
loop_
 _symmetry_equiv_pos_site_id
 _symmetry_equiv_pos_as_xyz
  1  'x, y, z'
loop_
 _atom_site_type_symbol
 _atom_site_label
 _atom_site_symmetry_multiplicity
 _atom_site_fract_x
 _atom_site_fract_y
 _atom_site_fract_z
 _atom_site_occupancy
  Y  Y0  1  0.501234  0.320684  0.592747  1
  Y  Y1  1  0.001608  0.180139  0.907050  1
  Y  Y2  1  0.001118  0.179073  0.592869  1
  Y  Y3  1  0.500974  0.320924  0.907024  1
  Y  Y4  1  0.498659  0.679290  0.406935  1
  Y  Y5  1  0.998808  0.820517  0.093096  1
  Ho  Ho6  1  0.656123  0.832166  0.878019  1
  Ho  Ho7  1  0.998492  0.820404  0.406820  1
  Ho  Ho8  1  0.498132  0.679259  0.093775  1
  Tm  Tm9  1  0.681112  0.989764  0.250076  1
  Tm  Tm10  1  0.181095  0.510236  0.250111  1
  Tm  Tm11  1  0.819166  0.489535  0.749559  1
  Tm  Tm12  1  0.318713  0.010586  0.749657  1
  Tm  Tm13  1  0.656050  0.832485  0.622370  1
  Tm  Tm14  1  0.156242  0.667503  0.877387  1
  Tm  Tm15  1  0.843961  0.332547  0.377499  1
  Tm  Tm16  1  0.343754  0.167708  0.122666  1
  Tm  Tm17  1  0.343745  0.167475  0.377521  1
  Tm  Tm18  1  0.844098  0.332690  0.122927  1
  Tm  Tm19  1  0.156086  0.667551  0.622160  1
  Pt  Pt20  1  0.816618  0.641669  0.250280  1
  Pt  Pt21  1  0.316433  0.858403  0.249922  1
  Pt  Pt22  1  0.683854  0.142113  0.749182  1
  Pt  Pt23  1  0.183112  0.358365  0.749841  1
  Pt  Pt24  1  0.546246  0.384121  0.250017  1
  Pt  Pt25  1  0.046392  0.115939  0.250280  1
  Pt  Pt26  1  0.954783  0.884572  0.749095  1
  Pt  Pt27  1  0.453031  0.614642  0.749158  1
  Pt  Pt28  1  0.818191  0.534378  0.541925  1
  Pt  Pt29  1  0.316210  0.966322  0.958514  1
  Pt  Pt30  1  0.682498  0.033672  0.457737  1
  Pt  Pt31  1  0.182906  0.466441  0.042312  1
  Pt  Pt32  1  0.181717  0.466341  0.457735  1
  Pt  Pt33  1  0.681481  0.034758  0.043456  1
  Pt  Pt34  1  0.317950  0.965818  0.541949  1
  Pt  Pt35  1  0.819404  0.531906  0.958331  1
