# generated using pymatgen
data_CaYb9Al(GaSb4)3
_symmetry_space_group_name_H-M   'P 1'
_cell_length_a   4.48511000
_cell_length_b   12.06794490
_cell_length_c   14.03249029
_cell_angle_alpha   90.04522145
_cell_angle_beta   90.00000000
_cell_angle_gamma   90.00000000
_symmetry_Int_Tables_number   1
_chemical_formula_structural   CaYb9Al(GaSb4)3
_chemical_formula_sum   'Ca1 Yb9 Al1 Ga3 Sb12'
_cell_volume   759.52318004
_cell_formula_units_Z   1
loop_
 _symmetry_equiv_pos_site_id
 _symmetry_equiv_pos_as_xyz
  1  'x, y, z'
loop_
 _atom_site_type_symbol
 _atom_site_label
 _atom_site_symmetry_multiplicity
 _atom_site_fract_x
 _atom_site_fract_y
 _atom_site_fract_z
 _atom_site_occupancy
  Ca  Ca0  1  0.500000  0.499399  0.999878  1
  Yb  Yb1  1  0.500000  0.670289  0.480582  1
  Yb  Yb2  1  0.500000  0.330013  0.518233  1
  Yb  Yb3  1  0.500000  0.830059  0.980735  1
  Yb  Yb4  1  0.500000  0.170356  0.019349  1
  Yb  Yb5  1  0.500000  0.999832  0.499803  1
  Yb  Yb6  1  0.500000  0.908605  0.253555  1
  Yb  Yb7  1  0.500000  0.091232  0.746763  1
  Yb  Yb8  1  0.500000  0.408464  0.246671  1
  Yb  Yb9  1  0.500000  0.591518  0.753408  1
  Al  Al10  1  0.000000  0.330595  0.712052  1
  Ga  Ga11  1  0.000000  0.669494  0.288482  1
  Ga  Ga12  1  0.000000  0.830413  0.788267  1
  Ga  Ga13  1  0.000000  0.169792  0.211775  1
  Sb  Sb14  1  0.000000  0.973311  0.100423  1
  Sb  Sb15  1  0.000000  0.026698  0.899657  1
  Sb  Sb16  1  0.000000  0.473437  0.399353  1
  Sb  Sb17  1  0.000000  0.525391  0.601073  1
  Sb  Sb18  1  0.500000  0.162723  0.323836  1
  Sb  Sb19  1  0.500000  0.837262  0.676114  1
  Sb  Sb20  1  0.500000  0.662967  0.176362  1
  Sb  Sb21  1  0.500000  0.337022  0.822239  1
  Sb  Sb22  1  0.000000  0.345086  0.091764  1
  Sb  Sb23  1  0.000000  0.654914  0.908638  1
  Sb  Sb24  1  0.000000  0.845225  0.409160  1
  Sb  Sb25  1  0.000000  0.155902  0.591828  1
