# generated using pymatgen
data_Np2P3Ir4
_symmetry_space_group_name_H-M   'P 1'
_cell_length_a   12.95517700
_cell_length_b   12.95517778
_cell_length_c   3.99415300
_cell_angle_alpha   90.00000000
_cell_angle_beta   90.00000000
_cell_angle_gamma   120.00000057
_symmetry_Int_Tables_number   1
_chemical_formula_structural   Np2P3Ir4
_chemical_formula_sum   'Np8 P12 Ir16'
_cell_volume   580.55324108
_cell_formula_units_Z   4
loop_
 _symmetry_equiv_pos_site_id
 _symmetry_equiv_pos_as_xyz
  1  'x, y, z'
loop_
 _atom_site_type_symbol
 _atom_site_label
 _atom_site_symmetry_multiplicity
 _atom_site_fract_x
 _atom_site_fract_y
 _atom_site_fract_z
 _atom_site_occupancy
  Np  Np0  1  0.333333  0.666667  0.500000  1
  Np  Np1  1  0.666667  0.333333  0.500000  1
  Np  Np2  1  0.000000  0.820862  0.000000  1
  Np  Np3  1  0.179138  0.179138  0.000000  1
  Np  Np4  1  0.820862  0.000000  0.000000  1
  Np  Np5  1  0.000000  0.458615  0.500000  1
  Np  Np6  1  0.541385  0.541385  0.500000  1
  Np  Np7  1  0.458615  0.000000  0.500000  1
  P  P8  1  0.000000  0.664608  0.500000  1
  P  P9  1  0.335392  0.335392  0.500000  1
  P  P10  1  0.664608  0.000000  0.500000  1
  P  P11  1  0.517607  0.688215  0.000000  1
  P  P12  1  0.311785  0.829392  0.000000  1
  P  P13  1  0.170608  0.482393  0.000000  1
  P  P14  1  0.482393  0.170608  0.000000  1
  P  P15  1  0.688215  0.517607  0.000000  1
  P  P16  1  0.829392  0.311785  0.000000  1
  P  P17  1  0.000000  0.177969  0.500000  1
  P  P18  1  0.822031  0.822031  0.500000  1
  P  P19  1  0.177969  0.000000  0.500000  1
  Ir  Ir20  1  0.511709  0.867065  0.000000  1
  Ir  Ir21  1  0.132935  0.644645  0.000000  1
  Ir  Ir22  1  0.355355  0.488291  0.000000  1
  Ir  Ir23  1  0.488291  0.355355  0.000000  1
  Ir  Ir24  1  0.867065  0.511709  0.000000  1
  Ir  Ir25  1  0.644645  0.132935  0.000000  1
  Ir  Ir26  1  0.000000  0.278628  0.000000  1
  Ir  Ir27  1  0.721372  0.721372  0.000000  1
  Ir  Ir28  1  0.278628  0.000000  0.000000  1
  Ir  Ir29  1  0.628296  0.803994  0.500000  1
  Ir  Ir30  1  0.196006  0.824303  0.500000  1
  Ir  Ir31  1  0.175697  0.371704  0.500000  1
  Ir  Ir32  1  0.371704  0.175697  0.500000  1
  Ir  Ir33  1  0.803994  0.628296  0.500000  1
  Ir  Ir34  1  0.824303  0.196006  0.500000  1
  Ir  Ir35  1  0.000000  0.000000  0.500000  1
