# generated using pymatgen
data_Tm3(FeOs2)2
_symmetry_space_group_name_H-M   'P 1'
_cell_length_a   5.23634126
_cell_length_b   5.20173078
_cell_length_c   12.96532418
_cell_angle_alpha   90.47477835
_cell_angle_beta   89.61126346
_cell_angle_gamma   119.09879447
_symmetry_Int_Tables_number   1
_chemical_formula_structural   Tm3(FeOs2)2
_chemical_formula_sum   'Tm6 Fe4 Os8'
_cell_volume   308.56413415
_cell_formula_units_Z   2
loop_
 _symmetry_equiv_pos_site_id
 _symmetry_equiv_pos_as_xyz
  1  'x, y, z'
loop_
 _atom_site_type_symbol
 _atom_site_label
 _atom_site_symmetry_multiplicity
 _atom_site_fract_x
 _atom_site_fract_y
 _atom_site_fract_z
 _atom_site_occupancy
  Tm  Tm0  1  0.331871  0.666962  0.917028  1
  Tm  Tm1  1  0.996584  0.998798  0.250288  1
  Tm  Tm2  1  0.665907  0.334336  0.583234  1
  Tm  Tm3  1  0.334093  0.665664  0.666766  1
  Tm  Tm4  1  0.003416  0.001202  0.999712  1
  Tm  Tm5  1  0.668129  0.333038  0.332972  1
  Fe  Fe6  1  0.500000  0.500000  0.125000  1
  Fe  Fe7  1  0.167218  0.836398  0.458133  1
  Fe  Fe8  1  0.832782  0.163602  0.791867  1
  Fe  Fe9  1  0.500000  0.000000  0.125000  1
  Os  Os10  1  0.170477  0.339187  0.456796  1
  Os  Os11  1  0.829523  0.660813  0.793204  1
  Os  Os12  1  0.332492  0.670652  0.287457  1
  Os  Os13  1  0.000000  0.000000  0.625000  1
  Os  Os14  1  0.667508  0.329348  0.962543  1
  Os  Os15  1  0.000000  0.500000  0.125000  1
  Os  Os16  1  0.666485  0.833458  0.457703  1
  Os  Os17  1  0.333515  0.166542  0.792297  1
