# generated using pymatgen
data_Yb3Pr17Si15Hg
_symmetry_space_group_name_H-M   'P 1'
_cell_length_a   7.97399272
_cell_length_b   7.94905840
_cell_length_c   15.24997524
_cell_angle_alpha   90.07416435
_cell_angle_beta   89.51093672
_cell_angle_gamma   89.85867756
_symmetry_Int_Tables_number   1
_chemical_formula_structural   Yb3Pr17Si15Hg
_chemical_formula_sum   'Yb3 Pr17 Si15 Hg1'
_cell_volume   966.59188032
_cell_formula_units_Z   1
loop_
 _symmetry_equiv_pos_site_id
 _symmetry_equiv_pos_as_xyz
  1  'x, y, z'
loop_
 _atom_site_type_symbol
 _atom_site_label
 _atom_site_symmetry_multiplicity
 _atom_site_fract_x
 _atom_site_fract_y
 _atom_site_fract_z
 _atom_site_occupancy
  Yb  Yb0  1  0.309707  0.309253  0.999950  1
  Yb  Yb1  1  0.191870  0.810029  0.250205  1
  Yb  Yb2  1  0.803853  0.189238  0.751146  1
  Pr  Pr3  1  0.691852  0.690645  0.498754  1
  Pr  Pr4  1  0.375668  0.012005  0.447653  1
  Pr  Pr5  1  0.494520  0.871543  0.700871  1
  Pr  Pr6  1  0.509378  0.121883  0.197192  1
  Pr  Pr7  1  0.877697  0.490896  0.299656  1
  Pr  Pr8  1  0.117490  0.516171  0.804645  1
  Pr  Pr9  1  0.624397  0.991350  0.950238  1
  Pr  Pr10  1  0.999789  0.382165  0.547092  1
  Pr  Pr11  1  0.991350  0.623242  0.053123  1
  Pr  Pr12  1  0.129219  0.984593  0.878526  1
  Pr  Pr13  1  0.515253  0.628030  0.126288  1
  Pr  Pr14  1  0.487162  0.376868  0.627445  1
  Pr  Pr15  1  0.628335  0.515233  0.876754  1
  Pr  Pr16  1  0.375239  0.484223  0.371684  1
  Pr  Pr17  1  0.874177  0.017562  0.374306  1
  Pr  Pr18  1  0.986501  0.125803  0.124865  1
  Pr  Pr19  1  0.009223  0.862962  0.621533  1
  Si  Si20  1  0.332297  0.698604  0.951406  1
  Si  Si21  1  0.663656  0.301393  0.449867  1
  Si  Si22  1  0.701796  0.332656  0.051300  1
  Si  Si23  1  0.306594  0.670051  0.546659  1
  Si  Si24  1  0.801227  0.833791  0.200519  1
  Si  Si25  1  0.167660  0.201858  0.299405  1
  Si  Si26  1  0.834779  0.800737  0.800903  1
  Si  Si27  1  0.288101  0.919077  0.059850  1
  Si  Si28  1  0.581360  0.787232  0.309437  1
  Si  Si29  1  0.432338  0.209545  0.815891  1
  Si  Si30  1  0.785424  0.579846  0.691695  1
  Si  Si31  1  0.213342  0.419408  0.189689  1
  Si  Si32  1  0.707680  0.078041  0.558150  1
  Si  Si33  1  0.921186  0.288268  0.942060  1
  Si  Si34  1  0.080320  0.711588  0.438935  1
  Hg  Hg35  1  0.189554  0.164213  0.692310  1
