# generated using pymatgen
data_YbLu19(Bi2Rh)4
_symmetry_space_group_name_H-M   'P 1'
_cell_length_a   7.80212907
_cell_length_b   8.95751600
_cell_length_c   12.24005500
_cell_angle_alpha   90.00000000
_cell_angle_beta   90.05852857
_cell_angle_gamma   90.00000000
_symmetry_Int_Tables_number   1
_chemical_formula_structural   YbLu19(Bi2Rh)4
_chemical_formula_sum   'Yb1 Lu19 Bi8 Rh4'
_cell_volume   855.42879636
_cell_formula_units_Z   1
loop_
 _symmetry_equiv_pos_site_id
 _symmetry_equiv_pos_as_xyz
  1  'x, y, z'
loop_
 _atom_site_type_symbol
 _atom_site_label
 _atom_site_symmetry_multiplicity
 _atom_site_fract_x
 _atom_site_fract_y
 _atom_site_fract_z
 _atom_site_occupancy
  Yb  Yb0  1  0.551417  0.750000  0.002116  1
  Lu  Lu1  1  0.839076  0.750000  0.791779  1
  Lu  Lu2  1  0.161196  0.250000  0.208781  1
  Lu  Lu3  1  0.339472  0.250000  0.707594  1
  Lu  Lu4  1  0.660006  0.750000  0.292828  1
  Lu  Lu5  1  0.376809  0.750000  0.690290  1
  Lu  Lu6  1  0.621878  0.250000  0.309278  1
  Lu  Lu7  1  0.876451  0.250000  0.808274  1
  Lu  Lu8  1  0.122025  0.750000  0.191592  1
  Lu  Lu9  1  0.946171  0.750000  0.501486  1
  Lu  Lu10  1  0.053861  0.250000  0.498623  1
  Lu  Lu11  1  0.447042  0.250000  0.998663  1
  Lu  Lu12  1  0.674981  0.045352  0.565829  1
  Lu  Lu13  1  0.325087  0.956422  0.434567  1
  Lu  Lu14  1  0.173483  0.958145  0.934001  1
  Lu  Lu15  1  0.325087  0.543578  0.434567  1
  Lu  Lu16  1  0.824868  0.045722  0.066259  1
  Lu  Lu17  1  0.674981  0.454648  0.565829  1
  Lu  Lu18  1  0.824868  0.454278  0.066259  1
  Lu  Lu19  1  0.173483  0.541855  0.934001  1
  Bi  Bi20  1  0.566526  0.490306  0.826282  1
  Bi  Bi21  1  0.432636  0.507644  0.173794  1
  Bi  Bi22  1  0.066162  0.508995  0.671795  1
  Bi  Bi23  1  0.432636  0.992356  0.173794  1
  Bi  Bi24  1  0.933552  0.491195  0.327756  1
  Bi  Bi25  1  0.566526  0.009694  0.826282  1
  Bi  Bi26  1  0.933552  0.008805  0.327756  1
  Bi  Bi27  1  0.066162  0.991005  0.671795  1
  Rh  Rh28  1  0.574641  0.750000  0.509221  1
  Rh  Rh29  1  0.424655  0.250000  0.490543  1
  Rh  Rh30  1  0.074453  0.250000  0.990397  1
  Rh  Rh31  1  0.936256  0.750000  0.007969  1
