# generated using pymatgen
data_Sm2BeNiI
_symmetry_space_group_name_H-M   'P 1'
_cell_length_a   4.00394200
_cell_length_b   4.00394244
_cell_length_c   17.14203800
_cell_angle_alpha   90.00000000
_cell_angle_beta   90.00000000
_cell_angle_gamma   119.99999633
_symmetry_Int_Tables_number   1
_chemical_formula_structural   Sm2BeNiI
_chemical_formula_sum   'Sm4 Be2 Ni2 I2'
_cell_volume   237.99547778
_cell_formula_units_Z   2
loop_
 _symmetry_equiv_pos_site_id
 _symmetry_equiv_pos_as_xyz
  1  'x, y, z'
loop_
 _atom_site_type_symbol
 _atom_site_label
 _atom_site_symmetry_multiplicity
 _atom_site_fract_x
 _atom_site_fract_y
 _atom_site_fract_z
 _atom_site_occupancy
  Sm  Sm0  1  0.000000  0.000000  0.603550  1
  Sm  Sm1  1  0.000000  0.000000  0.397336  1
  Sm  Sm2  1  0.000000  0.000000  0.103550  1
  Sm  Sm3  1  0.000000  0.000000  0.897336  1
  Be  Be4  1  0.666667  0.333333  0.501177  1
  Be  Be5  1  0.333333  0.666667  0.001177  1
  Ni  Ni6  1  0.666667  0.333333  0.998265  1
  Ni  Ni7  1  0.333333  0.666667  0.498265  1
  I  I8  1  0.666667  0.333333  0.249672  1
  I  I9  1  0.333333  0.666667  0.749672  1
