# generated using pymatgen
data_La4Ga13Pt9
_symmetry_space_group_name_H-M   'P 1'
_cell_length_a   11.69335204
_cell_length_b   11.68728310
_cell_length_c   4.20161800
_cell_angle_alpha   90.00000000
_cell_angle_beta   90.00000000
_cell_angle_gamma   119.99599283
_symmetry_Int_Tables_number   1
_chemical_formula_structural   La4Ga13Pt9
_chemical_formula_sum   'La4 Ga13 Pt9'
_cell_volume   497.29869582
_cell_formula_units_Z   1
loop_
 _symmetry_equiv_pos_site_id
 _symmetry_equiv_pos_as_xyz
  1  'x, y, z'
loop_
 _atom_site_type_symbol
 _atom_site_label
 _atom_site_symmetry_multiplicity
 _atom_site_fract_x
 _atom_site_fract_y
 _atom_site_fract_z
 _atom_site_occupancy
  La  La0  1  0.203089  0.796906  0.500000  1
  La  La1  1  0.593903  0.796946  0.500000  1
  La  La2  1  0.203086  0.406163  0.500000  1
  La  La3  1  0.666584  0.333285  0.000000  1
  Ga  Ga4  1  0.950239  0.289979  0.000000  1
  Ga  Ga5  1  0.710012  0.660250  0.000000  1
  Ga  Ga6  1  0.950248  0.660270  0.000000  1
  Ga  Ga7  1  0.339563  0.049605  0.000000  1
  Ga  Ga8  1  0.163382  0.081713  0.500000  1
  Ga  Ga9  1  0.918426  0.836765  0.500000  1
  Ga  Ga10  1  0.710017  0.049724  0.000000  1
  Ga  Ga11  1  0.533109  0.066198  0.500000  1
  Ga  Ga12  1  0.918421  0.081723  0.500000  1
  Ga  Ga13  1  0.339658  0.289948  0.000000  1
  Ga  Ga14  1  0.533097  0.466907  0.500000  1
  Ga  Ga15  1  0.933781  0.466894  0.500000  1
  Ga  Ga16  1  0.333306  0.666626  0.000000  1
  Pt  Pt17  1  0.457710  0.542375  0.000000  1
  Pt  Pt18  1  0.837049  0.918519  0.000000  1
  Pt  Pt19  1  0.457718  0.915372  0.000000  1
  Pt  Pt20  1  0.081501  0.163016  0.000000  1
  Pt  Pt21  1  0.081471  0.918483  0.000000  1
  Pt  Pt22  1  0.792177  0.584406  0.500000  1
  Pt  Pt23  1  0.084681  0.542358  0.000000  1
  Pt  Pt24  1  0.792146  0.207777  0.500000  1
  Pt  Pt25  1  0.415627  0.207789  0.500000  1
