# generated using pymatgen
data_Hf2Zn2Ga6Ni
_symmetry_space_group_name_H-M   'P 1'
_cell_length_a   4.13369300
_cell_length_b   4.13369300
_cell_length_c   10.48019600
_cell_angle_alpha   90.00000000
_cell_angle_beta   90.00000000
_cell_angle_gamma   90.00000000
_symmetry_Int_Tables_number   1
_chemical_formula_structural   Hf2Zn2Ga6Ni
_chemical_formula_sum   'Hf2 Zn2 Ga6 Ni1'
_cell_volume   179.07948787
_cell_formula_units_Z   1
loop_
 _symmetry_equiv_pos_site_id
 _symmetry_equiv_pos_as_xyz
  1  'x, y, z'
loop_
 _atom_site_type_symbol
 _atom_site_label
 _atom_site_symmetry_multiplicity
 _atom_site_fract_x
 _atom_site_fract_y
 _atom_site_fract_z
 _atom_site_occupancy
  Hf  Hf0  1  0.000000  0.000000  0.311471  1
  Hf  Hf1  1  0.000000  0.000000  0.688529  1
  Zn  Zn2  1  0.500000  0.500000  0.307115  1
  Zn  Zn3  1  0.500000  0.500000  0.692885  1
  Ga  Ga4  1  0.000000  0.500000  0.126669  1
  Ga  Ga5  1  0.000000  0.500000  0.873331  1
  Ga  Ga6  1  0.500000  0.000000  0.126669  1
  Ga  Ga7  1  0.500000  0.000000  0.873331  1
  Ga  Ga8  1  0.000000  0.500000  0.500000  1
  Ga  Ga9  1  0.500000  0.000000  0.500000  1
  Ni  Ni10  1  0.000000  0.000000  0.000000  1
