# generated using pymatgen
data_SmHoTm2(NiAs)4
_symmetry_space_group_name_H-M   'P 1'
_cell_length_a   4.04212600
_cell_length_b   4.04212617
_cell_length_c   15.53513400
_cell_angle_alpha   90.00000000
_cell_angle_beta   90.00000000
_cell_angle_gamma   119.99999859
_symmetry_Int_Tables_number   1
_chemical_formula_structural   SmHoTm2(NiAs)4
_chemical_formula_sum   'Sm1 Ho1 Tm2 Ni4 As4'
_cell_volume   219.81906395
_cell_formula_units_Z   1
loop_
 _symmetry_equiv_pos_site_id
 _symmetry_equiv_pos_as_xyz
  1  'x, y, z'
loop_
 _atom_site_type_symbol
 _atom_site_label
 _atom_site_symmetry_multiplicity
 _atom_site_fract_x
 _atom_site_fract_y
 _atom_site_fract_z
 _atom_site_occupancy
  Sm  Sm0  1  0.000000  0.000000  0.500000  1
  Ho  Ho1  1  0.000000  0.000000  0.000000  1
  Tm  Tm2  1  0.000000  0.000000  0.246925  1
  Tm  Tm3  1  0.000000  0.000000  0.753075  1
  Ni  Ni4  1  0.333333  0.666667  0.135782  1
  Ni  Ni5  1  0.666667  0.333333  0.864218  1
  Ni  Ni6  1  0.666667  0.333333  0.640779  1
  Ni  Ni7  1  0.333333  0.666667  0.359221  1
  As  As8  1  0.333333  0.666667  0.625658  1
  As  As9  1  0.666667  0.333333  0.374342  1
  As  As10  1  0.666667  0.333333  0.119327  1
  As  As11  1  0.333333  0.666667  0.880673  1
