# generated using pymatgen
data_PrEr4(FeB3)2
_symmetry_space_group_name_H-M   'P 1'
_cell_length_a   8.23922735
_cell_length_b   8.23922774
_cell_length_c   8.23922622
_cell_angle_alpha   38.27235953
_cell_angle_beta   38.27236991
_cell_angle_gamma   38.27235539
_symmetry_Int_Tables_number   1
_chemical_formula_structural   PrEr4(FeB3)2
_chemical_formula_sum   'Pr1 Er4 Fe2 B6'
_cell_volume   192.71926537
_cell_formula_units_Z   1
loop_
 _symmetry_equiv_pos_site_id
 _symmetry_equiv_pos_as_xyz
  1  'x, y, z'
loop_
 _atom_site_type_symbol
 _atom_site_label
 _atom_site_symmetry_multiplicity
 _atom_site_fract_x
 _atom_site_fract_y
 _atom_site_fract_z
 _atom_site_occupancy
  Pr  Pr0  1  0.000000  0.000000  0.000000  1
  Er  Er1  1  0.582296  0.582296  0.582296  1
  Er  Er2  1  0.417704  0.417704  0.417704  1
  Er  Er3  1  0.750306  0.750306  0.750306  1
  Er  Er4  1  0.249694  0.249694  0.249694  1
  Fe  Fe5  1  0.883813  0.883813  0.883813  1
  Fe  Fe6  1  0.116187  0.116187  0.116187  1
  B  B7  1  0.500000  0.832012  0.167988  1
  B  B8  1  0.167988  0.500000  0.832012  1
  B  B9  1  0.832012  0.167988  0.500000  1
  B  B10  1  0.500000  0.167988  0.832012  1
  B  B11  1  0.832012  0.500000  0.167988  1
  B  B12  1  0.167988  0.832012  0.500000  1
