# generated using pymatgen
data_NaSm6OsCl12
_symmetry_space_group_name_H-M   'P 1'
_cell_length_a   9.03536379
_cell_length_b   9.03576795
_cell_length_c   9.03687500
_cell_angle_alpha   106.97875051
_cell_angle_beta   106.99777388
_cell_angle_gamma   106.98828240
_symmetry_Int_Tables_number   1
_chemical_formula_structural   NaSm6OsCl12
_chemical_formula_sum   'Na1 Sm6 Os1 Cl12'
_cell_volume   614.62973642
_cell_formula_units_Z   1
loop_
 _symmetry_equiv_pos_site_id
 _symmetry_equiv_pos_as_xyz
  1  'x, y, z'
loop_
 _atom_site_type_symbol
 _atom_site_label
 _atom_site_symmetry_multiplicity
 _atom_site_fract_x
 _atom_site_fract_y
 _atom_site_fract_z
 _atom_site_occupancy
  Na  Na0  1  0.500000  0.500000  0.500000  1
  Sm  Sm1  1  0.327761  0.120268  0.028862  1
  Sm  Sm2  1  0.028811  0.327639  0.120098  1
  Sm  Sm3  1  0.120145  0.028812  0.327664  1
  Sm  Sm4  1  0.879854  0.971188  0.672336  1
  Sm  Sm5  1  0.971189  0.672361  0.879901  1
  Sm  Sm6  1  0.672239  0.879732  0.971137  1
  Os  Os7  1  0.000000  0.000000  0.000000  1
  Cl  Cl8  1  0.683413  0.211973  0.072828  1
  Cl  Cl9  1  0.365620  0.452785  0.156280  1
  Cl  Cl10  1  0.072821  0.683372  0.212051  1
  Cl  Cl11  1  0.787891  0.926976  0.316473  1
  Cl  Cl12  1  0.452784  0.156304  0.365602  1
  Cl  Cl13  1  0.156003  0.365493  0.452632  1
  Cl  Cl14  1  0.843998  0.634507  0.547369  1
  Cl  Cl15  1  0.547216  0.843697  0.634398  1
  Cl  Cl16  1  0.212108  0.073024  0.683527  1
  Cl  Cl17  1  0.927179  0.316628  0.787948  1
  Cl  Cl18  1  0.634381  0.547216  0.843720  1
  Cl  Cl19  1  0.316587  0.788026  0.927172  1
