# generated using pymatgen
data_Zr6Ti2Al15Pt4Rh3
_symmetry_space_group_name_H-M   'P 1'
_cell_length_a   8.84995998
_cell_length_b   8.84632942
_cell_length_c   8.86921716
_cell_angle_alpha   120.01093292
_cell_angle_beta   119.90745512
_cell_angle_gamma   90.09358394
_symmetry_Int_Tables_number   1
_chemical_formula_structural   Zr6Ti2Al15Pt4Rh3
_chemical_formula_sum   'Zr6 Ti2 Al15 Pt4 Rh3'
_cell_volume   491.19600441
_cell_formula_units_Z   1
loop_
 _symmetry_equiv_pos_site_id
 _symmetry_equiv_pos_as_xyz
  1  'x, y, z'
loop_
 _atom_site_type_symbol
 _atom_site_label
 _atom_site_symmetry_multiplicity
 _atom_site_fract_x
 _atom_site_fract_y
 _atom_site_fract_z
 _atom_site_occupancy
  Zr  Zr0  1  0.793076  0.293150  0.081742  1
  Zr  Zr1  1  0.212529  0.292090  0.500145  1
  Zr  Zr2  1  0.206813  0.707050  0.500227  1
  Zr  Zr3  1  0.211307  0.711817  0.918082  1
  Zr  Zr4  1  0.793591  0.713180  0.501417  1
  Zr  Zr5  1  0.785139  0.285276  0.499873  1
  Ti  Ti6  1  0.379048  0.121030  0.740749  1
  Ti  Ti7  1  0.375236  0.638016  0.256493  1
  Al  Al8  1  0.995388  0.495003  0.499821  1
  Al  Al9  1  0.161093  0.335656  0.170003  1
  Al  Al10  1  0.163373  0.993335  0.829380  1
  Al  Al11  1  0.159471  0.338290  0.824713  1
  Al  Al12  1  0.513272  0.337859  0.176000  1
  Al  Al13  1  0.840108  0.664237  0.829238  1
  Al  Al14  1  0.839202  0.010749  0.172137  1
  Al  Al15  1  0.837246  0.662780  0.168692  1
  Al  Al16  1  0.494633  0.664377  0.829081  1
  Al  Al17  1  0.374223  0.117276  0.258695  1
  Al  Al18  1  0.859476  0.122290  0.745154  1
  Al  Al19  1  0.619472  0.878485  0.260477  1
  Al  Al20  1  0.623701  0.359827  0.743117  1
  Al  Al21  1  0.624173  0.881664  0.741106  1
  Al  Al22  1  0.139429  0.877024  0.255779  1
  Pt  Pt23  1  0.999597  0.998877  0.498641  1
  Pt  Pt24  1  0.500168  0.999274  0.999401  1
  Pt  Pt25  1  0.499940  0.500862  0.000364  1
  Pt  Pt26  1  0.499402  0.500965  0.499631  1
  Rh  Rh27  1  0.000566  0.499913  0.000560  1
  Rh  Rh28  1  0.001928  0.001686  0.999680  1
  Rh  Rh29  1  0.497394  0.997957  0.499600  1
