# generated using pymatgen
data_Rb2V5RhSe6
_symmetry_space_group_name_H-M   'P 1'
_cell_length_a   9.58114168
_cell_length_b   9.43969161
_cell_length_c   4.39622600
_cell_angle_alpha   90.00000000
_cell_angle_beta   90.00000000
_cell_angle_gamma   121.12945049
_symmetry_Int_Tables_number   1
_chemical_formula_structural   Rb2V5RhSe6
_chemical_formula_sum   'Rb2 V5 Rh1 Se6'
_cell_volume   340.35300455
_cell_formula_units_Z   1
loop_
 _symmetry_equiv_pos_site_id
 _symmetry_equiv_pos_as_xyz
  1  'x, y, z'
loop_
 _atom_site_type_symbol
 _atom_site_label
 _atom_site_symmetry_multiplicity
 _atom_site_fract_x
 _atom_site_fract_y
 _atom_site_fract_z
 _atom_site_occupancy
  Rb  Rb0  1  0.342243  0.676688  0.250000  1
  Rb  Rb1  1  0.658908  0.324863  0.750000  1
  V  V2  1  0.140093  0.168221  0.250000  1
  V  V3  1  0.844118  0.821900  0.750000  1
  V  V4  1  0.849699  0.980846  0.250000  1
  V  V5  1  0.024940  0.850861  0.250000  1
  V  V6  1  0.968363  0.149195  0.750000  1
  Rh  Rh7  1  0.173373  0.027287  0.750000  1
  Se  Se8  1  0.958540  0.292855  0.250000  1
  Se  Se9  1  0.044848  0.719246  0.750000  1
  Se  Se10  1  0.717653  0.661281  0.250000  1
  Se  Se11  1  0.332683  0.051011  0.250000  1
  Se  Se12  1  0.666675  0.945116  0.750000  1
  Se  Se13  1  0.277864  0.330630  0.750000  1
