# generated using pymatgen
data_Dy4HoIn3Cl
_symmetry_space_group_name_H-M   'P 1'
_cell_length_a   9.19569300
_cell_length_b   9.19569211
_cell_length_c   6.60875900
_cell_angle_alpha   90.00000000
_cell_angle_beta   90.00000000
_cell_angle_gamma   119.99999962
_symmetry_Int_Tables_number   1
_chemical_formula_structural   Dy4HoIn3Cl
_chemical_formula_sum   'Dy8 Ho2 In6 Cl2'
_cell_volume   483.97110540
_cell_formula_units_Z   2
loop_
 _symmetry_equiv_pos_site_id
 _symmetry_equiv_pos_as_xyz
  1  'x, y, z'
loop_
 _atom_site_type_symbol
 _atom_site_label
 _atom_site_symmetry_multiplicity
 _atom_site_fract_x
 _atom_site_fract_y
 _atom_site_fract_z
 _atom_site_occupancy
  Dy  Dy0  1  0.259636  0.000000  0.750217  1
  Dy  Dy1  1  0.740364  0.000000  0.249783  1
  Dy  Dy2  1  0.000000  0.259636  0.750217  1
  Dy  Dy3  1  0.000000  0.740364  0.249783  1
  Dy  Dy4  1  0.740364  0.740364  0.750217  1
  Dy  Dy5  1  0.259636  0.259636  0.249783  1
  Dy  Dy6  1  0.333333  0.666667  0.500000  1
  Dy  Dy7  1  0.666667  0.333333  0.500000  1
  Ho  Ho8  1  0.666667  0.333333  0.000000  1
  Ho  Ho9  1  0.333333  0.666667  0.000000  1
  In  In10  1  0.607606  0.000000  0.750546  1
  In  In11  1  0.392394  0.000000  0.249454  1
  In  In12  1  0.000000  0.607606  0.750546  1
  In  In13  1  0.000000  0.392394  0.249454  1
  In  In14  1  0.392394  0.392394  0.750546  1
  In  In15  1  0.607606  0.607606  0.249454  1
  Cl  Cl16  1  0.000000  0.000000  0.500000  1
  Cl  Cl17  1  0.000000  0.000000  0.000000  1
