# generated using pymatgen
data_Pr3Ga2Ir7
_symmetry_space_group_name_H-M   'P 1'
_cell_length_a   5.54185823
_cell_length_b   5.54185748
_cell_length_c   8.93060100
_cell_angle_alpha   71.92429197
_cell_angle_beta   71.92429451
_cell_angle_gamma   59.99999316
_symmetry_Int_Tables_number   1
_chemical_formula_structural   Pr3Ga2Ir7
_chemical_formula_sum   'Pr3 Ga2 Ir7'
_cell_volume   221.76385986
_cell_formula_units_Z   1
loop_
 _symmetry_equiv_pos_site_id
 _symmetry_equiv_pos_as_xyz
  1  'x, y, z'
loop_
 _atom_site_type_symbol
 _atom_site_label
 _atom_site_symmetry_multiplicity
 _atom_site_fract_x
 _atom_site_fract_y
 _atom_site_fract_z
 _atom_site_occupancy
  Pr  Pr0  1  0.859191  0.859191  0.422426  1
  Pr  Pr1  1  0.140809  0.140809  0.577574  1
  Pr  Pr2  1  0.000000  0.000000  0.000000  1
  Ga  Ga3  1  0.664710  0.664710  0.005868  1
  Ga  Ga4  1  0.335290  0.335290  0.994132  1
  Ir  Ir5  1  0.416371  0.416371  0.243790  1
  Ir  Ir6  1  0.923469  0.416371  0.243790  1
  Ir  Ir7  1  0.416371  0.923469  0.243790  1
  Ir  Ir8  1  0.583629  0.583629  0.756210  1
  Ir  Ir9  1  0.076531  0.583629  0.756210  1
  Ir  Ir10  1  0.583629  0.076531  0.756210  1
  Ir  Ir11  1  0.500000  0.500000  0.500000  1
