# generated using pymatgen
data_Ba2CaVGa2F14
_symmetry_space_group_name_H-M   'P 1'
_cell_length_a   7.49805761
_cell_length_b   7.49805717
_cell_length_c   15.13943652
_cell_angle_alpha   88.73549478
_cell_angle_beta   88.73549481
_cell_angle_gamma   42.38019284
_symmetry_Int_Tables_number   1
_chemical_formula_structural   Ba2CaVGa2F14
_chemical_formula_sum   'Ba4 Ca2 V2 Ga4 F28'
_cell_volume   573.55593105
_cell_formula_units_Z   2
loop_
 _symmetry_equiv_pos_site_id
 _symmetry_equiv_pos_as_xyz
  1  'x, y, z'
loop_
 _atom_site_type_symbol
 _atom_site_label
 _atom_site_symmetry_multiplicity
 _atom_site_fract_x
 _atom_site_fract_y
 _atom_site_fract_z
 _atom_site_occupancy
  Ba  Ba0  1  0.637916  0.742857  0.877743  1
  Ba  Ba1  1  0.362084  0.257143  0.122257  1
  Ba  Ba2  1  0.257143  0.362084  0.622257  1
  Ba  Ba3  1  0.742857  0.637916  0.377743  1
  Ca  Ca4  1  0.938675  0.061325  0.750000  1
  Ca  Ca5  1  0.061325  0.938675  0.250000  1
  V  V6  1  0.000000  0.000000  0.500000  1
  V  V7  1  0.000000  0.000000  0.000000  1
  Ga  Ga8  1  0.612013  0.624891  0.623536  1
  Ga  Ga9  1  0.387987  0.375109  0.376464  1
  Ga  Ga10  1  0.375109  0.387987  0.876464  1
  Ga  Ga11  1  0.624891  0.612013  0.123536  1
  F  F12  1  0.858816  0.020893  0.124026  1
  F  F13  1  0.141184  0.979107  0.875974  1
  F  F14  1  0.979107  0.141184  0.375974  1
  F  F15  1  0.020893  0.858816  0.624026  1
  F  F16  1  0.670154  0.083066  0.952228  1
  F  F17  1  0.329846  0.916934  0.047772  1
  F  F18  1  0.916934  0.329846  0.547772  1
  F  F19  1  0.083066  0.670154  0.452228  1
  F  F20  1  0.404397  0.766329  0.518159  1
  F  F21  1  0.595603  0.233671  0.481841  1
  F  F22  1  0.233671  0.595603  0.981841  1
  F  F23  1  0.766329  0.404397  0.018159  1
  F  F24  1  0.339625  0.908255  0.700320  1
  F  F25  1  0.660375  0.091745  0.299680  1
  F  F26  1  0.091745  0.660375  0.799680  1
  F  F27  1  0.908255  0.339625  0.200320  1
  F  F28  1  0.575055  0.408679  0.656428  1
  F  F29  1  0.424945  0.591321  0.343572  1
  F  F30  1  0.591321  0.424945  0.843572  1
  F  F31  1  0.408679  0.575055  0.156428  1
  F  F32  1  0.546617  0.133968  0.779345  1
  F  F33  1  0.453383  0.866032  0.220655  1
  F  F34  1  0.866032  0.453383  0.720655  1
  F  F35  1  0.133968  0.546617  0.279345  1
  F  F36  1  0.694908  0.802688  0.589998  1
  F  F37  1  0.305092  0.197312  0.410002  1
  F  F38  1  0.197312  0.305092  0.910002  1
  F  F39  1  0.802688  0.694908  0.089998  1
