# generated using pymatgen
data_K2Mn5O10
_symmetry_space_group_name_H-M   'P 1'
_cell_length_a   5.11527834
_cell_length_b   7.34210028
_cell_length_c   7.86162723
_cell_angle_alpha   117.96914949
_cell_angle_beta   95.79257844
_cell_angle_gamma   101.74266279
_symmetry_Int_Tables_number   1
_chemical_formula_structural   K2Mn5O10
_chemical_formula_sum   'K2 Mn5 O10'
_cell_volume   248.64367784
_cell_formula_units_Z   1
loop_
 _symmetry_equiv_pos_site_id
 _symmetry_equiv_pos_as_xyz
  1  'x, y, z'
loop_
 _atom_site_type_symbol
 _atom_site_label
 _atom_site_symmetry_multiplicity
 _atom_site_fract_x
 _atom_site_fract_y
 _atom_site_fract_z
 _atom_site_occupancy
  K  K0  1  0.627808  0.242621  0.741974  1
  K  K1  1  0.372192  0.757379  0.258026  1
  Mn  Mn2  1  0.599499  0.702172  0.697500  1
  Mn  Mn3  1  0.000000  0.500000  0.500000  1
  Mn  Mn4  1  0.400501  0.297828  0.302500  1
  Mn  Mn5  1  0.798497  0.097574  0.104328  1
  Mn  Mn6  1  0.201503  0.902426  0.895672  1
  O  O7  1  0.672080  0.582536  0.430938  1
  O  O8  1  0.327920  0.417464  0.569062  1
  O  O9  1  0.685681  0.183947  0.355117  1
  O  O10  1  0.092221  0.394063  0.244352  1
  O  O11  1  0.314319  0.816053  0.644883  1
  O  O12  1  0.907779  0.605937  0.755648  1
  O  O13  1  0.119975  0.013695  0.165573  1
  O  O14  1  0.495742  0.201058  0.048139  1
  O  O15  1  0.880025  0.986305  0.834427  1
  O  O16  1  0.504258  0.798942  0.951861  1
