# generated using pymatgen
data_Tb3Ho3Th2(InRu)2
_symmetry_space_group_name_H-M   'P 1'
_cell_length_a   9.74142120
_cell_length_b   9.74142158
_cell_length_c   9.74142000
_cell_angle_alpha   59.99999858
_cell_angle_beta   59.99999729
_cell_angle_gamma   59.99999360
_symmetry_Int_Tables_number   1
_chemical_formula_structural   Tb3Ho3Th2(InRu)2
_chemical_formula_sum   'Tb6 Ho6 Th4 In4 Ru4'
_cell_volume   653.65998054
_cell_formula_units_Z   2
loop_
 _symmetry_equiv_pos_site_id
 _symmetry_equiv_pos_as_xyz
  1  'x, y, z'
loop_
 _atom_site_type_symbol
 _atom_site_label
 _atom_site_symmetry_multiplicity
 _atom_site_fract_x
 _atom_site_fract_y
 _atom_site_fract_z
 _atom_site_occupancy
  Tb  Tb0  1  0.188313  0.811687  0.811687  1
  Tb  Tb1  1  0.811687  0.188313  0.188313  1
  Tb  Tb2  1  0.811687  0.188313  0.811687  1
  Tb  Tb3  1  0.188313  0.811687  0.188313  1
  Tb  Tb4  1  0.811687  0.811687  0.188313  1
  Tb  Tb5  1  0.188313  0.188313  0.811687  1
  Ho  Ho6  1  0.062336  0.437664  0.437664  1
  Ho  Ho7  1  0.437664  0.062336  0.062336  1
  Ho  Ho8  1  0.437664  0.062336  0.437664  1
  Ho  Ho9  1  0.062336  0.437664  0.062336  1
  Ho  Ho10  1  0.437664  0.437664  0.062336  1
  Ho  Ho11  1  0.062336  0.062336  0.437664  1
  Th  Th12  1  0.597460  0.597460  0.597460  1
  Th  Th13  1  0.597460  0.597460  0.207620  1
  Th  Th14  1  0.597460  0.207620  0.597460  1
  Th  Th15  1  0.207620  0.597460  0.597460  1
  In  In16  1  0.833029  0.833029  0.833029  1
  In  In17  1  0.833029  0.833029  0.500914  1
  In  In18  1  0.833029  0.500914  0.833029  1
  In  In19  1  0.500914  0.833029  0.833029  1
  Ru  Ru20  1  0.393525  0.393525  0.393525  1
  Ru  Ru21  1  0.393525  0.393525  0.819425  1
  Ru  Ru22  1  0.393525  0.819425  0.393525  1
  Ru  Ru23  1  0.819425  0.393525  0.393525  1
