# generated using pymatgen
data_Y3TmZr4F28
_symmetry_space_group_name_H-M   'P 1'
_cell_length_a   5.74937046
_cell_length_b   9.09310267
_cell_length_c   12.23075276
_cell_angle_alpha   62.41563065
_cell_angle_beta   90.02488925
_cell_angle_gamma   89.99724320
_symmetry_Int_Tables_number   1
_chemical_formula_structural   Y3TmZr4F28
_chemical_formula_sum   'Y3 Tm1 Zr4 F28'
_cell_volume   566.73617543
_cell_formula_units_Z   1
loop_
 _symmetry_equiv_pos_site_id
 _symmetry_equiv_pos_as_xyz
  1  'x, y, z'
loop_
 _atom_site_type_symbol
 _atom_site_label
 _atom_site_symmetry_multiplicity
 _atom_site_fract_x
 _atom_site_fract_y
 _atom_site_fract_z
 _atom_site_occupancy
  Y  Y0  1  0.743387  0.814981  0.266320  1
  Y  Y1  1  0.243341  0.184085  0.233664  1
  Y  Y2  1  0.256421  0.182028  0.734007  1
  Tm  Tm3  1  0.756756  0.815461  0.766059  1
  Zr  Zr4  1  0.744745  0.272624  0.455829  1
  Zr  Zr5  1  0.244243  0.725796  0.043251  1
  Zr  Zr6  1  0.255739  0.725667  0.547207  1
  Zr  Zr7  1  0.755656  0.276144  0.953817  1
  F  F8  1  0.469489  0.712696  0.919641  1
  F  F9  1  0.967210  0.288463  0.579194  1
  F  F10  1  0.533853  0.289955  0.078210  1
  F  F11  1  0.034319  0.711160  0.422573  1
  F  F12  1  0.452829  0.279830  0.549877  1
  F  F13  1  0.951987  0.721545  0.947344  1
  F  F14  1  0.545992  0.719440  0.451409  1
  F  F15  1  0.047265  0.281609  0.048773  1
  F  F16  1  0.767361  0.528645  0.857073  1
  F  F17  1  0.267541  0.474141  0.643005  1
  F  F18  1  0.231549  0.474587  0.141220  1
  F  F19  1  0.732234  0.524615  0.358707  1
  F  F20  1  0.759753  0.024922  0.057157  1
  F  F21  1  0.259809  0.976640  0.443045  1
  F  F22  1  0.240573  0.977208  0.941654  1
  F  F23  1  0.740498  0.021592  0.560359  1
  F  F24  1  0.984224  0.735268  0.651898  1
  F  F25  1  0.485161  0.266502  0.849383  1
  F  F26  1  0.015244  0.266166  0.350465  1
  F  F27  1  0.514283  0.733626  0.148981  1
  F  F28  1  0.033707  0.746449  0.171791  1
  F  F29  1  0.534041  0.253172  0.327264  1
  F  F30  1  0.966318  0.254297  0.826219  1
  F  F31  1  0.470227  0.748060  0.674198  1
  F  F32  1  0.428286  0.972530  0.234714  1
  F  F33  1  0.927689  0.027031  0.265341  1
  F  F34  1  0.572597  0.022376  0.764893  1
  F  F35  1  0.065670  0.970694  0.735458  1
