# generated using pymatgen
data_EuGaPRh2
_symmetry_space_group_name_H-M   'P 1'
_cell_length_a   6.03855441
_cell_length_b   6.03855513
_cell_length_c   6.03855435
_cell_angle_alpha   139.72480739
_cell_angle_beta   139.72481366
_cell_angle_gamma   58.27137227
_symmetry_Int_Tables_number   1
_chemical_formula_structural   EuGaPRh2
_chemical_formula_sum   'Eu1 Ga1 P1 Rh2'
_cell_volume   91.18419618
_cell_formula_units_Z   1
loop_
 _symmetry_equiv_pos_site_id
 _symmetry_equiv_pos_as_xyz
  1  'x, y, z'
loop_
 _atom_site_type_symbol
 _atom_site_label
 _atom_site_symmetry_multiplicity
 _atom_site_fract_x
 _atom_site_fract_y
 _atom_site_fract_z
 _atom_site_occupancy
  Eu  Eu0  1  0.994631  0.994631  0.000000  1
  Ga  Ga1  1  0.622807  0.622807  0.000000  1
  P  P2  1  0.365050  0.365050  0.000000  1
  Rh  Rh3  1  0.758757  0.258757  0.500000  1
  Rh  Rh4  1  0.258757  0.758757  0.500000  1
