# generated using pymatgen
data_Eu2Zn3Ir
_symmetry_space_group_name_H-M   'P 1'
_cell_length_a   5.56705700
_cell_length_b   5.56705657
_cell_length_c   9.05998000
_cell_angle_alpha   90.00000000
_cell_angle_beta   90.00000000
_cell_angle_gamma   120.00000850
_symmetry_Int_Tables_number   1
_chemical_formula_structural   Eu2Zn3Ir
_chemical_formula_sum   'Eu4 Zn6 Ir2'
_cell_volume   243.16951904
_cell_formula_units_Z   2
loop_
 _symmetry_equiv_pos_site_id
 _symmetry_equiv_pos_as_xyz
  1  'x, y, z'
loop_
 _atom_site_type_symbol
 _atom_site_label
 _atom_site_symmetry_multiplicity
 _atom_site_fract_x
 _atom_site_fract_y
 _atom_site_fract_z
 _atom_site_occupancy
  Eu  Eu0  1  0.333333  0.666667  0.446642  1
  Eu  Eu1  1  0.666667  0.333333  0.946642  1
  Eu  Eu2  1  0.333333  0.666667  0.053358  1
  Eu  Eu3  1  0.666667  0.333333  0.553358  1
  Zn  Zn4  1  0.840011  0.680022  0.250000  1
  Zn  Zn5  1  0.840011  0.159989  0.250000  1
  Zn  Zn6  1  0.159989  0.840011  0.750000  1
  Zn  Zn7  1  0.319978  0.159989  0.250000  1
  Zn  Zn8  1  0.680022  0.840011  0.750000  1
  Zn  Zn9  1  0.159989  0.319978  0.750000  1
  Ir  Ir10  1  0.000000  0.000000  0.000000  1
  Ir  Ir11  1  0.000000  0.000000  0.500000  1
