# generated using pymatgen
data_CePr2Dy(Si3Rh)2
_symmetry_space_group_name_H-M   'P 1'
_cell_length_a   8.27998500
_cell_length_b   8.23183067
_cell_length_c   8.25258000
_cell_angle_alpha   90.00000000
_cell_angle_beta   90.00000000
_cell_angle_gamma   120.19374260
_symmetry_Int_Tables_number   1
_chemical_formula_structural   CePr2Dy(Si3Rh)2
_chemical_formula_sum   'Ce2 Pr4 Dy2 Si12 Rh4'
_cell_volume   486.17785602
_cell_formula_units_Z   2
loop_
 _symmetry_equiv_pos_site_id
 _symmetry_equiv_pos_as_xyz
  1  'x, y, z'
loop_
 _atom_site_type_symbol
 _atom_site_label
 _atom_site_symmetry_multiplicity
 _atom_site_fract_x
 _atom_site_fract_y
 _atom_site_fract_z
 _atom_site_occupancy
  Ce  Ce0  1  0.999909  0.999819  0.750000  1
  Ce  Ce1  1  0.505590  0.011179  0.750000  1
  Pr  Pr2  1  0.999827  0.999646  0.250000  1
  Pr  Pr3  1  0.006347  0.502805  0.250000  1
  Pr  Pr4  1  0.496456  0.502806  0.250000  1
  Pr  Pr5  1  0.495824  0.991648  0.250000  1
  Dy  Dy6  1  0.506097  0.495253  0.750000  1
  Dy  Dy7  1  0.989152  0.495253  0.750000  1
  Si  Si8  1  0.168099  0.336197  0.994069  1
  Si  Si9  1  0.666829  0.832028  0.994521  1
  Si  Si10  1  0.168099  0.336197  0.505931  1
  Si  Si11  1  0.331031  0.166979  0.991250  1
  Si  Si12  1  0.165199  0.832028  0.994520  1
  Si  Si13  1  0.666829  0.832028  0.505479  1
  Si  Si14  1  0.832979  0.665959  0.989694  1
  Si  Si15  1  0.331031  0.166979  0.508750  1
  Si  Si16  1  0.165199  0.832028  0.505480  1
  Si  Si17  1  0.832979  0.665959  0.510306  1
  Si  Si18  1  0.835949  0.166978  0.991252  1
  Si  Si19  1  0.835949  0.166978  0.508748  1
  Rh  Rh20  1  0.334832  0.669664  0.959119  1
  Rh  Rh21  1  0.334832  0.669664  0.540881  1
  Rh  Rh22  1  0.665482  0.330963  0.000847  1
  Rh  Rh23  1  0.665482  0.330963  0.499153  1
