# generated using pymatgen
data_Tb3U5(ReB6)4
_symmetry_space_group_name_H-M   'P 1'
_cell_length_a   3.64384700
_cell_length_b   9.30881603
_cell_length_c   11.42090604
_cell_angle_alpha   89.99046784
_cell_angle_beta   90.00000000
_cell_angle_gamma   90.00000000
_symmetry_Int_Tables_number   1
_chemical_formula_structural   Tb3U5(ReB6)4
_chemical_formula_sum   'Tb3 U5 Re4 B24'
_cell_volume   387.39600108
_cell_formula_units_Z   1
loop_
 _symmetry_equiv_pos_site_id
 _symmetry_equiv_pos_as_xyz
  1  'x, y, z'
loop_
 _atom_site_type_symbol
 _atom_site_label
 _atom_site_symmetry_multiplicity
 _atom_site_fract_x
 _atom_site_fract_y
 _atom_site_fract_z
 _atom_site_occupancy
  Tb  Tb0  1  0.000000  0.336676  0.407635  1
  Tb  Tb1  1  0.000000  0.663545  0.592020  1
  Tb  Tb2  1  0.000000  0.835337  0.092945  1
  U  U3  1  0.000000  0.163603  0.907248  1
  U  U4  1  0.000000  0.956171  0.396880  1
  U  U5  1  0.000000  0.043015  0.603594  1
  U  U6  1  0.000000  0.457375  0.103802  1
  U  U7  1  0.000000  0.543538  0.896896  1
  Re  Re8  1  0.000000  0.645495  0.318794  1
  Re  Re9  1  0.000000  0.352326  0.683966  1
  Re  Re10  1  0.000000  0.145944  0.178012  1
  Re  Re11  1  0.000000  0.857780  0.819469  1
  B  B12  1  0.500000  0.551851  0.431085  1
  B  B13  1  0.500000  0.447456  0.569903  1
  B  B14  1  0.500000  0.052750  0.067562  1
  B  B15  1  0.500000  0.950381  0.930287  1
  B  B16  1  0.500000  0.743181  0.422984  1
  B  B17  1  0.500000  0.256746  0.577119  1
  B  B18  1  0.500000  0.242801  0.075844  1
  B  B19  1  0.500000  0.756553  0.922522  1
  B  B20  1  0.500000  0.801855  0.275084  1
  B  B21  1  0.500000  0.196798  0.726557  1
  B  B22  1  0.500000  0.301954  0.224781  1
  B  B23  1  0.500000  0.698456  0.774926  1
  B  B24  1  0.500000  0.643347  0.188612  1
  B  B25  1  0.500000  0.355026  0.812252  1
  B  B26  1  0.500000  0.143918  0.311033  1
  B  B27  1  0.500000  0.855935  0.688375  1
  B  B28  1  0.500000  0.989220  0.219527  1
  B  B29  1  0.500000  0.013496  0.781125  1
  B  B30  1  0.500000  0.488669  0.280616  1
  B  B31  1  0.500000  0.511173  0.719834  1
  B  B32  1  0.500000  0.640016  0.038518  1
  B  B33  1  0.500000  0.357354  0.960499  1
  B  B34  1  0.500000  0.139570  0.461039  1
  B  B35  1  0.500000  0.860687  0.538659  1
