# generated using pymatgen
data_Dy4Ho8Tc3Ni
_symmetry_space_group_name_H-M   'P 1'
_cell_length_a   6.27341106
_cell_length_b   7.31362798
_cell_length_c   9.17631000
_cell_angle_alpha   90.00000000
_cell_angle_beta   90.00000000
_cell_angle_gamma   90.17440640
_symmetry_Int_Tables_number   1
_chemical_formula_structural   Dy4Ho8Tc3Ni
_chemical_formula_sum   'Dy4 Ho8 Tc3 Ni1'
_cell_volume   421.01995004
_cell_formula_units_Z   1
loop_
 _symmetry_equiv_pos_site_id
 _symmetry_equiv_pos_as_xyz
  1  'x, y, z'
loop_
 _atom_site_type_symbol
 _atom_site_label
 _atom_site_symmetry_multiplicity
 _atom_site_fract_x
 _atom_site_fract_y
 _atom_site_fract_z
 _atom_site_occupancy
  Dy  Dy0  1  0.871326  0.541196  0.250000  1
  Dy  Dy1  1  0.624804  0.040832  0.250000  1
  Dy  Dy2  1  0.140366  0.457262  0.750000  1
  Dy  Dy3  1  0.372211  0.956554  0.750000  1
  Ho  Ho4  1  0.327831  0.677922  0.066871  1
  Ho  Ho5  1  0.164479  0.176887  0.437360  1
  Ho  Ho6  1  0.667449  0.322887  0.562688  1
  Ho  Ho7  1  0.833347  0.823320  0.938359  1
  Ho  Ho8  1  0.667449  0.322887  0.937312  1
  Ho  Ho9  1  0.833347  0.823320  0.561641  1
  Ho  Ho10  1  0.327831  0.677922  0.433129  1
  Ho  Ho11  1  0.164479  0.176887  0.062640  1
  Tc  Tc12  1  0.037605  0.886757  0.250000  1
  Tc  Tc13  1  0.460500  0.389234  0.250000  1
  Tc  Tc14  1  0.960002  0.112342  0.750000  1
  Ni  Ni15  1  0.546975  0.613791  0.750000  1
