# generated using pymatgen
data_TbPr6LuO12
_symmetry_space_group_name_H-M   'P 1'
_cell_length_a   7.00234144
_cell_length_b   7.00234180
_cell_length_c   7.00234160
_cell_angle_alpha   92.34863702
_cell_angle_beta   92.34864200
_cell_angle_gamma   92.34862304
_symmetry_Int_Tables_number   1
_chemical_formula_structural   TbPr6LuO12
_chemical_formula_sum   'Tb1 Pr6 Lu1 O12'
_cell_volume   342.45465617
_cell_formula_units_Z   1
loop_
 _symmetry_equiv_pos_site_id
 _symmetry_equiv_pos_as_xyz
  1  'x, y, z'
loop_
 _atom_site_type_symbol
 _atom_site_label
 _atom_site_symmetry_multiplicity
 _atom_site_fract_x
 _atom_site_fract_y
 _atom_site_fract_z
 _atom_site_occupancy
  Tb  Tb0  1  0.000000  0.000000  0.000000  1
  Pr  Pr1  1  0.558984  0.066577  0.255385  1
  Pr  Pr2  1  0.066577  0.255385  0.558984  1
  Pr  Pr3  1  0.744615  0.441016  0.933423  1
  Pr  Pr4  1  0.255385  0.558984  0.066577  1
  Pr  Pr5  1  0.933423  0.744615  0.441016  1
  Pr  Pr6  1  0.441016  0.933423  0.744615  1
  Lu  Lu7  1  0.500000  0.500000  0.500000  1
  O  O8  1  0.689635  0.089870  0.934728  1
  O  O9  1  0.910130  0.065272  0.310365  1
  O  O10  1  0.407285  0.196654  0.535461  1
  O  O11  1  0.065272  0.310365  0.910130  1
  O  O12  1  0.535461  0.407285  0.196654  1
  O  O13  1  0.803346  0.464539  0.592715  1
  O  O14  1  0.196654  0.535461  0.407285  1
  O  O15  1  0.464539  0.592715  0.803346  1
  O  O16  1  0.934728  0.689635  0.089870  1
  O  O17  1  0.592715  0.803346  0.464539  1
  O  O18  1  0.089870  0.934728  0.689635  1
  O  O19  1  0.310365  0.910130  0.065272  1
