# generated using pymatgen
data_NaFe3(AsO4)3
_symmetry_space_group_name_H-M   'P 1'
_cell_length_a   6.79384209
_cell_length_b   9.48972874
_cell_length_c   9.48958629
_cell_angle_alpha   94.07978744
_cell_angle_beta   110.97140291
_cell_angle_gamma   110.97110463
_symmetry_Int_Tables_number   1
_chemical_formula_structural   NaFe3(AsO4)3
_chemical_formula_sum   'Na2 Fe6 As6 O24'
_cell_volume   519.32819717
_cell_formula_units_Z   2
loop_
 _symmetry_equiv_pos_site_id
 _symmetry_equiv_pos_as_xyz
  1  'x, y, z'
loop_
 _atom_site_type_symbol
 _atom_site_label
 _atom_site_symmetry_multiplicity
 _atom_site_fract_x
 _atom_site_fract_y
 _atom_site_fract_z
 _atom_site_occupancy
  Na  Na0  1  0.416279  0.750033  0.250028  1
  Na  Na1  1  0.583715  0.249956  0.749960  1
  Fe  Fe2  1  0.007340  0.007349  0.007344  1
  Fe  Fe3  1  0.499983  0.385340  0.114582  1
  Fe  Fe4  1  0.000021  0.114639  0.385323  1
  Fe  Fe5  1  0.992636  0.492636  0.492661  1
  Fe  Fe6  1  0.999964  0.885279  0.614765  1
  Fe  Fe7  1  0.500116  0.614786  0.885253  1
  As  As8  1  0.999999  0.326703  0.173355  1
  As  As9  1  0.923871  0.749974  0.249995  1
  As  As10  1  0.500037  0.173370  0.326650  1
  As  As11  1  0.500015  0.820871  0.679182  1
  As  As12  1  0.076114  0.250017  0.749996  1
  As  As13  1  0.000056  0.679131  0.820924  1
  O  O14  1  0.759046  0.350391  0.064531  1
  O  O15  1  0.640937  0.635042  0.117840  1
  O  O16  1  0.338694  0.144601  0.125059  1
  O  O17  1  0.930978  0.125116  0.144626  1
  O  O18  1  0.240931  0.435476  0.149620  1
  O  O19  1  0.069110  0.855242  0.151719  1
  O  O20  1  0.062075  0.644699  0.348212  1
  O  O21  1  0.655897  0.064547  0.350345  1
  O  O22  1  0.661261  0.374915  0.355369  1
  O  O23  1  0.069018  0.355393  0.374931  1
  O  O24  1  0.888058  0.864934  0.382145  1
  O  O25  1  0.344147  0.149641  0.435434  1
  O  O26  1  0.661831  0.848518  0.573546  1
  O  O27  1  0.111923  0.117843  0.635055  1
  O  O28  1  0.934679  0.653819  0.620171  1
  O  O29  1  0.339259  0.620105  0.653823  1
  O  O30  1  0.338110  0.926437  0.651470  1
  O  O31  1  0.930847  0.348260  0.644752  1
  O  O32  1  0.937906  0.151781  0.855297  1
  O  O33  1  0.760194  0.573522  0.848551  1
  O  O34  1  0.065296  0.879836  0.846184  1
  O  O35  1  0.660740  0.846189  0.879897  1
  O  O36  1  0.359059  0.382158  0.864938  1
  O  O37  1  0.239858  0.651453  0.926473  1
