# generated using pymatgen
data_Th5SnBi2Au
_symmetry_space_group_name_H-M   'P 1'
_cell_length_a   9.68142309
_cell_length_b   9.68142373
_cell_length_c   6.62132800
_cell_angle_alpha   90.00000000
_cell_angle_beta   90.00000000
_cell_angle_gamma   120.39351945
_symmetry_Int_Tables_number   1
_chemical_formula_structural   Th5SnBi2Au
_chemical_formula_sum   'Th10 Sn2 Bi4 Au2'
_cell_volume   535.32599461
_cell_formula_units_Z   2
loop_
 _symmetry_equiv_pos_site_id
 _symmetry_equiv_pos_as_xyz
  1  'x, y, z'
loop_
 _atom_site_type_symbol
 _atom_site_label
 _atom_site_symmetry_multiplicity
 _atom_site_fract_x
 _atom_site_fract_y
 _atom_site_fract_z
 _atom_site_occupancy
  Th  Th0  1  0.269935  0.003975  0.750000  1
  Th  Th1  1  0.730065  0.996025  0.250000  1
  Th  Th2  1  0.003975  0.269935  0.750000  1
  Th  Th3  1  0.996025  0.730065  0.250000  1
  Th  Th4  1  0.729031  0.729031  0.750000  1
  Th  Th5  1  0.270969  0.270969  0.250000  1
  Th  Th6  1  0.337404  0.662596  0.500000  1
  Th  Th7  1  0.662596  0.337404  0.500000  1
  Th  Th8  1  0.662596  0.337404  0.000000  1
  Th  Th9  1  0.337404  0.662596  0.000000  1
  Sn  Sn10  1  0.383406  0.383406  0.750000  1
  Sn  Sn11  1  0.616594  0.616594  0.250000  1
  Bi  Bi12  1  0.615800  0.000066  0.750000  1
  Bi  Bi13  1  0.384200  0.999934  0.250000  1
  Bi  Bi14  1  0.000066  0.615800  0.750000  1
  Bi  Bi15  1  0.999934  0.384200  0.250000  1
  Au  Au16  1  0.000000  0.000000  0.500000  1
  Au  Au17  1  0.000000  0.000000  0.000000  1
