# generated using pymatgen
data_Nd3Tm3Sc2(Co4P3)4
_symmetry_space_group_name_H-M   'P 1'
_cell_length_a   3.74629000
_cell_length_b   10.72898256
_cell_length_c   12.44105583
_cell_angle_alpha   90.06194446
_cell_angle_beta   90.00000000
_cell_angle_gamma   90.00000000
_symmetry_Int_Tables_number   1
_chemical_formula_structural   Nd3Tm3Sc2(Co4P3)4
_chemical_formula_sum   'Nd3 Tm3 Sc2 Co16 P12'
_cell_volume   500.05401365
_cell_formula_units_Z   1
loop_
 _symmetry_equiv_pos_site_id
 _symmetry_equiv_pos_as_xyz
  1  'x, y, z'
loop_
 _atom_site_type_symbol
 _atom_site_label
 _atom_site_symmetry_multiplicity
 _atom_site_fract_x
 _atom_site_fract_y
 _atom_site_fract_z
 _atom_site_occupancy
  Nd  Nd0  1  0.000000  0.499648  0.529389  1
  Nd  Nd1  1  0.500000  0.000424  0.471984  1
  Nd  Nd2  1  0.500000  0.823325  0.205845  1
  Tm  Tm3  1  0.500000  0.178932  0.204145  1
  Tm  Tm4  1  0.000000  0.676795  0.796321  1
  Tm  Tm5  1  0.000000  0.322441  0.794640  1
  Sc  Sc6  1  0.500000  0.498903  0.154389  1
  Sc  Sc7  1  0.000000  0.000057  0.845270  1
  Co  Co8  1  0.500000  0.499132  0.709733  1
  Co  Co9  1  0.000000  0.006382  0.290609  1
  Co  Co10  1  0.000000  0.498229  0.986092  1
  Co  Co11  1  0.500000  0.001993  0.010212  1
  Co  Co12  1  0.500000  0.330789  0.993856  1
  Co  Co13  1  0.500000  0.667457  0.992325  1
  Co  Co14  1  0.000000  0.170807  0.003431  1
  Co  Co15  1  0.000000  0.831095  0.002788  1
  Co  Co16  1  0.500000  0.295673  0.431942  1
  Co  Co17  1  0.500000  0.703401  0.435446  1
  Co  Co18  1  0.000000  0.205316  0.568668  1
  Co  Co19  1  0.000000  0.794772  0.571388  1
  Co  Co20  1  0.500000  0.877633  0.706814  1
  Co  Co21  1  0.500000  0.122292  0.705382  1
  Co  Co22  1  0.000000  0.619117  0.297234  1
  Co  Co23  1  0.000000  0.377162  0.293741  1
  P  P24  1  0.500000  0.498717  0.885646  1
  P  P25  1  0.000000  0.003981  0.110753  1
  P  P26  1  0.500000  0.499975  0.356297  1
  P  P27  1  0.000000  0.000194  0.644265  1
  P  P28  1  0.500000  0.306496  0.617547  1
  P  P29  1  0.500000  0.692675  0.619951  1
  P  P30  1  0.000000  0.194498  0.382579  1
  P  P31  1  0.000000  0.803865  0.388210  1
  P  P32  1  0.500000  0.838597  0.892284  1
  P  P33  1  0.500000  0.162042  0.891079  1
  P  P34  1  0.000000  0.658475  0.103013  1
  P  P35  1  0.000000  0.338711  0.106730  1
