# generated using pymatgen
data_Lu10In8Ag3Ru
_symmetry_space_group_name_H-M   'P 1'
_cell_length_a   3.56510800
_cell_length_b   8.14459142
_cell_length_c   18.13479108
_cell_angle_alpha   89.87358356
_cell_angle_beta   90.00000000
_cell_angle_gamma   90.00000000
_symmetry_Int_Tables_number   1
_chemical_formula_structural   Lu10In8Ag3Ru
_chemical_formula_sum   'Lu10 In8 Ag3 Ru1'
_cell_volume   526.56682366
_cell_formula_units_Z   1
loop_
 _symmetry_equiv_pos_site_id
 _symmetry_equiv_pos_as_xyz
  1  'x, y, z'
loop_
 _atom_site_type_symbol
 _atom_site_label
 _atom_site_symmetry_multiplicity
 _atom_site_fract_x
 _atom_site_fract_y
 _atom_site_fract_z
 _atom_site_occupancy
  Lu  Lu0  1  0.000000  0.500622  0.499807  1
  Lu  Lu1  1  0.000000  0.999127  0.000964  1
  Lu  Lu2  1  0.000000  0.714866  0.276034  1
  Lu  Lu3  1  0.000000  0.269063  0.714084  1
  Lu  Lu4  1  0.000000  0.767767  0.786831  1
  Lu  Lu5  1  0.000000  0.264992  0.217327  1
  Lu  Lu6  1  0.000000  0.614208  0.085861  1
  Lu  Lu7  1  0.000000  0.374948  0.922861  1
  Lu  Lu8  1  0.000000  0.877579  0.576786  1
  Lu  Lu9  1  0.000000  0.119879  0.420738  1
  In  In10  1  0.500000  0.705358  0.936040  1
  In  In11  1  0.500000  0.290909  0.069506  1
  In  In12  1  0.500000  0.787936  0.430657  1
  In  In13  1  0.500000  0.209076  0.565899  1
  In  In14  1  0.500000  0.587730  0.648872  1
  In  In15  1  0.500000  0.420236  0.351264  1
  In  In16  1  0.500000  0.915136  0.148136  1
  In  In17  1  0.500000  0.085338  0.851483  1
  Ag  Ag18  1  0.500000  0.475736  0.804096  1
  Ag  Ag19  1  0.500000  0.976087  0.696589  1
  Ag  Ag20  1  0.500000  0.020609  0.301427  1
  Ru  Ru21  1  0.500000  0.522802  0.194737  1
