# generated using pymatgen
data_Y11Er5MgAg3Rh4
_symmetry_space_group_name_H-M   'P 1'
_cell_length_a   9.53915525
_cell_length_b   9.57604706
_cell_length_c   9.57582174
_cell_angle_alpha   60.20326384
_cell_angle_beta   60.24802302
_cell_angle_gamma   60.24833535
_symmetry_Int_Tables_number   1
_chemical_formula_structural   Y11Er5MgAg3Rh4
_chemical_formula_sum   'Y11 Er5 Mg1 Ag3 Rh4'
_cell_volume   621.79027056
_cell_formula_units_Z   1
loop_
 _symmetry_equiv_pos_site_id
 _symmetry_equiv_pos_as_xyz
  1  'x, y, z'
loop_
 _atom_site_type_symbol
 _atom_site_label
 _atom_site_symmetry_multiplicity
 _atom_site_fract_x
 _atom_site_fract_y
 _atom_site_fract_z
 _atom_site_occupancy
  Y  Y0  1  0.436479  0.062184  0.062092  1
  Y  Y1  1  0.436254  0.062761  0.436987  1
  Y  Y2  1  0.058452  0.439720  0.060499  1
  Y  Y3  1  0.436252  0.436987  0.062735  1
  Y  Y4  1  0.058420  0.060509  0.439732  1
  Y  Y5  1  0.185583  0.813293  0.813300  1
  Y  Y6  1  0.815619  0.185353  0.185361  1
  Y  Y7  1  0.813959  0.187012  0.813794  1
  Y  Y8  1  0.185401  0.812401  0.187626  1
  Y  Y9  1  0.813960  0.813785  0.187017  1
  Y  Y10  1  0.185408  0.187606  0.812406  1
  Er  Er11  1  0.601209  0.598212  0.598189  1
  Er  Er12  1  0.599251  0.597675  0.205886  1
  Er  Er13  1  0.599227  0.205907  0.597676  1
  Er  Er14  1  0.187547  0.604170  0.604183  1
  Er  Er15  1  0.059615  0.438546  0.438572  1
  Mg  Mg16  1  0.539891  0.820532  0.820525  1
  Ag  Ag17  1  0.831968  0.834217  0.834200  1
  Ag  Ag18  1  0.832724  0.834376  0.499976  1
  Ag  Ag19  1  0.832703  0.499976  0.834366  1
  Rh  Rh20  1  0.385645  0.396600  0.396581  1
  Rh  Rh21  1  0.391475  0.397222  0.816538  1
  Rh  Rh22  1  0.391484  0.816434  0.397235  1
  Rh  Rh23  1  0.821475  0.394526  0.394527  1
