# generated using pymatgen
data_AcPa3F15
_symmetry_space_group_name_H-M   'P 1'
_cell_length_a   8.08730119
_cell_length_b   8.08729994
_cell_length_c   8.08730141
_cell_angle_alpha   112.77782605
_cell_angle_beta   112.77783187
_cell_angle_gamma   112.77784040
_symmetry_Int_Tables_number   1
_chemical_formula_structural   AcPa3F15
_chemical_formula_sum   'Ac1 Pa3 F15'
_cell_volume   348.56651816
_cell_formula_units_Z   1
loop_
 _symmetry_equiv_pos_site_id
 _symmetry_equiv_pos_as_xyz
  1  'x, y, z'
loop_
 _atom_site_type_symbol
 _atom_site_label
 _atom_site_symmetry_multiplicity
 _atom_site_fract_x
 _atom_site_fract_y
 _atom_site_fract_z
 _atom_site_occupancy
  Ac  Ac0  1  0.498287  0.498287  0.498287  1
  Pa  Pa1  1  0.859480  0.292250  0.859480  1
  Pa  Pa2  1  0.292250  0.859480  0.859480  1
  Pa  Pa3  1  0.859480  0.859480  0.292250  1
  F  F4  1  0.600662  0.929081  0.142113  1
  F  F5  1  0.929081  0.142113  0.600662  1
  F  F6  1  0.142113  0.600662  0.929081  1
  F  F7  1  0.929081  0.600662  0.142113  1
  F  F8  1  0.596059  0.596059  0.257956  1
  F  F9  1  0.257956  0.596059  0.596059  1
  F  F10  1  0.596059  0.257956  0.596059  1
  F  F11  1  0.139350  0.139350  0.357081  1
  F  F12  1  0.357081  0.139350  0.139350  1
  F  F13  1  0.139350  0.357081  0.139350  1
  F  F14  1  0.670633  0.670633  0.906836  1
  F  F15  1  0.906836  0.670633  0.670633  1
  F  F16  1  0.670633  0.906836  0.670633  1
  F  F17  1  0.142113  0.929081  0.600662  1
  F  F18  1  0.600662  0.142113  0.929081  1
