# generated using pymatgen
data_SmDy2Ga8Ag3
_symmetry_space_group_name_H-M   'P 1'
_cell_length_a   4.35912519
_cell_length_b   8.37774787
_cell_length_c   8.37774749
_cell_angle_alpha   69.44002718
_cell_angle_beta   74.92038434
_cell_angle_gamma   74.92038593
_symmetry_Int_Tables_number   1
_chemical_formula_structural   SmDy2Ga8Ag3
_chemical_formula_sum   'Sm1 Dy2 Ga8 Ag3'
_cell_volume   271.73659143
_cell_formula_units_Z   1
loop_
 _symmetry_equiv_pos_site_id
 _symmetry_equiv_pos_as_xyz
  1  'x, y, z'
loop_
 _atom_site_type_symbol
 _atom_site_label
 _atom_site_symmetry_multiplicity
 _atom_site_fract_x
 _atom_site_fract_y
 _atom_site_fract_z
 _atom_site_occupancy
  Sm  Sm0  1  0.500000  0.500000  0.500000  1
  Dy  Dy1  1  0.800037  0.199963  0.199963  1
  Dy  Dy2  1  0.199963  0.800037  0.800037  1
  Ga  Ga3  1  0.644095  0.073058  0.638752  1
  Ga  Ga4  1  0.355905  0.926942  0.361248  1
  Ga  Ga5  1  0.644095  0.638752  0.073058  1
  Ga  Ga6  1  0.355905  0.361248  0.926942  1
  Ga  Ga7  1  0.841023  0.790595  0.527360  1
  Ga  Ga8  1  0.158977  0.209405  0.472640  1
  Ga  Ga9  1  0.841023  0.527360  0.790595  1
  Ga  Ga10  1  0.158977  0.472640  0.209405  1
  Ag  Ag11  1  0.500000  0.000000  0.000000  1
  Ag  Ag12  1  0.000000  0.805150  0.194850  1
  Ag  Ag13  1  0.000000  0.194850  0.805150  1
