# generated using pymatgen
data_La3Tm2(InSb)2
_symmetry_space_group_name_H-M   'P 1'
_cell_length_a   9.34823814
_cell_length_b   8.73341643
_cell_length_c   8.42077100
_cell_angle_alpha   90.32756214
_cell_angle_beta   90.50293144
_cell_angle_gamma   124.84095008
_symmetry_Int_Tables_number   1
_chemical_formula_structural   La3Tm2(InSb)2
_chemical_formula_sum   'La6 Tm4 In4 Sb4'
_cell_volume   564.18055356
_cell_formula_units_Z   2
loop_
 _symmetry_equiv_pos_site_id
 _symmetry_equiv_pos_as_xyz
  1  'x, y, z'
loop_
 _atom_site_type_symbol
 _atom_site_label
 _atom_site_symmetry_multiplicity
 _atom_site_fract_x
 _atom_site_fract_y
 _atom_site_fract_z
 _atom_site_occupancy
  La  La0  1  0.050335  0.343046  0.324672  1
  La  La1  1  0.949665  0.656954  0.675328  1
  La  La2  1  0.449281  0.150253  0.815590  1
  La  La3  1  0.788656  0.513862  0.162605  1
  La  La4  1  0.550719  0.849747  0.184410  1
  La  La5  1  0.211344  0.486138  0.837395  1
  Tm  Tm6  1  0.721257  0.978499  0.657893  1
  Tm  Tm7  1  0.278743  0.021501  0.342107  1
  Tm  Tm8  1  0.000000  0.000000  0.000000  1
  Tm  Tm9  1  0.500000  0.500000  0.500000  1
  In  In10  1  0.371356  0.374461  0.130801  1
  In  In11  1  0.628644  0.625539  0.869199  1
  In  In12  1  0.126729  0.124806  0.626360  1
  In  In13  1  0.873271  0.875194  0.373640  1
  Sb  Sb14  1  0.813707  0.209453  0.967146  1
  Sb  Sb15  1  0.186293  0.790547  0.032854  1
  Sb  Sb16  1  0.673642  0.262595  0.475222  1
  Sb  Sb17  1  0.326358  0.737405  0.524778  1
