# generated using pymatgen
data_Tb19Y(CoBi2)4
_symmetry_space_group_name_H-M   'P 1'
_cell_length_a   8.08021031
_cell_length_b   8.88363700
_cell_length_c   12.49087948
_cell_angle_alpha   90.00000000
_cell_angle_beta   89.96817281
_cell_angle_gamma   90.00000000
_symmetry_Int_Tables_number   1
_chemical_formula_structural   Tb19Y(CoBi2)4
_chemical_formula_sum   'Tb19 Y1 Co4 Bi8'
_cell_volume   896.61586693
_cell_formula_units_Z   1
loop_
 _symmetry_equiv_pos_site_id
 _symmetry_equiv_pos_as_xyz
  1  'x, y, z'
loop_
 _atom_site_type_symbol
 _atom_site_label
 _atom_site_symmetry_multiplicity
 _atom_site_fract_x
 _atom_site_fract_y
 _atom_site_fract_z
 _atom_site_occupancy
  Tb  Tb0  1  0.152236  0.250000  0.198427  1
  Tb  Tb1  1  0.347807  0.250000  0.698441  1
  Tb  Tb2  1  0.652278  0.750000  0.301540  1
  Tb  Tb3  1  0.379388  0.750000  0.690230  1
  Tb  Tb4  1  0.620748  0.250000  0.309804  1
  Tb  Tb5  1  0.879241  0.250000  0.809827  1
  Tb  Tb6  1  0.120808  0.750000  0.190250  1
  Tb  Tb7  1  0.954938  0.750000  0.502499  1
  Tb  Tb8  1  0.044938  0.250000  0.497517  1
  Tb  Tb9  1  0.454997  0.250000  0.997624  1
  Tb  Tb10  1  0.545045  0.750000  0.002464  1
  Tb  Tb11  1  0.677004  0.033591  0.562830  1
  Tb  Tb12  1  0.323065  0.966380  0.437222  1
  Tb  Tb13  1  0.176949  0.966204  0.937240  1
  Tb  Tb14  1  0.323065  0.533620  0.437222  1
  Tb  Tb15  1  0.823050  0.033433  0.062640  1
  Tb  Tb16  1  0.677004  0.466409  0.562830  1
  Tb  Tb17  1  0.823050  0.466567  0.062640  1
  Tb  Tb18  1  0.176949  0.533796  0.937240  1
  Y  Y19  1  0.847430  0.750000  0.800854  1
  Co  Co20  1  0.559389  0.750000  0.508205  1
  Co  Co21  1  0.440406  0.250000  0.491768  1
  Co  Co22  1  0.059353  0.250000  0.991735  1
  Co  Co23  1  0.940855  0.750000  0.008861  1
  Bi  Bi24  1  0.570628  0.492574  0.825463  1
  Bi  Bi25  1  0.429591  0.507534  0.174483  1
  Bi  Bi26  1  0.070150  0.507838  0.674593  1
  Bi  Bi27  1  0.429591  0.992466  0.174483  1
  Bi  Bi28  1  0.929634  0.492409  0.325507  1
  Bi  Bi29  1  0.570628  0.007426  0.825463  1
  Bi  Bi30  1  0.929634  0.007591  0.325507  1
  Bi  Bi31  1  0.070150  0.992162  0.674593  1
