# generated using pymatgen
data_Dy2Ho3Co2
_symmetry_space_group_name_H-M   'P 1'
_cell_length_a   6.29526772
_cell_length_b   6.86678691
_cell_length_c   8.56629756
_cell_angle_alpha   96.28680716
_cell_angle_beta   111.55807262
_cell_angle_gamma   90.00000817
_symmetry_Int_Tables_number   1
_chemical_formula_structural   Dy2Ho3Co2
_chemical_formula_sum   'Dy4 Ho6 Co4'
_cell_volume   342.00603226
_cell_formula_units_Z   2
loop_
 _symmetry_equiv_pos_site_id
 _symmetry_equiv_pos_as_xyz
  1  'x, y, z'
loop_
 _atom_site_type_symbol
 _atom_site_label
 _atom_site_symmetry_multiplicity
 _atom_site_fract_x
 _atom_site_fract_y
 _atom_site_fract_z
 _atom_site_occupancy
  Dy  Dy0  1  0.984946  0.911769  0.189663  1
  Dy  Dy1  1  0.795283  0.588231  0.810337  1
  Dy  Dy2  1  0.015054  0.088231  0.810337  1
  Dy  Dy3  1  0.204717  0.411769  0.189663  1
  Ho  Ho4  1  0.647527  0.815514  0.431202  1
  Ho  Ho5  1  0.216324  0.684486  0.568798  1
  Ho  Ho6  1  0.352473  0.184486  0.568798  1
  Ho  Ho7  1  0.783676  0.315514  0.431202  1
  Ho  Ho8  1  0.430298  0.750000  0.000000  1
  Ho  Ho9  1  0.569702  0.250000  0.000000  1
  Co  Co10  1  0.822850  0.570921  0.223249  1
  Co  Co11  1  0.599601  0.929079  0.776751  1
  Co  Co12  1  0.177150  0.429079  0.776751  1
  Co  Co13  1  0.400399  0.070921  0.223249  1
