# generated using pymatgen
data_Yb(Eu2Ir)2
_symmetry_space_group_name_H-M   'P 1'
_cell_length_a   8.75086365
_cell_length_b   8.75086483
_cell_length_c   7.73207330
_cell_angle_alpha   83.25435993
_cell_angle_beta   83.25435180
_cell_angle_gamma   44.37602586
_symmetry_Int_Tables_number   1
_chemical_formula_structural   Yb(Eu2Ir)2
_chemical_formula_sum   'Yb2 Eu8 Ir4'
_cell_volume   410.75087716
_cell_formula_units_Z   2
loop_
 _symmetry_equiv_pos_site_id
 _symmetry_equiv_pos_as_xyz
  1  'x, y, z'
loop_
 _atom_site_type_symbol
 _atom_site_label
 _atom_site_symmetry_multiplicity
 _atom_site_fract_x
 _atom_site_fract_y
 _atom_site_fract_z
 _atom_site_occupancy
  Yb  Yb0  1  0.573494  0.426506  0.750000  1
  Yb  Yb1  1  0.426506  0.573494  0.250000  1
  Eu  Eu2  1  0.030281  0.794549  0.920722  1
  Eu  Eu3  1  0.205451  0.969719  0.579278  1
  Eu  Eu4  1  0.969719  0.205451  0.079278  1
  Eu  Eu5  1  0.794549  0.030281  0.420722  1
  Eu  Eu6  1  0.366834  0.200993  0.820947  1
  Eu  Eu7  1  0.799007  0.633166  0.679053  1
  Eu  Eu8  1  0.633166  0.799007  0.179053  1
  Eu  Eu9  1  0.200993  0.366834  0.320947  1
  Ir  Ir10  1  0.180565  0.603022  0.581222  1
  Ir  Ir11  1  0.396978  0.819435  0.918778  1
  Ir  Ir12  1  0.819435  0.396978  0.418778  1
  Ir  Ir13  1  0.603022  0.180565  0.081222  1
