# generated using pymatgen
data_Dy10Zn3B16Au
_symmetry_space_group_name_H-M   'P 1'
_cell_length_a   7.19114312
_cell_length_b   7.19114312
_cell_length_c   8.47233500
_cell_angle_alpha   90.00000000
_cell_angle_beta   90.00000000
_cell_angle_gamma   90.02112994
_symmetry_Int_Tables_number   1
_chemical_formula_structural   Dy10Zn3B16Au
_chemical_formula_sum   'Dy10 Zn3 B16 Au1'
_cell_volume   438.12592774
_cell_formula_units_Z   1
loop_
 _symmetry_equiv_pos_site_id
 _symmetry_equiv_pos_as_xyz
  1  'x, y, z'
loop_
 _atom_site_type_symbol
 _atom_site_label
 _atom_site_symmetry_multiplicity
 _atom_site_fract_x
 _atom_site_fract_y
 _atom_site_fract_z
 _atom_site_occupancy
  Dy  Dy0  1  0.680974  0.180974  0.211095  1
  Dy  Dy1  1  0.318102  0.818102  0.789351  1
  Dy  Dy2  1  0.318102  0.818102  0.210649  1
  Dy  Dy3  1  0.818011  0.681836  0.211392  1
  Dy  Dy4  1  0.818011  0.681836  0.788608  1
  Dy  Dy5  1  0.680974  0.180974  0.788905  1
  Dy  Dy6  1  0.181836  0.318011  0.788608  1
  Dy  Dy7  1  0.181836  0.318011  0.211392  1
  Dy  Dy8  1  0.000828  0.997181  0.500000  1
  Dy  Dy9  1  0.497181  0.500828  0.500000  1
  Zn  Zn10  1  0.878693  0.378693  0.500000  1
  Zn  Zn11  1  0.381715  0.118362  0.500000  1
  Zn  Zn12  1  0.618362  0.881715  0.500000  1
  B  B13  1  0.171806  0.040645  0.000000  1
  B  B14  1  0.828137  0.959521  0.000000  1
  B  B15  1  0.959259  0.172196  0.000000  1
  B  B16  1  0.327853  0.540725  0.000000  1
  B  B17  1  0.040725  0.827853  0.000000  1
  B  B18  1  0.672196  0.459259  0.000000  1
  B  B19  1  0.540645  0.671806  0.000000  1
  B  B20  1  0.459521  0.328137  0.000000  1
  B  B21  1  0.090590  0.590590  0.000000  1
  B  B22  1  0.909431  0.409431  0.000000  1
  B  B23  1  0.409356  0.090735  0.000000  1
  B  B24  1  0.590735  0.909356  0.000000  1
  B  B25  1  0.999901  0.000469  0.155852  1
  B  B26  1  0.999901  0.000469  0.844148  1
  B  B27  1  0.500469  0.499901  0.844148  1
  B  B28  1  0.500469  0.499901  0.155852  1
  Au  Au29  1  0.124383  0.624383  0.500000  1
