# generated using pymatgen
data_Tm7Th(CdNi)2
_symmetry_space_group_name_H-M   'P 1'
_cell_length_a   9.45270690
_cell_length_b   9.45273422
_cell_length_c   9.46723900
_cell_angle_alpha   59.94760249
_cell_angle_beta   59.94759008
_cell_angle_gamma   60.03598890
_symmetry_Int_Tables_number   1
_chemical_formula_structural   Tm7Th(CdNi)2
_chemical_formula_sum   'Tm14 Th2 Cd4 Ni4'
_cell_volume   597.85425692
_cell_formula_units_Z   2
loop_
 _symmetry_equiv_pos_site_id
 _symmetry_equiv_pos_as_xyz
  1  'x, y, z'
loop_
 _atom_site_type_symbol
 _atom_site_label
 _atom_site_symmetry_multiplicity
 _atom_site_fract_x
 _atom_site_fract_y
 _atom_site_fract_z
 _atom_site_occupancy
  Tm  Tm0  1  0.349220  0.948475  0.351161  1
  Tm  Tm1  1  0.948471  0.349228  0.351158  1
  Tm  Tm2  1  0.813080  0.189057  0.186853  1
  Tm  Tm3  1  0.189053  0.813086  0.811004  1
  Tm  Tm4  1  0.189055  0.813077  0.186854  1
  Tm  Tm5  1  0.813091  0.189055  0.810999  1
  Tm  Tm6  1  0.187226  0.187230  0.812762  1
  Tm  Tm7  1  0.811897  0.811885  0.188108  1
  Tm  Tm8  1  0.935596  0.564828  0.566056  1
  Tm  Tm9  1  0.564820  0.935596  0.933521  1
  Tm  Tm10  1  0.564824  0.935596  0.566058  1
  Tm  Tm11  1  0.935596  0.564824  0.933520  1
  Tm  Tm12  1  0.565311  0.565315  0.934686  1
  Tm  Tm13  1  0.935683  0.935685  0.564312  1
  Th  Th14  1  0.345023  0.345014  0.351401  1
  Th  Th15  1  0.345037  0.345029  0.958551  1
  Cd  Cd16  1  0.583554  0.583557  0.579725  1
  Cd  Cd17  1  0.583550  0.583553  0.253171  1
  Cd  Cd18  1  0.584949  0.253066  0.580990  1
  Cd  Cd19  1  0.253064  0.584952  0.580990  1
  Ni  Ni20  1  0.142650  0.142655  0.142792  1
  Ni  Ni21  1  0.142631  0.142633  0.571933  1
  Ni  Ni22  1  0.144896  0.571717  0.141696  1
  Ni  Ni23  1  0.571722  0.144887  0.141697  1
