# generated using pymatgen
data_Tb4Al17GaPtRh5
_symmetry_space_group_name_H-M   'P 1'
_cell_length_a   7.56818830
_cell_length_b   7.56913594
_cell_length_c   9.48774809
_cell_angle_alpha   89.99555346
_cell_angle_beta   89.98763730
_cell_angle_gamma   119.40084547
_symmetry_Int_Tables_number   1
_chemical_formula_structural   Tb4Al17GaPtRh5
_chemical_formula_sum   'Tb4 Al17 Ga1 Pt1 Rh5'
_cell_volume   473.50274379
_cell_formula_units_Z   1
loop_
 _symmetry_equiv_pos_site_id
 _symmetry_equiv_pos_as_xyz
  1  'x, y, z'
loop_
 _atom_site_type_symbol
 _atom_site_label
 _atom_site_symmetry_multiplicity
 _atom_site_fract_x
 _atom_site_fract_y
 _atom_site_fract_z
 _atom_site_occupancy
  Tb  Tb0  1  0.993650  0.671801  0.250097  1
  Tb  Tb1  1  0.004439  0.328636  0.750170  1
  Tb  Tb2  1  0.673208  0.995131  0.249794  1
  Tb  Tb3  1  0.329886  0.005918  0.749902  1
  Al  Al4  1  0.872357  0.871617  0.749692  1
  Al  Al5  1  0.004900  0.335630  0.076410  1
  Al  Al6  1  0.002325  0.668142  0.923731  1
  Al  Al7  1  0.999921  0.664687  0.574579  1
  Al  Al8  1  0.335568  0.000107  0.425515  1
  Al  Al9  1  0.001380  0.335457  0.425115  1
  Al  Al10  1  0.664831  0.998738  0.574897  1
  Al  Al11  1  0.664400  0.995149  0.923592  1
  Al  Al12  1  0.331890  0.997677  0.076208  1
  Al  Al13  1  0.332712  0.332756  0.551217  1
  Al  Al14  1  0.666759  0.666857  0.450325  1
  Al  Al15  1  0.665994  0.669283  0.051744  1
  Al  Al16  1  0.330161  0.333525  0.946649  1
  Al  Al17  1  0.339768  0.551113  0.250301  1
  Al  Al18  1  0.660242  0.453461  0.746845  1
  Al  Al19  1  0.547248  0.339359  0.253179  1
  Al  Al20  1  0.449730  0.659818  0.749750  1
  Ga  Ga21  1  0.130137  0.129242  0.250290  1
  Pt  Pt22  1  0.671524  0.327301  0.000415  1
  Rh  Rh23  1  0.327901  0.671148  0.000476  1
  Rh  Rh24  1  0.328154  0.670950  0.499585  1
  Rh  Rh25  1  0.671495  0.327532  0.499583  1
  Rh  Rh26  1  0.999612  0.999633  0.998079  1
  Rh  Rh27  1  0.999811  0.999330  0.501860  1
