# generated using pymatgen
data_Hf8ScTiRe3P
_symmetry_space_group_name_H-M   'P 1'
_cell_length_a   8.62238211
_cell_length_b   8.61480613
_cell_length_c   8.54221900
_cell_angle_alpha   90.00000000
_cell_angle_beta   90.00000000
_cell_angle_gamma   119.97093423
_symmetry_Int_Tables_number   1
_chemical_formula_structural   Hf8ScTiRe3P
_chemical_formula_sum   'Hf16 Sc2 Ti2 Re6 P2'
_cell_volume   549.66898311
_cell_formula_units_Z   2
loop_
 _symmetry_equiv_pos_site_id
 _symmetry_equiv_pos_as_xyz
  1  'x, y, z'
loop_
 _atom_site_type_symbol
 _atom_site_label
 _atom_site_symmetry_multiplicity
 _atom_site_fract_x
 _atom_site_fract_y
 _atom_site_fract_z
 _atom_site_occupancy
  Hf  Hf0  1  0.196224  0.804056  0.450367  1
  Hf  Hf1  1  0.196224  0.392166  0.450367  1
  Hf  Hf2  1  0.607825  0.803911  0.450395  1
  Hf  Hf3  1  0.803501  0.196307  0.549284  1
  Hf  Hf4  1  0.803501  0.607197  0.549284  1
  Hf  Hf5  1  0.392106  0.196054  0.549544  1
  Hf  Hf6  1  0.803501  0.196307  0.950716  1
  Hf  Hf7  1  0.803501  0.607197  0.950716  1
  Hf  Hf8  1  0.392106  0.196054  0.950456  1
  Hf  Hf9  1  0.196224  0.804056  0.049633  1
  Hf  Hf10  1  0.196224  0.392166  0.049633  1
  Hf  Hf11  1  0.607825  0.803911  0.049605  1
  Hf  Hf12  1  0.919382  0.459691  0.250000  1
  Hf  Hf13  1  0.458323  0.541279  0.750000  1
  Hf  Hf14  1  0.458323  0.917045  0.750000  1
  Hf  Hf15  1  0.082644  0.541322  0.750000  1
  Sc  Sc16  1  0.541816  0.458006  0.250000  1
  Sc  Sc17  1  0.541816  0.083811  0.250000  1
  Ti  Ti18  1  0.000159  0.000079  0.498050  1
  Ti  Ti19  1  0.000159  0.000079  0.001950  1
  Re  Re20  1  0.889207  0.112879  0.250000  1
  Re  Re21  1  0.889207  0.776327  0.250000  1
  Re  Re22  1  0.222645  0.111322  0.250000  1
  Re  Re23  1  0.111314  0.888263  0.750000  1
  Re  Re24  1  0.111314  0.223052  0.750000  1
  Re  Re25  1  0.776562  0.888281  0.750000  1
  P  P26  1  0.331732  0.665866  0.250000  1
  P  P27  1  0.666634  0.333317  0.750000  1
