# generated using pymatgen
data_Tb5Tm6LuRu4
_symmetry_space_group_name_H-M   'P 1'
_cell_length_a   6.26942891
_cell_length_b   7.29636868
_cell_length_c   9.03344412
_cell_angle_alpha   89.98374530
_cell_angle_beta   90.23016639
_cell_angle_gamma   90.08465753
_symmetry_Int_Tables_number   1
_chemical_formula_structural   Tb5Tm6LuRu4
_chemical_formula_sum   'Tb5 Tm6 Lu1 Ru4'
_cell_volume   413.22265126
_cell_formula_units_Z   1
loop_
 _symmetry_equiv_pos_site_id
 _symmetry_equiv_pos_as_xyz
  1  'x, y, z'
loop_
 _atom_site_type_symbol
 _atom_site_label
 _atom_site_symmetry_multiplicity
 _atom_site_fract_x
 _atom_site_fract_y
 _atom_site_fract_z
 _atom_site_occupancy
  Tb  Tb0  1  0.332941  0.676722  0.063825  1
  Tb  Tb1  1  0.868845  0.539863  0.250758  1
  Tb  Tb2  1  0.631077  0.041229  0.250375  1
  Tb  Tb3  1  0.130243  0.459025  0.749371  1
  Tb  Tb4  1  0.369660  0.960034  0.749427  1
  Tm  Tm5  1  0.166380  0.176358  0.435456  1
  Tm  Tm6  1  0.666671  0.323739  0.564191  1
  Tm  Tm7  1  0.833925  0.824486  0.935252  1
  Tm  Tm8  1  0.667332  0.322979  0.935176  1
  Tm  Tm9  1  0.833852  0.824019  0.564279  1
  Tm  Tm10  1  0.333356  0.675743  0.436778  1
  Lu  Lu11  1  0.165782  0.175778  0.064622  1
  Ru  Ru12  1  0.040697  0.885595  0.250850  1
  Ru  Ru13  1  0.457940  0.383535  0.250757  1
  Ru  Ru14  1  0.958308  0.115676  0.750535  1
  Ru  Ru15  1  0.542992  0.615220  0.748350  1
