# generated using pymatgen
data_LiSm2Lu(B6Os)2
_symmetry_space_group_name_H-M   'P 1'
_cell_length_a   3.61669000
_cell_length_b   9.01665602
_cell_length_c   11.45784697
_cell_angle_alpha   89.76510955
_cell_angle_beta   90.00000000
_cell_angle_gamma   90.00000000
_symmetry_Int_Tables_number   1
_chemical_formula_structural   LiSm2Lu(B6Os)2
_chemical_formula_sum   'Li2 Sm4 Lu2 B24 Os4'
_cell_volume   373.64240205
_cell_formula_units_Z   2
loop_
 _symmetry_equiv_pos_site_id
 _symmetry_equiv_pos_as_xyz
  1  'x, y, z'
loop_
 _atom_site_type_symbol
 _atom_site_label
 _atom_site_symmetry_multiplicity
 _atom_site_fract_x
 _atom_site_fract_y
 _atom_site_fract_z
 _atom_site_occupancy
  Li  Li0  1  0.000000  0.945155  0.374566  1
  Li  Li1  1  0.000000  0.054845  0.625434  1
  Sm  Sm2  1  0.000000  0.315739  0.416132  1
  Sm  Sm3  1  0.000000  0.684261  0.583868  1
  Sm  Sm4  1  0.000000  0.824182  0.087537  1
  Sm  Sm5  1  0.000000  0.175818  0.912463  1
  Lu  Lu6  1  0.000000  0.442365  0.131440  1
  Lu  Lu7  1  0.000000  0.557635  0.868560  1
  B  B8  1  0.500000  0.555779  0.431784  1
  B  B9  1  0.500000  0.444221  0.568216  1
  B  B10  1  0.500000  0.054842  0.069633  1
  B  B11  1  0.500000  0.945158  0.930367  1
  B  B12  1  0.500000  0.759728  0.416107  1
  B  B13  1  0.500000  0.240272  0.583893  1
  B  B14  1  0.500000  0.249996  0.083805  1
  B  B15  1  0.500000  0.750004  0.916195  1
  B  B16  1  0.500000  0.795544  0.265706  1
  B  B17  1  0.500000  0.204456  0.734293  1
  B  B18  1  0.500000  0.288813  0.236219  1
  B  B19  1  0.500000  0.711187  0.763782  1
  B  B20  1  0.500000  0.630842  0.186260  1
  B  B21  1  0.500000  0.369158  0.813740  1
  B  B22  1  0.500000  0.122616  0.319069  1
  B  B23  1  0.500000  0.877384  0.680931  1
  B  B24  1  0.500000  0.980367  0.215655  1
  B  B25  1  0.500000  0.019633  0.784345  1
  B  B26  1  0.500000  0.482801  0.288095  1
  B  B27  1  0.500000  0.517199  0.711905  1
  B  B28  1  0.500000  0.598346  0.026572  1
  B  B29  1  0.500000  0.401654  0.973428  1
  B  B30  1  0.500000  0.090480  0.475074  1
  B  B31  1  0.500000  0.909520  0.524926  1
  Os  Os32  1  0.000000  0.642448  0.321082  1
  Os  Os33  1  0.000000  0.357552  0.678918  1
  Os  Os34  1  0.000000  0.137043  0.184463  1
  Os  Os35  1  0.000000  0.862957  0.815537  1
