# generated using pymatgen
data_TbNd3(BiO4)4
_symmetry_space_group_name_H-M   'P 1'
_cell_length_a   5.64011930
_cell_length_b   7.93859560
_cell_length_c   7.96016255
_cell_angle_alpha   82.63274302
_cell_angle_beta   89.99056271
_cell_angle_gamma   90.38490182
_symmetry_Int_Tables_number   1
_chemical_formula_structural   TbNd3(BiO4)4
_chemical_formula_sum   'Tb1 Nd3 Bi4 O16'
_cell_volume   353.46280448
_cell_formula_units_Z   1
loop_
 _symmetry_equiv_pos_site_id
 _symmetry_equiv_pos_as_xyz
  1  'x, y, z'
loop_
 _atom_site_type_symbol
 _atom_site_label
 _atom_site_symmetry_multiplicity
 _atom_site_fract_x
 _atom_site_fract_y
 _atom_site_fract_z
 _atom_site_occupancy
  Tb  Tb0  1  0.726849  0.138150  0.111852  1
  Nd  Nd1  1  0.270068  0.862535  0.891871  1
  Nd  Nd2  1  0.232439  0.866348  0.388864  1
  Nd  Nd3  1  0.764270  0.135532  0.610671  1
  Bi  Bi4  1  0.772132  0.661575  0.684076  1
  Bi  Bi5  1  0.729508  0.661352  0.184013  1
  Bi  Bi6  1  0.270192  0.337766  0.818786  1
  Bi  Bi7  1  0.226559  0.337629  0.313804  1
  O  O8  1  0.100580  0.578114  0.815587  1
  O  O9  1  0.605315  0.671815  0.928801  1
  O  O10  1  0.396769  0.580085  0.311899  1
  O  O11  1  0.505017  0.842114  0.618272  1
  O  O12  1  0.895788  0.669552  0.429566  1
  O  O13  1  0.002049  0.837927  0.119446  1
  O  O14  1  0.994082  0.889087  0.665448  1
  O  O15  1  0.491414  0.113532  0.838083  1
  O  O16  1  0.517449  0.891544  0.166338  1
  O  O17  1  0.001569  0.113095  0.326219  1
  O  O18  1  0.993506  0.163848  0.889780  1
  O  O19  1  0.109778  0.319831  0.572432  1
  O  O20  1  0.496623  0.158158  0.377782  1
  O  O21  1  0.596780  0.422966  0.682378  1
  O  O22  1  0.403123  0.327048  0.071977  1
  O  O23  1  0.898137  0.420396  0.182057  1
