# generated using pymatgen
data_NdEr2Si2GeRh6
_symmetry_space_group_name_H-M   'P 1'
_cell_length_a   5.61114500
_cell_length_b   5.61123527
_cell_length_c   15.12276100
_cell_angle_alpha   90.00000000
_cell_angle_beta   90.00000000
_cell_angle_gamma   119.99858661
_symmetry_Int_Tables_number   1
_chemical_formula_structural   NdEr2Si2GeRh6
_chemical_formula_sum   'Nd2 Er4 Si4 Ge2 Rh12'
_cell_volume   412.36127669
_cell_formula_units_Z   2
loop_
 _symmetry_equiv_pos_site_id
 _symmetry_equiv_pos_as_xyz
  1  'x, y, z'
loop_
 _atom_site_type_symbol
 _atom_site_label
 _atom_site_symmetry_multiplicity
 _atom_site_fract_x
 _atom_site_fract_y
 _atom_site_fract_z
 _atom_site_occupancy
  Nd  Nd0  1  0.333334  0.666671  0.750000  1
  Nd  Nd1  1  0.666666  0.333329  0.250000  1
  Er  Er2  1  0.333328  0.666680  0.536350  1
  Er  Er3  1  0.666672  0.333320  0.463650  1
  Er  Er4  1  0.666672  0.333320  0.036350  1
  Er  Er5  1  0.333328  0.666680  0.963650  1
  Si  Si6  1  0.000000  0.999998  0.250000  1
  Si  Si7  1  0.000000  0.000002  0.750000  1
  Si  Si8  1  0.333333  0.666670  0.250000  1
  Si  Si9  1  0.666667  0.333330  0.750000  1
  Ge  Ge10  1  0.000000  0.000000  0.000000  1
  Ge  Ge11  1  0.000000  0.000000  0.500000  1
  Rh  Rh12  1  0.167795  0.335597  0.131498  1
  Rh  Rh13  1  0.832205  0.664403  0.868502  1
  Rh  Rh14  1  0.664400  0.832208  0.131499  1
  Rh  Rh15  1  0.832205  0.664403  0.631498  1
  Rh  Rh16  1  0.335600  0.167792  0.868501  1
  Rh  Rh17  1  0.167795  0.335597  0.368502  1
  Rh  Rh18  1  0.167806  0.832204  0.131508  1
  Rh  Rh19  1  0.335600  0.167792  0.631499  1
  Rh  Rh20  1  0.832194  0.167796  0.868492  1
  Rh  Rh21  1  0.664400  0.832208  0.368501  1
  Rh  Rh22  1  0.832194  0.167796  0.631508  1
  Rh  Rh23  1  0.167806  0.832204  0.368492  1
