# generated using pymatgen
data_Cs4Zn3CdF12
_symmetry_space_group_name_H-M   'P 1'
_cell_length_a   10.91193979
_cell_length_b   10.91193956
_cell_length_c   10.91194024
_cell_angle_alpha   33.82001633
_cell_angle_beta   33.82001523
_cell_angle_gamma   33.82001952
_symmetry_Int_Tables_number   1
_chemical_formula_structural   Cs4Zn3CdF12
_chemical_formula_sum   'Cs4 Zn3 Cd1 F12'
_cell_volume   358.67533473
_cell_formula_units_Z   1
loop_
 _symmetry_equiv_pos_site_id
 _symmetry_equiv_pos_as_xyz
  1  'x, y, z'
loop_
 _atom_site_type_symbol
 _atom_site_label
 _atom_site_symmetry_multiplicity
 _atom_site_fract_x
 _atom_site_fract_y
 _atom_site_fract_z
 _atom_site_occupancy
  Cs  Cs0  1  0.715003  0.715003  0.715003  1
  Cs  Cs1  1  0.869797  0.869797  0.869797  1
  Cs  Cs2  1  0.284997  0.284997  0.284997  1
  Cs  Cs3  1  0.130203  0.130203  0.130203  1
  Zn  Zn4  1  0.409000  0.409000  0.409000  1
  Zn  Zn5  1  0.591000  0.591000  0.591000  1
  Zn  Zn6  1  0.500000  0.500000  0.500000  1
  Cd  Cd7  1  0.000000  0.000000  0.000000  1
  F  F8  1  0.171082  0.598860  0.598860  1
  F  F9  1  0.598860  0.598860  0.171082  1
  F  F10  1  0.695674  0.214446  0.214446  1
  F  F11  1  0.304326  0.785554  0.785554  1
  F  F12  1  0.214446  0.214446  0.695674  1
  F  F13  1  0.828918  0.401140  0.401140  1
  F  F14  1  0.785554  0.785554  0.304326  1
  F  F15  1  0.401140  0.401140  0.828918  1
  F  F16  1  0.401140  0.828918  0.401140  1
  F  F17  1  0.214446  0.695674  0.214446  1
  F  F18  1  0.785554  0.304326  0.785554  1
  F  F19  1  0.598860  0.171082  0.598860  1
