# generated using pymatgen
data_Hf4Zr6Si2Sn5Sb
_symmetry_space_group_name_H-M   'P 1'
_cell_length_a   8.66520800
_cell_length_b   8.66498558
_cell_length_c   5.86765800
_cell_angle_alpha   90.00000000
_cell_angle_beta   90.00000000
_cell_angle_gamma   120.00084150
_symmetry_Int_Tables_number   1
_chemical_formula_structural   Hf4Zr6Si2Sn5Sb
_chemical_formula_sum   'Hf4 Zr6 Si2 Sn5 Sb1'
_cell_volume   381.53868444
_cell_formula_units_Z   1
loop_
 _symmetry_equiv_pos_site_id
 _symmetry_equiv_pos_as_xyz
  1  'x, y, z'
loop_
 _atom_site_type_symbol
 _atom_site_label
 _atom_site_symmetry_multiplicity
 _atom_site_fract_x
 _atom_site_fract_y
 _atom_site_fract_z
 _atom_site_occupancy
  Hf  Hf0  1  0.333667  0.667726  0.000381  1
  Hf  Hf1  1  0.665941  0.332274  0.499619  1
  Hf  Hf2  1  0.665941  0.332274  0.000381  1
  Hf  Hf3  1  0.333667  0.667726  0.499619  1
  Zr  Zr4  1  0.259357  0.000000  0.250000  1
  Zr  Zr5  1  0.258061  0.257523  0.750000  1
  Zr  Zr6  1  0.000538  0.742477  0.750000  1
  Zr  Zr7  1  0.999708  0.258410  0.250000  1
  Zr  Zr8  1  0.741297  0.741590  0.250000  1
  Zr  Zr9  1  0.740918  0.000000  0.750000  1
  Si  Si10  1  0.999465  0.000000  0.000448  1
  Si  Si11  1  0.999465  0.000000  0.499552  1
  Sn  Sn12  1  0.606728  0.000000  0.250000  1
  Sn  Sn13  1  0.605132  0.604979  0.750000  1
  Sn  Sn14  1  0.000153  0.395021  0.750000  1
  Sn  Sn15  1  0.999213  0.604744  0.250000  1
  Sn  Sn16  1  0.394469  0.395256  0.250000  1
  Sb  Sb17  1  0.396279  0.000000  0.750000  1
