# generated using pymatgen
data_Li4Nd5SmPd13
_symmetry_space_group_name_H-M   'P 1'
_cell_length_a   8.38129863
_cell_length_b   8.38129844
_cell_length_c   8.38129902
_cell_angle_alpha   109.47540710
_cell_angle_beta   109.47540668
_cell_angle_gamma   109.46285153
_symmetry_Int_Tables_number   1
_chemical_formula_structural   Li4Nd5SmPd13
_chemical_formula_sum   'Li4 Nd5 Sm1 Pd13'
_cell_volume   453.22310442
_cell_formula_units_Z   1
loop_
 _symmetry_equiv_pos_site_id
 _symmetry_equiv_pos_as_xyz
  1  'x, y, z'
loop_
 _atom_site_type_symbol
 _atom_site_label
 _atom_site_symmetry_multiplicity
 _atom_site_fract_x
 _atom_site_fract_y
 _atom_site_fract_z
 _atom_site_occupancy
  Li  Li0  1  0.999870  0.999870  0.499725  1
  Li  Li1  1  0.999870  0.500145  0.000000  1
  Li  Li2  1  0.500145  0.999870  0.000000  1
  Li  Li3  1  0.500145  0.500145  0.500275  1
  Nd  Nd4  1  0.306069  0.999880  0.306189  1
  Nd  Nd5  1  0.999880  0.306069  0.306189  1
  Nd  Nd6  1  0.306601  0.306601  0.000000  1
  Nd  Nd7  1  0.693691  0.999880  0.693811  1
  Nd  Nd8  1  0.999880  0.693691  0.693811  1
  Sm  Sm9  1  0.692818  0.692818  0.000000  1
  Pd  Pd10  1  0.333164  0.333164  0.665434  1
  Pd  Pd11  1  0.667736  0.999638  0.331902  1
  Pd  Pd12  1  0.999638  0.667736  0.331902  1
  Pd  Pd13  1  0.667730  0.333164  0.000000  1
  Pd  Pd14  1  0.332314  0.664600  0.332286  1
  Pd  Pd15  1  0.000027  0.332314  0.667714  1
  Pd  Pd16  1  0.333164  0.667730  0.000000  1
  Pd  Pd17  1  0.332314  0.000027  0.667714  1
  Pd  Pd18  1  0.664600  0.332314  0.332286  1
  Pd  Pd19  1  0.667730  0.667730  0.334566  1
  Pd  Pd20  1  0.667736  0.335834  0.668098  1
  Pd  Pd21  1  0.335834  0.667736  0.668098  1
  Pd  Pd22  1  0.999044  0.999044  0.000000  1
