# generated using pymatgen
data_Pm4Fe3SnO12
_symmetry_space_group_name_H-M   'P 1'
_cell_length_a   5.52420248
_cell_length_b   5.80275515
_cell_length_c   7.91009113
_cell_angle_alpha   89.95375859
_cell_angle_beta   89.50699123
_cell_angle_gamma   90.57807314
_symmetry_Int_Tables_number   1
_chemical_formula_structural   Pm4Fe3SnO12
_chemical_formula_sum   'Pm4 Fe3 Sn1 O12'
_cell_volume   253.54028010
_cell_formula_units_Z   1
loop_
 _symmetry_equiv_pos_site_id
 _symmetry_equiv_pos_as_xyz
  1  'x, y, z'
loop_
 _atom_site_type_symbol
 _atom_site_label
 _atom_site_symmetry_multiplicity
 _atom_site_fract_x
 _atom_site_fract_y
 _atom_site_fract_z
 _atom_site_occupancy
  Pm  Pm0  1  0.982737  0.071797  0.254795  1
  Pm  Pm1  1  0.517362  0.559918  0.256285  1
  Pm  Pm2  1  0.482639  0.440082  0.743715  1
  Pm  Pm3  1  0.017262  0.928203  0.745205  1
  Fe  Fe4  1  0.000000  0.499999  0.000000  1
  Fe  Fe5  1  0.500000  0.000000  0.500000  1
  Fe  Fe6  1  0.000000  0.499999  0.500000  1
  Sn  Sn7  1  0.500000  0.000000  0.000000  1
  O  O8  1  0.684347  0.302791  0.058477  1
  O  O9  1  0.801702  0.814087  0.059573  1
  O  O10  1  0.108827  0.464183  0.258767  1
  O  O11  1  0.389179  0.961788  0.255294  1
  O  O12  1  0.698197  0.298752  0.445681  1
  O  O13  1  0.798169  0.803085  0.445748  1
  O  O14  1  0.201832  0.196915  0.554253  1
  O  O15  1  0.301804  0.701248  0.554320  1
  O  O16  1  0.610822  0.038212  0.744706  1
  O  O17  1  0.891174  0.535817  0.741233  1
  O  O18  1  0.198299  0.185913  0.940428  1
  O  O19  1  0.315654  0.697209  0.941524  1
