# generated using pymatgen
data_Lu9Mg(Ni2Te)2
_symmetry_space_group_name_H-M   'P 1'
_cell_length_a   8.41416611
_cell_length_b   8.41416622
_cell_length_c   8.41416646
_cell_angle_alpha   128.15394673
_cell_angle_beta   128.15394917
_cell_angle_gamma   76.37577014
_symmetry_Int_Tables_number   1
_chemical_formula_structural   Lu9Mg(Ni2Te)2
_chemical_formula_sum   'Lu9 Mg1 Ni4 Te2'
_cell_volume   357.92851626
_cell_formula_units_Z   1
loop_
 _symmetry_equiv_pos_site_id
 _symmetry_equiv_pos_as_xyz
  1  'x, y, z'
loop_
 _atom_site_type_symbol
 _atom_site_label
 _atom_site_symmetry_multiplicity
 _atom_site_fract_x
 _atom_site_fract_y
 _atom_site_fract_z
 _atom_site_occupancy
  Lu  Lu0  1  0.500000  0.500000  0.000000  1
  Lu  Lu1  1  0.797761  0.283975  0.817858  1
  Lu  Lu2  1  0.202239  0.716025  0.182142  1
  Lu  Lu3  1  0.466116  0.979902  0.182142  1
  Lu  Lu4  1  0.283975  0.466116  0.486214  1
  Lu  Lu5  1  0.020098  0.202239  0.486214  1
  Lu  Lu6  1  0.533884  0.020098  0.817858  1
  Lu  Lu7  1  0.716025  0.533884  0.513786  1
  Lu  Lu8  1  0.979902  0.797761  0.513786  1
  Mg  Mg9  1  0.000000  0.000000  0.000000  1
  Ni  Ni10  1  0.134060  0.626685  0.760746  1
  Ni  Ni11  1  0.865940  0.373315  0.239254  1
  Ni  Ni12  1  0.626685  0.865940  0.492626  1
  Ni  Ni13  1  0.373315  0.134060  0.507374  1
  Te  Te14  1  0.256951  0.256951  0.000000  1
  Te  Te15  1  0.743049  0.743049  0.000000  1
