# generated using pymatgen
data_Dy8Tm2Zn3Bi2Au
_symmetry_space_group_name_H-M   'P 1'
_cell_length_a   8.66959803
_cell_length_b   8.66959880
_cell_length_c   8.67593583
_cell_angle_alpha   124.04296468
_cell_angle_beta   124.04296981
_cell_angle_gamma   83.08207914
_symmetry_Int_Tables_number   1
_chemical_formula_structural   Dy8Tm2Zn3Bi2Au
_chemical_formula_sum   'Dy8 Tm2 Zn3 Bi2 Au1'
_cell_volume   429.69515404
_cell_formula_units_Z   1
loop_
 _symmetry_equiv_pos_site_id
 _symmetry_equiv_pos_as_xyz
  1  'x, y, z'
loop_
 _atom_site_type_symbol
 _atom_site_label
 _atom_site_symmetry_multiplicity
 _atom_site_fract_x
 _atom_site_fract_y
 _atom_site_fract_z
 _atom_site_occupancy
  Dy  Dy0  1  0.510504  0.011932  0.805992  1
  Dy  Dy1  1  0.204512  0.705939  0.194008  1
  Dy  Dy2  1  0.012949  0.205067  0.500000  1
  Dy  Dy3  1  0.705219  0.512187  0.500000  1
  Dy  Dy4  1  0.488068  0.989496  0.194008  1
  Dy  Dy5  1  0.794061  0.295488  0.805992  1
  Dy  Dy6  1  0.987813  0.794781  0.500000  1
  Dy  Dy7  1  0.294933  0.487051  0.500000  1
  Tm  Tm8  1  0.499734  0.499621  0.999355  1
  Tm  Tm9  1  0.000379  0.000266  0.000645  1
  Zn  Zn10  1  0.139041  0.640955  0.779996  1
  Zn  Zn11  1  0.859045  0.360959  0.220004  1
  Zn  Zn12  1  0.640924  0.859076  0.500000  1
  Bi  Bi13  1  0.249097  0.250903  0.000000  1
  Bi  Bi14  1  0.749097  0.750903  0.000000  1
  Au  Au15  1  0.364623  0.135377  0.500000  1
