# generated using pymatgen
data_Ca2La7LuSi8O3
_symmetry_space_group_name_H-M   'P 1'
_cell_length_a   10.72521381
_cell_length_b   10.74901347
_cell_length_c   4.57024100
_cell_angle_alpha   90.00000000
_cell_angle_beta   90.00000000
_cell_angle_gamma   120.07344110
_symmetry_Int_Tables_number   1
_chemical_formula_structural   Ca2La7LuSi8O3
_chemical_formula_sum   'Ca2 La7 Lu1 Si8 O3'
_cell_volume   455.95546747
_cell_formula_units_Z   1
loop_
 _symmetry_equiv_pos_site_id
 _symmetry_equiv_pos_as_xyz
  1  'x, y, z'
loop_
 _atom_site_type_symbol
 _atom_site_label
 _atom_site_symmetry_multiplicity
 _atom_site_fract_x
 _atom_site_fract_y
 _atom_site_fract_z
 _atom_site_occupancy
  Ca  Ca0  1  0.500000  0.500000  0.500000  1
  Ca  Ca1  1  0.500000  0.000000  0.500000  1
  La  La2  1  0.215950  0.791686  0.000000  1
  La  La3  1  0.573481  0.786740  0.000000  1
  La  La4  1  0.784050  0.575737  0.000000  1
  La  La5  1  0.000000  0.000000  0.000000  1
  La  La6  1  0.215950  0.424263  0.000000  1
  La  La7  1  0.426519  0.213260  0.000000  1
  La  La8  1  0.784050  0.208314  0.000000  1
  Lu  Lu9  1  0.000000  0.500000  0.500000  1
  Si  Si10  1  0.000000  0.776306  0.500000  1
  Si  Si11  1  0.000000  0.223694  0.500000  1
  Si  Si12  1  0.218858  0.219053  0.500000  1
  Si  Si13  1  0.781142  0.000195  0.500000  1
  Si  Si14  1  0.322968  0.661485  0.500000  1
  Si  Si15  1  0.218858  0.999805  0.500000  1
  Si  Si16  1  0.677032  0.338515  0.500000  1
  Si  Si17  1  0.781142  0.780947  0.500000  1
  O  O18  1  0.000000  0.500000  0.000000  1
  O  O19  1  0.500000  0.500000  0.000000  1
  O  O20  1  0.500000  0.000000  0.000000  1
