# generated using pymatgen
data_Pr3Dy3Tm2(CdIr)2
_symmetry_space_group_name_H-M   'P 1'
_cell_length_a   9.75150160
_cell_length_b   9.74597680
_cell_length_c   9.74597657
_cell_angle_alpha   60.03750206
_cell_angle_beta   59.98124258
_cell_angle_gamma   59.98124178
_symmetry_Int_Tables_number   1
_chemical_formula_structural   Pr3Dy3Tm2(CdIr)2
_chemical_formula_sum   'Pr6 Dy6 Tm4 Cd4 Ir4'
_cell_volume   654.94813682
_cell_formula_units_Z   2
loop_
 _symmetry_equiv_pos_site_id
 _symmetry_equiv_pos_as_xyz
  1  'x, y, z'
loop_
 _atom_site_type_symbol
 _atom_site_label
 _atom_site_symmetry_multiplicity
 _atom_site_fract_x
 _atom_site_fract_y
 _atom_site_fract_z
 _atom_site_occupancy
  Pr  Pr0  1  0.941773  0.558227  0.558227  1
  Pr  Pr1  1  0.558227  0.941773  0.941773  1
  Pr  Pr2  1  0.558169  0.941831  0.558169  1
  Pr  Pr3  1  0.941831  0.558169  0.941831  1
  Pr  Pr4  1  0.558169  0.558169  0.941831  1
  Pr  Pr5  1  0.941831  0.941831  0.558169  1
  Dy  Dy6  1  0.346571  0.347973  0.347973  1
  Dy  Dy7  1  0.347973  0.346571  0.957483  1
  Dy  Dy8  1  0.347973  0.957483  0.346571  1
  Dy  Dy9  1  0.957483  0.347973  0.347973  1
  Dy  Dy10  1  0.813952  0.186048  0.186048  1
  Dy  Dy11  1  0.186048  0.813952  0.813952  1
  Tm  Tm12  1  0.186790  0.813210  0.186790  1
  Tm  Tm13  1  0.813210  0.186790  0.813210  1
  Tm  Tm14  1  0.186790  0.186790  0.813210  1
  Tm  Tm15  1  0.813210  0.813210  0.186790  1
  Cd  Cd16  1  0.579863  0.579135  0.579135  1
  Cd  Cd17  1  0.579135  0.579863  0.261866  1
  Cd  Cd18  1  0.579135  0.261866  0.579863  1
  Cd  Cd19  1  0.261866  0.579135  0.579135  1
  Ir  Ir20  1  0.142069  0.139920  0.139920  1
  Ir  Ir21  1  0.139920  0.142069  0.578091  1
  Ir  Ir22  1  0.139920  0.578091  0.142069  1
  Ir  Ir23  1  0.578091  0.139920  0.139920  1
