# generated using pymatgen
data_Ho8Ta11TiSi15Sn
_symmetry_space_group_name_H-M   'P 1'
_cell_length_a   7.08393315
_cell_length_b   7.04387483
_cell_length_c   13.00803444
_cell_angle_alpha   90.02453573
_cell_angle_beta   89.85022955
_cell_angle_gamma   89.88526119
_symmetry_Int_Tables_number   1
_chemical_formula_structural   Ho8Ta11TiSi15Sn
_chemical_formula_sum   'Ho8 Ta11 Ti1 Si15 Sn1'
_cell_volume   649.07572425
_cell_formula_units_Z   1
loop_
 _symmetry_equiv_pos_site_id
 _symmetry_equiv_pos_as_xyz
  1  'x, y, z'
loop_
 _atom_site_type_symbol
 _atom_site_label
 _atom_site_symmetry_multiplicity
 _atom_site_fract_x
 _atom_site_fract_y
 _atom_site_fract_z
 _atom_site_occupancy
  Ho  Ho0  1  0.345355  0.999304  0.462626  1
  Ho  Ho1  1  0.505858  0.836993  0.720246  1
  Ho  Ho2  1  0.501941  0.158606  0.218119  1
  Ho  Ho3  1  0.841756  0.498720  0.281026  1
  Ho  Ho4  1  0.158850  0.507532  0.784696  1
  Ho  Ho5  1  0.659714  0.997099  0.969999  1
  Ho  Ho6  1  0.992868  0.348553  0.525905  1
  Ho  Ho7  1  0.999222  0.658994  0.032854  1
  Ta  Ta8  1  0.329652  0.329430  0.001198  1
  Ta  Ta9  1  0.170918  0.828907  0.249671  1
  Ta  Ta10  1  0.818759  0.173277  0.752090  1
  Ta  Ta11  1  0.670766  0.670768  0.499527  1
  Ta  Ta12  1  0.152389  0.005544  0.880466  1
  Ta  Ta13  1  0.494162  0.652036  0.124660  1
  Ta  Ta14  1  0.514840  0.353852  0.623169  1
  Ta  Ta15  1  0.654424  0.492382  0.878298  1
  Ta  Ta16  1  0.347166  0.507691  0.375366  1
  Ta  Ta17  1  0.844536  0.992187  0.373095  1
  Ta  Ta18  1  0.008518  0.153207  0.125844  1
  Ti  Ti19  1  0.979469  0.833528  0.621936  1
  Si  Si20  1  0.368617  0.705469  0.932912  1
  Si  Si21  1  0.631574  0.296304  0.430363  1
  Si  Si22  1  0.705572  0.366243  0.069634  1
  Si  Si23  1  0.293648  0.635050  0.568314  1
  Si  Si24  1  0.796934  0.866553  0.181236  1
  Si  Si25  1  0.133058  0.204053  0.318157  1
  Si  Si26  1  0.867653  0.799023  0.818662  1
  Si  Si27  1  0.296281  0.954331  0.065597  1
  Si  Si28  1  0.546791  0.792654  0.312690  1
  Si  Si29  1  0.458578  0.206097  0.817742  1
  Si  Si30  1  0.798090  0.543434  0.687444  1
  Si  Si31  1  0.206236  0.454927  0.186482  1
  Si  Si32  1  0.706160  0.046125  0.564108  1
  Si  Si33  1  0.954945  0.295369  0.936272  1
  Si  Si34  1  0.046180  0.708893  0.434933  1
  Sn  Sn35  1  0.198520  0.126866  0.674664  1
