# generated using pymatgen
data_Mn3CoW2
_symmetry_space_group_name_H-M   'P 1'
_cell_length_a   4.65887200
_cell_length_b   4.65887156
_cell_length_c   7.87343300
_cell_angle_alpha   90.00000000
_cell_angle_beta   90.00000000
_cell_angle_gamma   120.00000311
_symmetry_Int_Tables_number   1
_chemical_formula_structural   Mn3CoW2
_chemical_formula_sum   'Mn6 Co2 W4'
_cell_volume   147.99814456
_cell_formula_units_Z   2
loop_
 _symmetry_equiv_pos_site_id
 _symmetry_equiv_pos_as_xyz
  1  'x, y, z'
loop_
 _atom_site_type_symbol
 _atom_site_label
 _atom_site_symmetry_multiplicity
 _atom_site_fract_x
 _atom_site_fract_y
 _atom_site_fract_z
 _atom_site_occupancy
  Mn  Mn0  1  0.827613  0.172387  0.750000  1
  Mn  Mn1  1  0.827613  0.655224  0.750000  1
  Mn  Mn2  1  0.344776  0.172387  0.750000  1
  Mn  Mn3  1  0.172387  0.827613  0.250000  1
  Mn  Mn4  1  0.172387  0.344776  0.250000  1
  Mn  Mn5  1  0.655224  0.827613  0.250000  1
  Co  Co6  1  0.000000  0.000000  0.000000  1
  Co  Co7  1  0.000000  0.000000  0.500000  1
  W  W8  1  0.333333  0.666667  0.933722  1
  W  W9  1  0.666667  0.333333  0.066278  1
  W  W10  1  0.666667  0.333333  0.433722  1
  W  W11  1  0.333333  0.666667  0.566278  1
