# generated using pymatgen
data_Pr2MnAl9Pt2
_symmetry_space_group_name_H-M   'P 1'
_cell_length_a   7.65534574
_cell_length_b   7.65534510
_cell_length_c   9.64062510
_cell_angle_alpha   90.17779600
_cell_angle_beta   90.17780438
_cell_angle_gamma   119.42602161
_symmetry_Int_Tables_number   1
_chemical_formula_structural   Pr2MnAl9Pt2
_chemical_formula_sum   'Pr4 Mn2 Al18 Pt4'
_cell_volume   492.08498053
_cell_formula_units_Z   2
loop_
 _symmetry_equiv_pos_site_id
 _symmetry_equiv_pos_as_xyz
  1  'x, y, z'
loop_
 _atom_site_type_symbol
 _atom_site_label
 _atom_site_symmetry_multiplicity
 _atom_site_fract_x
 _atom_site_fract_y
 _atom_site_fract_z
 _atom_site_occupancy
  Pr  Pr0  1  0.005045  0.329706  0.750127  1
  Pr  Pr1  1  0.331488  0.006313  0.749720  1
  Pr  Pr2  1  0.993687  0.668512  0.250280  1
  Pr  Pr3  1  0.670294  0.994955  0.249873  1
  Mn  Mn4  1  0.000465  0.999535  0.500000  1
  Mn  Mn5  1  0.329560  0.670440  0.000000  1
  Al  Al6  1  0.657761  0.990063  0.927710  1
  Al  Al7  1  0.998287  0.672193  0.571968  1
  Al  Al8  1  0.130098  0.128487  0.254716  1
  Al  Al9  1  0.657944  0.665981  0.045640  1
  Al  Al10  1  0.329240  0.329116  0.546831  1
  Al  Al11  1  0.334019  0.342056  0.954360  1
  Al  Al12  1  0.670884  0.670760  0.453169  1
  Al  Al13  1  0.333631  0.994093  0.072060  1
  Al  Al14  1  0.003567  0.327755  0.427420  1
  Al  Al15  1  0.339371  0.547519  0.243849  1
  Al  Al16  1  0.009937  0.342239  0.072290  1
  Al  Al17  1  0.540593  0.338026  0.249648  1
  Al  Al18  1  0.661974  0.459407  0.750352  1
  Al  Al19  1  0.871513  0.869902  0.745284  1
  Al  Al20  1  0.005907  0.666369  0.927940  1
  Al  Al21  1  0.672245  0.996433  0.572580  1
  Al  Al22  1  0.327807  0.001713  0.428032  1
  Al  Al23  1  0.452481  0.660629  0.756151  1
  Pt  Pt24  1  0.671545  0.328455  0.500000  1
  Pt  Pt25  1  0.671227  0.328773  0.000000  1
  Pt  Pt26  1  0.329370  0.670630  0.500000  1
  Pt  Pt27  1  0.000058  0.999942  0.000000  1
