# generated using pymatgen
data_GaSb12OsRu2Pt
_symmetry_space_group_name_H-M   'P 1'
_cell_length_a   8.16418989
_cell_length_b   8.16432751
_cell_length_c   8.16920259
_cell_angle_alpha   109.38902509
_cell_angle_beta   109.41344389
_cell_angle_gamma   109.46542251
_symmetry_Int_Tables_number   1
_chemical_formula_structural   GaSb12OsRu2Pt
_chemical_formula_sum   'Ga1 Sb12 Os1 Ru2 Pt1'
_cell_volume   419.92331123
_cell_formula_units_Z   1
loop_
 _symmetry_equiv_pos_site_id
 _symmetry_equiv_pos_as_xyz
  1  'x, y, z'
loop_
 _atom_site_type_symbol
 _atom_site_label
 _atom_site_symmetry_multiplicity
 _atom_site_fract_x
 _atom_site_fract_y
 _atom_site_fract_z
 _atom_site_occupancy
  Ga  Ga0  1  0.000000  0.000000  0.000000  1
  Sb  Sb1  1  0.662823  0.850641  0.505965  1
  Sb  Sb2  1  0.337177  0.149359  0.494035  1
  Sb  Sb3  1  0.842638  0.179084  0.335435  1
  Sb  Sb4  1  0.821203  0.663822  0.156348  1
  Sb  Sb5  1  0.850568  0.505556  0.663758  1
  Sb  Sb6  1  0.178797  0.336178  0.843652  1
  Sb  Sb7  1  0.157362  0.820916  0.664565  1
  Sb  Sb8  1  0.505933  0.663684  0.850791  1
  Sb  Sb9  1  0.494067  0.336316  0.149209  1
  Sb  Sb10  1  0.149432  0.494444  0.336242  1
  Sb  Sb11  1  0.335544  0.842601  0.177991  1
  Sb  Sb12  1  0.664456  0.157399  0.822009  1
  Os  Os13  1  0.000000  0.000000  0.500000  1
  Ru  Ru14  1  0.500000  0.000000  0.000000  1
  Ru  Ru15  1  0.000000  0.500000  0.000000  1
  Pt  Pt16  1  0.500000  0.500000  0.500000  1
