# generated using pymatgen
data_Er9LuBi6
_symmetry_space_group_name_H-M   'P 1'
_cell_length_a   8.19742500
_cell_length_b   9.46424901
_cell_length_c   11.93133901
_cell_angle_alpha   90.00451031
_cell_angle_beta   90.00000000
_cell_angle_gamma   90.00000000
_symmetry_Int_Tables_number   1
_chemical_formula_structural   Er9LuBi6
_chemical_formula_sum   'Er18 Lu2 Bi12'
_cell_volume   925.66276481
_cell_formula_units_Z   2
loop_
 _symmetry_equiv_pos_site_id
 _symmetry_equiv_pos_as_xyz
  1  'x, y, z'
loop_
 _atom_site_type_symbol
 _atom_site_label
 _atom_site_symmetry_multiplicity
 _atom_site_fract_x
 _atom_site_fract_y
 _atom_site_fract_z
 _atom_site_occupancy
  Er  Er0  1  0.352637  0.750054  0.216666  1
  Er  Er1  1  0.852637  0.749946  0.283334  1
  Er  Er2  1  0.647112  0.249902  0.783301  1
  Er  Er3  1  0.147112  0.250098  0.716699  1
  Er  Er4  1  0.308660  0.065240  0.941459  1
  Er  Er5  1  0.808660  0.434760  0.558541  1
  Er  Er6  1  0.308350  0.434911  0.941299  1
  Er  Er7  1  0.808350  0.065089  0.558701  1
  Er  Er8  1  0.691539  0.934774  0.058594  1
  Er  Er9  1  0.191539  0.565226  0.441406  1
  Er  Er10  1  0.476713  0.249816  0.488688  1
  Er  Er11  1  0.976713  0.250184  0.011312  1
  Er  Er12  1  0.522657  0.750221  0.511142  1
  Er  Er13  1  0.022657  0.749779  0.988858  1
  Er  Er14  1  0.313269  0.250019  0.217505  1
  Er  Er15  1  0.813269  0.249981  0.282495  1
  Er  Er16  1  0.686610  0.749839  0.782596  1
  Er  Er17  1  0.186610  0.750161  0.717404  1
  Lu  Lu18  1  0.691635  0.566683  0.058765  1
  Lu  Lu19  1  0.191635  0.933317  0.441235  1
  Bi  Bi20  1  0.404418  0.749629  0.957198  1
  Bi  Bi21  1  0.904418  0.750371  0.542802  1
  Bi  Bi22  1  0.596051  0.251731  0.043207  1
  Bi  Bi23  1  0.096051  0.248269  0.456793  1
  Bi  Bi24  1  0.565456  0.995964  0.325249  1
  Bi  Bi25  1  0.065456  0.504036  0.174751  1
  Bi  Bi26  1  0.434550  0.495991  0.674744  1
  Bi  Bi27  1  0.934550  0.004009  0.825256  1
  Bi  Bi28  1  0.434655  0.004094  0.674683  1
  Bi  Bi29  1  0.934655  0.495906  0.825317  1
  Bi  Bi30  1  0.565689  0.504092  0.325268  1
  Bi  Bi31  1  0.065689  0.995908  0.174732  1
