# generated using pymatgen
data_Er(BeP)3
_symmetry_space_group_name_H-M   'P 1'
_cell_length_a   3.63342500
_cell_length_b   10.27792300
_cell_length_c   11.26696100
_cell_angle_alpha   90.00000000
_cell_angle_beta   90.00000000
_cell_angle_gamma   90.00000000
_symmetry_Int_Tables_number   1
_chemical_formula_structural   Er(BeP)3
_chemical_formula_sum   'Er4 Be12 P12'
_cell_volume   420.75409438
_cell_formula_units_Z   4
loop_
 _symmetry_equiv_pos_site_id
 _symmetry_equiv_pos_as_xyz
  1  'x, y, z'
loop_
 _atom_site_type_symbol
 _atom_site_label
 _atom_site_symmetry_multiplicity
 _atom_site_fract_x
 _atom_site_fract_y
 _atom_site_fract_z
 _atom_site_occupancy
  Er  Er0  1  0.750000  0.943080  0.340406  1
  Er  Er1  1  0.250000  0.443080  0.159594  1
  Er  Er2  1  0.750000  0.556920  0.840406  1
  Er  Er3  1  0.250000  0.056920  0.659594  1
  Be  Be4  1  0.750000  0.240628  0.453562  1
  Be  Be5  1  0.250000  0.740628  0.046438  1
  Be  Be6  1  0.750000  0.259372  0.953562  1
  Be  Be7  1  0.250000  0.759372  0.546438  1
  Be  Be8  1  0.750000  0.646547  0.286429  1
  Be  Be9  1  0.250000  0.146547  0.213571  1
  Be  Be10  1  0.750000  0.853453  0.786429  1
  Be  Be11  1  0.250000  0.353453  0.713571  1
  Be  Be12  1  0.750000  0.040375  0.065274  1
  Be  Be13  1  0.250000  0.540375  0.434726  1
  Be  Be14  1  0.750000  0.459625  0.565274  1
  Be  Be15  1  0.250000  0.959625  0.934726  1
  P  P16  1  0.750000  0.439529  0.369179  1
  P  P17  1  0.250000  0.939529  0.130821  1
  P  P18  1  0.750000  0.060471  0.869179  1
  P  P19  1  0.250000  0.560471  0.630821  1
  P  P20  1  0.750000  0.233457  0.145315  1
  P  P21  1  0.250000  0.733457  0.354685  1
  P  P22  1  0.750000  0.266543  0.645315  1
  P  P23  1  0.250000  0.766543  0.854685  1
  P  P24  1  0.750000  0.634238  0.091606  1
  P  P25  1  0.250000  0.134238  0.408394  1
  P  P26  1  0.750000  0.865762  0.591606  1
  P  P27  1  0.250000  0.365762  0.908394  1
