# generated using pymatgen
data_Dy3Lu(HfPt)4
_symmetry_space_group_name_H-M   'P 1'
_cell_length_a   4.65477900
_cell_length_b   7.04978576
_cell_length_c   8.21036304
_cell_angle_alpha   89.92857856
_cell_angle_beta   90.00000000
_cell_angle_gamma   90.00000000
_symmetry_Int_Tables_number   1
_chemical_formula_structural   Dy3Lu(HfPt)4
_chemical_formula_sum   'Dy3 Lu1 Hf4 Pt4'
_cell_volume   269.42445249
_cell_formula_units_Z   1
loop_
 _symmetry_equiv_pos_site_id
 _symmetry_equiv_pos_as_xyz
  1  'x, y, z'
loop_
 _atom_site_type_symbol
 _atom_site_label
 _atom_site_symmetry_multiplicity
 _atom_site_fract_x
 _atom_site_fract_y
 _atom_site_fract_z
 _atom_site_occupancy
  Dy  Dy0  1  0.250000  0.516354  0.179263  1
  Dy  Dy1  1  0.750000  0.983813  0.677616  1
  Dy  Dy2  1  0.750000  0.484188  0.821689  1
  Lu  Lu3  1  0.250000  0.016470  0.322422  1
  Hf  Hf4  1  0.250000  0.145237  0.923470  1
  Hf  Hf5  1  0.250000  0.646184  0.576697  1
  Hf  Hf6  1  0.750000  0.855191  0.079561  1
  Hf  Hf7  1  0.750000  0.353410  0.421901  1
  Pt  Pt8  1  0.250000  0.268777  0.593663  1
  Pt  Pt9  1  0.250000  0.769637  0.903697  1
  Pt  Pt10  1  0.750000  0.731504  0.402590  1
  Pt  Pt11  1  0.750000  0.229235  0.097431  1
