# generated using pymatgen
data_Mn2AlCo4Sb
_symmetry_space_group_name_H-M   'P 1'
_cell_length_a   7.20887373
_cell_length_b   7.20887333
_cell_length_c   7.20887505
_cell_angle_alpha   33.43598250
_cell_angle_beta   33.43598718
_cell_angle_gamma   33.43599746
_symmetry_Int_Tables_number   1
_chemical_formula_structural   Mn2AlCo4Sb
_chemical_formula_sum   'Mn2 Al1 Co4 Sb1'
_cell_volume   101.29076559
_cell_formula_units_Z   1
loop_
 _symmetry_equiv_pos_site_id
 _symmetry_equiv_pos_as_xyz
  1  'x, y, z'
loop_
 _atom_site_type_symbol
 _atom_site_label
 _atom_site_symmetry_multiplicity
 _atom_site_fract_x
 _atom_site_fract_y
 _atom_site_fract_z
 _atom_site_occupancy
  Mn  Mn0  1  0.254397  0.254397  0.254397  1
  Mn  Mn1  1  0.745603  0.745603  0.745603  1
  Al  Al2  1  0.000000  0.000000  0.000000  1
  Co  Co3  1  0.373293  0.373293  0.373293  1
  Co  Co4  1  0.877120  0.877120  0.877120  1
  Co  Co5  1  0.626707  0.626707  0.626707  1
  Co  Co6  1  0.122880  0.122880  0.122880  1
  Sb  Sb7  1  0.500000  0.500000  0.500000  1
