# generated using pymatgen
data_Ho5Er11(Ga3Fe)2
_symmetry_space_group_name_H-M   'P 1'
_cell_length_a   9.88320100
_cell_length_b   9.88320063
_cell_length_c   6.95532500
_cell_angle_alpha   90.00000000
_cell_angle_beta   90.00000000
_cell_angle_gamma   119.99999789
_symmetry_Int_Tables_number   1
_chemical_formula_structural   Ho5Er11(Ga3Fe)2
_chemical_formula_sum   'Ho5 Er11 Ga6 Fe2'
_cell_volume   588.36022940
_cell_formula_units_Z   1
loop_
 _symmetry_equiv_pos_site_id
 _symmetry_equiv_pos_as_xyz
  1  'x, y, z'
loop_
 _atom_site_type_symbol
 _atom_site_label
 _atom_site_symmetry_multiplicity
 _atom_site_fract_x
 _atom_site_fract_y
 _atom_site_fract_z
 _atom_site_occupancy
  Ho  Ho0  1  0.536679  0.463321  0.707851  1
  Ho  Ho1  1  0.926643  0.463321  0.707851  1
  Ho  Ho2  1  0.536679  0.073357  0.707851  1
  Ho  Ho3  1  0.000000  0.000000  0.232749  1
  Ho  Ho4  1  0.000000  0.000000  0.732971  1
  Er  Er5  1  0.173489  0.826511  0.510932  1
  Er  Er6  1  0.653020  0.826511  0.510932  1
  Er  Er7  1  0.173489  0.346980  0.510932  1
  Er  Er8  1  0.826621  0.173379  0.012151  1
  Er  Er9  1  0.346758  0.173379  0.012151  1
  Er  Er10  1  0.826621  0.653242  0.012151  1
  Er  Er11  1  0.333333  0.666667  0.829980  1
  Er  Er12  1  0.666667  0.333333  0.328638  1
  Er  Er13  1  0.462981  0.537019  0.207218  1
  Er  Er14  1  0.074038  0.537019  0.207218  1
  Er  Er15  1  0.462981  0.925962  0.207218  1
  Ga  Ga16  1  0.164161  0.835839  0.957417  1
  Ga  Ga17  1  0.671676  0.835839  0.957417  1
  Ga  Ga18  1  0.164161  0.328324  0.957417  1
  Ga  Ga19  1  0.836113  0.163887  0.456768  1
  Ga  Ga20  1  0.327774  0.163887  0.456768  1
  Ga  Ga21  1  0.836113  0.672226  0.456768  1
  Fe  Fe22  1  0.333333  0.666667  0.446021  1
  Fe  Fe23  1  0.666667  0.333333  0.946669  1
