# generated using pymatgen
data_Pr4Lu6CdSn7
_symmetry_space_group_name_H-M   'P 1'
_cell_length_a   7.96614300
_cell_length_b   8.32709100
_cell_length_c   15.38033100
_cell_angle_alpha   90.00000000
_cell_angle_beta   90.00000000
_cell_angle_gamma   90.00000000
_symmetry_Int_Tables_number   1
_chemical_formula_structural   Pr4Lu6CdSn7
_chemical_formula_sum   'Pr8 Lu12 Cd2 Sn14'
_cell_volume   1020.25114514
_cell_formula_units_Z   2
loop_
 _symmetry_equiv_pos_site_id
 _symmetry_equiv_pos_as_xyz
  1  'x, y, z'
loop_
 _atom_site_type_symbol
 _atom_site_label
 _atom_site_symmetry_multiplicity
 _atom_site_fract_x
 _atom_site_fract_y
 _atom_site_fract_z
 _atom_site_occupancy
  Pr  Pr0  1  0.504455  0.317525  0.907305  1
  Pr  Pr1  1  0.004455  0.182475  0.592695  1
  Pr  Pr2  1  0.494310  0.677196  0.404893  1
  Pr  Pr3  1  0.994310  0.822804  0.095107  1
  Pr  Pr4  1  0.494310  0.677196  0.095107  1
  Pr  Pr5  1  0.994310  0.822804  0.404893  1
  Pr  Pr6  1  0.504455  0.317525  0.592695  1
  Pr  Pr7  1  0.004455  0.182475  0.907305  1
  Lu  Lu8  1  0.341382  0.834451  0.873764  1
  Lu  Lu9  1  0.841382  0.665549  0.626236  1
  Lu  Lu10  1  0.659535  0.163083  0.373341  1
  Lu  Lu11  1  0.159535  0.336917  0.126659  1
  Lu  Lu12  1  0.659535  0.163083  0.126659  1
  Lu  Lu13  1  0.159535  0.336917  0.373341  1
  Lu  Lu14  1  0.341382  0.834451  0.626236  1
  Lu  Lu15  1  0.841382  0.665549  0.873764  1
  Lu  Lu16  1  0.179035  0.500927  0.750000  1
  Lu  Lu17  1  0.679035  0.999073  0.750000  1
  Lu  Lu18  1  0.823969  0.500114  0.250000  1
  Lu  Lu19  1  0.323969  0.999886  0.250000  1
  Cd  Cd20  1  0.540176  0.619269  0.750000  1
  Cd  Cd21  1  0.040176  0.880731  0.750000  1
  Sn  Sn22  1  0.320175  0.041971  0.041275  1
  Sn  Sn23  1  0.820175  0.458029  0.458725  1
  Sn  Sn24  1  0.682339  0.959255  0.542701  1
  Sn  Sn25  1  0.182339  0.540745  0.957299  1
  Sn  Sn26  1  0.682339  0.959255  0.957299  1
  Sn  Sn27  1  0.182339  0.540745  0.542701  1
  Sn  Sn28  1  0.320175  0.041971  0.458725  1
  Sn  Sn29  1  0.820175  0.458029  0.041275  1
  Sn  Sn30  1  0.463708  0.375321  0.250000  1
  Sn  Sn31  1  0.963708  0.124679  0.250000  1
  Sn  Sn32  1  0.302655  0.136635  0.750000  1
  Sn  Sn33  1  0.802655  0.363365  0.750000  1
  Sn  Sn34  1  0.686067  0.854235  0.250000  1
  Sn  Sn35  1  0.186067  0.645765  0.250000  1
