# generated using pymatgen
data_Y4Ga4Ir3Pd
_symmetry_space_group_name_H-M   'P 1'
_cell_length_a   4.42486500
_cell_length_b   6.83873974
_cell_length_c   7.72513299
_cell_angle_alpha   90.08203914
_cell_angle_beta   90.00000000
_cell_angle_gamma   90.00000000
_symmetry_Int_Tables_number   1
_chemical_formula_structural   Y4Ga4Ir3Pd
_chemical_formula_sum   'Y4 Ga4 Ir3 Pd1'
_cell_volume   233.76614826
_cell_formula_units_Z   1
loop_
 _symmetry_equiv_pos_site_id
 _symmetry_equiv_pos_as_xyz
  1  'x, y, z'
loop_
 _atom_site_type_symbol
 _atom_site_label
 _atom_site_symmetry_multiplicity
 _atom_site_fract_x
 _atom_site_fract_y
 _atom_site_fract_z
 _atom_site_occupancy
  Y  Y0  1  0.250000  0.982570  0.307844  1
  Y  Y1  1  0.250000  0.485997  0.198463  1
  Y  Y2  1  0.750000  0.015618  0.688945  1
  Y  Y3  1  0.750000  0.525058  0.805940  1
  Ga  Ga4  1  0.250000  0.338080  0.569864  1
  Ga  Ga5  1  0.250000  0.831335  0.926640  1
  Ga  Ga6  1  0.750000  0.663132  0.425948  1
  Ga  Ga7  1  0.750000  0.162937  0.074615  1
  Ir  Ir8  1  0.250000  0.726312  0.604188  1
  Ir  Ir9  1  0.750000  0.773525  0.102424  1
  Ir  Ir10  1  0.750000  0.271714  0.397141  1
  Pd  Pd11  1  0.250000  0.223723  0.897988  1
