# generated using pymatgen
data_Ta3Nb3Re2(B3Ru2)2
_symmetry_space_group_name_H-M   'P 1'
_cell_length_a   3.16471700
_cell_length_b   6.47106408
_cell_length_c   10.97296113
_cell_angle_alpha   89.98229375
_cell_angle_beta   90.00000000
_cell_angle_gamma   90.00000000
_symmetry_Int_Tables_number   1
_chemical_formula_structural   Ta3Nb3Re2(B3Ru2)2
_chemical_formula_sum   'Ta3 Nb3 Re2 B6 Ru4'
_cell_volume   224.71620936
_cell_formula_units_Z   1
loop_
 _symmetry_equiv_pos_site_id
 _symmetry_equiv_pos_as_xyz
  1  'x, y, z'
loop_
 _atom_site_type_symbol
 _atom_site_label
 _atom_site_symmetry_multiplicity
 _atom_site_fract_x
 _atom_site_fract_y
 _atom_site_fract_z
 _atom_site_occupancy
  Ta  Ta0  1  0.000000  0.278627  0.955390  1
  Ta  Ta1  1  0.000000  0.352737  0.250201  1
  Ta  Ta2  1  0.000000  0.648131  0.750035  1
  Nb  Nb3  1  0.000000  0.718044  0.044270  1
  Nb  Nb4  1  0.000000  0.281019  0.544430  1
  Nb  Nb5  1  0.000000  0.719602  0.455794  1
  Re  Re6  1  0.500000  0.700613  0.249801  1
  Re  Re7  1  0.500000  0.300008  0.750270  1
  B  B8  1  0.000000  0.949023  0.250261  1
  B  B9  1  0.000000  0.051125  0.750032  1
  B  B10  1  0.500000  0.449926  0.085542  1
  B  B11  1  0.500000  0.548244  0.914151  1
  B  B12  1  0.500000  0.450937  0.414312  1
  B  B13  1  0.500000  0.549177  0.585742  1
  Ru  Ru14  1  0.500000  0.076308  0.122924  1
  Ru  Ru15  1  0.500000  0.926016  0.876806  1
  Ru  Ru16  1  0.500000  0.074819  0.376117  1
  Ru  Ru17  1  0.500000  0.925645  0.623923  1
