# generated using pymatgen
data_Gd2GaNi2
_symmetry_space_group_name_H-M   'P 1'
_cell_length_a   4.18987142
_cell_length_b   5.41263110
_cell_length_c   5.41263023
_cell_angle_alpha   101.77604120
_cell_angle_beta   112.77079945
_cell_angle_gamma   112.77080983
_symmetry_Int_Tables_number   1
_chemical_formula_structural   Gd2GaNi2
_chemical_formula_sum   'Gd2 Ga1 Ni2'
_cell_volume   94.88999506
_cell_formula_units_Z   1
loop_
 _symmetry_equiv_pos_site_id
 _symmetry_equiv_pos_as_xyz
  1  'x, y, z'
loop_
 _atom_site_type_symbol
 _atom_site_label
 _atom_site_symmetry_multiplicity
 _atom_site_fract_x
 _atom_site_fract_y
 _atom_site_fract_z
 _atom_site_occupancy
  Gd  Gd0  1  0.499999  0.702368  0.297630  1
  Gd  Gd1  1  0.499999  0.297630  0.702368  1
  Ga  Ga2  1  0.000000  0.000000  0.000000  1
  Ni  Ni3  1  0.767743  0.267744  0.267744  1
  Ni  Ni4  1  0.232255  0.732254  0.732254  1
