# generated using pymatgen
data_Sr10Mn4FeO19
_symmetry_space_group_name_H-M   'P 1'
_cell_length_a   8.80414167
_cell_length_b   8.80414158
_cell_length_c   8.69808153
_cell_angle_alpha   60.40743267
_cell_angle_beta   60.40742156
_cell_angle_gamma   91.40621722
_symmetry_Int_Tables_number   1
_chemical_formula_structural   Sr10Mn4FeO19
_chemical_formula_sum   'Sr10 Mn4 Fe1 O19'
_cell_volume   476.59509549
_cell_formula_units_Z   1
loop_
 _symmetry_equiv_pos_site_id
 _symmetry_equiv_pos_as_xyz
  1  'x, y, z'
loop_
 _atom_site_type_symbol
 _atom_site_label
 _atom_site_symmetry_multiplicity
 _atom_site_fract_x
 _atom_site_fract_y
 _atom_site_fract_z
 _atom_site_occupancy
  Sr  Sr0  1  0.858230  0.144851  0.996417  1
  Sr  Sr1  1  0.642050  0.938797  0.811743  1
  Sr  Sr2  1  0.454075  0.742278  0.598620  1
  Sr  Sr3  1  0.256114  0.542499  0.403885  1
  Sr  Sr4  1  0.061190  0.357738  0.188396  1
  Sr  Sr5  1  0.542499  0.256114  0.403885  1
  Sr  Sr6  1  0.357738  0.061190  0.188396  1
  Sr  Sr7  1  0.144851  0.858230  0.996417  1
  Sr  Sr8  1  0.938797  0.642050  0.811743  1
  Sr  Sr9  1  0.742278  0.454075  0.598620  1
  Mn  Mn10  1  0.698257  0.698257  0.196374  1
  Mn  Mn11  1  0.500686  0.500686  0.999246  1
  Mn  Mn12  1  0.300520  0.300520  0.804384  1
  Mn  Mn13  1  0.101330  0.101330  0.602165  1
  Fe  Fe14  1  0.894676  0.894676  0.393835  1
  O  O15  1  0.109233  0.109233  0.108153  1
  O  O16  1  0.503346  0.503346  0.497089  1
  O  O17  1  0.891128  0.891128  0.887331  1
  O  O18  1  0.287977  0.287977  0.297056  1
  O  O19  1  0.706390  0.706390  0.707624  1
  O  O20  1  0.659457  0.341335  0.000136  1
  O  O21  1  0.457041  0.143537  0.802681  1
  O  O22  1  0.248484  0.938151  0.594684  1
  O  O23  1  0.062926  0.753338  0.408702  1
  O  O24  1  0.857281  0.544702  0.197192  1
  O  O25  1  0.753338  0.062926  0.408702  1
  O  O26  1  0.544702  0.857281  0.197192  1
  O  O27  1  0.341335  0.659457  0.000136  1
  O  O28  1  0.143537  0.457041  0.802681  1
  O  O29  1  0.938151  0.248484  0.594684  1
  O  O30  1  0.415980  0.415980  0.883107  1
  O  O31  1  0.804027  0.804027  0.284784  1
  O  O32  1  0.197523  0.197523  0.714646  1
  O  O33  1  0.584855  0.584855  0.119294  1
