# generated using pymatgen
data_Cs2CaCdAs2
_symmetry_space_group_name_H-M   'P 1'
_cell_length_a   4.90118100
_cell_length_b   4.90118100
_cell_length_c   8.70570100
_cell_angle_alpha   90.00000000
_cell_angle_beta   90.00000000
_cell_angle_gamma   90.00000000
_symmetry_Int_Tables_number   1
_chemical_formula_structural   Cs2CaCdAs2
_chemical_formula_sum   'Cs2 Ca1 Cd1 As2'
_cell_volume   209.12465119
_cell_formula_units_Z   1
loop_
 _symmetry_equiv_pos_site_id
 _symmetry_equiv_pos_as_xyz
  1  'x, y, z'
loop_
 _atom_site_type_symbol
 _atom_site_label
 _atom_site_symmetry_multiplicity
 _atom_site_fract_x
 _atom_site_fract_y
 _atom_site_fract_z
 _atom_site_occupancy
  Cs  Cs0  1  0.000000  0.500000  0.358861  1
  Cs  Cs1  1  0.500000  0.000000  0.641139  1
  Ca  Ca2  1  0.000000  0.000000  0.000000  1
  Cd  Cd3  1  0.500000  0.500000  0.000000  1
  As  As4  1  0.500000  0.000000  0.183659  1
  As  As5  1  0.000000  0.500000  0.816341  1
