# generated using pymatgen
data_SrNi9Sb2As3
_symmetry_space_group_name_H-M   'P 1'
_cell_length_a   6.91551200
_cell_length_b   6.91551107
_cell_length_c   11.55050000
_cell_angle_alpha   90.00000000
_cell_angle_beta   90.00000000
_cell_angle_gamma   120.00000444
_symmetry_Int_Tables_number   1
_chemical_formula_structural   SrNi9Sb2As3
_chemical_formula_sum   'Sr2 Ni18 Sb4 As6'
_cell_volume   478.38771332
_cell_formula_units_Z   2
loop_
 _symmetry_equiv_pos_site_id
 _symmetry_equiv_pos_as_xyz
  1  'x, y, z'
loop_
 _atom_site_type_symbol
 _atom_site_label
 _atom_site_symmetry_multiplicity
 _atom_site_fract_x
 _atom_site_fract_y
 _atom_site_fract_z
 _atom_site_occupancy
  Sr  Sr0  1  0.000000  0.000000  0.000000  1
  Sr  Sr1  1  0.000000  0.000000  0.500000  1
  Ni  Ni2  1  0.539060  0.460940  0.115134  1
  Ni  Ni3  1  0.078119  0.539060  0.615134  1
  Ni  Ni4  1  0.460940  0.921881  0.615134  1
  Ni  Ni5  1  0.539060  0.078119  0.115134  1
  Ni  Ni6  1  0.921881  0.460940  0.115134  1
  Ni  Ni7  1  0.078119  0.539060  0.884866  1
  Ni  Ni8  1  0.460940  0.921881  0.884866  1
  Ni  Ni9  1  0.460940  0.539060  0.615134  1
  Ni  Ni10  1  0.460940  0.539060  0.884866  1
  Ni  Ni11  1  0.539060  0.460940  0.384866  1
  Ni  Ni12  1  0.921881  0.460940  0.384866  1
  Ni  Ni13  1  0.539060  0.078119  0.384866  1
  Ni  Ni14  1  0.205858  0.794142  0.250000  1
  Ni  Ni15  1  0.411716  0.205858  0.750000  1
  Ni  Ni16  1  0.794142  0.588284  0.750000  1
  Ni  Ni17  1  0.205858  0.411716  0.250000  1
  Ni  Ni18  1  0.588284  0.794142  0.250000  1
  Ni  Ni19  1  0.794142  0.205858  0.750000  1
  Sb  Sb20  1  0.333333  0.666667  0.060886  1
  Sb  Sb21  1  0.666667  0.333333  0.560886  1
  Sb  Sb22  1  0.666667  0.333333  0.939114  1
  Sb  Sb23  1  0.333333  0.666667  0.439114  1
  As  As24  1  0.830514  0.169486  0.250000  1
  As  As25  1  0.661028  0.830514  0.750000  1
  As  As26  1  0.169486  0.338972  0.750000  1
  As  As27  1  0.830514  0.661028  0.250000  1
  As  As28  1  0.338972  0.169486  0.250000  1
  As  As29  1  0.169486  0.830514  0.750000  1
