# generated using pymatgen
data_LiBiIr2O7
_symmetry_space_group_name_H-M   'P 1'
_cell_length_a   7.19910045
_cell_length_b   7.19910001
_cell_length_c   7.26593500
_cell_angle_alpha   59.69241171
_cell_angle_beta   59.69241375
_cell_angle_gamma   59.50288963
_symmetry_Int_Tables_number   1
_chemical_formula_structural   LiBiIr2O7
_chemical_formula_sum   'Li2 Bi2 Ir4 O14'
_cell_volume   264.03111695
_cell_formula_units_Z   2
loop_
 _symmetry_equiv_pos_site_id
 _symmetry_equiv_pos_as_xyz
  1  'x, y, z'
loop_
 _atom_site_type_symbol
 _atom_site_label
 _atom_site_symmetry_multiplicity
 _atom_site_fract_x
 _atom_site_fract_y
 _atom_site_fract_z
 _atom_site_occupancy
  Li  Li0  1  0.625000  0.125000  0.125000  1
  Li  Li1  1  0.125000  0.625000  0.125000  1
  Bi  Bi2  1  0.125000  0.125000  0.625000  1
  Bi  Bi3  1  0.125000  0.125000  0.125000  1
  Ir  Ir4  1  0.125000  0.625000  0.625000  1
  Ir  Ir5  1  0.625000  0.125000  0.625000  1
  Ir  Ir6  1  0.625000  0.625000  0.125000  1
  Ir  Ir7  1  0.625000  0.625000  0.625000  1
  O  O8  1  0.692589  0.692589  0.307411  1
  O  O9  1  0.291892  0.291892  0.708108  1
  O  O10  1  0.714807  0.293943  0.693833  1
  O  O11  1  0.293943  0.714807  0.297417  1
  O  O12  1  0.293943  0.714807  0.693833  1
  O  O13  1  0.714807  0.293943  0.297417  1
  O  O14  1  0.557411  0.557411  0.942589  1
  O  O15  1  0.958108  0.958108  0.541892  1
  O  O16  1  0.535193  0.956057  0.556167  1
  O  O17  1  0.956057  0.535193  0.952583  1
  O  O18  1  0.956057  0.535193  0.556167  1
  O  O19  1  0.535193  0.956057  0.952583  1
  O  O20  1  0.254807  0.254807  0.245193  1
  O  O21  1  0.995193  0.995193  0.004807  1
