# generated using pymatgen
data_Pa2Ni17H3
_symmetry_space_group_name_H-M   'P 1'
_cell_length_a   6.26304060
_cell_length_b   6.26304081
_cell_length_c   6.26304024
_cell_angle_alpha   83.40536551
_cell_angle_beta   83.40536676
_cell_angle_gamma   83.40536179
_symmetry_Int_Tables_number   1
_chemical_formula_structural   Pa2Ni17H3
_chemical_formula_sum   'Pa2 Ni17 H3'
_cell_volume   241.14204337
_cell_formula_units_Z   1
loop_
 _symmetry_equiv_pos_site_id
 _symmetry_equiv_pos_as_xyz
  1  'x, y, z'
loop_
 _atom_site_type_symbol
 _atom_site_label
 _atom_site_symmetry_multiplicity
 _atom_site_fract_x
 _atom_site_fract_y
 _atom_site_fract_z
 _atom_site_occupancy
  Pa  Pa0  1  0.666242  0.666242  0.666242  1
  Pa  Pa1  1  0.333758  0.333758  0.333758  1
  Ni  Ni2  1  0.000000  0.000000  0.500000  1
  Ni  Ni3  1  0.500000  0.000000  0.000000  1
  Ni  Ni4  1  0.000000  0.500000  0.000000  1
  Ni  Ni5  1  0.707621  0.292379  0.000000  1
  Ni  Ni6  1  0.000000  0.707621  0.292379  1
  Ni  Ni7  1  0.292379  0.000000  0.707621  1
  Ni  Ni8  1  0.000000  0.292379  0.707621  1
  Ni  Ni9  1  0.707621  0.000000  0.292379  1
  Ni  Ni10  1  0.292379  0.707621  0.000000  1
  Ni  Ni11  1  0.348880  0.348880  0.845708  1
  Ni  Ni12  1  0.845708  0.348880  0.348880  1
  Ni  Ni13  1  0.348880  0.845708  0.348880  1
  Ni  Ni14  1  0.651120  0.651120  0.154292  1
  Ni  Ni15  1  0.154292  0.651120  0.651120  1
  Ni  Ni16  1  0.651120  0.154292  0.651120  1
  Ni  Ni17  1  0.897798  0.897798  0.897798  1
  Ni  Ni18  1  0.102202  0.102202  0.102202  1
  H  H19  1  0.500000  0.500000  0.000000  1
  H  H20  1  0.000000  0.500000  0.500000  1
  H  H21  1  0.500000  0.000000  0.500000  1
