# generated using pymatgen
data_Sm2ZnCo6SiB2
_symmetry_space_group_name_H-M   'P 1'
_cell_length_a   5.19110001
_cell_length_b   5.19171093
_cell_length_c   6.57939800
_cell_angle_alpha   90.00000000
_cell_angle_beta   90.00000000
_cell_angle_gamma   120.00195489
_symmetry_Int_Tables_number   1
_chemical_formula_structural   Sm2ZnCo6SiB2
_chemical_formula_sum   'Sm2 Zn1 Co6 Si1 B2'
_cell_volume   153.56001069
_cell_formula_units_Z   1
loop_
 _symmetry_equiv_pos_site_id
 _symmetry_equiv_pos_as_xyz
  1  'x, y, z'
loop_
 _atom_site_type_symbol
 _atom_site_label
 _atom_site_symmetry_multiplicity
 _atom_site_fract_x
 _atom_site_fract_y
 _atom_site_fract_z
 _atom_site_occupancy
  Sm  Sm0  1  0.999965  0.000008  0.000000  1
  Sm  Sm1  1  0.999983  0.999987  0.500000  1
  Zn  Zn2  1  0.333286  0.666607  0.000000  1
  Co  Co3  1  0.502329  0.004683  0.290454  1
  Co  Co4  1  0.502319  0.497655  0.290484  1
  Co  Co5  1  0.995308  0.497652  0.290466  1
  Co  Co6  1  0.502329  0.004683  0.709546  1
  Co  Co7  1  0.502319  0.497655  0.709515  1
  Co  Co8  1  0.995308  0.497652  0.709533  1
  Si  Si9  1  0.666676  0.333426  0.000000  1
  B  B10  1  0.333314  0.666678  0.500000  1
  B  B11  1  0.666664  0.333312  0.500000  1
