# generated using pymatgen
data_Yb4Si2SbPd27
_symmetry_space_group_name_H-M   'P 1'
_cell_length_a   8.95993904
_cell_length_b   8.95993904
_cell_length_c   7.04459803
_cell_angle_alpha   90.39005452
_cell_angle_beta   90.39005452
_cell_angle_gamma   89.01139096
_symmetry_Int_Tables_number   1
_chemical_formula_structural   Yb4Si2SbPd27
_chemical_formula_sum   'Yb4 Si2 Sb1 Pd27'
_cell_volume   565.43395927
_cell_formula_units_Z   1
loop_
 _symmetry_equiv_pos_site_id
 _symmetry_equiv_pos_as_xyz
  1  'x, y, z'
loop_
 _atom_site_type_symbol
 _atom_site_label
 _atom_site_symmetry_multiplicity
 _atom_site_fract_x
 _atom_site_fract_y
 _atom_site_fract_z
 _atom_site_occupancy
  Yb  Yb0  1  0.512193  0.012193  0.935453  1
  Yb  Yb1  1  0.987807  0.487807  0.064547  1
  Yb  Yb2  1  0.999285  0.000715  0.500000  1
  Yb  Yb3  1  0.500715  0.499285  0.500000  1
  Si  Si4  1  0.505171  0.005171  0.443333  1
  Si  Si5  1  0.994829  0.494829  0.556667  1
  Sb  Sb6  1  0.250000  0.750000  0.000000  1
  Pd  Pd7  1  0.339508  0.839508  0.603600  1
  Pd  Pd8  1  0.335485  0.167378  0.617726  1
  Pd  Pd9  1  0.667378  0.835485  0.617726  1
  Pd  Pd10  1  0.667221  0.167221  0.616554  1
  Pd  Pd11  1  0.160492  0.660492  0.396400  1
  Pd  Pd12  1  0.164515  0.332622  0.382274  1
  Pd  Pd13  1  0.832622  0.664515  0.382274  1
  Pd  Pd14  1  0.832779  0.332779  0.383446  1
  Pd  Pd15  1  0.502455  0.772015  0.254710  1
  Pd  Pd16  1  0.498810  0.233424  0.255219  1
  Pd  Pd17  1  0.272015  0.002455  0.254710  1
  Pd  Pd18  1  0.733424  0.998810  0.255219  1
  Pd  Pd19  1  0.997545  0.727985  0.745290  1
  Pd  Pd20  1  0.001190  0.266576  0.744781  1
  Pd  Pd21  1  0.227985  0.497545  0.745290  1
  Pd  Pd22  1  0.766576  0.501190  0.744781  1
  Pd  Pd23  1  0.498231  0.351744  0.853378  1
  Pd  Pd24  1  0.496645  0.657468  0.853434  1
  Pd  Pd25  1  0.851744  0.998231  0.853378  1
  Pd  Pd26  1  0.157468  0.996645  0.853434  1
  Pd  Pd27  1  0.001769  0.148256  0.146622  1
  Pd  Pd28  1  0.003355  0.842532  0.146566  1
  Pd  Pd29  1  0.648256  0.501769  0.146622  1
  Pd  Pd30  1  0.342532  0.503355  0.146566  1
  Pd  Pd31  1  0.250000  0.250000  0.000000  1
  Pd  Pd32  1  0.750000  0.750000  0.000000  1
  Pd  Pd33  1  0.750000  0.250000  0.000000  1
