# generated using pymatgen
data_Tb3Y13Cd4Ir3Pt
_symmetry_space_group_name_H-M   'P 1'
_cell_length_a   9.67693936
_cell_length_b   9.68214175
_cell_length_c   9.68214062
_cell_angle_alpha   60.21637367
_cell_angle_beta   60.19770219
_cell_angle_gamma   60.19769554
_symmetry_Int_Tables_number   1
_chemical_formula_structural   Tb3Y13Cd4Ir3Pt
_chemical_formula_sum   'Tb3 Y13 Cd4 Ir3 Pt1'
_cell_volume   644.41634165
_cell_formula_units_Z   1
loop_
 _symmetry_equiv_pos_site_id
 _symmetry_equiv_pos_as_xyz
  1  'x, y, z'
loop_
 _atom_site_type_symbol
 _atom_site_label
 _atom_site_symmetry_multiplicity
 _atom_site_fract_x
 _atom_site_fract_y
 _atom_site_fract_z
 _atom_site_occupancy
  Tb  Tb0  1  0.347646  0.348022  0.348022  1
  Tb  Tb1  1  0.352110  0.352195  0.949226  1
  Tb  Tb2  1  0.352110  0.949226  0.352195  1
  Y  Y3  1  0.948053  0.352585  0.352585  1
  Y  Y4  1  0.805658  0.190588  0.190588  1
  Y  Y5  1  0.188252  0.810406  0.810406  1
  Y  Y6  1  0.190537  0.805703  0.190606  1
  Y  Y7  1  0.810414  0.188354  0.810295  1
  Y  Y8  1  0.190537  0.190606  0.805703  1
  Y  Y9  1  0.810414  0.810295  0.188354  1
  Y  Y10  1  0.938433  0.562882  0.562882  1
  Y  Y11  1  0.564108  0.937302  0.937302  1
  Y  Y12  1  0.562740  0.938277  0.562858  1
  Y  Y13  1  0.937498  0.564203  0.937055  1
  Y  Y14  1  0.562740  0.562858  0.938277  1
  Y  Y15  1  0.937498  0.937055  0.564203  1
  Cd  Cd16  1  0.580981  0.580637  0.580637  1
  Cd  Cd17  1  0.580956  0.580605  0.256714  1
  Cd  Cd18  1  0.580956  0.256714  0.580605  1
  Cd  Cd19  1  0.256714  0.580720  0.580720  1
  Ir  Ir20  1  0.142638  0.141985  0.573737  1
  Ir  Ir21  1  0.142638  0.573737  0.141985  1
  Ir  Ir22  1  0.573322  0.142309  0.142309  1
  Pt  Pt23  1  0.143047  0.142733  0.142733  1
