# generated using pymatgen
data_Hf5NbCo15Si7Ni
_symmetry_space_group_name_H-M   'P 1'
_cell_length_a   7.99573475
_cell_length_b   7.97797856
_cell_length_c   7.99584612
_cell_angle_alpha   60.04484273
_cell_angle_beta   59.89332380
_cell_angle_gamma   60.04431899
_symmetry_Int_Tables_number   1
_chemical_formula_structural   Hf5NbCo15Si7Ni
_chemical_formula_sum   'Hf5 Nb1 Co15 Si7 Ni1'
_cell_volume   360.61282304
_cell_formula_units_Z   1
loop_
 _symmetry_equiv_pos_site_id
 _symmetry_equiv_pos_as_xyz
  1  'x, y, z'
loop_
 _atom_site_type_symbol
 _atom_site_label
 _atom_site_symmetry_multiplicity
 _atom_site_fract_x
 _atom_site_fract_y
 _atom_site_fract_z
 _atom_site_occupancy
  Hf  Hf0  1  0.207518  0.789251  0.207518  1
  Hf  Hf1  1  0.203519  0.796461  0.795678  1
  Hf  Hf2  1  0.791449  0.205480  0.204509  1
  Hf  Hf3  1  0.795677  0.796462  0.203520  1
  Hf  Hf4  1  0.204509  0.205481  0.791449  1
  Nb  Nb5  1  0.796760  0.203143  0.796761  1
  Co  Co6  1  0.510045  0.830818  0.830254  1
  Co  Co7  1  0.831308  0.507480  0.831308  1
  Co  Co8  1  0.830254  0.830818  0.510045  1
  Co  Co9  1  0.169537  0.492381  0.169536  1
  Co  Co10  1  0.168457  0.169128  0.494377  1
  Co  Co11  1  0.494378  0.169128  0.168457  1
  Co  Co12  1  0.830050  0.830532  0.830051  1
  Co  Co13  1  0.380203  0.379873  0.380201  1
  Co  Co14  1  0.139233  0.620264  0.620487  1
  Co  Co15  1  0.620729  0.142215  0.620730  1
  Co  Co16  1  0.620486  0.620264  0.139232  1
  Co  Co17  1  0.379775  0.859563  0.379775  1
  Co  Co18  1  0.383529  0.379792  0.856182  1
  Co  Co19  1  0.856182  0.379793  0.383528  1
  Co  Co20  1  0.620952  0.616902  0.620952  1
  Si  Si21  1  0.498070  0.501995  0.498071  1
  Si  Si22  1  0.000410  0.500435  0.000410  1
  Si  Si23  1  0.501179  0.002266  0.998559  1
  Si  Si24  1  0.997074  0.499466  0.500890  1
  Si  Si25  1  0.499979  0.999095  0.499979  1
  Si  Si26  1  0.998559  0.002266  0.501179  1
  Si  Si27  1  0.500889  0.499465  0.997075  1
  Ni  Ni28  1  0.169289  0.169784  0.169286  1
