# generated using pymatgen
data_Si4Pt3Rh
_symmetry_space_group_name_H-M   'P 1'
_cell_length_a   3.56025000
_cell_length_b   5.56736652
_cell_length_c   6.05505285
_cell_angle_alpha   89.75597043
_cell_angle_beta   90.00000000
_cell_angle_gamma   90.00000000
_symmetry_Int_Tables_number   1
_chemical_formula_structural   Si4Pt3Rh
_chemical_formula_sum   'Si4 Pt3 Rh1'
_cell_volume   120.01742568
_cell_formula_units_Z   1
loop_
 _symmetry_equiv_pos_site_id
 _symmetry_equiv_pos_as_xyz
  1  'x, y, z'
loop_
 _atom_site_type_symbol
 _atom_site_label
 _atom_site_symmetry_multiplicity
 _atom_site_fract_x
 _atom_site_fract_y
 _atom_site_fract_z
 _atom_site_occupancy
  Si  Si0  1  0.250000  0.672795  0.073850  1
  Si  Si1  1  0.750000  0.325830  0.915235  1
  Si  Si2  1  0.250000  0.183118  0.423075  1
  Si  Si3  1  0.750000  0.813363  0.585447  1
  Pt  Pt4  1  0.750000  0.503379  0.307595  1
  Pt  Pt5  1  0.250000  0.998710  0.804869  1
  Pt  Pt6  1  0.750000  0.004963  0.194736  1
  Rh  Rh7  1  0.250000  0.497841  0.695193  1
