# generated using pymatgen
data_BaCaCu18Si7Ge
_symmetry_space_group_name_H-M   'P 1'
_cell_length_a   8.24183119
_cell_length_b   8.24679913
_cell_length_c   8.25810050
_cell_angle_alpha   120.53102702
_cell_angle_beta   120.51239838
_cell_angle_gamma   89.18347845
_symmetry_Int_Tables_number   1
_chemical_formula_structural   BaCaCu18Si7Ge
_chemical_formula_sum   'Ba1 Ca1 Cu18 Si7 Ge1'
_cell_volume   393.42351883
_cell_formula_units_Z   1
loop_
 _symmetry_equiv_pos_site_id
 _symmetry_equiv_pos_as_xyz
  1  'x, y, z'
loop_
 _atom_site_type_symbol
 _atom_site_label
 _atom_site_symmetry_multiplicity
 _atom_site_fract_x
 _atom_site_fract_y
 _atom_site_fract_z
 _atom_site_occupancy
  Ba  Ba0  1  0.249193  0.250174  0.999715  1
  Ca  Ca1  1  0.750011  0.750502  0.999960  1
  Cu  Cu2  1  0.932935  0.198401  0.139597  1
  Cu  Cu3  1  0.202073  0.062808  0.268448  1
  Cu  Cu4  1  0.794259  0.930437  0.730654  1
  Cu  Cu5  1  0.433157  0.296901  0.730203  1
  Cu  Cu6  1  0.064957  0.796422  0.862674  1
  Cu  Cu7  1  0.803719  0.051127  0.488157  1
  Cu  Cu8  1  0.556461  0.308285  0.498214  1
  Cu  Cu9  1  0.190424  0.941195  0.497317  1
  Cu  Cu10  1  0.445540  0.694881  0.506619  1
  Cu  Cu11  1  0.939225  0.442632  0.737228  1
  Cu  Cu12  1  0.694504  0.190685  0.251387  1
  Cu  Cu13  1  0.064239  0.567680  0.266690  1
  Cu  Cu14  1  0.701822  0.435976  0.140014  1
  Cu  Cu15  1  0.565418  0.704787  0.268555  1
  Cu  Cu16  1  0.498182  0.997959  0.498650  1
  Cu  Cu17  1  0.000683  0.500446  0.499322  1
  Cu  Cu18  1  0.309953  0.805495  0.749573  1
  Cu  Cu19  1  0.299287  0.567746  0.862887  1
  Si  Si20  1  0.559165  0.055821  0.849833  1
  Si  Si21  1  0.057090  0.206647  0.495681  1
  Si  Si22  1  0.293806  0.442807  0.504819  1
  Si  Si23  1  0.939409  0.790373  0.498380  1
  Si  Si24  1  0.442779  0.939811  0.150311  1
  Si  Si25  1  0.204178  0.707879  0.147857  1
  Si  Si26  1  0.709830  0.560238  0.501850  1
  Ge  Ge27  1  0.797695  0.301884  0.855412  1
