# generated using pymatgen
data_Dy2HoTm5(B6Rh)4
_symmetry_space_group_name_H-M   'P 1'
_cell_length_a   3.63100000
_cell_length_b   9.12655600
_cell_length_c   11.46303200
_cell_angle_alpha   90.00339982
_cell_angle_beta   90.00000000
_cell_angle_gamma   90.00000000
_symmetry_Int_Tables_number   1
_chemical_formula_structural   Dy2HoTm5(B6Rh)4
_chemical_formula_sum   'Dy2 Ho1 Tm5 B24 Rh4'
_cell_volume   379.86797029
_cell_formula_units_Z   1
loop_
 _symmetry_equiv_pos_site_id
 _symmetry_equiv_pos_as_xyz
  1  'x, y, z'
loop_
 _atom_site_type_symbol
 _atom_site_label
 _atom_site_symmetry_multiplicity
 _atom_site_fract_x
 _atom_site_fract_y
 _atom_site_fract_z
 _atom_site_occupancy
  Dy  Dy0  1  0.500000  0.322205  0.413550  1
  Dy  Dy1  1  0.500000  0.677845  0.586344  1
  Ho  Ho2  1  0.500000  0.177837  0.913764  1
  Tm  Tm3  1  0.500000  0.822005  0.086301  1
  Tm  Tm4  1  0.500000  0.444371  0.126571  1
  Tm  Tm5  1  0.500000  0.555850  0.873631  1
  Tm  Tm6  1  0.500000  0.055673  0.626868  1
  Tm  Tm7  1  0.500000  0.944228  0.372958  1
  B  B8  1  0.000000  0.107806  0.470715  1
  B  B9  1  0.000000  0.892126  0.529168  1
  B  B10  1  0.000000  0.391071  0.970542  1
  B  B11  1  0.000000  0.609486  0.029698  1
  B  B12  1  0.000000  0.132599  0.316104  1
  B  B13  1  0.000000  0.867400  0.683864  1
  B  B14  1  0.000000  0.367156  0.816534  1
  B  B15  1  0.000000  0.633282  0.183281  1
  B  B16  1  0.000000  0.053414  0.065448  1
  B  B17  1  0.000000  0.945942  0.934910  1
  B  B18  1  0.000000  0.446019  0.565881  1
  B  B19  1  0.000000  0.554009  0.434053  1
  B  B20  1  0.000000  0.482768  0.286236  1
  B  B21  1  0.000000  0.517320  0.713807  1
  B  B22  1  0.000000  0.017436  0.786752  1
  B  B23  1  0.000000  0.981998  0.212971  1
  B  B24  1  0.000000  0.249771  0.079535  1
  B  B25  1  0.000000  0.750360  0.920946  1
  B  B26  1  0.000000  0.249927  0.579953  1
  B  B27  1  0.000000  0.750094  0.419955  1
  B  B28  1  0.000000  0.294276  0.235516  1
  B  B29  1  0.000000  0.705795  0.764580  1
  B  B30  1  0.000000  0.205500  0.736157  1
  B  B31  1  0.000000  0.794698  0.263406  1
  Rh  Rh32  1  0.500000  0.139134  0.178992  1
  Rh  Rh33  1  0.500000  0.860354  0.821162  1
  Rh  Rh34  1  0.500000  0.359756  0.679983  1
  Rh  Rh35  1  0.500000  0.640486  0.319865  1
