# generated using pymatgen
data_Er11TmTc4
_symmetry_space_group_name_H-M   'P 1'
_cell_length_a   6.19977677
_cell_length_b   7.35550834
_cell_length_c   9.07739513
_cell_angle_alpha   90.01762616
_cell_angle_beta   90.04253356
_cell_angle_gamma   90.01468513
_symmetry_Int_Tables_number   1
_chemical_formula_structural   Er11TmTc4
_chemical_formula_sum   'Er11 Tm1 Tc4'
_cell_volume   413.95185262
_cell_formula_units_Z   1
loop_
 _symmetry_equiv_pos_site_id
 _symmetry_equiv_pos_as_xyz
  1  'x, y, z'
loop_
 _atom_site_type_symbol
 _atom_site_label
 _atom_site_symmetry_multiplicity
 _atom_site_fract_x
 _atom_site_fract_y
 _atom_site_fract_z
 _atom_site_occupancy
  Er  Er0  1  0.338034  0.675562  0.062095  1
  Er  Er1  1  0.162045  0.175256  0.437516  1
  Er  Er2  1  0.662052  0.324608  0.562253  1
  Er  Er3  1  0.838438  0.824662  0.938076  1
  Er  Er4  1  0.661286  0.324560  0.937795  1
  Er  Er5  1  0.838097  0.824928  0.562202  1
  Er  Er6  1  0.338046  0.675378  0.437707  1
  Er  Er7  1  0.874395  0.538780  0.249772  1
  Er  Er8  1  0.625889  0.039592  0.249627  1
  Er  Er9  1  0.126070  0.460649  0.750397  1
  Er  Er10  1  0.373927  0.960913  0.750302  1
  Tm  Tm11  1  0.161624  0.174700  0.062324  1
  Tc  Tc12  1  0.041632  0.884803  0.249856  1
  Tc  Tc13  1  0.457618  0.384403  0.249416  1
  Tc  Tc14  1  0.959034  0.115593  0.750767  1
  Tc  Tc15  1  0.541811  0.615613  0.749894  1
