# generated using pymatgen
data_HfSc3(Si3Ni5)4
_symmetry_space_group_name_H-M   'P 1'
_cell_length_a   18.36477898
_cell_length_b   3.69146200
_cell_length_c   6.63714641
_cell_angle_alpha   90.00000000
_cell_angle_beta   89.85383936
_cell_angle_gamma   90.00000000
_symmetry_Int_Tables_number   1
_chemical_formula_structural   HfSc3(Si3Ni5)4
_chemical_formula_sum   'Hf1 Sc3 Si12 Ni20'
_cell_volume   449.94983126
_cell_formula_units_Z   1
loop_
 _symmetry_equiv_pos_site_id
 _symmetry_equiv_pos_as_xyz
  1  'x, y, z'
loop_
 _atom_site_type_symbol
 _atom_site_label
 _atom_site_symmetry_multiplicity
 _atom_site_fract_x
 _atom_site_fract_y
 _atom_site_fract_z
 _atom_site_occupancy
  Hf  Hf0  1  0.857191  0.750000  0.123215  1
  Sc  Sc1  1  0.643472  0.250000  0.622253  1
  Sc  Sc2  1  0.142978  0.250000  0.877346  1
  Sc  Sc3  1  0.356737  0.750000  0.377800  1
  Si  Si4  1  0.913633  0.250000  0.406775  1
  Si  Si5  1  0.414144  0.250000  0.093153  1
  Si  Si6  1  0.085708  0.750000  0.593197  1
  Si  Si7  1  0.586370  0.750000  0.906049  1
  Si  Si8  1  0.740441  0.250000  0.125429  1
  Si  Si9  1  0.240842  0.250000  0.374101  1
  Si  Si10  1  0.258873  0.750000  0.873160  1
  Si  Si11  1  0.759560  0.750000  0.625166  1
  Si  Si12  1  0.922904  0.250000  0.853627  1
  Si  Si13  1  0.423222  0.250000  0.648450  1
  Si  Si14  1  0.076729  0.750000  0.148711  1
  Si  Si15  1  0.577199  0.750000  0.351558  1
  Ni  Ni16  1  0.800148  0.250000  0.822513  1
  Ni  Ni17  1  0.299538  0.250000  0.679761  1
  Ni  Ni18  1  0.200284  0.750000  0.179499  1
  Ni  Ni19  1  0.700980  0.750000  0.320313  1
  Ni  Ni20  1  0.993831  0.250000  0.131031  1
  Ni  Ni21  1  0.494712  0.250000  0.368881  1
  Ni  Ni22  1  0.004916  0.750000  0.871174  1
  Ni  Ni23  1  0.505794  0.750000  0.630983  1
  Ni  Ni24  1  0.513240  0.250000  0.879596  1
  Ni  Ni25  1  0.012793  0.250000  0.620780  1
  Ni  Ni26  1  0.487141  0.750000  0.120157  1
  Ni  Ni27  1  0.986344  0.750000  0.379797  1
  Ni  Ni28  1  0.615525  0.250000  0.141435  1
  Ni  Ni29  1  0.115299  0.250000  0.356922  1
  Ni  Ni30  1  0.384461  0.750000  0.858362  1
  Ni  Ni31  1  0.884556  0.750000  0.643601  1
  Ni  Ni32  1  0.793646  0.250000  0.431150  1
  Ni  Ni33  1  0.293947  0.250000  0.065515  1
  Ni  Ni34  1  0.206020  0.750000  0.565473  1
  Ni  Ni35  1  0.706822  0.750000  0.933064  1
