# generated using pymatgen
data_Sr5Tb(RhO6)2
_symmetry_space_group_name_H-M   'P 1'
_cell_length_a   5.85572508
_cell_length_b   6.01851011
_cell_length_c   8.32898091
_cell_angle_alpha   89.92680300
_cell_angle_beta   90.70080968
_cell_angle_gamma   90.08983085
_symmetry_Int_Tables_number   1
_chemical_formula_structural   Sr5Tb(RhO6)2
_chemical_formula_sum   'Sr5 Tb1 Rh2 O12'
_cell_volume   293.51356342
_cell_formula_units_Z   1
loop_
 _symmetry_equiv_pos_site_id
 _symmetry_equiv_pos_as_xyz
  1  'x, y, z'
loop_
 _atom_site_type_symbol
 _atom_site_label
 _atom_site_symmetry_multiplicity
 _atom_site_fract_x
 _atom_site_fract_y
 _atom_site_fract_z
 _atom_site_occupancy
  Sr  Sr0  1  0.486490  0.549826  0.253381  1
  Sr  Sr1  1  0.984566  0.949161  0.746611  1
  Sr  Sr2  1  0.513510  0.450174  0.746619  1
  Sr  Sr3  1  0.015434  0.050839  0.253389  1
  Sr  Sr4  1  0.500000  0.000000  0.000000  1
  Tb  Tb5  1  0.000000  0.500000  0.500000  1
  Rh  Rh6  1  0.000000  0.500000  0.000000  1
  Rh  Rh7  1  0.500000  0.000000  0.500000  1
  O  O8  1  0.227409  0.799508  0.456114  1
  O  O9  1  0.728008  0.676133  0.953268  1
  O  O10  1  0.772591  0.200492  0.543886  1
  O  O11  1  0.271992  0.323867  0.046732  1
  O  O12  1  0.695698  0.726801  0.551301  1
  O  O13  1  0.169999  0.770529  0.053473  1
  O  O14  1  0.304302  0.273199  0.448699  1
  O  O15  1  0.830001  0.229471  0.946527  1
  O  O16  1  0.591572  0.969720  0.279832  1
  O  O17  1  0.089171  0.531044  0.765748  1
  O  O18  1  0.408428  0.030280  0.720168  1
  O  O19  1  0.910829  0.468956  0.234252  1
