# generated using pymatgen
data_Ca9TbTaNbN10
_symmetry_space_group_name_H-M   'P 1'
_cell_length_a   6.95671528
_cell_length_b   6.92365665
_cell_length_c   8.92418843
_cell_angle_alpha   80.44449224
_cell_angle_beta   80.22715855
_cell_angle_gamma   59.80073957
_symmetry_Int_Tables_number   1
_chemical_formula_structural   Ca9TbTaNbN10
_chemical_formula_sum   'Ca9 Tb1 Ta1 Nb1 N10'
_cell_volume   364.46920752
_cell_formula_units_Z   1
loop_
 _symmetry_equiv_pos_site_id
 _symmetry_equiv_pos_as_xyz
  1  'x, y, z'
loop_
 _atom_site_type_symbol
 _atom_site_label
 _atom_site_symmetry_multiplicity
 _atom_site_fract_x
 _atom_site_fract_y
 _atom_site_fract_z
 _atom_site_occupancy
  Ca  Ca0  1  0.869759  0.868543  0.828553  1
  Ca  Ca1  1  0.740688  0.742574  0.519987  1
  Ca  Ca2  1  0.754832  0.248136  0.504144  1
  Ca  Ca3  1  0.622583  0.141941  0.155643  1
  Ca  Ca4  1  0.363494  0.870208  0.837900  1
  Ca  Ca5  1  0.250458  0.756652  0.508741  1
  Ca  Ca6  1  0.244975  0.245915  0.489155  1
  Ca  Ca7  1  0.139816  0.142678  0.165427  1
  Ca  Ca8  1  0.135073  0.630637  0.154213  1
  Tb  Tb9  1  0.879410  0.348348  0.830772  1
  Ta  Ta10  1  0.630758  0.629448  0.220854  1
  Nb  Nb11  1  0.372805  0.365735  0.774981  1
  N  N12  1  0.913580  0.466885  0.320286  1
  N  N13  1  0.986828  0.016195  0.011511  1
  N  N14  1  0.684979  0.666443  0.997905  1
  N  N15  1  0.546444  0.530408  0.696232  1
  N  N16  1  0.465429  0.914705  0.321356  1
  N  N17  1  0.540793  0.082138  0.676078  1
  N  N18  1  0.461653  0.467826  0.303100  1
  N  N19  1  0.320000  0.318824  0.994859  1
  N  N20  1  0.054398  0.074620  0.653343  1
  N  N21  1  0.083532  0.533433  0.680766  1
