# generated using pymatgen
data_Zr4AlTc7
_symmetry_space_group_name_H-M   'P 1'
_cell_length_a   5.24328600
_cell_length_b   5.24328561
_cell_length_c   8.69071600
_cell_angle_alpha   90.00000000
_cell_angle_beta   90.00000000
_cell_angle_gamma   119.99998986
_symmetry_Int_Tables_number   1
_chemical_formula_structural   Zr4AlTc7
_chemical_formula_sum   'Zr4 Al1 Tc7'
_cell_volume   206.91562940
_cell_formula_units_Z   1
loop_
 _symmetry_equiv_pos_site_id
 _symmetry_equiv_pos_as_xyz
  1  'x, y, z'
loop_
 _atom_site_type_symbol
 _atom_site_label
 _atom_site_symmetry_multiplicity
 _atom_site_fract_x
 _atom_site_fract_y
 _atom_site_fract_z
 _atom_site_occupancy
  Zr  Zr0  1  0.333333  0.666667  0.432417  1
  Zr  Zr1  1  0.666667  0.333333  0.936581  1
  Zr  Zr2  1  0.666667  0.333333  0.567583  1
  Zr  Zr3  1  0.333333  0.666667  0.063419  1
  Al  Al4  1  0.000000  0.000000  0.500000  1
  Tc  Tc5  1  0.170843  0.341685  0.749627  1
  Tc  Tc6  1  0.829157  0.170843  0.250373  1
  Tc  Tc7  1  0.341685  0.170843  0.250373  1
  Tc  Tc8  1  0.658315  0.829157  0.749627  1
  Tc  Tc9  1  0.000000  0.000000  0.000000  1
  Tc  Tc10  1  0.829157  0.658315  0.250373  1
  Tc  Tc11  1  0.170843  0.829157  0.749627  1
