# generated using pymatgen
data_Tb3Er3(BiO7)2
_symmetry_space_group_name_H-M   'P 1'
_cell_length_a   6.55337543
_cell_length_b   6.53939131
_cell_length_c   7.69585141
_cell_angle_alpha   106.90930546
_cell_angle_beta   89.73794278
_cell_angle_gamma   98.88025245
_symmetry_Int_Tables_number   1
_chemical_formula_structural   Tb3Er3(BiO7)2
_chemical_formula_sum   'Tb3 Er3 Bi2 O14'
_cell_volume   311.48140829
_cell_formula_units_Z   1
loop_
 _symmetry_equiv_pos_site_id
 _symmetry_equiv_pos_as_xyz
  1  'x, y, z'
loop_
 _atom_site_type_symbol
 _atom_site_label
 _atom_site_symmetry_multiplicity
 _atom_site_fract_x
 _atom_site_fract_y
 _atom_site_fract_z
 _atom_site_occupancy
  Tb  Tb0  1  0.727339  0.461863  0.116310  1
  Tb  Tb1  1  0.733783  0.475843  0.613860  1
  Tb  Tb2  1  0.265367  0.524738  0.387358  1
  Er  Er3  1  0.462044  0.005467  0.251542  1
  Er  Er4  1  0.537115  0.993838  0.748247  1
  Er  Er5  1  0.273197  0.538508  0.883130  1
  Bi  Bi6  1  0.000600  0.001037  0.500812  1
  Bi  Bi7  1  0.001062  0.000150  0.999329  1
  O  O8  1  0.444553  0.651657  0.165316  1
  O  O9  1  0.549176  0.347776  0.831895  1
  O  O10  1  0.303973  0.921219  0.950945  1
  O  O11  1  0.696901  0.075714  0.048683  1
  O  O12  1  0.300967  0.925981  0.513581  1
  O  O13  1  0.699948  0.073875  0.486135  1
  O  O14  1  0.543398  0.360297  0.344409  1
  O  O15  1  0.454630  0.639569  0.658380  1
  O  O16  1  0.928108  0.665861  0.959339  1
  O  O17  1  0.076534  0.334350  0.037352  1
  O  O18  1  0.071591  0.351238  0.623394  1
  O  O19  1  0.930371  0.650243  0.379822  1
  O  O20  1  0.870629  0.901187  0.724652  1
  O  O21  1  0.128713  0.099589  0.275507  1
