# generated using pymatgen
data_Pr2GaSiPd4
_symmetry_space_group_name_H-M   'P 1'
_cell_length_a   5.75401100
_cell_length_b   7.11109900
_cell_length_c   7.62777600
_cell_angle_alpha   90.00000000
_cell_angle_beta   90.00000000
_cell_angle_gamma   90.00000000
_symmetry_Int_Tables_number   1
_chemical_formula_structural   Pr2GaSiPd4
_chemical_formula_sum   'Pr4 Ga2 Si2 Pd8'
_cell_volume   312.10831829
_cell_formula_units_Z   2
loop_
 _symmetry_equiv_pos_site_id
 _symmetry_equiv_pos_as_xyz
  1  'x, y, z'
loop_
 _atom_site_type_symbol
 _atom_site_label
 _atom_site_symmetry_multiplicity
 _atom_site_fract_x
 _atom_site_fract_y
 _atom_site_fract_z
 _atom_site_occupancy
  Pr  Pr0  1  0.353743  0.750000  0.031449  1
  Pr  Pr1  1  0.146257  0.750000  0.531449  1
  Pr  Pr2  1  0.645127  0.250000  0.968169  1
  Pr  Pr3  1  0.854873  0.250000  0.468169  1
  Ga  Ga4  1  0.352225  0.250000  0.623663  1
  Ga  Ga5  1  0.147775  0.250000  0.123663  1
  Si  Si6  1  0.647526  0.750000  0.379121  1
  Si  Si7  1  0.852474  0.750000  0.879121  1
  Pd  Pd8  1  0.896068  0.557120  0.174409  1
  Pd  Pd9  1  0.603932  0.942880  0.674409  1
  Pd  Pd10  1  0.080061  0.050045  0.824390  1
  Pd  Pd11  1  0.419939  0.449955  0.324390  1
  Pd  Pd12  1  0.080061  0.449955  0.824390  1
  Pd  Pd13  1  0.419939  0.050045  0.324390  1
  Pd  Pd14  1  0.896068  0.942880  0.174409  1
  Pd  Pd15  1  0.603932  0.557120  0.674409  1
