# generated using pymatgen
data_Tm3Ga3Pd2Pt
_symmetry_space_group_name_H-M   'P 1'
_cell_length_a   7.43928700
_cell_length_b   7.43928629
_cell_length_c   7.25784300
_cell_angle_alpha   90.00000000
_cell_angle_beta   90.00000000
_cell_angle_gamma   119.99999870
_symmetry_Int_Tables_number   1
_chemical_formula_structural   Tm3Ga3Pd2Pt
_chemical_formula_sum   'Tm6 Ga6 Pd4 Pt2'
_cell_volume   347.85703657
_cell_formula_units_Z   2
loop_
 _symmetry_equiv_pos_site_id
 _symmetry_equiv_pos_as_xyz
  1  'x, y, z'
loop_
 _atom_site_type_symbol
 _atom_site_label
 _atom_site_symmetry_multiplicity
 _atom_site_fract_x
 _atom_site_fract_y
 _atom_site_fract_z
 _atom_site_occupancy
  Tm  Tm0  1  0.740281  0.068234  0.000000  1
  Tm  Tm1  1  0.327952  0.259719  0.000000  1
  Tm  Tm2  1  0.931766  0.672048  0.000000  1
  Tm  Tm3  1  0.331555  0.260721  0.500000  1
  Tm  Tm4  1  0.739279  0.070834  0.500000  1
  Tm  Tm5  1  0.929166  0.668445  0.500000  1
  Ga  Ga6  1  0.595329  0.663646  0.749854  1
  Ga  Ga7  1  0.068316  0.404671  0.749854  1
  Ga  Ga8  1  0.336354  0.931684  0.749854  1
  Ga  Ga9  1  0.595329  0.663646  0.250146  1
  Ga  Ga10  1  0.068316  0.404671  0.250146  1
  Ga  Ga11  1  0.336354  0.931684  0.250146  1
  Pd  Pd12  1  0.333333  0.666667  0.000000  1
  Pd  Pd13  1  0.333333  0.666667  0.500000  1
  Pd  Pd14  1  0.666667  0.333333  0.753443  1
  Pd  Pd15  1  0.666667  0.333333  0.246557  1
  Pt  Pt16  1  0.000000  0.000000  0.251734  1
  Pt  Pt17  1  0.000000  0.000000  0.748266  1
