# generated using pymatgen
data_La2Nd2YRu2
_symmetry_space_group_name_H-M   'P 1'
_cell_length_a   6.63870953
_cell_length_b   7.26103099
_cell_length_c   9.04109218
_cell_angle_alpha   95.64292893
_cell_angle_beta   111.53940633
_cell_angle_gamma   89.99999229
_symmetry_Int_Tables_number   1
_chemical_formula_structural   La2Nd2YRu2
_chemical_formula_sum   'La4 Nd4 Y2 Ru4'
_cell_volume   403.10923604
_cell_formula_units_Z   2
loop_
 _symmetry_equiv_pos_site_id
 _symmetry_equiv_pos_as_xyz
  1  'x, y, z'
loop_
 _atom_site_type_symbol
 _atom_site_label
 _atom_site_symmetry_multiplicity
 _atom_site_fract_x
 _atom_site_fract_y
 _atom_site_fract_z
 _atom_site_occupancy
  La  La0  1  0.980282  0.906174  0.188161  1
  La  La1  1  0.792122  0.593826  0.811839  1
  La  La2  1  0.019718  0.093826  0.811839  1
  La  La3  1  0.207878  0.406174  0.188161  1
  Nd  Nd4  1  0.636114  0.814954  0.428639  1
  Nd  Nd5  1  0.207476  0.685046  0.571361  1
  Nd  Nd6  1  0.363886  0.185046  0.571361  1
  Nd  Nd7  1  0.792524  0.314954  0.428639  1
  Y  Y8  1  0.429421  0.750000  0.000000  1
  Y  Y9  1  0.570579  0.250000  0.000000  1
  Ru  Ru10  1  0.828468  0.583147  0.218337  1
  Ru  Ru11  1  0.610131  0.916853  0.781663  1
  Ru  Ru12  1  0.171532  0.416853  0.781663  1
  Ru  Ru13  1  0.389869  0.083147  0.218337  1
