# generated using pymatgen
data_La3PaGa2Rh3
_symmetry_space_group_name_H-M   'P 1'
_cell_length_a   7.32676000
_cell_length_b   7.45175130
_cell_length_c   4.30503300
_cell_angle_alpha   90.00000000
_cell_angle_beta   90.00000000
_cell_angle_gamma   119.44668277
_symmetry_Int_Tables_number   1
_chemical_formula_structural   La3PaGa2Rh3
_chemical_formula_sum   'La3 Pa1 Ga2 Rh3'
_cell_volume   204.67838452
_cell_formula_units_Z   1
loop_
 _symmetry_equiv_pos_site_id
 _symmetry_equiv_pos_as_xyz
  1  'x, y, z'
loop_
 _atom_site_type_symbol
 _atom_site_label
 _atom_site_symmetry_multiplicity
 _atom_site_fract_x
 _atom_site_fract_y
 _atom_site_fract_z
 _atom_site_occupancy
  La  La0  1  0.621332  0.000000  0.500000  1
  La  La1  1  0.417833  0.448367  0.500000  1
  La  La2  1  0.969467  0.551633  0.500000  1
  Pa  Pa3  1  0.256059  0.000000  0.000000  1
  Ga  Ga4  1  0.764295  0.758133  0.000000  1
  Ga  Ga5  1  0.006162  0.241867  0.000000  1
  Rh  Rh6  1  0.009008  0.000000  0.500000  1
  Rh  Rh7  1  0.319408  0.682973  0.000000  1
  Rh  Rh8  1  0.636436  0.317027  0.000000  1
