# generated using pymatgen
data_Fe12Mo5W7N2
_symmetry_space_group_name_H-M   'P 1'
_cell_length_a   7.70962905
_cell_length_b   7.69985777
_cell_length_c   7.70334253
_cell_angle_alpha   59.97677593
_cell_angle_beta   60.06353926
_cell_angle_gamma   60.03842762
_symmetry_Int_Tables_number   1
_chemical_formula_structural   Fe12Mo5W7N2
_chemical_formula_sum   'Fe12 Mo5 W7 N2'
_cell_volume   323.54761186
_cell_formula_units_Z   1
loop_
 _symmetry_equiv_pos_site_id
 _symmetry_equiv_pos_as_xyz
  1  'x, y, z'
loop_
 _atom_site_type_symbol
 _atom_site_label
 _atom_site_symmetry_multiplicity
 _atom_site_fract_x
 _atom_site_fract_y
 _atom_site_fract_z
 _atom_site_occupancy
  Fe  Fe0  1  0.920107  0.237843  0.920981  1
  Fe  Fe1  1  0.328982  0.010782  0.330284  1
  Fe  Fe2  1  0.329790  0.330000  0.329636  1
  Fe  Fe3  1  0.011066  0.329120  0.329978  1
  Fe  Fe4  1  0.920434  0.920959  0.238342  1
  Fe  Fe5  1  0.238171  0.920281  0.920804  1
  Fe  Fe6  1  0.329964  0.330318  0.009955  1
  Fe  Fe7  1  0.125596  0.124958  0.625000  1
  Fe  Fe8  1  0.920606  0.921209  0.920435  1
  Fe  Fe9  1  0.125333  0.624837  0.124962  1
  Fe  Fe10  1  0.125775  0.124929  0.124425  1
  Fe  Fe11  1  0.624568  0.124895  0.125123  1
  Mo  Mo12  1  0.302294  0.697407  0.696672  1
  Mo  Mo13  1  0.301566  0.302906  0.697302  1
  Mo  Mo14  1  0.551916  0.946997  0.553957  1
  Mo  Mo15  1  0.947009  0.551853  0.552650  1
  Mo  Mo16  1  0.551241  0.947999  0.948385  1
  W  W17  1  0.697712  0.301702  0.301477  1
  W  W18  1  0.947707  0.551663  0.948986  1
  W  W19  1  0.301871  0.697726  0.302723  1
  W  W20  1  0.552514  0.553578  0.947001  1
  W  W21  1  0.697072  0.302719  0.697561  1
  W  W22  1  0.698433  0.699813  0.300791  1
  W  W23  1  0.945858  0.947022  0.554005  1
  N  N24  1  0.751264  0.748478  0.751825  1
  N  N25  1  0.503149  0.500009  0.496740  1
