# generated using pymatgen
data_Mg3Sc5(FeB6)4
_symmetry_space_group_name_H-M   'P 1'
_cell_length_a   3.31476200
_cell_length_b   8.75269107
_cell_length_c   11.04217282
_cell_angle_alpha   90.02558759
_cell_angle_beta   90.00000000
_cell_angle_gamma   90.00000000
_symmetry_Int_Tables_number   1
_chemical_formula_structural   Mg3Sc5(FeB6)4
_chemical_formula_sum   'Mg3 Sc5 Fe4 B24'
_cell_volume   320.36749721
_cell_formula_units_Z   1
loop_
 _symmetry_equiv_pos_site_id
 _symmetry_equiv_pos_as_xyz
  1  'x, y, z'
loop_
 _atom_site_type_symbol
 _atom_site_label
 _atom_site_symmetry_multiplicity
 _atom_site_fract_x
 _atom_site_fract_y
 _atom_site_fract_z
 _atom_site_occupancy
  Mg  Mg0  1  0.000000  0.943130  0.371254  1
  Mg  Mg1  1  0.000000  0.057085  0.629674  1
  Mg  Mg2  1  0.000000  0.555926  0.872061  1
  Sc  Sc3  1  0.000000  0.177324  0.913255  1
  Sc  Sc4  1  0.000000  0.822060  0.083732  1
  Sc  Sc5  1  0.000000  0.675275  0.588065  1
  Sc  Sc6  1  0.000000  0.324325  0.415523  1
  Sc  Sc7  1  0.000000  0.443345  0.129179  1
  Fe  Fe8  1  0.000000  0.138315  0.181404  1
  Fe  Fe9  1  0.000000  0.360751  0.678998  1
  Fe  Fe10  1  0.000000  0.861068  0.818470  1
  Fe  Fe11  1  0.000000  0.640139  0.321017  1
  B  B12  1  0.500000  0.370247  0.815985  1
  B  B13  1  0.500000  0.980990  0.211984  1
  B  B14  1  0.500000  0.555537  0.434216  1
  B  B15  1  0.500000  0.291934  0.236462  1
  B  B16  1  0.500000  0.207015  0.736126  1
  B  B17  1  0.500000  0.096370  0.473784  1
  B  B18  1  0.500000  0.794208  0.263742  1
  B  B19  1  0.500000  0.444808  0.566491  1
  B  B20  1  0.500000  0.247046  0.580114  1
  B  B21  1  0.500000  0.482499  0.288443  1
  B  B22  1  0.500000  0.707031  0.763353  1
  B  B23  1  0.500000  0.753031  0.420078  1
  B  B24  1  0.500000  0.518417  0.712156  1
  B  B25  1  0.500000  0.903364  0.526747  1
  B  B26  1  0.500000  0.053577  0.066278  1
  B  B27  1  0.500000  0.601367  0.026505  1
  B  B28  1  0.500000  0.748514  0.918327  1
  B  B29  1  0.500000  0.019542  0.787848  1
  B  B30  1  0.500000  0.399362  0.971619  1
  B  B31  1  0.500000  0.945269  0.932759  1
  B  B32  1  0.500000  0.631467  0.183515  1
  B  B33  1  0.500000  0.250115  0.080149  1
  B  B34  1  0.500000  0.870776  0.682687  1
  B  B35  1  0.500000  0.128769  0.318004  1
