# generated using pymatgen
data_Zn22Fe2Ir
_symmetry_space_group_name_H-M   'P 1'
_cell_length_a   7.72736878
_cell_length_b   7.72736922
_cell_length_c   7.73651361
_cell_angle_alpha   72.22657639
_cell_angle_beta   72.22658127
_cell_angle_gamma   58.36019458
_symmetry_Int_Tables_number   1
_chemical_formula_structural   Zn22Fe2Ir
_chemical_formula_sum   'Zn22 Fe2 Ir1'
_cell_volume   368.47827959
_cell_formula_units_Z   1
loop_
 _symmetry_equiv_pos_site_id
 _symmetry_equiv_pos_as_xyz
  1  'x, y, z'
loop_
 _atom_site_type_symbol
 _atom_site_label
 _atom_site_symmetry_multiplicity
 _atom_site_fract_x
 _atom_site_fract_y
 _atom_site_fract_z
 _atom_site_occupancy
  Zn  Zn0  1  0.341830  0.745460  0.311176  1
  Zn  Zn1  1  0.663922  0.252496  0.683350  1
  Zn  Zn2  1  0.252496  0.663922  0.683350  1
  Zn  Zn3  1  0.745460  0.341830  0.311176  1
  Zn  Zn4  1  0.678433  0.324757  0.001888  1
  Zn  Zn5  1  0.324757  0.678433  0.001888  1
  Zn  Zn6  1  0.830549  0.830549  0.783049  1
  Zn  Zn7  1  0.166698  0.166698  0.222088  1
  Zn  Zn8  1  0.976605  0.976605  0.176929  1
  Zn  Zn9  1  0.022266  0.022266  0.824602  1
  Zn  Zn10  1  0.353044  0.353044  0.277581  1
  Zn  Zn11  1  0.650870  0.650870  0.724713  1
  Zn  Zn12  1  0.684991  0.684991  0.375935  1
  Zn  Zn13  1  0.311965  0.311965  0.622661  1
  Zn  Zn14  1  0.663988  0.023389  0.463428  1
  Zn  Zn15  1  0.337845  0.976073  0.535982  1
  Zn  Zn16  1  0.976073  0.337845  0.535982  1
  Zn  Zn17  1  0.023389  0.663988  0.463428  1
  Zn  Zn18  1  0.623897  0.991262  0.098563  1
  Zn  Zn19  1  0.384754  0.996196  0.900270  1
  Zn  Zn20  1  0.996196  0.384754  0.900270  1
  Zn  Zn21  1  0.991262  0.623897  0.098563  1
  Fe  Fe22  1  0.655712  0.655712  0.057825  1
  Fe  Fe23  1  0.999894  0.999894  0.501192  1
  Ir  Ir24  1  0.343105  0.343105  0.944113  1
