# generated using pymatgen
data_SrTbSm5RuI12
_symmetry_space_group_name_H-M   'P 1'
_cell_length_a   10.00977982
_cell_length_b   9.93216303
_cell_length_c   9.92686824
_cell_angle_alpha   106.25952428
_cell_angle_beta   106.20901731
_cell_angle_gamma   106.58362644
_symmetry_Int_Tables_number   1
_chemical_formula_structural   SrTbSm5RuI12
_chemical_formula_sum   'Sr1 Tb1 Sm5 Ru1 I12'
_cell_volume   836.03606004
_cell_formula_units_Z   1
loop_
 _symmetry_equiv_pos_site_id
 _symmetry_equiv_pos_as_xyz
  1  'x, y, z'
loop_
 _atom_site_type_symbol
 _atom_site_label
 _atom_site_symmetry_multiplicity
 _atom_site_fract_x
 _atom_site_fract_y
 _atom_site_fract_z
 _atom_site_occupancy
  Sr  Sr0  1  0.500145  0.499930  0.500007  1
  Tb  Tb1  1  0.301448  0.021228  0.096294  1
  Sm  Sm2  1  0.907379  0.706447  0.979410  1
  Sm  Sm3  1  0.979734  0.906435  0.707254  1
  Sm  Sm4  1  0.693871  0.978810  0.902409  1
  Sm  Sm5  1  0.094297  0.293825  0.021117  1
  Sm  Sm6  1  0.021031  0.093601  0.293067  1
  Ru  Ru7  1  0.000471  0.000299  0.000239  1
  I  I8  1  0.630990  0.860794  0.548729  1
  I  I9  1  0.550618  0.629118  0.861371  1
  I  I10  1  0.859404  0.548701  0.628842  1
  I  I11  1  0.369267  0.137482  0.447231  1
  I  I12  1  0.449400  0.367355  0.138498  1
  I  I13  1  0.140782  0.451390  0.371174  1
  I  I14  1  0.677787  0.074603  0.225558  1
  I  I15  1  0.225649  0.682220  0.074707  1
  I  I16  1  0.074780  0.225313  0.679463  1
  I  I17  1  0.320709  0.926199  0.777994  1
  I  I18  1  0.776838  0.321541  0.926088  1
  I  I19  1  0.925399  0.774709  0.320549  1
