# generated using pymatgen
data_Nd8Zn8PdRh7
_symmetry_space_group_name_H-M   'P 1'
_cell_length_a   4.00997900
_cell_length_b   7.36353721
_cell_length_c   16.64005448
_cell_angle_alpha   90.02760583
_cell_angle_beta   90.00000000
_cell_angle_gamma   90.00000000
_symmetry_Int_Tables_number   1
_chemical_formula_structural   Nd8Zn8PdRh7
_chemical_formula_sum   'Nd8 Zn8 Pd1 Rh7'
_cell_volume   491.34130814
_cell_formula_units_Z   1
loop_
 _symmetry_equiv_pos_site_id
 _symmetry_equiv_pos_as_xyz
  1  'x, y, z'
loop_
 _atom_site_type_symbol
 _atom_site_label
 _atom_site_symmetry_multiplicity
 _atom_site_fract_x
 _atom_site_fract_y
 _atom_site_fract_z
 _atom_site_occupancy
  Nd  Nd0  1  0.250000  0.169180  0.939030  1
  Nd  Nd1  1  0.250000  0.666469  0.564925  1
  Nd  Nd2  1  0.750000  0.328569  0.439626  1
  Nd  Nd3  1  0.750000  0.954804  0.280456  1
  Nd  Nd4  1  0.750000  0.831275  0.060239  1
  Nd  Nd5  1  0.750000  0.450840  0.215328  1
  Nd  Nd6  1  0.250000  0.049255  0.716371  1
  Nd  Nd7  1  0.250000  0.547602  0.785114  1
  Zn  Zn8  1  0.750000  0.003736  0.562752  1
  Zn  Zn9  1  0.250000  0.620737  0.345660  1
  Zn  Zn10  1  0.750000  0.376321  0.651987  1
  Zn  Zn11  1  0.250000  0.499362  0.059837  1
  Zn  Zn12  1  0.750000  0.500624  0.940332  1
  Zn  Zn13  1  0.250000  0.000990  0.439784  1
  Zn  Zn14  1  0.250000  0.124345  0.150096  1
  Zn  Zn15  1  0.750000  0.876568  0.848853  1
  Pd  Pd16  1  0.750000  0.755535  0.434056  1
  Rh  Rh17  1  0.250000  0.244639  0.314364  1
  Rh  Rh18  1  0.750000  0.253680  0.813255  1
  Rh  Rh19  1  0.750000  0.755568  0.685607  1
  Rh  Rh20  1  0.250000  0.245374  0.565019  1
  Rh  Rh21  1  0.250000  0.745468  0.187384  1
  Rh  Rh22  1  0.750000  0.254532  0.065473  1
  Rh  Rh23  1  0.250000  0.744526  0.934452  1
