# generated using pymatgen
data_Hg3Se2ClF
_symmetry_space_group_name_H-M   'P 1'
_cell_length_a   10.02867094
_cell_length_b   10.02866981
_cell_length_c   9.05690887
_cell_angle_alpha   89.15794024
_cell_angle_beta   89.15793912
_cell_angle_gamma   54.37737832
_symmetry_Int_Tables_number   1
_chemical_formula_structural   Hg3Se2ClF
_chemical_formula_sum   'Hg12 Se8 Cl4 F4'
_cell_volume   740.33620138
_cell_formula_units_Z   4
loop_
 _symmetry_equiv_pos_site_id
 _symmetry_equiv_pos_as_xyz
  1  'x, y, z'
loop_
 _atom_site_type_symbol
 _atom_site_label
 _atom_site_symmetry_multiplicity
 _atom_site_fract_x
 _atom_site_fract_y
 _atom_site_fract_z
 _atom_site_occupancy
  Hg  Hg0  1  0.346080  0.899852  0.319335  1
  Hg  Hg1  1  0.653920  0.100148  0.680665  1
  Hg  Hg2  1  0.100148  0.653920  0.680665  1
  Hg  Hg3  1  0.899852  0.346080  0.319335  1
  Hg  Hg4  1  0.474105  0.474105  0.312262  1
  Hg  Hg5  1  0.525895  0.525895  0.687738  1
  Hg  Hg6  1  0.500000  0.000000  0.000000  1
  Hg  Hg7  1  0.000000  0.500000  0.000000  1
  Hg  Hg8  1  0.776309  0.776309  0.314889  1
  Hg  Hg9  1  0.223691  0.223691  0.685111  1
  Hg  Hg10  1  0.757852  0.242148  0.000000  1
  Hg  Hg11  1  0.242148  0.757852  0.000000  1
  Se  Se12  1  0.492135  0.038487  0.280678  1
  Se  Se13  1  0.507865  0.961513  0.719322  1
  Se  Se14  1  0.961513  0.507865  0.719322  1
  Se  Se15  1  0.038487  0.492135  0.280678  1
  Se  Se16  1  0.757899  0.205235  0.280282  1
  Se  Se17  1  0.242101  0.794765  0.719718  1
  Se  Se18  1  0.794765  0.242101  0.719718  1
  Se  Se19  1  0.205235  0.757899  0.280282  1
  Cl  Cl20  1  0.129436  0.129436  0.020042  1
  Cl  Cl21  1  0.870564  0.870564  0.979958  1
  Cl  Cl22  1  0.622967  0.622967  0.012422  1
  Cl  Cl23  1  0.377033  0.377033  0.987578  1
  F  F24  1  0.601048  0.601048  0.452585  1
  F  F25  1  0.398952  0.398952  0.547415  1
  F  F26  1  0.861075  0.861075  0.524503  1
  F  F27  1  0.138925  0.138925  0.475497  1
