# generated using pymatgen
data_Pr8Zn8IrPdRh6
_symmetry_space_group_name_H-M   'P 1'
_cell_length_a   4.04201000
_cell_length_b   7.40650609
_cell_length_c   16.74909672
_cell_angle_alpha   90.11665195
_cell_angle_beta   90.00000000
_cell_angle_gamma   90.00000000
_symmetry_Int_Tables_number   1
_chemical_formula_structural   Pr8Zn8IrPdRh6
_chemical_formula_sum   'Pr8 Zn8 Ir1 Pd1 Rh6'
_cell_volume   501.41954480
_cell_formula_units_Z   1
loop_
 _symmetry_equiv_pos_site_id
 _symmetry_equiv_pos_as_xyz
  1  'x, y, z'
loop_
 _atom_site_type_symbol
 _atom_site_label
 _atom_site_symmetry_multiplicity
 _atom_site_fract_x
 _atom_site_fract_y
 _atom_site_fract_z
 _atom_site_occupancy
  Pr  Pr0  1  0.750000  0.453018  0.215714  1
  Pr  Pr1  1  0.750000  0.953240  0.283628  1
  Pr  Pr2  1  0.750000  0.830579  0.060772  1
  Pr  Pr3  1  0.250000  0.044327  0.720010  1
  Pr  Pr4  1  0.250000  0.168617  0.940086  1
  Pr  Pr5  1  0.250000  0.547714  0.784053  1
  Pr  Pr6  1  0.750000  0.333507  0.434974  1
  Pr  Pr7  1  0.250000  0.672529  0.560025  1
  Zn  Zn8  1  0.250000  0.996410  0.437255  1
  Zn  Zn9  1  0.750000  0.500951  0.940028  1
  Zn  Zn10  1  0.750000  0.998554  0.560184  1
  Zn  Zn11  1  0.250000  0.624638  0.348850  1
  Zn  Zn12  1  0.750000  0.377202  0.653376  1
  Zn  Zn13  1  0.750000  0.873851  0.850450  1
  Zn  Zn14  1  0.250000  0.499256  0.059767  1
  Zn  Zn15  1  0.250000  0.125505  0.150602  1
  Ir  Ir16  1  0.250000  0.244891  0.314663  1
  Pd  Pd17  1  0.250000  0.242113  0.566629  1
  Rh  Rh18  1  0.750000  0.256931  0.065273  1
  Rh  Rh19  1  0.750000  0.253769  0.812958  1
  Rh  Rh20  1  0.250000  0.743705  0.934251  1
  Rh  Rh21  1  0.750000  0.754410  0.685359  1
  Rh  Rh22  1  0.750000  0.756839  0.435101  1
  Rh  Rh23  1  0.250000  0.747444  0.185990  1
