# generated using pymatgen
data_SrPrPa2(Al3Ir)6
_symmetry_space_group_name_H-M   'P 1'
_cell_length_a   7.64130799
_cell_length_b   7.62557585
_cell_length_c   9.47340700
_cell_angle_alpha   90.00000000
_cell_angle_beta   90.00000000
_cell_angle_gamma   119.54765348
_symmetry_Int_Tables_number   1
_chemical_formula_structural   SrPrPa2(Al3Ir)6
_chemical_formula_sum   'Sr1 Pr1 Pa2 Al18 Ir6'
_cell_volume   480.21836274
_cell_formula_units_Z   1
loop_
 _symmetry_equiv_pos_site_id
 _symmetry_equiv_pos_as_xyz
  1  'x, y, z'
loop_
 _atom_site_type_symbol
 _atom_site_label
 _atom_site_symmetry_multiplicity
 _atom_site_fract_x
 _atom_site_fract_y
 _atom_site_fract_z
 _atom_site_occupancy
  Sr  Sr0  1  0.670163  0.994118  0.250000  1
  Pr  Pr1  1  0.331079  0.006634  0.750000  1
  Pa  Pa2  1  0.997752  0.672224  0.250000  1
  Pa  Pa3  1  0.002328  0.327799  0.750000  1
  Al  Al4  1  0.133051  0.127457  0.250000  1
  Al  Al5  1  0.867698  0.871730  0.750000  1
  Al  Al6  1  0.001881  0.333802  0.075892  1
  Al  Al7  1  0.997517  0.665818  0.924074  1
  Al  Al8  1  0.997517  0.665818  0.575926  1
  Al  Al9  1  0.336976  0.003575  0.424520  1
  Al  Al10  1  0.001881  0.333802  0.424108  1
  Al  Al11  1  0.663530  0.996060  0.574360  1
  Al  Al12  1  0.663530  0.996060  0.925640  1
  Al  Al13  1  0.336976  0.003575  0.075480  1
  Al  Al14  1  0.335031  0.334799  0.551002  1
  Al  Al15  1  0.664670  0.665359  0.449235  1
  Al  Al16  1  0.664670  0.665359  0.050765  1
  Al  Al17  1  0.335031  0.334799  0.948998  1
  Al  Al18  1  0.335785  0.544779  0.250000  1
  Al  Al19  1  0.662542  0.454761  0.750000  1
  Al  Al20  1  0.550551  0.347307  0.250000  1
  Al  Al21  1  0.450454  0.655300  0.750000  1
  Ir  Ir22  1  0.675889  0.331987  0.998359  1
  Ir  Ir23  1  0.322482  0.667394  0.999159  1
  Ir  Ir24  1  0.322482  0.667394  0.500841  1
  Ir  Ir25  1  0.675889  0.331987  0.501641  1
  Ir  Ir26  1  0.001323  0.000152  0.998944  1
  Ir  Ir27  1  0.001323  0.000152  0.501056  1
