# generated using pymatgen
data_HoTm7(LuRu2)2
_symmetry_space_group_name_H-M   'P 1'
_cell_length_a   6.22557183
_cell_length_b   7.21652918
_cell_length_c   8.33088257
_cell_angle_alpha   96.96892878
_cell_angle_beta   111.98562210
_cell_angle_gamma   89.93897177
_symmetry_Int_Tables_number   1
_chemical_formula_structural   HoTm7(LuRu2)2
_chemical_formula_sum   'Ho1 Tm7 Lu2 Ru4'
_cell_volume   344.09879315
_cell_formula_units_Z   1
loop_
 _symmetry_equiv_pos_site_id
 _symmetry_equiv_pos_as_xyz
  1  'x, y, z'
loop_
 _atom_site_type_symbol
 _atom_site_label
 _atom_site_symmetry_multiplicity
 _atom_site_fract_x
 _atom_site_fract_y
 _atom_site_fract_z
 _atom_site_occupancy
  Ho  Ho0  1  0.522502  0.083618  0.813334  1
  Tm  Tm1  1  0.477957  0.915953  0.186684  1
  Tm  Tm2  1  0.708354  0.416444  0.186808  1
  Tm  Tm3  1  0.291375  0.583745  0.813639  1
  Tm  Tm4  1  0.298540  0.313746  0.433005  1
  Tm  Tm5  1  0.701316  0.686391  0.566631  1
  Tm  Tm6  1  0.865391  0.186519  0.566225  1
  Tm  Tm7  1  0.134502  0.813168  0.433152  1
  Lu  Lu8  1  0.080063  0.250659  0.000494  1
  Lu  Lu9  1  0.920477  0.749382  0.999983  1
  Ru  Ru10  1  0.321109  0.577135  0.219828  1
  Ru  Ru11  1  0.679214  0.423479  0.780017  1
  Ru  Ru12  1  0.100099  0.922929  0.779903  1
  Ru  Ru13  1  0.899103  0.076832  0.220297  1
