# generated using pymatgen
data_Ac5La3Te8
_symmetry_space_group_name_H-M   'P 1'
_cell_length_a   9.37558320
_cell_length_b   9.34594400
_cell_length_c   9.37558200
_cell_angle_alpha   59.89503438
_cell_angle_beta   59.99999719
_cell_angle_gamma   59.89503328
_symmetry_Int_Tables_number   1
_chemical_formula_structural   Ac5La3Te8
_chemical_formula_sum   'Ac5 La3 Te8'
_cell_volume   579.98109212
_cell_formula_units_Z   1
loop_
 _symmetry_equiv_pos_site_id
 _symmetry_equiv_pos_as_xyz
  1  'x, y, z'
loop_
 _atom_site_type_symbol
 _atom_site_label
 _atom_site_symmetry_multiplicity
 _atom_site_fract_x
 _atom_site_fract_y
 _atom_site_fract_z
 _atom_site_occupancy
  Ac  Ac0  1  0.125000  0.625000  0.125000  1
  Ac  Ac1  1  0.625000  0.125000  0.625000  1
  Ac  Ac2  1  0.625000  0.625000  0.625000  1
  Ac  Ac3  1  0.125000  0.625000  0.625000  1
  Ac  Ac4  1  0.625000  0.625000  0.125000  1
  La  La5  1  0.125000  0.125000  0.625000  1
  La  La6  1  0.625000  0.125000  0.125000  1
  La  La7  1  0.125000  0.125000  0.125000  1
  Te  Te8  1  0.371818  0.884546  0.371818  1
  Te  Te9  1  0.878182  0.365454  0.878182  1
  Te  Te10  1  0.874996  0.881399  0.368610  1
  Te  Te11  1  0.874996  0.881399  0.874996  1
  Te  Te12  1  0.881390  0.368601  0.375004  1
  Te  Te13  1  0.375004  0.368601  0.881390  1
  Te  Te14  1  0.375004  0.368601  0.375004  1
  Te  Te15  1  0.368610  0.881399  0.874996  1
