# generated using pymatgen
data_ErZn3RhAu
_symmetry_space_group_name_H-M   'P 1'
_cell_length_a   5.24998920
_cell_length_b   5.24999059
_cell_length_c   5.17642963
_cell_angle_alpha   59.52879408
_cell_angle_beta   59.52878443
_cell_angle_gamma   60.00000102
_symmetry_Int_Tables_number   1
_chemical_formula_structural   ErZn3RhAu
_chemical_formula_sum   'Er1 Zn3 Rh1 Au1'
_cell_volume   100.16178549
_cell_formula_units_Z   1
loop_
 _symmetry_equiv_pos_site_id
 _symmetry_equiv_pos_as_xyz
  1  'x, y, z'
loop_
 _atom_site_type_symbol
 _atom_site_label
 _atom_site_symmetry_multiplicity
 _atom_site_fract_x
 _atom_site_fract_y
 _atom_site_fract_z
 _atom_site_occupancy
  Er  Er0  1  0.000334  0.000334  0.998998  1
  Zn  Zn1  1  0.623948  0.129413  0.622692  1
  Zn  Zn2  1  0.129413  0.623948  0.622692  1
  Zn  Zn3  1  0.623948  0.623948  0.622692  1
  Rh  Rh4  1  0.626809  0.626809  0.119571  1
  Au  Au5  1  0.245548  0.245548  0.263357  1
