# generated using pymatgen
data_DyTmTa4(B2Ru5)2
_symmetry_space_group_name_H-M   'P 1'
_cell_length_a   9.54666924
_cell_length_b   9.54667005
_cell_length_c   3.08946900
_cell_angle_alpha   90.00000000
_cell_angle_beta   90.00000000
_cell_angle_gamma   90.56727090
_symmetry_Int_Tables_number   1
_chemical_formula_structural   DyTmTa4(B2Ru5)2
_chemical_formula_sum   'Dy1 Tm1 Ta4 B4 Ru10'
_cell_volume   281.55700990
_cell_formula_units_Z   1
loop_
 _symmetry_equiv_pos_site_id
 _symmetry_equiv_pos_as_xyz
  1  'x, y, z'
loop_
 _atom_site_type_symbol
 _atom_site_label
 _atom_site_symmetry_multiplicity
 _atom_site_fract_x
 _atom_site_fract_y
 _atom_site_fract_z
 _atom_site_occupancy
  Dy  Dy0  1  0.824087  0.675913  0.000000  1
  Tm  Tm1  1  0.176457  0.323543  0.000000  1
  Ta  Ta2  1  0.323790  0.823963  0.000000  1
  Ta  Ta3  1  0.676037  0.176210  0.000000  1
  Ta  Ta4  1  0.499293  0.499709  0.000000  1
  Ta  Ta5  1  0.000291  0.000707  0.000000  1
  B  B6  1  0.620000  0.880000  0.000000  1
  B  B7  1  0.379133  0.120867  0.000000  1
  B  B8  1  0.121407  0.620640  0.000000  1
  B  B9  1  0.879360  0.378593  0.000000  1
  Ru  Ru10  1  0.558623  0.723453  0.500000  1
  Ru  Ru11  1  0.439942  0.277098  0.500000  1
  Ru  Ru12  1  0.082182  0.785560  0.500000  1
  Ru  Ru13  1  0.919249  0.214580  0.500000  1
  Ru  Ru14  1  0.285420  0.580751  0.500000  1
  Ru  Ru15  1  0.714440  0.417818  0.500000  1
  Ru  Ru16  1  0.222902  0.060058  0.500000  1
  Ru  Ru17  1  0.776547  0.941377  0.500000  1
  Ru  Ru18  1  0.499645  0.000355  0.500000  1
  Ru  Ru19  1  0.001194  0.498806  0.500000  1
