# generated using pymatgen
data_Zr16Co3Os5
_symmetry_space_group_name_H-M   'P 1'
_cell_length_a   8.73557547
_cell_length_b   8.75609800
_cell_length_c   8.75609700
_cell_angle_alpha   60.00000001
_cell_angle_beta   59.92225516
_cell_angle_gamma   59.92225497
_symmetry_Int_Tables_number   1
_chemical_formula_structural   Zr16Co3Os5
_chemical_formula_sum   'Zr16 Co3 Os5'
_cell_volume   473.02746096
_cell_formula_units_Z   1
loop_
 _symmetry_equiv_pos_site_id
 _symmetry_equiv_pos_as_xyz
  1  'x, y, z'
loop_
 _atom_site_type_symbol
 _atom_site_label
 _atom_site_symmetry_multiplicity
 _atom_site_fract_x
 _atom_site_fract_y
 _atom_site_fract_z
 _atom_site_occupancy
  Zr  Zr0  1  0.045649  0.651450  0.651450  1
  Zr  Zr1  1  0.653037  0.059419  0.643772  1
  Zr  Zr2  1  0.653037  0.643772  0.059419  1
  Zr  Zr3  1  0.653037  0.643772  0.643772  1
  Zr  Zr4  1  0.799207  0.795441  0.202676  1
  Zr  Zr5  1  0.200858  0.212900  0.793121  1
  Zr  Zr6  1  0.799207  0.202676  0.795441  1
  Zr  Zr7  1  0.200858  0.793121  0.212900  1
  Zr  Zr8  1  0.200858  0.793121  0.793121  1
  Zr  Zr9  1  0.799207  0.202676  0.202676  1
  Zr  Zr10  1  0.437919  0.434917  0.063582  1
  Zr  Zr11  1  0.066719  0.065133  0.434074  1
  Zr  Zr12  1  0.437919  0.063582  0.434917  1
  Zr  Zr13  1  0.066719  0.434074  0.065133  1
  Zr  Zr14  1  0.066719  0.434074  0.434074  1
  Zr  Zr15  1  0.437919  0.063582  0.063582  1
  Co  Co16  1  0.856504  0.418865  0.862315  1
  Co  Co17  1  0.856504  0.862315  0.418865  1
  Co  Co18  1  0.856504  0.862315  0.862315  1
  Os  Os19  1  0.742831  0.419057  0.419057  1
  Os  Os20  1  0.416266  0.745713  0.419011  1
  Os  Os21  1  0.416266  0.419011  0.745713  1
  Os  Os22  1  0.416266  0.419011  0.419011  1
  Os  Os23  1  0.419992  0.860002  0.860002  1
