# generated using pymatgen
data_Ba6NaY(BO3)6
_symmetry_space_group_name_H-M   'P 1'
_cell_length_a   8.24556459
_cell_length_b   8.24556444
_cell_length_c   8.24556300
_cell_angle_alpha   105.59642377
_cell_angle_beta   105.59643789
_cell_angle_gamma   105.59643506
_symmetry_Int_Tables_number   1
_chemical_formula_structural   Ba6NaY(BO3)6
_chemical_formula_sum   'Ba6 Na1 Y1 B6 O18'
_cell_volume   483.64583714
_cell_formula_units_Z   1
loop_
 _symmetry_equiv_pos_site_id
 _symmetry_equiv_pos_as_xyz
  1  'x, y, z'
loop_
 _atom_site_type_symbol
 _atom_site_label
 _atom_site_symmetry_multiplicity
 _atom_site_fract_x
 _atom_site_fract_y
 _atom_site_fract_z
 _atom_site_occupancy
  Ba  Ba0  1  0.356862  0.724507  0.832287  1
  Ba  Ba1  1  0.832287  0.356862  0.724507  1
  Ba  Ba2  1  0.724507  0.832287  0.356862  1
  Ba  Ba3  1  0.643138  0.275493  0.167713  1
  Ba  Ba4  1  0.167713  0.643138  0.275493  1
  Ba  Ba5  1  0.275493  0.167713  0.643138  1
  Na  Na6  1  0.500000  0.500000  0.500000  1
  Y  Y7  1  0.000000  0.000000  0.000000  1
  B  B8  1  0.710848  0.620198  0.960976  1
  B  B9  1  0.960976  0.710848  0.620198  1
  B  B10  1  0.620198  0.960976  0.710848  1
  B  B11  1  0.039024  0.289152  0.379802  1
  B  B12  1  0.379802  0.039024  0.289152  1
  B  B13  1  0.289152  0.379802  0.039024  1
  O  O14  1  0.064732  0.814798  0.551398  1
  O  O15  1  0.551398  0.064732  0.814798  1
  O  O16  1  0.432139  0.496793  0.196702  1
  O  O17  1  0.496793  0.196702  0.432139  1
  O  O18  1  0.196702  0.432139  0.496793  1
  O  O19  1  0.803298  0.567861  0.503207  1
  O  O20  1  0.567861  0.503207  0.803298  1
  O  O21  1  0.503207  0.803298  0.567861  1
  O  O22  1  0.251539  0.193776  0.981719  1
  O  O23  1  0.193776  0.981719  0.251539  1
  O  O24  1  0.981719  0.251539  0.193776  1
  O  O25  1  0.748461  0.806224  0.018281  1
  O  O26  1  0.806224  0.018281  0.748461  1
  O  O27  1  0.018281  0.748461  0.806224  1
  O  O28  1  0.185202  0.448602  0.935268  1
  O  O29  1  0.448602  0.935268  0.185202  1
  O  O30  1  0.935268  0.185202  0.448602  1
  O  O31  1  0.814798  0.551398  0.064732  1
