# generated using pymatgen
data_SrEr(Al5Ru)4
_symmetry_space_group_name_H-M   'P 1'
_cell_length_a   6.89172822
_cell_length_b   6.89172865
_cell_length_c   9.18032500
_cell_angle_alpha   90.00000000
_cell_angle_beta   90.00000000
_cell_angle_gamma   96.83460465
_symmetry_Int_Tables_number   1
_chemical_formula_structural   SrEr(Al5Ru)4
_chemical_formula_sum   'Sr1 Er1 Al20 Ru4'
_cell_volume   432.92949409
_cell_formula_units_Z   1
loop_
 _symmetry_equiv_pos_site_id
 _symmetry_equiv_pos_as_xyz
  1  'x, y, z'
loop_
 _atom_site_type_symbol
 _atom_site_label
 _atom_site_symmetry_multiplicity
 _atom_site_fract_x
 _atom_site_fract_y
 _atom_site_fract_z
 _atom_site_occupancy
  Sr  Sr0  1  0.877749  0.122251  0.750000  1
  Er  Er1  1  0.126068  0.873932  0.250000  1
  Al  Al2  1  0.622702  0.377298  0.542637  1
  Al  Al3  1  0.376827  0.623173  0.448590  1
  Al  Al4  1  0.376827  0.623173  0.051410  1
  Al  Al5  1  0.622702  0.377298  0.957363  1
  Al  Al6  1  0.225941  0.227081  0.496614  1
  Al  Al7  1  0.772919  0.774059  0.496614  1
  Al  Al8  1  0.772919  0.774059  0.003386  1
  Al  Al9  1  0.225941  0.227081  0.003386  1
  Al  Al10  1  0.844975  0.155025  0.100859  1
  Al  Al11  1  0.161161  0.838839  0.901982  1
  Al  Al12  1  0.161161  0.838839  0.598018  1
  Al  Al13  1  0.844975  0.155025  0.399141  1
  Al  Al14  1  0.860920  0.592081  0.750000  1
  Al  Al15  1  0.140141  0.415937  0.250000  1
  Al  Al16  1  0.407919  0.139080  0.750000  1
  Al  Al17  1  0.584063  0.859859  0.250000  1
  Al  Al18  1  0.222051  0.479146  0.750000  1
  Al  Al19  1  0.780588  0.522020  0.250000  1
  Al  Al20  1  0.520854  0.777949  0.750000  1
  Al  Al21  1  0.477980  0.219412  0.250000  1
  Ru  Ru22  1  0.999881  0.503572  0.497256  1
  Ru  Ru23  1  0.999881  0.503572  0.002744  1
  Ru  Ru24  1  0.496428  0.000119  0.002744  1
  Ru  Ru25  1  0.496428  0.000119  0.497256  1
