# generated using pymatgen
data_Sm3HoTh6(Sn3C)2
_symmetry_space_group_name_H-M   'P 1'
_cell_length_a   9.29188600
_cell_length_b   9.29188485
_cell_length_c   6.52965700
_cell_angle_alpha   90.00000000
_cell_angle_beta   90.00000000
_cell_angle_gamma   120.00000409
_symmetry_Int_Tables_number   1
_chemical_formula_structural   Sm3HoTh6(Sn3C)2
_chemical_formula_sum   'Sm3 Ho1 Th6 Sn6 C2'
_cell_volume   488.23473603
_cell_formula_units_Z   1
loop_
 _symmetry_equiv_pos_site_id
 _symmetry_equiv_pos_as_xyz
  1  'x, y, z'
loop_
 _atom_site_type_symbol
 _atom_site_label
 _atom_site_symmetry_multiplicity
 _atom_site_fract_x
 _atom_site_fract_y
 _atom_site_fract_z
 _atom_site_occupancy
  Sm  Sm0  1  0.333333  0.666667  0.500000  1
  Sm  Sm1  1  0.333333  0.666667  0.000000  1
  Sm  Sm2  1  0.666667  0.333333  0.000000  1
  Ho  Ho3  1  0.666667  0.333333  0.500000  1
  Th  Th4  1  0.778552  0.778471  0.250208  1
  Th  Th5  1  0.221529  0.000081  0.250208  1
  Th  Th6  1  0.999919  0.221448  0.250208  1
  Th  Th7  1  0.221529  0.221448  0.749792  1
  Th  Th8  1  0.778552  0.000081  0.749792  1
  Th  Th9  1  0.999919  0.778471  0.749792  1
  Sn  Sn10  1  0.403990  0.402562  0.251010  1
  Sn  Sn11  1  0.597438  0.001428  0.251010  1
  Sn  Sn12  1  0.998572  0.596010  0.251010  1
  Sn  Sn13  1  0.597438  0.596010  0.748990  1
  Sn  Sn14  1  0.403990  0.001428  0.748990  1
  Sn  Sn15  1  0.998572  0.402562  0.748990  1
  C  C16  1  0.000000  0.000000  0.500000  1
  C  C17  1  0.000000  0.000000  0.000000  1
