# generated using pymatgen
data_Er8NbSi16W11
_symmetry_space_group_name_H-M   'P 1'
_cell_length_a   6.86893519
_cell_length_b   6.86893519
_cell_length_c   12.76689624
_cell_angle_alpha   90.01593323
_cell_angle_beta   89.98406677
_cell_angle_gamma   90.18677936
_symmetry_Int_Tables_number   1
_chemical_formula_structural   Er8NbSi16W11
_chemical_formula_sum   'Er8 Nb1 Si16 W11'
_cell_volume   602.36790698
_cell_formula_units_Z   1
loop_
 _symmetry_equiv_pos_site_id
 _symmetry_equiv_pos_as_xyz
  1  'x, y, z'
loop_
 _atom_site_type_symbol
 _atom_site_label
 _atom_site_symmetry_multiplicity
 _atom_site_fract_x
 _atom_site_fract_y
 _atom_site_fract_z
 _atom_site_occupancy
  Er  Er0  1  0.337289  0.997271  0.469218  1
  Er  Er1  1  0.503509  0.836968  0.718650  1
  Er  Er2  1  0.498307  0.161927  0.219789  1
  Er  Er3  1  0.836968  0.503509  0.281350  1
  Er  Er4  1  0.161927  0.498307  0.780211  1
  Er  Er5  1  0.663513  0.000966  0.969146  1
  Er  Er6  1  0.997271  0.337289  0.530782  1
  Er  Er7  1  0.000966  0.663513  0.030854  1
  Nb  Nb8  1  0.332601  0.332601  0.000000  1
  Si  Si9  1  0.202588  0.125957  0.682960  1
  Si  Si10  1  0.372112  0.705437  0.932481  1
  Si  Si11  1  0.625654  0.297886  0.433107  1
  Si  Si12  1  0.705437  0.372112  0.067519  1
  Si  Si13  1  0.297886  0.625654  0.566893  1
  Si  Si14  1  0.798162  0.874363  0.182866  1
  Si  Si15  1  0.125957  0.202588  0.317040  1
  Si  Si16  1  0.874363  0.798162  0.817134  1
  Si  Si17  1  0.290611  0.959446  0.065777  1
  Si  Si18  1  0.535828  0.788698  0.313693  1
  Si  Si19  1  0.466621  0.209959  0.811572  1
  Si  Si20  1  0.788698  0.535828  0.686307  1
  Si  Si21  1  0.209959  0.466621  0.188428  1
  Si  Si22  1  0.711927  0.034837  0.562984  1
  Si  Si23  1  0.959446  0.290611  0.934223  1
  Si  Si24  1  0.034837  0.711927  0.437016  1
  W  W25  1  0.165599  0.833895  0.251967  1
  W  W26  1  0.833895  0.165599  0.748033  1
  W  W27  1  0.666859  0.666859  0.500000  1
  W  W28  1  0.165752  0.001158  0.874540  1
  W  W29  1  0.502141  0.661863  0.123048  1
  W  W30  1  0.499887  0.334196  0.622578  1
  W  W31  1  0.661863  0.502141  0.876952  1
  W  W32  1  0.334196  0.499887  0.377422  1
  W  W33  1  0.834048  0.002169  0.372662  1
  W  W34  1  0.001158  0.165752  0.125460  1
  W  W35  1  0.002169  0.834048  0.627338  1
