# generated using pymatgen
data_Y4Lu(SnSb)2
_symmetry_space_group_name_H-M   'P 1'
_cell_length_a   8.06101100
_cell_length_b   8.11451300
_cell_length_c   15.40962200
_cell_angle_alpha   90.00000000
_cell_angle_beta   90.00000000
_cell_angle_gamma   90.00000000
_symmetry_Int_Tables_number   1
_chemical_formula_structural   Y4Lu(SnSb)2
_chemical_formula_sum   'Y16 Lu4 Sn8 Sb8'
_cell_volume   1007.96153607
_cell_formula_units_Z   4
loop_
 _symmetry_equiv_pos_site_id
 _symmetry_equiv_pos_as_xyz
  1  'x, y, z'
loop_
 _atom_site_type_symbol
 _atom_site_label
 _atom_site_symmetry_multiplicity
 _atom_site_fract_x
 _atom_site_fract_y
 _atom_site_fract_z
 _atom_site_occupancy
  Y  Y0  1  0.390996  0.838643  0.880924  1
  Y  Y1  1  0.890996  0.661357  0.619076  1
  Y  Y2  1  0.609004  0.161357  0.380924  1
  Y  Y3  1  0.109004  0.338643  0.119076  1
  Y  Y4  1  0.609004  0.161357  0.119076  1
  Y  Y5  1  0.109004  0.338643  0.380924  1
  Y  Y6  1  0.390996  0.838643  0.619076  1
  Y  Y7  1  0.890996  0.661357  0.880924  1
  Y  Y8  1  0.557086  0.329656  0.891971  1
  Y  Y9  1  0.057086  0.170344  0.608029  1
  Y  Y10  1  0.442914  0.670344  0.391971  1
  Y  Y11  1  0.942914  0.829656  0.108029  1
  Y  Y12  1  0.442914  0.670344  0.108029  1
  Y  Y13  1  0.942914  0.829656  0.391971  1
  Y  Y14  1  0.557086  0.329656  0.608029  1
  Y  Y15  1  0.057086  0.170344  0.891971  1
  Lu  Lu16  1  0.222525  0.499286  0.750000  1
  Lu  Lu17  1  0.722525  0.000714  0.750000  1
  Lu  Lu18  1  0.777475  0.500714  0.250000  1
  Lu  Lu19  1  0.277475  0.999286  0.250000  1
  Sn  Sn20  1  0.587092  0.628022  0.750000  1
  Sn  Sn21  1  0.087092  0.871978  0.750000  1
  Sn  Sn22  1  0.412908  0.371978  0.250000  1
  Sn  Sn23  1  0.912908  0.128022  0.250000  1
  Sn  Sn24  1  0.360616  0.143222  0.750000  1
  Sn  Sn25  1  0.860616  0.356778  0.750000  1
  Sn  Sn26  1  0.639384  0.856778  0.250000  1
  Sn  Sn27  1  0.139384  0.643222  0.250000  1
  Sb  Sb28  1  0.267180  0.017223  0.047520  1
  Sb  Sb29  1  0.767180  0.482777  0.452480  1
  Sb  Sb30  1  0.732820  0.982777  0.547520  1
  Sb  Sb31  1  0.232820  0.517223  0.952480  1
  Sb  Sb32  1  0.732820  0.982777  0.952480  1
  Sb  Sb33  1  0.232820  0.517223  0.547520  1
  Sb  Sb34  1  0.267180  0.017223  0.452480  1
  Sb  Sb35  1  0.767180  0.482777  0.047520  1
