# generated using pymatgen
data_Ac3Cd3HgPd2
_symmetry_space_group_name_H-M   'P 1'
_cell_length_a   8.14610400
_cell_length_b   8.14610399
_cell_length_c   4.25857500
_cell_angle_alpha   90.00000000
_cell_angle_beta   90.00000000
_cell_angle_gamma   120.00000002
_symmetry_Int_Tables_number   1
_chemical_formula_structural   Ac3Cd3HgPd2
_chemical_formula_sum   'Ac3 Cd3 Hg1 Pd2'
_cell_volume   244.73429517
_cell_formula_units_Z   1
loop_
 _symmetry_equiv_pos_site_id
 _symmetry_equiv_pos_as_xyz
  1  'x, y, z'
loop_
 _atom_site_type_symbol
 _atom_site_label
 _atom_site_symmetry_multiplicity
 _atom_site_fract_x
 _atom_site_fract_y
 _atom_site_fract_z
 _atom_site_occupancy
  Ac  Ac0  1  0.982537  0.587648  0.000000  1
  Ac  Ac1  1  0.412352  0.394890  0.000000  1
  Ac  Ac2  1  0.605110  0.017463  0.000000  1
  Cd  Cd3  1  0.759617  0.759856  0.500000  1
  Cd  Cd4  1  0.000240  0.240383  0.500000  1
  Cd  Cd5  1  0.240144  0.999760  0.500000  1
  Hg  Hg6  1  0.333333  0.666667  0.500000  1
  Pd  Pd7  1  0.000000  0.000000  0.000000  1
  Pd  Pd8  1  0.666667  0.333333  0.500000  1
