# generated using pymatgen
data_Yb5Y11(ZrRh3)4
_symmetry_space_group_name_H-M   'P 1'
_cell_length_a   10.88304046
_cell_length_b   10.84002865
_cell_length_c   6.28062600
_cell_angle_alpha   90.06397132
_cell_angle_beta   90.04568168
_cell_angle_gamma   89.91157418
_symmetry_Int_Tables_number   1
_chemical_formula_structural   Yb5Y11(ZrRh3)4
_chemical_formula_sum   'Yb5 Y11 Zr4 Rh12'
_cell_volume   740.93938610
_cell_formula_units_Z   1
loop_
 _symmetry_equiv_pos_site_id
 _symmetry_equiv_pos_as_xyz
  1  'x, y, z'
loop_
 _atom_site_type_symbol
 _atom_site_label
 _atom_site_symmetry_multiplicity
 _atom_site_fract_x
 _atom_site_fract_y
 _atom_site_fract_z
 _atom_site_occupancy
  Yb  Yb0  1  0.290122  0.084160  0.372013  1
  Yb  Yb1  1  0.291006  0.915363  0.871771  1
  Yb  Yb2  1  0.711109  0.081598  0.872318  1
  Yb  Yb3  1  0.710712  0.916642  0.372039  1
  Yb  Yb4  1  0.585404  0.792044  0.869922  1
  Y  Y5  1  0.582819  0.206100  0.371909  1
  Y  Y6  1  0.415694  0.793792  0.371445  1
  Y  Y7  1  0.414935  0.207012  0.872160  1
  Y  Y8  1  0.212086  0.415052  0.631791  1
  Y  Y9  1  0.211920  0.585077  0.132458  1
  Y  Y10  1  0.786131  0.414699  0.133075  1
  Y  Y11  1  0.786943  0.585560  0.631036  1
  Y  Y12  1  0.915039  0.713598  0.134112  1
  Y  Y13  1  0.913015  0.286315  0.631626  1
  Y  Y14  1  0.085875  0.713447  0.632370  1
  Y  Y15  1  0.085471  0.286688  0.131867  1
  Zr  Zr16  1  0.000595  0.000225  0.493104  1
  Zr  Zr17  1  0.001897  0.999609  0.993527  1
  Zr  Zr18  1  0.499341  0.501564  0.996471  1
  Zr  Zr19  1  0.499797  0.498813  0.494928  1
  Rh  Rh20  1  0.860245  0.146925  0.247269  1
  Rh  Rh21  1  0.863921  0.852769  0.745375  1
  Rh  Rh22  1  0.139811  0.148382  0.747868  1
  Rh  Rh23  1  0.141498  0.851826  0.247993  1
  Rh  Rh24  1  0.642697  0.358770  0.746951  1
  Rh  Rh25  1  0.641878  0.642791  0.250324  1
  Rh  Rh26  1  0.356952  0.358380  0.244372  1
  Rh  Rh27  1  0.354052  0.640052  0.742175  1
  Rh  Rh28  1  0.500335  0.001457  0.121390  1
  Rh  Rh29  1  0.500384  0.000922  0.625518  1
  Rh  Rh30  1  0.999230  0.500166  0.885390  1
  Rh  Rh31  1  0.999090  0.500202  0.385434  1
