# generated using pymatgen
data_GdDy3(CO3)6
_symmetry_space_group_name_H-M   'P 1'
_cell_length_a   8.22671576
_cell_length_b   8.44642690
_cell_length_c   8.46318800
_cell_angle_alpha   119.92948683
_cell_angle_beta   90.06161582
_cell_angle_gamma   90.01554792
_symmetry_Int_Tables_number   1
_chemical_formula_structural   GdDy3(CO3)6
_chemical_formula_sum   'Gd1 Dy3 C6 O18'
_cell_volume   509.64978390
_cell_formula_units_Z   1
loop_
 _symmetry_equiv_pos_site_id
 _symmetry_equiv_pos_as_xyz
  1  'x, y, z'
loop_
 _atom_site_type_symbol
 _atom_site_label
 _atom_site_symmetry_multiplicity
 _atom_site_fract_x
 _atom_site_fract_y
 _atom_site_fract_z
 _atom_site_occupancy
  Gd  Gd0  1  0.966807  0.665606  0.332466  1
  Dy  Dy1  1  0.531388  0.667249  0.333277  1
  Dy  Dy2  1  0.466915  0.332772  0.666676  1
  Dy  Dy3  1  0.033133  0.334197  0.667457  1
  C  C4  1  0.250628  0.967326  0.375753  1
  C  C5  1  0.251087  0.408358  0.032856  1
  C  C6  1  0.748350  0.376509  0.412157  1
  C  C7  1  0.251423  0.624470  0.591155  1
  C  C8  1  0.748723  0.588181  0.964657  1
  C  C9  1  0.749047  0.035152  0.623412  1
  O  O10  1  0.115750  0.880105  0.318519  1
  O  O11  1  0.389117  0.886362  0.331066  1
  O  O12  1  0.743340  0.659006  0.142185  1
  O  O13  1  0.389123  0.445851  0.114928  1
  O  O14  1  0.115781  0.437462  0.118793  1
  O  O15  1  0.742951  0.482991  0.340653  1
  O  O16  1  0.744428  0.857407  0.515929  1
  O  O17  1  0.116131  0.680848  0.560983  1
  O  O18  1  0.389505  0.669316  0.554136  1
  O  O19  1  0.614873  0.318200  0.443478  1
  O  O20  1  0.888094  0.334404  0.448799  1
  O  O21  1  0.247997  0.145158  0.484102  1
  O  O22  1  0.249353  0.516876  0.661653  1
  O  O23  1  0.888438  0.552597  0.886376  1
  O  O24  1  0.615193  0.556506  0.875018  1
  O  O25  1  0.249091  0.338533  0.855231  1
  O  O26  1  0.615037  0.123637  0.681355  1
  O  O27  1  0.888297  0.114922  0.666930  1
