# generated using pymatgen
data_Zr6Zn22AgSn
_symmetry_space_group_name_H-M   'P 1'
_cell_length_a   8.88135104
_cell_length_b   8.88133345
_cell_length_c   8.88453451
_cell_angle_alpha   60.01972271
_cell_angle_beta   60.01978538
_cell_angle_gamma   60.01349031
_symmetry_Int_Tables_number   1
_chemical_formula_structural   Zr6Zn22AgSn
_chemical_formula_sum   'Zr6 Zn22 Ag1 Sn1'
_cell_volume   495.73637378
_cell_formula_units_Z   1
loop_
 _symmetry_equiv_pos_site_id
 _symmetry_equiv_pos_as_xyz
  1  'x, y, z'
loop_
 _atom_site_type_symbol
 _atom_site_label
 _atom_site_symmetry_multiplicity
 _atom_site_fract_x
 _atom_site_fract_y
 _atom_site_fract_z
 _atom_site_occupancy
  Zr  Zr0  1  0.729671  0.270349  0.270308  1
  Zr  Zr1  1  0.270329  0.729651  0.729692  1
  Zr  Zr2  1  0.270349  0.729671  0.270308  1
  Zr  Zr3  1  0.729651  0.270329  0.729692  1
  Zr  Zr4  1  0.270317  0.270317  0.729699  1
  Zr  Zr5  1  0.729683  0.729683  0.270301  1
  Zn  Zn6  1  0.129756  0.129756  0.129762  1
  Zn  Zn7  1  0.870244  0.870244  0.870238  1
  Zn  Zn8  1  0.129744  0.129743  0.610785  1
  Zn  Zn9  1  0.129759  0.610759  0.129757  1
  Zn  Zn10  1  0.870256  0.870257  0.389215  1
  Zn  Zn11  1  0.870241  0.389241  0.870243  1
  Zn  Zn12  1  0.610759  0.129760  0.129757  1
  Zn  Zn13  1  0.389241  0.870240  0.870243  1
  Zn  Zn14  1  0.500000  0.000000  0.000000  1
  Zn  Zn15  1  0.000000  0.500000  0.500000  1
  Zn  Zn16  1  0.000000  0.500000  0.000000  1
  Zn  Zn17  1  0.500000  0.000000  0.500000  1
  Zn  Zn18  1  0.000000  0.000000  0.500000  1
  Zn  Zn19  1  0.500000  0.500000  0.000000  1
  Zn  Zn20  1  0.345040  0.345040  0.345052  1
  Zn  Zn21  1  0.654960  0.654960  0.654948  1
  Zn  Zn22  1  0.345074  0.345073  0.964754  1
  Zn  Zn23  1  0.345046  0.964846  0.345047  1
  Zn  Zn24  1  0.654926  0.654927  0.035246  1
  Zn  Zn25  1  0.654954  0.035154  0.654953  1
  Zn  Zn26  1  0.964846  0.345046  0.345047  1
  Zn  Zn27  1  0.035154  0.654954  0.654953  1
  Ag  Ag28  1  0.000000  0.000000  0.000000  1
  Sn  Sn29  1  0.500000  0.500000  0.500000  1
