# generated using pymatgen
data_Li3Pr8Si12Rh
_symmetry_space_group_name_H-M   'P 1'
_cell_length_a   8.32030700
_cell_length_b   8.32030792
_cell_length_c   8.50606700
_cell_angle_alpha   90.00000000
_cell_angle_beta   90.00000000
_cell_angle_gamma   120.00000033
_symmetry_Int_Tables_number   1
_chemical_formula_structural   Li3Pr8Si12Rh
_chemical_formula_sum   'Li3 Pr8 Si12 Rh1'
_cell_volume   509.96242713
_cell_formula_units_Z   1
loop_
 _symmetry_equiv_pos_site_id
 _symmetry_equiv_pos_as_xyz
  1  'x, y, z'
loop_
 _atom_site_type_symbol
 _atom_site_label
 _atom_site_symmetry_multiplicity
 _atom_site_fract_x
 _atom_site_fract_y
 _atom_site_fract_z
 _atom_site_occupancy
  Li  Li0  1  0.333333  0.666667  0.002751  1
  Li  Li1  1  0.333333  0.666667  0.498649  1
  Li  Li2  1  0.666667  0.333333  0.502144  1
  Pr  Pr3  1  0.501570  0.498430  0.752392  1
  Pr  Pr4  1  0.502470  0.497530  0.247650  1
  Pr  Pr5  1  0.996862  0.498430  0.752392  1
  Pr  Pr6  1  0.995060  0.497530  0.247650  1
  Pr  Pr7  1  0.501570  0.003138  0.752392  1
  Pr  Pr8  1  0.502470  0.004940  0.247650  1
  Pr  Pr9  1  0.000000  0.000000  0.749418  1
  Pr  Pr10  1  0.000000  0.000000  0.250341  1
  Si  Si11  1  0.831552  0.168448  0.000131  1
  Si  Si12  1  0.164118  0.835882  0.999746  1
  Si  Si13  1  0.336896  0.168448  0.000131  1
  Si  Si14  1  0.165931  0.834069  0.500326  1
  Si  Si15  1  0.671763  0.835882  0.999746  1
  Si  Si16  1  0.834448  0.165552  0.499447  1
  Si  Si17  1  0.831552  0.663104  0.000131  1
  Si  Si18  1  0.668136  0.834069  0.500326  1
  Si  Si19  1  0.164118  0.328237  0.999746  1
  Si  Si20  1  0.331102  0.165552  0.499447  1
  Si  Si21  1  0.165931  0.331864  0.500326  1
  Si  Si22  1  0.834448  0.668898  0.499447  1
  Rh  Rh23  1  0.666667  0.333333  0.997625  1
