# generated using pymatgen
data_Tb2Ga9Ru2Pt
_symmetry_space_group_name_H-M   'P 1'
_cell_length_a   7.57966273
_cell_length_b   7.57966224
_cell_length_c   9.64023900
_cell_angle_alpha   90.00000000
_cell_angle_beta   90.00000000
_cell_angle_gamma   119.80721921
_symmetry_Int_Tables_number   1
_chemical_formula_structural   Tb2Ga9Ru2Pt
_chemical_formula_sum   'Tb4 Ga18 Ru4 Pt2'
_cell_volume   480.57209438
_cell_formula_units_Z   2
loop_
 _symmetry_equiv_pos_site_id
 _symmetry_equiv_pos_as_xyz
  1  'x, y, z'
loop_
 _atom_site_type_symbol
 _atom_site_label
 _atom_site_symmetry_multiplicity
 _atom_site_fract_x
 _atom_site_fract_y
 _atom_site_fract_z
 _atom_site_occupancy
  Tb  Tb0  1  0.997511  0.671442  0.250000  1
  Tb  Tb1  1  0.002489  0.328558  0.750000  1
  Tb  Tb2  1  0.671442  0.997511  0.250000  1
  Tb  Tb3  1  0.328558  0.002489  0.750000  1
  Ga  Ga4  1  0.136149  0.136149  0.250000  1
  Ga  Ga5  1  0.863851  0.863851  0.750000  1
  Ga  Ga6  1  0.001611  0.339741  0.078152  1
  Ga  Ga7  1  0.998389  0.660259  0.921848  1
  Ga  Ga8  1  0.998389  0.660259  0.578152  1
  Ga  Ga9  1  0.339741  0.001611  0.421848  1
  Ga  Ga10  1  0.001611  0.339741  0.421848  1
  Ga  Ga11  1  0.660259  0.998389  0.578152  1
  Ga  Ga12  1  0.660259  0.998389  0.921848  1
  Ga  Ga13  1  0.339741  0.001611  0.078152  1
  Ga  Ga14  1  0.341177  0.341177  0.565281  1
  Ga  Ga15  1  0.658823  0.658823  0.434719  1
  Ga  Ga16  1  0.658823  0.658823  0.065281  1
  Ga  Ga17  1  0.341177  0.341177  0.934719  1
  Ga  Ga18  1  0.335108  0.550065  0.250000  1
  Ga  Ga19  1  0.664892  0.449935  0.750000  1
  Ga  Ga20  1  0.550065  0.335108  0.250000  1
  Ga  Ga21  1  0.449935  0.664892  0.750000  1
  Ru  Ru22  1  0.672430  0.327570  0.000000  1
  Ru  Ru23  1  0.327570  0.672430  0.000000  1
  Ru  Ru24  1  0.327570  0.672430  0.500000  1
  Ru  Ru25  1  0.672430  0.327570  0.500000  1
  Pt  Pt26  1  0.000000  0.000000  0.000000  1
  Pt  Pt27  1  0.000000  0.000000  0.500000  1
