# generated using pymatgen
data_Sc3In3RuAu
_symmetry_space_group_name_H-M   'P 1'
_cell_length_a   7.58314000
_cell_length_b   7.58313874
_cell_length_c   3.38040500
_cell_angle_alpha   90.00000000
_cell_angle_beta   90.00000000
_cell_angle_gamma   119.99999678
_symmetry_Int_Tables_number   1
_chemical_formula_structural   Sc3In3RuAu
_chemical_formula_sum   'Sc3 In3 Ru1 Au1'
_cell_volume   168.34392818
_cell_formula_units_Z   1
loop_
 _symmetry_equiv_pos_site_id
 _symmetry_equiv_pos_as_xyz
  1  'x, y, z'
loop_
 _atom_site_type_symbol
 _atom_site_label
 _atom_site_symmetry_multiplicity
 _atom_site_fract_x
 _atom_site_fract_y
 _atom_site_fract_z
 _atom_site_occupancy
  Sc  Sc0  1  0.593228  0.025964  0.500001  1
  Sc  Sc1  1  0.432736  0.406772  0.500001  1
  Sc  Sc2  1  0.974036  0.567265  0.500001  1
  In  In3  1  0.234906  0.002583  0.000000  1
  In  In4  1  0.997417  0.232323  0.000000  1
  In  In5  1  0.767677  0.765094  0.000000  1
  Ru  Ru6  1  0.666666  0.333333  0.000000  1
  Au  Au7  1  0.333333  0.666666  0.000000  1
