# generated using pymatgen
data_Ca(SiTc2)2
_symmetry_space_group_name_H-M   'P 1'
_cell_length_a   7.30471900
_cell_length_b   7.30471900
_cell_length_c   4.20668500
_cell_angle_alpha   90.00000000
_cell_angle_beta   90.00000000
_cell_angle_gamma   90.00000000
_symmetry_Int_Tables_number   1
_chemical_formula_structural   Ca(SiTc2)2
_chemical_formula_sum   'Ca2 Si4 Tc8'
_cell_volume   224.46416699
_cell_formula_units_Z   2
loop_
 _symmetry_equiv_pos_site_id
 _symmetry_equiv_pos_as_xyz
  1  'x, y, z'
loop_
 _atom_site_type_symbol
 _atom_site_label
 _atom_site_symmetry_multiplicity
 _atom_site_fract_x
 _atom_site_fract_y
 _atom_site_fract_z
 _atom_site_occupancy
  Ca  Ca0  1  0.500000  0.500000  0.000000  1
  Ca  Ca1  1  0.000000  0.000000  0.500000  1
  Si  Si2  1  0.706665  0.706665  0.500000  1
  Si  Si3  1  0.293335  0.293335  0.500000  1
  Si  Si4  1  0.206665  0.793335  0.000000  1
  Si  Si5  1  0.793335  0.206665  0.000000  1
  Tc  Tc6  1  0.598268  0.155151  0.500000  1
  Tc  Tc7  1  0.401732  0.844849  0.500000  1
  Tc  Tc8  1  0.098268  0.344849  0.000000  1
  Tc  Tc9  1  0.901732  0.655151  0.000000  1
  Tc  Tc10  1  0.155151  0.598268  0.500000  1
  Tc  Tc11  1  0.844849  0.401732  0.500000  1
  Tc  Tc12  1  0.344849  0.098268  0.000000  1
  Tc  Tc13  1  0.655151  0.901732  0.000000  1
