# generated using pymatgen
data_Y4Ga18Ni2IrRu3
_symmetry_space_group_name_H-M   'P 1'
_cell_length_a   7.54152903
_cell_length_b   7.54152873
_cell_length_c   9.55110300
_cell_angle_alpha   90.03780225
_cell_angle_beta   90.03780117
_cell_angle_gamma   120.57837462
_symmetry_Int_Tables_number   1
_chemical_formula_structural   Y4Ga18Ni2IrRu3
_chemical_formula_sum   'Y4 Ga18 Ni2 Ir1 Ru3'
_cell_volume   467.67251561
_cell_formula_units_Z   1
loop_
 _symmetry_equiv_pos_site_id
 _symmetry_equiv_pos_as_xyz
  1  'x, y, z'
loop_
 _atom_site_type_symbol
 _atom_site_label
 _atom_site_symmetry_multiplicity
 _atom_site_fract_x
 _atom_site_fract_y
 _atom_site_fract_z
 _atom_site_occupancy
  Y  Y0  1  0.994861  0.659043  0.250237  1
  Y  Y1  1  0.004495  0.340307  0.749728  1
  Y  Y2  1  0.659693  0.995505  0.250272  1
  Y  Y3  1  0.340957  0.005139  0.749763  1
  Ga  Ga4  1  0.112985  0.111969  0.250900  1
  Ga  Ga5  1  0.888031  0.887015  0.749100  1
  Ga  Ga6  1  0.001328  0.326597  0.076534  1
  Ga  Ga7  1  0.000032  0.673318  0.924411  1
  Ga  Ga8  1  0.001928  0.674152  0.575686  1
  Ga  Ga9  1  0.325848  0.998072  0.424314  1
  Ga  Ga10  1  0.001360  0.327580  0.424297  1
  Ga  Ga11  1  0.672420  0.998640  0.575703  1
  Ga  Ga12  1  0.673403  0.998672  0.923466  1
  Ga  Ga13  1  0.326682  0.999968  0.075589  1
  Ga  Ga14  1  0.330766  0.333107  0.560896  1
  Ga  Ga15  1  0.666893  0.669234  0.439104  1
  Ga  Ga16  1  0.665839  0.665763  0.060298  1
  Ga  Ga17  1  0.334237  0.334161  0.939702  1
  Ga  Ga18  1  0.335448  0.543520  0.250608  1
  Ga  Ga19  1  0.665110  0.459117  0.751090  1
  Ga  Ga20  1  0.540883  0.334890  0.248910  1
  Ga  Ga21  1  0.456480  0.664552  0.749392  1
  Ni  Ni22  1  0.999946  0.000054  0.000000  1
  Ni  Ni23  1  0.999981  0.000019  0.500000  1
  Ir  Ir24  1  0.672280  0.327720  0.500000  1
  Ru  Ru25  1  0.673678  0.326322  0.000000  1
  Ru  Ru26  1  0.327022  0.672978  0.000000  1
  Ru  Ru27  1  0.327414  0.672586  0.500000  1
