# generated using pymatgen
data_Y4AlNiRu6
_symmetry_space_group_name_H-M   'P 1'
_cell_length_a   5.33535100
_cell_length_b   5.38456920
_cell_length_c   8.55783219
_cell_angle_alpha   89.92892484
_cell_angle_beta   90.00000000
_cell_angle_gamma   119.69809529
_symmetry_Int_Tables_number   1
_chemical_formula_structural   Y4AlNiRu6
_chemical_formula_sum   'Y4 Al1 Ni1 Ru6'
_cell_volume   213.56058344
_cell_formula_units_Z   1
loop_
 _symmetry_equiv_pos_site_id
 _symmetry_equiv_pos_as_xyz
  1  'x, y, z'
loop_
 _atom_site_type_symbol
 _atom_site_label
 _atom_site_symmetry_multiplicity
 _atom_site_fract_x
 _atom_site_fract_y
 _atom_site_fract_z
 _atom_site_occupancy
  Y  Y0  1  0.332112  0.664224  0.440070  1
  Y  Y1  1  0.665442  0.330883  0.565186  1
  Y  Y2  1  0.668090  0.336178  0.928547  1
  Y  Y3  1  0.335401  0.670802  0.068009  1
  Al  Al4  1  0.998074  0.996147  0.999310  1
  Ni  Ni5  1  0.166115  0.332230  0.752680  1
  Ru  Ru6  1  0.175254  0.835166  0.751750  1
  Ru  Ru7  1  0.342271  0.173561  0.247188  1
  Ru  Ru8  1  0.828153  0.656306  0.251993  1
  Ru  Ru9  1  0.659912  0.835166  0.751750  1
  Ru  Ru10  1  0.831290  0.173561  0.247188  1
  Ru  Ru11  1  0.997888  0.995776  0.496329  1
