# generated using pymatgen
data_V12Fe4Si7GeC4
_symmetry_space_group_name_H-M   'P 1'
_cell_length_a   7.66565196
_cell_length_b   7.66072336
_cell_length_c   7.66072300
_cell_angle_alpha   59.99999722
_cell_angle_beta   60.02126345
_cell_angle_gamma   60.02126063
_symmetry_Int_Tables_number   1
_chemical_formula_structural   V12Fe4Si7GeC4
_chemical_formula_sum   'V12 Fe4 Si7 Ge1 C4'
_cell_volume   318.20948883
_cell_formula_units_Z   1
loop_
 _symmetry_equiv_pos_site_id
 _symmetry_equiv_pos_as_xyz
  1  'x, y, z'
loop_
 _atom_site_type_symbol
 _atom_site_label
 _atom_site_symmetry_multiplicity
 _atom_site_fract_x
 _atom_site_fract_y
 _atom_site_fract_z
 _atom_site_occupancy
  V  V0  1  0.813704  0.814154  0.186071  1
  V  V1  1  0.187336  0.188853  0.811905  1
  V  V2  1  0.813704  0.186071  0.814154  1
  V  V3  1  0.187336  0.811905  0.188853  1
  V  V4  1  0.187336  0.811905  0.811905  1
  V  V5  1  0.813704  0.186071  0.186071  1
  V  V6  1  0.436812  0.438157  0.062515  1
  V  V7  1  0.065725  0.054771  0.439752  1
  V  V8  1  0.436812  0.062515  0.438157  1
  V  V9  1  0.065725  0.439752  0.054771  1
  V  V10  1  0.065725  0.439752  0.439752  1
  V  V11  1  0.436812  0.062515  0.062515  1
  Fe  Fe12  1  0.125497  0.624834  0.624834  1
  Fe  Fe13  1  0.621064  0.122666  0.628135  1
  Fe  Fe14  1  0.621064  0.628135  0.122666  1
  Fe  Fe15  1  0.621064  0.628135  0.628135  1
  Si  Si16  1  0.413287  0.759289  0.413713  1
  Si  Si17  1  0.413287  0.413713  0.759289  1
  Si  Si18  1  0.413287  0.413713  0.413713  1
  Si  Si19  1  0.489328  0.836890  0.836890  1
  Si  Si20  1  0.835258  0.491951  0.836394  1
  Si  Si21  1  0.835258  0.836394  0.491951  1
  Si  Si22  1  0.835258  0.836394  0.836394  1
  Ge  Ge23  1  0.767585  0.410806  0.410806  1
  C  C24  1  0.623552  0.125483  0.125483  1
  C  C25  1  0.124827  0.624589  0.125292  1
  C  C26  1  0.124827  0.125292  0.624589  1
  C  C27  1  0.124827  0.125292  0.125292  1
