# generated using pymatgen
data_Tb7DyHf12Si15Ir
_symmetry_space_group_name_H-M   'P 1'
_cell_length_a   7.29765587
_cell_length_b   7.30479187
_cell_length_c   13.43804812
_cell_angle_alpha   89.87696089
_cell_angle_beta   89.91514716
_cell_angle_gamma   90.03340743
_symmetry_Int_Tables_number   1
_chemical_formula_structural   Tb7DyHf12Si15Ir
_chemical_formula_sum   'Tb7 Dy1 Hf12 Si15 Ir1'
_cell_volume   716.35099070
_cell_formula_units_Z   1
loop_
 _symmetry_equiv_pos_site_id
 _symmetry_equiv_pos_as_xyz
  1  'x, y, z'
loop_
 _atom_site_type_symbol
 _atom_site_label
 _atom_site_symmetry_multiplicity
 _atom_site_fract_x
 _atom_site_fract_y
 _atom_site_fract_z
 _atom_site_occupancy
  Tb  Tb0  1  0.004339  0.655385  0.714626  1
  Tb  Tb1  1  0.157731  0.494384  0.463582  1
  Tb  Tb2  1  0.503634  0.842684  0.034248  1
  Tb  Tb3  1  0.844294  0.502871  0.965123  1
  Tb  Tb4  1  0.496099  0.157296  0.535406  1
  Tb  Tb5  1  0.343587  0.996935  0.785151  1
  Tb  Tb6  1  0.657490  0.000560  0.284551  1
  Dy  Dy7  1  0.995780  0.346693  0.214621  1
  Hf  Hf8  1  0.174932  0.175166  0.998722  1
  Hf  Hf9  1  0.827004  0.825698  0.500397  1
  Hf  Hf10  1  0.325302  0.667824  0.252697  1
  Hf  Hf11  1  0.674239  0.325266  0.750258  1
  Hf  Hf12  1  0.153871  0.004958  0.373474  1
  Hf  Hf13  1  0.850302  0.004026  0.874714  1
  Hf  Hf14  1  0.503788  0.650572  0.625550  1
  Hf  Hf15  1  0.351148  0.495939  0.873830  1
  Hf  Hf16  1  0.494565  0.346821  0.126595  1
  Hf  Hf17  1  0.646112  0.501844  0.378676  1
  Hf  Hf18  1  0.997114  0.148727  0.626273  1
  Hf  Hf19  1  0.000537  0.848702  0.124339  1
  Si  Si20  1  0.638136  0.705256  0.818363  1
  Si  Si21  1  0.204864  0.862201  0.566746  1
  Si  Si22  1  0.137720  0.795147  0.932843  1
  Si  Si23  1  0.796622  0.137239  0.066192  1
  Si  Si24  1  0.861041  0.199828  0.435550  1
  Si  Si25  1  0.295828  0.362334  0.683354  1
  Si  Si26  1  0.703928  0.639085  0.182681  1
  Si  Si27  1  0.290699  0.045518  0.183668  1
  Si  Si28  1  0.705528  0.951364  0.685701  1
  Si  Si29  1  0.451984  0.797613  0.438073  1
  Si  Si30  1  0.205621  0.550232  0.061725  1
  Si  Si31  1  0.548195  0.204879  0.935208  1
  Si  Si32  1  0.795078  0.451276  0.566220  1
  Si  Si33  1  0.047940  0.295563  0.814587  1
  Si  Si34  1  0.949410  0.708976  0.313882  1
  Ir  Ir35  1  0.365536  0.301139  0.312378  1
