# generated using pymatgen
data_CeAs12Os3Rh
_symmetry_space_group_name_H-M   'P 1'
_cell_length_a   7.47206910
_cell_length_b   7.47206897
_cell_length_c   7.47206862
_cell_angle_alpha   109.42315525
_cell_angle_beta   109.42316489
_cell_angle_gamma   109.42315875
_symmetry_Int_Tables_number   1
_chemical_formula_structural   CeAs12Os3Rh
_chemical_formula_sum   'Ce1 As12 Os3 Rh1'
_cell_volume   321.71484564
_cell_formula_units_Z   1
loop_
 _symmetry_equiv_pos_site_id
 _symmetry_equiv_pos_as_xyz
  1  'x, y, z'
loop_
 _atom_site_type_symbol
 _atom_site_label
 _atom_site_symmetry_multiplicity
 _atom_site_fract_x
 _atom_site_fract_y
 _atom_site_fract_z
 _atom_site_occupancy
  Ce  Ce0  1  0.000000  0.000000  0.000000  1
  As  As1  1  0.345734  0.196689  0.849973  1
  As  As2  1  0.654266  0.803311  0.150027  1
  As  As3  1  0.653455  0.504025  0.852822  1
  As  As4  1  0.346545  0.495975  0.147178  1
  As  As5  1  0.196689  0.849973  0.345734  1
  As  As6  1  0.803311  0.150027  0.654266  1
  As  As7  1  0.504025  0.852822  0.653455  1
  As  As8  1  0.495975  0.147178  0.346545  1
  As  As9  1  0.849973  0.345734  0.196689  1
  As  As10  1  0.150027  0.654266  0.803311  1
  As  As11  1  0.852822  0.653455  0.504025  1
  As  As12  1  0.147178  0.346545  0.495975  1
  Os  Os13  1  0.000000  0.000000  0.500000  1
  Os  Os14  1  0.500000  0.000000  0.000000  1
  Os  Os15  1  0.000000  0.500000  0.000000  1
  Rh  Rh16  1  0.500000  0.500000  0.500000  1
