# generated using pymatgen
data_RbCo(SnS3)2
_symmetry_space_group_name_H-M   'P 1'
_cell_length_a   8.83893504
_cell_length_b   8.83893350
_cell_length_c   8.83893500
_cell_angle_alpha   40.78359843
_cell_angle_beta   40.78360997
_cell_angle_gamma   40.78360836
_symmetry_Int_Tables_number   1
_chemical_formula_structural   RbCo(SnS3)2
_chemical_formula_sum   'Rb1 Co1 Sn2 S6'
_cell_volume   265.88553702
_cell_formula_units_Z   1
loop_
 _symmetry_equiv_pos_site_id
 _symmetry_equiv_pos_as_xyz
  1  'x, y, z'
loop_
 _atom_site_type_symbol
 _atom_site_label
 _atom_site_symmetry_multiplicity
 _atom_site_fract_x
 _atom_site_fract_y
 _atom_site_fract_z
 _atom_site_occupancy
  Rb  Rb0  1  0.997241  0.997241  0.997241  1
  Co  Co1  1  0.167002  0.167002  0.167002  1
  Sn  Sn2  1  0.501165  0.501165  0.501165  1
  Sn  Sn3  1  0.832350  0.832350  0.832350  1
  S  S4  1  0.520966  0.222869  0.926565  1
  S  S5  1  0.926565  0.520966  0.222869  1
  S  S6  1  0.222869  0.926565  0.520966  1
  S  S7  1  0.810517  0.112865  0.408462  1
  S  S8  1  0.112865  0.408462  0.810517  1
  S  S9  1  0.408462  0.810517  0.112865  1
