# generated using pymatgen
data_Lu2Si2NiRh
_symmetry_space_group_name_H-M   'P 1'
_cell_length_a   4.14138900
_cell_length_b   6.71370384
_cell_length_c   7.26205517
_cell_angle_alpha   91.55183304
_cell_angle_beta   90.00000000
_cell_angle_gamma   90.00000000
_symmetry_Int_Tables_number   1
_chemical_formula_structural   Lu2Si2NiRh
_chemical_formula_sum   'Lu4 Si4 Ni2 Rh2'
_cell_volume   201.84055699
_cell_formula_units_Z   2
loop_
 _symmetry_equiv_pos_site_id
 _symmetry_equiv_pos_as_xyz
  1  'x, y, z'
loop_
 _atom_site_type_symbol
 _atom_site_label
 _atom_site_symmetry_multiplicity
 _atom_site_fract_x
 _atom_site_fract_y
 _atom_site_fract_z
 _atom_site_occupancy
  Lu  Lu0  1  0.250000  0.000334  0.793777  1
  Lu  Lu1  1  0.750000  0.999666  0.206223  1
  Lu  Lu2  1  0.250000  0.494250  0.686817  1
  Lu  Lu3  1  0.750000  0.505750  0.313183  1
  Si  Si4  1  0.250000  0.291773  0.107371  1
  Si  Si5  1  0.750000  0.708227  0.892629  1
  Si  Si6  1  0.250000  0.803677  0.407312  1
  Si  Si7  1  0.750000  0.196323  0.592688  1
  Ni  Ni8  1  0.750000  0.822776  0.578421  1
  Ni  Ni9  1  0.250000  0.177224  0.421579  1
  Rh  Rh10  1  0.750000  0.341934  0.935111  1
  Rh  Rh11  1  0.250000  0.658066  0.064889  1
