# generated using pymatgen
data_Tb3Sc2InPt3
_symmetry_space_group_name_H-M   'P 1'
_cell_length_a   7.42310300
_cell_length_b   7.27016902
_cell_length_c   4.36616700
_cell_angle_alpha   90.00000000
_cell_angle_beta   90.00000000
_cell_angle_gamma   120.69833825
_symmetry_Int_Tables_number   1
_chemical_formula_structural   Tb3Sc2InPt3
_chemical_formula_sum   'Tb3 Sc2 In1 Pt3'
_cell_volume   202.61036507
_cell_formula_units_Z   1
loop_
 _symmetry_equiv_pos_site_id
 _symmetry_equiv_pos_as_xyz
  1  'x, y, z'
loop_
 _atom_site_type_symbol
 _atom_site_label
 _atom_site_symmetry_multiplicity
 _atom_site_fract_x
 _atom_site_fract_y
 _atom_site_fract_z
 _atom_site_occupancy
  Tb  Tb0  1  0.422285  0.000000  0.000000  1
  Tb  Tb1  1  0.992880  0.398227  0.000000  1
  Tb  Tb2  1  0.594653  0.601773  0.000000  1
  Sc  Sc3  1  0.247267  0.253419  0.500000  1
  Sc  Sc4  1  0.993848  0.746581  0.500000  1
  In  In5  1  0.754180  0.000000  0.500000  1
  Pt  Pt6  1  0.026671  0.000000  0.000000  1
  Pt  Pt7  1  0.653198  0.338180  0.500000  1
  Pt  Pt8  1  0.315018  0.661820  0.500000  1
