# generated using pymatgen
data_Sr20(CdAg3)3
_symmetry_space_group_name_H-M   'P 1'
_cell_length_a   8.56597500
_cell_length_b   8.56597500
_cell_length_c   16.08828100
_cell_angle_alpha   90.00000000
_cell_angle_beta   90.00000000
_cell_angle_gamma   90.00000000
_symmetry_Int_Tables_number   1
_chemical_formula_structural   Sr20(CdAg3)3
_chemical_formula_sum   'Sr20 Cd3 Ag9'
_cell_volume   1180.49254348
_cell_formula_units_Z   1
loop_
 _symmetry_equiv_pos_site_id
 _symmetry_equiv_pos_as_xyz
  1  'x, y, z'
loop_
 _atom_site_type_symbol
 _atom_site_label
 _atom_site_symmetry_multiplicity
 _atom_site_fract_x
 _atom_site_fract_y
 _atom_site_fract_z
 _atom_site_occupancy
  Sr  Sr0  1  0.000000  0.000000  0.755040  1
  Sr  Sr1  1  0.500000  0.500000  0.251789  1
  Sr  Sr2  1  0.000000  0.000000  0.244960  1
  Sr  Sr3  1  0.500000  0.500000  0.748211  1
  Sr  Sr4  1  0.173123  0.664706  0.105926  1
  Sr  Sr5  1  0.670487  0.168248  0.608738  1
  Sr  Sr6  1  0.826877  0.335294  0.105926  1
  Sr  Sr7  1  0.329513  0.831752  0.608738  1
  Sr  Sr8  1  0.335294  0.173123  0.105926  1
  Sr  Sr9  1  0.831752  0.670487  0.608738  1
  Sr  Sr10  1  0.664706  0.826877  0.105926  1
  Sr  Sr11  1  0.168248  0.329513  0.608738  1
  Sr  Sr12  1  0.335294  0.826877  0.894074  1
  Sr  Sr13  1  0.831752  0.329513  0.391262  1
  Sr  Sr14  1  0.664706  0.173123  0.894074  1
  Sr  Sr15  1  0.168248  0.670487  0.391262  1
  Sr  Sr16  1  0.173123  0.335294  0.894074  1
  Sr  Sr17  1  0.670487  0.831752  0.391262  1
  Sr  Sr18  1  0.826877  0.664706  0.894074  1
  Sr  Sr19  1  0.329513  0.168248  0.391262  1
  Cd  Cd20  1  0.000000  0.000000  0.500000  1
  Cd  Cd21  1  0.000000  0.000000  0.000000  1
  Cd  Cd22  1  0.500000  0.500000  0.500000  1
  Ag  Ag23  1  0.620913  0.121442  0.248425  1
  Ag  Ag24  1  0.121442  0.620913  0.751575  1
  Ag  Ag25  1  0.878558  0.379087  0.751575  1
  Ag  Ag26  1  0.379087  0.878558  0.248425  1
  Ag  Ag27  1  0.379087  0.121442  0.751575  1
  Ag  Ag28  1  0.878558  0.620913  0.248425  1
  Ag  Ag29  1  0.121442  0.379087  0.248425  1
  Ag  Ag30  1  0.620913  0.878558  0.751575  1
  Ag  Ag31  1  0.500000  0.500000  0.000000  1
