# generated using pymatgen
data_NaTb2NdB24
_symmetry_space_group_name_H-M   'P 1'
_cell_length_a   7.14228618
_cell_length_b   7.14228539
_cell_length_c   5.82289200
_cell_angle_alpha   90.00000000
_cell_angle_beta   90.00000000
_cell_angle_gamma   109.49706048
_symmetry_Int_Tables_number   1
_chemical_formula_structural   NaTb2NdB24
_chemical_formula_sum   'Na1 Tb2 Nd1 B24'
_cell_volume   280.00618445
_cell_formula_units_Z   1
loop_
 _symmetry_equiv_pos_site_id
 _symmetry_equiv_pos_as_xyz
  1  'x, y, z'
loop_
 _atom_site_type_symbol
 _atom_site_label
 _atom_site_symmetry_multiplicity
 _atom_site_fract_x
 _atom_site_fract_y
 _atom_site_fract_z
 _atom_site_occupancy
  Na  Na0  1  0.999949  0.000051  0.000000  1
  Tb  Tb1  1  0.749254  0.250746  0.500000  1
  Tb  Tb2  1  0.500039  0.499961  0.000000  1
  Nd  Nd3  1  0.250492  0.749508  0.500000  1
  B  B4  1  0.175703  0.324931  0.650539  1
  B  B5  1  0.924252  0.574343  0.149694  1
  B  B6  1  0.675069  0.824297  0.650539  1
  B  B7  1  0.425657  0.075748  0.149694  1
  B  B8  1  0.175703  0.324931  0.349461  1
  B  B9  1  0.924252  0.574343  0.850306  1
  B  B10  1  0.675069  0.824297  0.349461  1
  B  B11  1  0.425657  0.075748  0.850306  1
  B  B12  1  0.400321  0.400067  0.500000  1
  B  B13  1  0.148990  0.650406  0.000000  1
  B  B14  1  0.899453  0.899677  0.500000  1
  B  B15  1  0.650886  0.149439  0.000000  1
  B  B16  1  0.325300  0.176052  0.650584  1
  B  B17  1  0.074883  0.424709  0.149667  1
  B  B18  1  0.823948  0.674700  0.650584  1
  B  B19  1  0.575291  0.925117  0.149667  1
  B  B20  1  0.100323  0.100547  0.500000  1
  B  B21  1  0.850561  0.349114  0.000000  1
  B  B22  1  0.599933  0.599679  0.500000  1
  B  B23  1  0.349594  0.851010  0.000000  1
  B  B24  1  0.325300  0.176052  0.349416  1
  B  B25  1  0.074883  0.424709  0.850333  1
  B  B26  1  0.823948  0.674700  0.349416  1
  B  B27  1  0.575291  0.925117  0.850333  1
