# generated using pymatgen
data_Tb4Lu4Tc(B8Ru)3
_symmetry_space_group_name_H-M   'P 1'
_cell_length_a   3.63723500
_cell_length_b   9.08434343
_cell_length_c   11.48451606
_cell_angle_alpha   89.92305904
_cell_angle_beta   90.00000000
_cell_angle_gamma   90.00000000
_symmetry_Int_Tables_number   1
_chemical_formula_structural   Tb4Lu4Tc(B8Ru)3
_chemical_formula_sum   'Tb4 Lu4 Tc1 B24 Ru3'
_cell_volume   379.46979557
_cell_formula_units_Z   1
loop_
 _symmetry_equiv_pos_site_id
 _symmetry_equiv_pos_as_xyz
  1  'x, y, z'
loop_
 _atom_site_type_symbol
 _atom_site_label
 _atom_site_symmetry_multiplicity
 _atom_site_fract_x
 _atom_site_fract_y
 _atom_site_fract_z
 _atom_site_occupancy
  Tb  Tb0  1  0.000000  0.323430  0.413231  1
  Tb  Tb1  1  0.000000  0.677739  0.583740  1
  Tb  Tb2  1  0.000000  0.820118  0.087742  1
  Tb  Tb3  1  0.000000  0.177690  0.914949  1
  Lu  Lu4  1  0.000000  0.943424  0.372262  1
  Lu  Lu5  1  0.000000  0.056868  0.628213  1
  Lu  Lu6  1  0.000000  0.444563  0.128134  1
  Lu  Lu7  1  0.000000  0.556388  0.871526  1
  Tc  Tc8  1  0.000000  0.638637  0.320010  1
  B  B9  1  0.500000  0.553638  0.432560  1
  B  B10  1  0.500000  0.445582  0.567933  1
  B  B11  1  0.500000  0.054443  0.067646  1
  B  B12  1  0.500000  0.945315  0.932654  1
  B  B13  1  0.500000  0.750137  0.418748  1
  B  B14  1  0.500000  0.250193  0.581283  1
  B  B15  1  0.500000  0.249865  0.080959  1
  B  B16  1  0.500000  0.749972  0.918864  1
  B  B17  1  0.500000  0.792218  0.265932  1
  B  B18  1  0.500000  0.208347  0.734149  1
  B  B19  1  0.500000  0.291510  0.233395  1
  B  B20  1  0.500000  0.708777  0.765826  1
  B  B21  1  0.500000  0.630373  0.184829  1
  B  B22  1  0.500000  0.369345  0.815610  1
  B  B23  1  0.500000  0.130471  0.315040  1
  B  B24  1  0.500000  0.869960  0.684534  1
  B  B25  1  0.500000  0.982991  0.213478  1
  B  B26  1  0.500000  0.017004  0.786987  1
  B  B27  1  0.500000  0.482052  0.286480  1
  B  B28  1  0.500000  0.516884  0.713484  1
  B  B29  1  0.500000  0.602945  0.027660  1
  B  B30  1  0.500000  0.396571  0.971297  1
  B  B31  1  0.500000  0.103777  0.471852  1
  B  B32  1  0.500000  0.897788  0.528766  1
  Ru  Ru33  1  0.000000  0.360988  0.680658  1
  Ru  Ru34  1  0.000000  0.138598  0.179668  1
  Ru  Ru35  1  0.000000  0.861397  0.819902  1
