# generated using pymatgen
data_K6Rb3Y3Si12(O16F)2
_symmetry_space_group_name_H-M   'P 1'
_cell_length_a   6.93545453
_cell_length_b   11.52128611
_cell_length_c   11.53353900
_cell_angle_alpha   92.13656859
_cell_angle_beta   89.74344488
_cell_angle_gamma   99.55296966
_symmetry_Int_Tables_number   1
_chemical_formula_structural   K6Rb3Y3Si12(O16F)2
_chemical_formula_sum   'K6 Rb3 Y3 Si12 O32 F2'
_cell_volume   908.17828496
_cell_formula_units_Z   1
loop_
 _symmetry_equiv_pos_site_id
 _symmetry_equiv_pos_as_xyz
  1  'x, y, z'
loop_
 _atom_site_type_symbol
 _atom_site_label
 _atom_site_symmetry_multiplicity
 _atom_site_fract_x
 _atom_site_fract_y
 _atom_site_fract_z
 _atom_site_occupancy
  K  K0  1  0.167912  0.190849  0.775405  1
  K  K1  1  0.832088  0.809151  0.224595  1
  K  K2  1  0.161218  0.151828  0.213916  1
  K  K3  1  0.838782  0.848172  0.786084  1
  K  K4  1  0.019081  0.670049  0.509334  1
  K  K5  1  0.980919  0.329951  0.490666  1
  Rb  Rb6  1  0.256637  0.387673  0.015926  1
  Rb  Rb7  1  0.743363  0.612327  0.984074  1
  Rb  Rb8  1  0.500000  0.000000  0.000000  1
  Y  Y9  1  0.000000  0.000000  0.500000  1
  Y  Y10  1  0.488276  0.510372  0.337965  1
  Y  Y11  1  0.511724  0.489628  0.662035  1
  Si  Si12  1  0.558140  0.768108  0.509344  1
  Si  Si13  1  0.441860  0.231892  0.490656  1
  Si  Si14  1  0.338898  0.867725  0.310837  1
  Si  Si15  1  0.661102  0.132275  0.689163  1
  Si  Si16  1  0.657462  0.093145  0.304741  1
  Si  Si17  1  0.342538  0.906855  0.695259  1
  Si  Si18  1  0.692970  0.306443  0.158895  1
  Si  Si19  1  0.307030  0.693557  0.841105  1
  Si  Si20  1  0.987046  0.513471  0.259594  1
  Si  Si21  1  0.012954  0.486529  0.740406  1
  Si  Si22  1  0.288688  0.670336  0.122856  1
  Si  Si23  1  0.711312  0.329664  0.877144  1
  O  O24  1  0.531898  0.624788  0.512817  1
  O  O25  1  0.468102  0.375212  0.487183  1
  O  O26  1  0.493868  0.795922  0.374104  1
  O  O27  1  0.506132  0.204078  0.625896  1
  O  O28  1  0.387546  0.812593  0.593197  1
  O  O29  1  0.612454  0.187407  0.406803  1
  O  O30  1  0.773813  0.837446  0.539958  1
  O  O31  1  0.226187  0.162554  0.460042  1
  O  O32  1  0.145593  0.877386  0.383376  1
  O  O33  1  0.854407  0.122614  0.616624  1
  O  O34  1  0.282456  0.802242  0.182068  1
  O  O35  1  0.717544  0.197758  0.817932  1
  O  O36  1  0.456914  0.998158  0.273979  1
  O  O37  1  0.543086  0.001842  0.726021  1
  O  O38  1  0.697557  0.166321  0.183284  1
  O  O39  1  0.302443  0.833679  0.816716  1
  O  O40  1  0.842375  0.033619  0.334790  1
  O  O41  1  0.157625  0.966381  0.665210  1
  O  O42  1  0.908002  0.376366  0.206657  1
  O  O43  1  0.091998  0.623634  0.793343  1
  O  O44  1  0.695855  0.314349  0.017409  1
  O  O45  1  0.304145  0.685651  0.982591  1
  O  O46  1  0.507688  0.353515  0.215594  1
  O  O47  1  0.492312  0.646485  0.784406  1
  O  O48  1  0.163513  0.506747  0.348362  1
  O  O49  1  0.836487  0.493253  0.651638  1
  O  O50  1  0.810534  0.571026  0.315753  1
  O  O51  1  0.189466  0.428974  0.684247  1
  O  O52  1  0.069849  0.589517  0.142753  1
  O  O53  1  0.930151  0.410483  0.857247  1
  O  O54  1  0.461504  0.608803  0.170213  1
  O  O55  1  0.538496  0.391197  0.829787  1
  F  F56  1  0.224510  0.153266  0.994110  1
  F  F57  1  0.775490  0.846734  0.005890  1
