# generated using pymatgen
data_La8Cd3InAu8
_symmetry_space_group_name_H-M   'P 1'
_cell_length_a   8.29578200
_cell_length_b   8.29578200
_cell_length_c   7.85419600
_cell_angle_alpha   90.00000000
_cell_angle_beta   90.00000000
_cell_angle_gamma   90.00000000
_symmetry_Int_Tables_number   1
_chemical_formula_structural   La8Cd3InAu8
_chemical_formula_sum   'La8 Cd3 In1 Au8'
_cell_volume   540.52576080
_cell_formula_units_Z   1
loop_
 _symmetry_equiv_pos_site_id
 _symmetry_equiv_pos_as_xyz
  1  'x, y, z'
loop_
 _atom_site_type_symbol
 _atom_site_label
 _atom_site_symmetry_multiplicity
 _atom_site_fract_x
 _atom_site_fract_y
 _atom_site_fract_z
 _atom_site_occupancy
  La  La0  1  0.681137  0.323255  0.500855  1
  La  La1  1  0.318863  0.676745  0.500855  1
  La  La2  1  0.176745  0.181137  0.999145  1
  La  La3  1  0.823255  0.818863  0.999145  1
  La  La4  1  0.834199  0.829973  0.500375  1
  La  La5  1  0.165801  0.170027  0.500375  1
  La  La6  1  0.329973  0.665801  0.999625  1
  La  La7  1  0.670027  0.334199  0.999625  1
  Cd  Cd8  1  0.500000  0.000000  0.250000  1
  Cd  Cd9  1  0.000000  0.500000  0.750000  1
  Cd  Cd10  1  0.500000  0.000000  0.750000  1
  In  In11  1  0.000000  0.500000  0.250000  1
  Au  Au12  1  0.870388  0.123836  0.238615  1
  Au  Au13  1  0.129612  0.876164  0.238615  1
  Au  Au14  1  0.374457  0.371765  0.738661  1
  Au  Au15  1  0.625543  0.628235  0.738661  1
  Au  Au16  1  0.128235  0.874457  0.761339  1
  Au  Au17  1  0.871765  0.125543  0.761339  1
  Au  Au18  1  0.623836  0.629612  0.261385  1
  Au  Au19  1  0.376164  0.370388  0.261385  1
