# generated using pymatgen
data_BeNi2B5Mo6
_symmetry_space_group_name_H-M   'P 1'
_cell_length_a   3.19145905
_cell_length_b   4.53790187
_cell_length_c   10.85307594
_cell_angle_alpha   89.87659947
_cell_angle_beta   89.99414147
_cell_angle_gamma   69.43042518
_symmetry_Int_Tables_number   1
_chemical_formula_structural   BeNi2B5Mo6
_chemical_formula_sum   'Be1 Ni2 B5 Mo6'
_cell_volume   147.15878401
_cell_formula_units_Z   1
loop_
 _symmetry_equiv_pos_site_id
 _symmetry_equiv_pos_as_xyz
  1  'x, y, z'
loop_
 _atom_site_type_symbol
 _atom_site_label
 _atom_site_symmetry_multiplicity
 _atom_site_fract_x
 _atom_site_fract_y
 _atom_site_fract_z
 _atom_site_occupancy
  Be  Be0  1  0.915847  0.168152  0.100697  1
  Ni  Ni1  1  0.504611  0.990514  0.993492  1
  Ni  Ni2  1  0.498700  0.002103  0.500700  1
  B  B3  1  0.790502  0.419101  0.253333  1
  B  B4  1  0.910566  0.178347  0.396150  1
  B  B5  1  0.087745  0.824442  0.604878  1
  B  B6  1  0.206497  0.587449  0.749710  1
  B  B7  1  0.088507  0.822915  0.895898  1
  Mo  Mo8  1  0.209472  0.580998  0.111308  1
  Mo  Mo9  1  0.501353  0.996902  0.253551  1
  Mo  Mo10  1  0.211422  0.577632  0.393688  1
  Mo  Mo11  1  0.785983  0.426609  0.608810  1
  Mo  Mo12  1  0.501435  0.000243  0.749196  1
  Mo  Mo13  1  0.787356  0.424590  0.888590  1
