# generated using pymatgen
data_Sc2Zn(SeO3)4
_symmetry_space_group_name_H-M   'P 1'
_cell_length_a   8.42128400
_cell_length_b   8.41436667
_cell_length_c   8.54081628
_cell_angle_alpha   87.25363911
_cell_angle_beta   90.00000000
_cell_angle_gamma   90.00000000
_symmetry_Int_Tables_number   1
_chemical_formula_structural   Sc2Zn(SeO3)4
_chemical_formula_sum   'Sc4 Zn2 Se8 O24'
_cell_volume   604.50517562
_cell_formula_units_Z   2
loop_
 _symmetry_equiv_pos_site_id
 _symmetry_equiv_pos_as_xyz
  1  'x, y, z'
loop_
 _atom_site_type_symbol
 _atom_site_label
 _atom_site_symmetry_multiplicity
 _atom_site_fract_x
 _atom_site_fract_y
 _atom_site_fract_z
 _atom_site_occupancy
  Sc  Sc0  1  0.761739  0.750244  0.002088  1
  Sc  Sc1  1  0.736963  0.244102  0.509182  1
  Sc  Sc2  1  0.238261  0.250244  0.002088  1
  Sc  Sc3  1  0.263037  0.744102  0.509182  1
  Zn  Zn4  1  0.600158  0.344496  0.162729  1
  Zn  Zn5  1  0.399842  0.844496  0.162729  1
  Se  Se6  1  0.101685  0.555079  0.192777  1
  Se  Se7  1  0.898315  0.055079  0.192777  1
  Se  Se8  1  0.572022  0.449651  0.827375  1
  Se  Se9  1  0.327170  0.162803  0.407729  1
  Se  Se10  1  0.058279  0.416968  0.677633  1
  Se  Se11  1  0.427978  0.949651  0.827375  1
  Se  Se12  1  0.672830  0.662803  0.407729  1
  Se  Se13  1  0.941721  0.916968  0.677633  1
  O  O14  1  0.963894  0.690908  0.122996  1
  O  O15  1  0.312535  0.004155  0.990074  1
  O  O16  1  0.163025  0.263707  0.775247  1
  O  O17  1  0.663287  0.461658  0.360774  1
  O  O18  1  0.751799  0.183713  0.262994  1
  O  O19  1  0.189978  0.493922  0.025388  1
  O  O20  1  0.211683  0.512380  0.576889  1
  O  O21  1  0.621493  0.756360  0.226138  1
  O  O22  1  0.709363  0.353085  0.722251  1
  O  O23  1  0.336713  0.961658  0.360774  1
  O  O24  1  0.971709  0.315931  0.527838  1
  O  O25  1  0.484045  0.295511  0.940152  1
  O  O26  1  0.836975  0.763707  0.775247  1
  O  O27  1  0.507133  0.686030  0.515647  1
  O  O28  1  0.290637  0.853085  0.722251  1
  O  O29  1  0.248201  0.683713  0.262994  1
  O  O30  1  0.378507  0.256360  0.226138  1
  O  O31  1  0.036106  0.190908  0.122996  1
  O  O32  1  0.028291  0.815931  0.527838  1
  O  O33  1  0.515955  0.795511  0.940152  1
  O  O34  1  0.687465  0.504154  0.990074  1
  O  O35  1  0.788317  0.012380  0.576889  1
  O  O36  1  0.492867  0.186030  0.515647  1
  O  O37  1  0.810022  0.993922  0.025388  1
