# generated using pymatgen
data_K4HfPaTe6
_symmetry_space_group_name_H-M   'P 1'
_cell_length_a   14.38435600
_cell_length_b   7.05335104
_cell_length_c   9.73716200
_cell_angle_alpha   71.63867761
_cell_angle_beta   90.00000000
_cell_angle_gamma   90.00000000
_symmetry_Int_Tables_number   1
_chemical_formula_structural   K4HfPaTe6
_chemical_formula_sum   'K8 Hf2 Pa2 Te12'
_cell_volume   937.61641039
_cell_formula_units_Z   2
loop_
 _symmetry_equiv_pos_site_id
 _symmetry_equiv_pos_as_xyz
  1  'x, y, z'
loop_
 _atom_site_type_symbol
 _atom_site_label
 _atom_site_symmetry_multiplicity
 _atom_site_fract_x
 _atom_site_fract_y
 _atom_site_fract_z
 _atom_site_occupancy
  K  K0  1  0.958994  0.673321  0.650919  1
  K  K1  1  0.458994  0.826679  0.349081  1
  K  K2  1  0.041941  0.325955  0.349450  1
  K  K3  1  0.541941  0.174045  0.650550  1
  K  K4  1  0.865893  0.081028  0.910078  1
  K  K5  1  0.365893  0.418972  0.089922  1
  K  K6  1  0.133746  0.926936  0.092646  1
  K  K7  1  0.633746  0.573064  0.907354  1
  Hf  Hf8  1  0.249925  0.340901  0.705624  1
  Hf  Hf9  1  0.749925  0.159099  0.294376  1
  Pa  Pa10  1  0.750269  0.658229  0.296105  1
  Pa  Pa11  1  0.250269  0.841771  0.703895  1
  Te  Te12  1  0.918046  0.927050  0.279921  1
  Te  Te13  1  0.418046  0.572950  0.720079  1
  Te  Te14  1  0.082103  0.096178  0.722826  1
  Te  Te15  1  0.582103  0.403822  0.277174  1
  Te  Te16  1  0.819386  0.294575  0.530877  1
  Te  Te17  1  0.319386  0.205425  0.469123  1
  Te  Te18  1  0.179876  0.680826  0.469643  1
  Te  Te19  1  0.679876  0.819174  0.530357  1
  Te  Te20  1  0.846399  0.493320  0.076269  1
  Te  Te21  1  0.346399  0.006680  0.923731  1
  Te  Te22  1  0.153421  0.486567  0.922803  1
  Te  Te23  1  0.653421  0.013433  0.077197  1
