# generated using pymatgen
data_Ba5Fe4ReO15
_symmetry_space_group_name_H-M   'P 1'
_cell_length_a   9.15064527
_cell_length_b   9.15064458
_cell_length_c   7.07680805
_cell_angle_alpha   74.83008682
_cell_angle_beta   74.83008693
_cell_angle_gamma   36.62917721
_symmetry_Int_Tables_number   1
_chemical_formula_structural   Ba5Fe4ReO15
_chemical_formula_sum   'Ba5 Fe4 Re1 O15'
_cell_volume   339.85149632
_cell_formula_units_Z   1
loop_
 _symmetry_equiv_pos_site_id
 _symmetry_equiv_pos_as_xyz
  1  'x, y, z'
loop_
 _atom_site_type_symbol
 _atom_site_label
 _atom_site_symmetry_multiplicity
 _atom_site_fract_x
 _atom_site_fract_y
 _atom_site_fract_z
 _atom_site_occupancy
  Ba  Ba0  1  0.797085  0.797085  0.305530  1
  Ba  Ba1  1  0.604665  0.604665  0.100781  1
  Ba  Ba2  1  0.202915  0.202915  0.694470  1
  Ba  Ba3  1  0.395335  0.395335  0.899219  1
  Ba  Ba4  1  0.000000  0.000000  0.500000  1
  Fe  Fe5  1  0.603726  0.603726  0.577950  1
  Fe  Fe6  1  0.206934  0.206934  0.202475  1
  Fe  Fe7  1  0.793066  0.793066  0.797525  1
  Fe  Fe8  1  0.396274  0.396274  0.422050  1
  Re  Re9  1  0.000000  0.000000  0.000000  1
  O  O10  1  0.190367  0.719263  0.188430  1
  O  O11  1  0.000000  0.500000  0.000000  1
  O  O12  1  0.606270  0.095018  0.604980  1
  O  O13  1  0.809633  0.280737  0.811570  1
  O  O14  1  0.393730  0.904982  0.395020  1
  O  O15  1  0.305839  0.305839  0.299870  1
  O  O16  1  0.094111  0.094111  0.087482  1
  O  O17  1  0.694161  0.694161  0.700130  1
  O  O18  1  0.905889  0.905889  0.912518  1
  O  O19  1  0.500000  0.500000  0.500000  1
  O  O20  1  0.095018  0.606270  0.604980  1
  O  O21  1  0.904982  0.393730  0.395020  1
  O  O22  1  0.500000  0.000000  0.000000  1
  O  O23  1  0.719263  0.190367  0.188430  1
  O  O24  1  0.280737  0.809633  0.811570  1
