# generated using pymatgen
data_Dy3Y5Sc2Si5As
_symmetry_space_group_name_H-M   'P 1'
_cell_length_a   8.38340080
_cell_length_b   8.38340011
_cell_length_c   6.18511077
_cell_angle_alpha   89.95632951
_cell_angle_beta   89.95633783
_cell_angle_gamma   120.10914901
_symmetry_Int_Tables_number   1
_chemical_formula_structural   Dy3Y5Sc2Si5As
_chemical_formula_sum   'Dy3 Y5 Sc2 Si5 As1'
_cell_volume   376.04456660
_cell_formula_units_Z   1
loop_
 _symmetry_equiv_pos_site_id
 _symmetry_equiv_pos_as_xyz
  1  'x, y, z'
loop_
 _atom_site_type_symbol
 _atom_site_label
 _atom_site_symmetry_multiplicity
 _atom_site_fract_x
 _atom_site_fract_y
 _atom_site_fract_z
 _atom_site_occupancy
  Dy  Dy0  1  0.667380  0.330321  0.251681  1
  Dy  Dy1  1  0.330321  0.667380  0.251681  1
  Dy  Dy2  1  0.753735  0.753735  0.503184  1
  Y  Y3  1  0.244561  0.999475  0.504226  1
  Y  Y4  1  0.999475  0.244561  0.504226  1
  Y  Y5  1  0.245197  0.245197  0.995913  1
  Y  Y6  1  0.755845  0.003630  0.995394  1
  Y  Y7  1  0.003630  0.755845  0.995394  1
  Sc  Sc8  1  0.331523  0.667034  0.748530  1
  Sc  Sc9  1  0.667034  0.331523  0.748530  1
  Si  Si10  1  0.394933  0.394933  0.513103  1
  Si  Si11  1  0.602675  0.998332  0.517526  1
  Si  Si12  1  0.998332  0.602675  0.517526  1
  Si  Si13  1  0.397278  0.000674  0.982744  1
  Si  Si14  1  0.000674  0.397278  0.982744  1
  As  As15  1  0.607457  0.607457  0.987601  1
