# generated using pymatgen
data_Os(I5Br3)2
_symmetry_space_group_name_H-M   'P 1'
_cell_length_a   12.32232209
_cell_length_b   11.59857585
_cell_length_c   9.56489736
_cell_angle_alpha   135.06215841
_cell_angle_beta   114.44131494
_cell_angle_gamma   75.77901466
_symmetry_Int_Tables_number   1
_chemical_formula_structural   Os(I5Br3)2
_chemical_formula_sum   'Os1 I10 Br6'
_cell_volume   876.68128529
_cell_formula_units_Z   1
loop_
 _symmetry_equiv_pos_site_id
 _symmetry_equiv_pos_as_xyz
  1  'x, y, z'
loop_
 _atom_site_type_symbol
 _atom_site_label
 _atom_site_symmetry_multiplicity
 _atom_site_fract_x
 _atom_site_fract_y
 _atom_site_fract_z
 _atom_site_occupancy
  Os  Os0  1  0.000000  0.000000  0.000000  1
  I  I1  1  0.368975  0.502820  0.297679  1
  I  I2  1  0.631025  0.497180  0.702321  1
  I  I3  1  0.734414  0.332896  0.396628  1
  I  I4  1  0.265586  0.667104  0.603372  1
  I  I5  1  0.510796  0.284438  0.981541  1
  I  I6  1  0.489204  0.715562  0.018459  1
  I  I7  1  0.648524  0.794101  0.390180  1
  I  I8  1  0.351476  0.205899  0.609820  1
  I  I9  1  0.003364  0.661063  0.096977  1
  I  I10  1  0.996636  0.338937  0.903023  1
  Br  Br11  1  0.206482  0.134549  0.207227  1
  Br  Br12  1  0.793518  0.865451  0.792773  1
  Br  Br13  1  0.918213  0.270956  0.180312  1
  Br  Br14  1  0.081787  0.729044  0.819688  1
  Br  Br15  1  0.009607  0.014194  0.276948  1
  Br  Br16  1  0.990393  0.985806  0.723052  1
