# generated using pymatgen
data_La8Pr8Ag4IrOs3
_symmetry_space_group_name_H-M   'P 1'
_cell_length_a   9.93988134
_cell_length_b   9.98434590
_cell_length_c   10.09379000
_cell_angle_alpha   59.63600825
_cell_angle_beta   59.48690234
_cell_angle_gamma   60.49109670
_symmetry_Int_Tables_number   1
_chemical_formula_structural   La8Pr8Ag4IrOs3
_chemical_formula_sum   'La8 Pr8 Ag4 Ir1 Os3'
_cell_volume   706.14169072
_cell_formula_units_Z   1
loop_
 _symmetry_equiv_pos_site_id
 _symmetry_equiv_pos_as_xyz
  1  'x, y, z'
loop_
 _atom_site_type_symbol
 _atom_site_label
 _atom_site_symmetry_multiplicity
 _atom_site_fract_x
 _atom_site_fract_y
 _atom_site_fract_z
 _atom_site_occupancy
  La  La0  1  0.345667  0.346642  0.350373  1
  La  La1  1  0.345675  0.346643  0.957303  1
  La  La2  1  0.348197  0.956013  0.347895  1
  La  La3  1  0.959388  0.348850  0.345881  1
  La  La4  1  0.812910  0.191108  0.188633  1
  La  La5  1  0.190141  0.810555  0.811564  1
  La  La6  1  0.190148  0.810558  0.187731  1
  La  La7  1  0.812907  0.191119  0.807350  1
  Pr  Pr8  1  0.193056  0.193401  0.806769  1
  Pr  Pr9  1  0.807283  0.805314  0.193703  1
  Pr  Pr10  1  0.936252  0.563771  0.562277  1
  Pr  Pr11  1  0.561539  0.937426  0.937114  1
  Pr  Pr12  1  0.561531  0.937421  0.563921  1
  Pr  Pr13  1  0.936228  0.563770  0.937716  1
  Pr  Pr14  1  0.557406  0.561014  0.940801  1
  Pr  Pr15  1  0.941816  0.941591  0.558296  1
  Ag  Ag16  1  0.581228  0.581113  0.577900  1
  Ag  Ag17  1  0.581230  0.581088  0.259789  1
  Ag  Ag18  1  0.577436  0.260086  0.581227  1
  Ag  Ag19  1  0.258292  0.577570  0.582067  1
  Ir  Ir20  1  0.581387  0.145882  0.136372  1
  Os  Os21  1  0.135867  0.132725  0.147233  1
  Os  Os22  1  0.135858  0.132747  0.584169  1
  Os  Os23  1  0.148559  0.583596  0.133916  1
