# generated using pymatgen
data_Pr3PaAg2Rh3
_symmetry_space_group_name_H-M   'P 1'
_cell_length_a   7.83844503
_cell_length_b   7.83844600
_cell_length_c   4.03051100
_cell_angle_alpha   90.00000000
_cell_angle_beta   90.00000000
_cell_angle_gamma   121.38954916
_symmetry_Int_Tables_number   1
_chemical_formula_structural   Pr3PaAg2Rh3
_chemical_formula_sum   'Pr3 Pa1 Ag2 Rh3'
_cell_volume   211.39646200
_cell_formula_units_Z   1
loop_
 _symmetry_equiv_pos_site_id
 _symmetry_equiv_pos_as_xyz
  1  'x, y, z'
loop_
 _atom_site_type_symbol
 _atom_site_label
 _atom_site_symmetry_multiplicity
 _atom_site_fract_x
 _atom_site_fract_y
 _atom_site_fract_z
 _atom_site_occupancy
  Pr  Pr0  1  0.038606  0.592911  0.500000  1
  Pr  Pr1  1  0.359702  0.359702  0.500000  1
  Pr  Pr2  1  0.592911  0.038606  0.500000  1
  Pa  Pa3  1  0.738517  0.738517  0.000000  1
  Ag  Ag4  1  0.985561  0.247668  0.000000  1
  Ag  Ag5  1  0.247668  0.985561  0.000000  1
  Rh  Rh6  1  0.388918  0.684120  0.000000  1
  Rh  Rh7  1  0.963998  0.963998  0.500000  1
  Rh  Rh8  1  0.684120  0.388918  0.000000  1
