# generated using pymatgen
data_Ca9LaIr4
_symmetry_space_group_name_H-M   'P 1'
_cell_length_a   8.67581017
_cell_length_b   8.67581056
_cell_length_c   7.59017775
_cell_angle_alpha   82.84199002
_cell_angle_beta   82.84198844
_cell_angle_gamma   44.52921746
_symmetry_Int_Tables_number   1
_chemical_formula_structural   Ca9LaIr4
_chemical_formula_sum   'Ca9 La1 Ir4'
_cell_volume   396.99612704
_cell_formula_units_Z   1
loop_
 _symmetry_equiv_pos_site_id
 _symmetry_equiv_pos_as_xyz
  1  'x, y, z'
loop_
 _atom_site_type_symbol
 _atom_site_label
 _atom_site_symmetry_multiplicity
 _atom_site_fract_x
 _atom_site_fract_y
 _atom_site_fract_z
 _atom_site_occupancy
  Ca  Ca0  1  0.019560  0.803695  0.911532  1
  Ca  Ca1  1  0.196305  0.980440  0.588468  1
  Ca  Ca2  1  0.982871  0.195919  0.081134  1
  Ca  Ca3  1  0.804081  0.017129  0.418866  1
  Ca  Ca4  1  0.363536  0.203748  0.821831  1
  Ca  Ca5  1  0.796252  0.636464  0.678169  1
  Ca  Ca6  1  0.640080  0.801597  0.178140  1
  Ca  Ca7  1  0.198403  0.359920  0.321860  1
  Ca  Ca8  1  0.571022  0.428978  0.750000  1
  La  La9  1  0.435403  0.564597  0.250000  1
  Ir  Ir10  1  0.181079  0.600209  0.572542  1
  Ir  Ir11  1  0.399791  0.818921  0.927458  1
  Ir  Ir12  1  0.814398  0.402781  0.414606  1
  Ir  Ir13  1  0.597219  0.185602  0.085394  1
