# generated using pymatgen
data_Ce2Al9Pd2Ru
_symmetry_space_group_name_H-M   'P 1'
_cell_length_a   7.67970585
_cell_length_b   7.67970600
_cell_length_c   9.51743200
_cell_angle_alpha   90.00000000
_cell_angle_beta   90.00000000
_cell_angle_gamma   119.33355533
_symmetry_Int_Tables_number   1
_chemical_formula_structural   Ce2Al9Pd2Ru
_chemical_formula_sum   'Ce4 Al18 Pd4 Ru2'
_cell_volume   489.34721111
_cell_formula_units_Z   2
loop_
 _symmetry_equiv_pos_site_id
 _symmetry_equiv_pos_as_xyz
  1  'x, y, z'
loop_
 _atom_site_type_symbol
 _atom_site_label
 _atom_site_symmetry_multiplicity
 _atom_site_fract_x
 _atom_site_fract_y
 _atom_site_fract_z
 _atom_site_occupancy
  Ce  Ce0  1  0.996193  0.673106  0.250000  1
  Ce  Ce1  1  0.003807  0.326894  0.750000  1
  Ce  Ce2  1  0.673106  0.996193  0.250000  1
  Ce  Ce3  1  0.326894  0.003807  0.750000  1
  Al  Al4  1  0.002566  0.331809  0.076848  1
  Al  Al5  1  0.997434  0.668191  0.923152  1
  Al  Al6  1  0.997434  0.668191  0.576848  1
  Al  Al7  1  0.331809  0.002566  0.423152  1
  Al  Al8  1  0.002566  0.331809  0.423152  1
  Al  Al9  1  0.668191  0.997434  0.576848  1
  Al  Al10  1  0.668191  0.997434  0.923152  1
  Al  Al11  1  0.331809  0.002566  0.076848  1
  Al  Al12  1  0.329283  0.329283  0.548797  1
  Al  Al13  1  0.670717  0.670717  0.451203  1
  Al  Al14  1  0.670717  0.670717  0.048797  1
  Al  Al15  1  0.329283  0.329283  0.951203  1
  Al  Al16  1  0.129425  0.129425  0.250000  1
  Al  Al17  1  0.870575  0.870575  0.750000  1
  Al  Al18  1  0.345696  0.548892  0.250000  1
  Al  Al19  1  0.654304  0.451108  0.750000  1
  Al  Al20  1  0.548892  0.345696  0.250000  1
  Al  Al21  1  0.451108  0.654304  0.750000  1
  Pd  Pd22  1  0.671694  0.328306  0.000000  1
  Pd  Pd23  1  0.328306  0.671694  0.000000  1
  Pd  Pd24  1  0.328306  0.671694  0.500000  1
  Pd  Pd25  1  0.671694  0.328306  0.500000  1
  Ru  Ru26  1  0.000000  0.000000  0.000000  1
  Ru  Ru27  1  0.000000  0.000000  0.500000  1
