# generated using pymatgen
data_Na6La7ThAu20
_symmetry_space_group_name_H-M   'P 1'
_cell_length_a   8.92185191
_cell_length_b   8.92195149
_cell_length_c   10.49608605
_cell_angle_alpha   90.00599378
_cell_angle_beta   90.00635986
_cell_angle_gamma   108.42537718
_symmetry_Int_Tables_number   1
_chemical_formula_structural   Na6La7ThAu20
_chemical_formula_sum   'Na6 La7 Th1 Au20'
_cell_volume   792.66133576
_cell_formula_units_Z   1
loop_
 _symmetry_equiv_pos_site_id
 _symmetry_equiv_pos_as_xyz
  1  'x, y, z'
loop_
 _atom_site_type_symbol
 _atom_site_label
 _atom_site_symmetry_multiplicity
 _atom_site_fract_x
 _atom_site_fract_y
 _atom_site_fract_z
 _atom_site_occupancy
  Na  Na0  1  0.513103  0.013665  0.250656  1
  Na  Na1  1  0.986338  0.486902  0.749349  1
  Na  Na2  1  0.000348  0.999657  0.999999  1
  Na  Na3  1  0.014871  0.514306  0.250437  1
  Na  Na4  1  0.485695  0.985125  0.749557  1
  Na  Na5  1  0.500464  0.499544  0.499999  1
  La  La6  1  0.200978  0.799059  0.499975  1
  La  La7  1  0.800539  0.800876  0.297690  1
  La  La8  1  0.300004  0.299800  0.202036  1
  La  La9  1  0.798793  0.201216  0.500008  1
  La  La10  1  0.298907  0.700973  0.000025  1
  La  La11  1  0.700139  0.699976  0.797992  1
  La  La12  1  0.199170  0.199407  0.702326  1
  Th  Th13  1  0.700655  0.299377  0.999982  1
  Au  Au14  1  0.152134  0.430328  0.487897  1
  Au  Au15  1  0.902549  0.903655  0.595355  1
  Au  Au16  1  0.569676  0.847876  0.512100  1
  Au  Au17  1  0.879139  0.163031  0.207399  1
  Au  Au18  1  0.382765  0.661419  0.290040  1
  Au  Au19  1  0.663081  0.379193  0.285805  1
  Au  Au20  1  0.402869  0.401926  0.907219  1
  Au  Au21  1  0.928846  0.645737  0.011394  1
  Au  Au22  1  0.338584  0.617235  0.709956  1
  Au  Au23  1  0.354269  0.071154  0.988606  1
  Au  Au24  1  0.598079  0.597137  0.092779  1
  Au  Au25  1  0.651594  0.934095  0.013911  1
  Au  Au26  1  0.096354  0.097457  0.404643  1
  Au  Au27  1  0.620811  0.336922  0.714192  1
  Au  Au28  1  0.119041  0.839795  0.791739  1
  Au  Au29  1  0.065912  0.348410  0.986085  1
  Au  Au30  1  0.846845  0.569750  0.511257  1
  Au  Au31  1  0.160206  0.880962  0.208258  1
  Au  Au32  1  0.430261  0.153162  0.488737  1
  Au  Au33  1  0.836979  0.120873  0.792597  1
