# generated using pymatgen
data_Yb3DyIrRu3O14
_symmetry_space_group_name_H-M   'P 1'
_cell_length_a   7.23555311
_cell_length_b   7.23555422
_cell_length_c   7.21137707
_cell_angle_alpha   59.88903676
_cell_angle_beta   59.88903478
_cell_angle_gamma   59.99999708
_symmetry_Int_Tables_number   1
_chemical_formula_structural   Yb3DyIrRu3O14
_chemical_formula_sum   'Yb3 Dy1 Ir1 Ru3 O14'
_cell_volume   266.51170424
_cell_formula_units_Z   1
loop_
 _symmetry_equiv_pos_site_id
 _symmetry_equiv_pos_as_xyz
  1  'x, y, z'
loop_
 _atom_site_type_symbol
 _atom_site_label
 _atom_site_symmetry_multiplicity
 _atom_site_fract_x
 _atom_site_fract_y
 _atom_site_fract_z
 _atom_site_occupancy
  Yb  Yb0  1  0.125000  0.625000  0.125000  1
  Yb  Yb1  1  0.625000  0.125000  0.125000  1
  Yb  Yb2  1  0.125000  0.125000  0.125000  1
  Dy  Dy3  1  0.125000  0.125000  0.625000  1
  Ir  Ir4  1  0.625000  0.625000  0.125000  1
  Ru  Ru5  1  0.625000  0.125000  0.625000  1
  Ru  Ru6  1  0.125000  0.625000  0.625000  1
  Ru  Ru7  1  0.625000  0.625000  0.625000  1
  O  O8  1  0.247397  0.247397  0.257808  1
  O  O9  1  0.002603  0.002603  0.992192  1
  O  O10  1  0.298735  0.700657  0.299951  1
  O  O11  1  0.546315  0.949373  0.554939  1
  O  O12  1  0.300627  0.300627  0.695061  1
  O  O13  1  0.700657  0.298735  0.299951  1
  O  O14  1  0.300627  0.703685  0.695061  1
  O  O15  1  0.700657  0.700657  0.299951  1
  O  O16  1  0.703685  0.300627  0.695061  1
  O  O17  1  0.949373  0.546315  0.554939  1
  O  O18  1  0.549343  0.951265  0.950049  1
  O  O19  1  0.951265  0.549343  0.950049  1
  O  O20  1  0.549343  0.549343  0.950049  1
  O  O21  1  0.949373  0.949373  0.554939  1
