# generated using pymatgen
data_Pr6Cr(SiSe7)2
_symmetry_space_group_name_H-M   'P 1'
_cell_length_a   10.74860700
_cell_length_b   10.74860749
_cell_length_c   6.04292400
_cell_angle_alpha   90.00000000
_cell_angle_beta   90.00000000
_cell_angle_gamma   120.00000155
_symmetry_Int_Tables_number   1
_chemical_formula_structural   Pr6Cr(SiSe7)2
_chemical_formula_sum   'Pr6 Cr1 Si2 Se14'
_cell_volume   604.61949391
_cell_formula_units_Z   1
loop_
 _symmetry_equiv_pos_site_id
 _symmetry_equiv_pos_as_xyz
  1  'x, y, z'
loop_
 _atom_site_type_symbol
 _atom_site_label
 _atom_site_symmetry_multiplicity
 _atom_site_fract_x
 _atom_site_fract_y
 _atom_site_fract_z
 _atom_site_occupancy
  Pr  Pr0  1  0.434752  0.457091  0.749328  1
  Pr  Pr1  1  0.022339  0.565248  0.749328  1
  Pr  Pr2  1  0.542909  0.977661  0.749328  1
  Pr  Pr3  1  0.897815  0.209483  0.250584  1
  Pr  Pr4  1  0.311668  0.102185  0.250584  1
  Pr  Pr5  1  0.790517  0.688332  0.250584  1
  Cr  Cr6  1  0.666667  0.333333  0.514299  1
  Si  Si7  1  0.333333  0.666667  0.164712  1
  Si  Si8  1  0.000000  0.000000  0.661116  1
  Se  Se9  1  0.333333  0.666667  0.538463  1
  Se  Se10  1  0.000000  0.000000  0.035216  1
  Se  Se11  1  0.508359  0.418797  0.276774  1
  Se  Se12  1  0.910438  0.491641  0.276774  1
  Se  Se13  1  0.581203  0.089562  0.276774  1
  Se  Se14  1  0.827630  0.250406  0.749655  1
  Se  Se15  1  0.422775  0.172370  0.749655  1
  Se  Se16  1  0.749594  0.577225  0.749655  1
  Se  Se17  1  0.558120  0.744467  0.016771  1
  Se  Se18  1  0.186347  0.441880  0.016771  1
  Se  Se19  1  0.255533  0.813653  0.016771  1
  Se  Se20  1  0.774805  0.921527  0.513377  1
  Se  Se21  1  0.146722  0.225195  0.513377  1
  Se  Se22  1  0.078473  0.853278  0.513377  1
