# generated using pymatgen
data_Yb6Ni7B4Pt7
_symmetry_space_group_name_H-M   'P 1'
_cell_length_a   5.23901789
_cell_length_b   5.23313645
_cell_length_c   14.79912299
_cell_angle_alpha   88.75362874
_cell_angle_beta   90.35054557
_cell_angle_gamma   119.04923663
_symmetry_Int_Tables_number   1
_chemical_formula_structural   Yb6Ni7B4Pt7
_chemical_formula_sum   'Yb6 Ni7 B4 Pt7'
_cell_volume   354.61060578
_cell_formula_units_Z   1
loop_
 _symmetry_equiv_pos_site_id
 _symmetry_equiv_pos_as_xyz
  1  'x, y, z'
loop_
 _atom_site_type_symbol
 _atom_site_label
 _atom_site_symmetry_multiplicity
 _atom_site_fract_x
 _atom_site_fract_y
 _atom_site_fract_z
 _atom_site_occupancy
  Yb  Yb0  1  0.663871  0.330028  0.537736  1
  Yb  Yb1  1  0.332247  0.665108  0.465063  1
  Yb  Yb2  1  0.331068  0.667895  0.034651  1
  Yb  Yb3  1  0.667590  0.334510  0.751127  1
  Yb  Yb4  1  0.664577  0.333531  0.963584  1
  Yb  Yb5  1  0.335442  0.666444  0.247881  1
  Ni  Ni6  1  0.837729  0.170253  0.152692  1
  Ni  Ni7  1  0.670834  0.839931  0.657758  1
  Ni  Ni8  1  0.669416  0.831720  0.844235  1
  Ni  Ni9  1  0.167483  0.838794  0.656803  1
  Ni  Ni10  1  0.837539  0.673723  0.153718  1
  Ni  Ni11  1  0.164547  0.327780  0.844468  1
  Ni  Ni12  1  0.836146  0.161124  0.343524  1
  B  B13  1  0.681997  0.331450  0.246368  1
  B  B14  1  0.990396  0.996131  0.750863  1
  B  B15  1  0.348879  0.674302  0.751102  1
  B  B16  1  0.992884  0.002866  0.246389  1
  Pt  Pt17  1  0.170549  0.343710  0.651489  1
  Pt  Pt18  1  0.338072  0.163061  0.351833  1
  Pt  Pt19  1  0.342805  0.174385  0.145538  1
  Pt  Pt20  1  0.168975  0.827163  0.851141  1
  Pt  Pt21  1  0.835440  0.661383  0.348638  1
  Pt  Pt22  1  0.971983  0.998115  0.998770  1
  Pt  Pt23  1  0.979530  0.986594  0.504630  1
