# generated using pymatgen
data_Ba3ScCrS6
_symmetry_space_group_name_H-M   'P 1'
_cell_length_a   8.14294051
_cell_length_b   8.14294010
_cell_length_c   8.14294100
_cell_angle_alpha   93.84149776
_cell_angle_beta   93.84149756
_cell_angle_gamma   93.84149278
_symmetry_Int_Tables_number   1
_chemical_formula_structural   Ba3ScCrS6
_chemical_formula_sum   'Ba6 Sc2 Cr2 S12'
_cell_volume   536.12675741
_cell_formula_units_Z   2
loop_
 _symmetry_equiv_pos_site_id
 _symmetry_equiv_pos_as_xyz
  1  'x, y, z'
loop_
 _atom_site_type_symbol
 _atom_site_label
 _atom_site_symmetry_multiplicity
 _atom_site_fract_x
 _atom_site_fract_y
 _atom_site_fract_z
 _atom_site_occupancy
  Ba  Ba0  1  0.367991  0.750000  0.132009  1
  Ba  Ba1  1  0.132009  0.367991  0.750000  1
  Ba  Ba2  1  0.750000  0.132009  0.367991  1
  Ba  Ba3  1  0.632009  0.250000  0.867991  1
  Ba  Ba4  1  0.867991  0.632009  0.250000  1
  Ba  Ba5  1  0.250000  0.867991  0.632009  1
  Sc  Sc6  1  0.250000  0.250000  0.250000  1
  Sc  Sc7  1  0.750000  0.750000  0.750000  1
  Cr  Cr8  1  0.500000  0.500000  0.500000  1
  Cr  Cr9  1  0.000000  0.000000  0.000000  1
  S  S10  1  0.529499  0.411216  0.210201  1
  S  S11  1  0.210201  0.529499  0.411216  1
  S  S12  1  0.411216  0.210201  0.529499  1
  S  S13  1  0.970501  0.289799  0.088784  1
  S  S14  1  0.088784  0.970501  0.289799  1
  S  S15  1  0.289799  0.088784  0.970501  1
  S  S16  1  0.470501  0.588784  0.789799  1
  S  S17  1  0.789799  0.470501  0.588784  1
  S  S18  1  0.588784  0.789799  0.470501  1
  S  S19  1  0.029499  0.710201  0.911216  1
  S  S20  1  0.710201  0.911216  0.029499  1
  S  S21  1  0.911216  0.029499  0.710201  1
