# generated using pymatgen
data_Nb2Fe5P6Ru5
_symmetry_space_group_name_H-M   'P 1'
_cell_length_a   3.72010000
_cell_length_b   10.27509400
_cell_length_c   11.91344400
_cell_angle_alpha   90.00000000
_cell_angle_beta   90.00000000
_cell_angle_gamma   90.00000000
_symmetry_Int_Tables_number   1
_chemical_formula_structural   Nb2Fe5P6Ru5
_chemical_formula_sum   'Nb4 Fe10 P12 Ru10'
_cell_volume   455.38397708
_cell_formula_units_Z   2
loop_
 _symmetry_equiv_pos_site_id
 _symmetry_equiv_pos_as_xyz
  1  'x, y, z'
loop_
 _atom_site_type_symbol
 _atom_site_label
 _atom_site_symmetry_multiplicity
 _atom_site_fract_x
 _atom_site_fract_y
 _atom_site_fract_z
 _atom_site_occupancy
  Nb  Nb0  1  0.250000  0.581904  0.712842  1
  Nb  Nb1  1  0.250000  0.918096  0.212842  1
  Nb  Nb2  1  0.750000  0.426878  0.290250  1
  Nb  Nb3  1  0.750000  0.073122  0.790250  1
  Fe  Fe4  1  0.750000  0.769877  0.825009  1
  Fe  Fe5  1  0.750000  0.730123  0.325009  1
  Fe  Fe6  1  0.250000  0.877044  0.701831  1
  Fe  Fe7  1  0.250000  0.622956  0.201831  1
  Fe  Fe8  1  0.750000  0.111042  0.296971  1
  Fe  Fe9  1  0.750000  0.388958  0.796971  1
  Fe  Fe10  1  0.250000  0.464271  0.931107  1
  Fe  Fe11  1  0.250000  0.035729  0.431107  1
  Fe  Fe12  1  0.750000  0.538031  0.068813  1
  Fe  Fe13  1  0.750000  0.961969  0.568813  1
  P  P14  1  0.250000  0.436642  0.114586  1
  P  P15  1  0.250000  0.063358  0.614586  1
  P  P16  1  0.750000  0.573901  0.884981  1
  P  P17  1  0.750000  0.926099  0.384981  1
  P  P18  1  0.250000  0.268355  0.865048  1
  P  P19  1  0.250000  0.231645  0.365048  1
  P  P20  1  0.750000  0.731840  0.142805  1
  P  P21  1  0.750000  0.768160  0.642805  1
  P  P22  1  0.250000  0.605374  0.382698  1
  P  P23  1  0.250000  0.894626  0.882698  1
  P  P24  1  0.750000  0.401597  0.614242  1
  P  P25  1  0.750000  0.098403  0.114242  1
  Ru  Ru26  1  0.250000  0.706120  0.986480  1
  Ru  Ru27  1  0.250000  0.793880  0.486480  1
  Ru  Ru28  1  0.750000  0.291763  0.006074  1
  Ru  Ru29  1  0.750000  0.208237  0.506074  1
  Ru  Ru30  1  0.250000  0.409606  0.477381  1
  Ru  Ru31  1  0.250000  0.090394  0.977381  1
  Ru  Ru32  1  0.750000  0.597625  0.522050  1
  Ru  Ru33  1  0.750000  0.902375  0.022050  1
  Ru  Ru34  1  0.250000  0.233107  0.176832  1
  Ru  Ru35  1  0.250000  0.266893  0.676832  1
