# generated using pymatgen
data_Ho15Er(HgPt)4
_symmetry_space_group_name_H-M   'P 1'
_cell_length_a   9.60371645
_cell_length_b   9.60371633
_cell_length_c   9.60503400
_cell_angle_alpha   59.99546122
_cell_angle_beta   59.99546163
_cell_angle_gamma   60.00585787
_symmetry_Int_Tables_number   1
_chemical_formula_structural   Ho15Er(HgPt)4
_chemical_formula_sum   'Ho15 Er1 Hg4 Pt4'
_cell_volume   626.40034074
_cell_formula_units_Z   1
loop_
 _symmetry_equiv_pos_site_id
 _symmetry_equiv_pos_as_xyz
  1  'x, y, z'
loop_
 _atom_site_type_symbol
 _atom_site_label
 _atom_site_symmetry_multiplicity
 _atom_site_fract_x
 _atom_site_fract_y
 _atom_site_fract_z
 _atom_site_occupancy
  Ho  Ho0  1  0.355052  0.355052  0.354534  1
  Ho  Ho1  1  0.355052  0.355052  0.935362  1
  Ho  Ho2  1  0.355494  0.934314  0.355096  1
  Ho  Ho3  1  0.934314  0.355494  0.355096  1
  Ho  Ho4  1  0.810668  0.189293  0.189688  1
  Ho  Ho5  1  0.189293  0.810668  0.810351  1
  Ho  Ho6  1  0.189293  0.810668  0.189688  1
  Ho  Ho7  1  0.810668  0.189293  0.810351  1
  Ho  Ho8  1  0.189632  0.189632  0.810368  1
  Ho  Ho9  1  0.810656  0.810656  0.189344  1
  Ho  Ho10  1  0.936007  0.564149  0.564194  1
  Ho  Ho11  1  0.564149  0.936007  0.935649  1
  Ho  Ho12  1  0.564149  0.936007  0.564194  1
  Ho  Ho13  1  0.936007  0.564149  0.935649  1
  Ho  Ho14  1  0.564271  0.564271  0.935729  1
  Er  Er15  1  0.936028  0.936028  0.563972  1
  Hg  Hg16  1  0.586393  0.586393  0.586611  1
  Hg  Hg17  1  0.586393  0.586393  0.240605  1
  Hg  Hg18  1  0.586515  0.240230  0.586628  1
  Hg  Hg19  1  0.240230  0.586515  0.586628  1
  Pt  Pt20  1  0.144165  0.144165  0.144670  1
  Pt  Pt21  1  0.144165  0.144165  0.566997  1
  Pt  Pt22  1  0.143885  0.567520  0.144297  1
  Pt  Pt23  1  0.567520  0.143885  0.144297  1
