# generated using pymatgen
data_Mn6Al6Co11Ni
_symmetry_space_group_name_H-M   'P 1'
_cell_length_a   4.03761500
_cell_length_b   5.70357700
_cell_length_c   12.11089100
_cell_angle_alpha   90.00000000
_cell_angle_beta   90.00035952
_cell_angle_gamma   90.00000000
_symmetry_Int_Tables_number   1
_chemical_formula_structural   Mn6Al6Co11Ni
_chemical_formula_sum   'Mn6 Al6 Co11 Ni1'
_cell_volume   278.89986857
_cell_formula_units_Z   1
loop_
 _symmetry_equiv_pos_site_id
 _symmetry_equiv_pos_as_xyz
  1  'x, y, z'
loop_
 _atom_site_type_symbol
 _atom_site_label
 _atom_site_symmetry_multiplicity
 _atom_site_fract_x
 _atom_site_fract_y
 _atom_site_fract_z
 _atom_site_occupancy
  Mn  Mn0  1  0.000000  0.996419  0.000000  1
  Mn  Mn1  1  0.500044  0.501854  0.167988  1
  Mn  Mn2  1  0.000039  0.999942  0.333502  1
  Mn  Mn3  1  0.500001  0.500003  0.500000  1
  Mn  Mn4  1  0.999961  0.999942  0.666497  1
  Mn  Mn5  1  0.499955  0.501854  0.832013  1
  Al  Al6  1  0.000000  0.501548  0.000000  1
  Al  Al7  1  0.500090  0.999096  0.167604  1
  Al  Al8  1  0.000115  0.500247  0.333635  1
  Al  Al9  1  0.500001  0.999801  0.500000  1
  Al  Al10  1  0.999884  0.500247  0.666365  1
  Al  Al11  1  0.499912  0.999096  0.832397  1
  Co  Co12  1  0.500001  0.750069  0.000000  1
  Co  Co13  1  0.000051  0.249965  0.166278  1
  Co  Co14  1  0.000052  0.750099  0.166403  1
  Co  Co15  1  0.500070  0.249881  0.333121  1
  Co  Co16  1  0.500070  0.749914  0.333254  1
  Co  Co17  1  0.000000  0.250064  0.500000  1
  Co  Co18  1  0.000000  0.749864  0.500000  1
  Co  Co19  1  0.499929  0.249881  0.666879  1
  Co  Co20  1  0.499929  0.749914  0.666746  1
  Co  Co21  1  0.999949  0.249965  0.833722  1
  Co  Co22  1  0.999948  0.750099  0.833597  1
  Ni  Ni23  1  0.500001  0.250230  0.000000  1
