# generated using pymatgen
data_CaNd19Si15Ag
_symmetry_space_group_name_H-M   'P 1'
_cell_length_a   7.79121747
_cell_length_b   7.95561085
_cell_length_c   15.26098321
_cell_angle_alpha   89.81459222
_cell_angle_beta   89.38934999
_cell_angle_gamma   90.17301606
_symmetry_Int_Tables_number   1
_chemical_formula_structural   CaNd19Si15Ag
_chemical_formula_sum   'Ca1 Nd19 Si15 Ag1'
_cell_volume   945.87207998
_cell_formula_units_Z   1
loop_
 _symmetry_equiv_pos_site_id
 _symmetry_equiv_pos_as_xyz
  1  'x, y, z'
loop_
 _atom_site_type_symbol
 _atom_site_label
 _atom_site_symmetry_multiplicity
 _atom_site_fract_x
 _atom_site_fract_y
 _atom_site_fract_z
 _atom_site_occupancy
  Ca  Ca0  1  0.139875  0.510471  0.749212  1
  Nd  Nd1  1  0.817231  0.321203  0.622735  1
  Nd  Nd2  1  0.456021  0.686252  0.898492  1
  Nd  Nd3  1  0.958566  0.812867  0.897746  1
  Nd  Nd4  1  0.188119  0.682612  0.120638  1
  Nd  Nd5  1  0.690810  0.819222  0.120905  1
  Nd  Nd6  1  0.308980  0.180114  0.878972  1
  Nd  Nd7  1  0.190738  0.678909  0.379308  1
  Nd  Nd8  1  0.042053  0.186209  0.101282  1
  Nd  Nd9  1  0.312288  0.180157  0.622514  1
  Nd  Nd10  1  0.857587  0.490426  0.249305  1
  Nd  Nd11  1  0.361303  0.010429  0.249999  1
  Nd  Nd12  1  0.530114  0.311474  0.396159  1
  Nd  Nd13  1  0.813339  0.319304  0.878688  1
  Nd  Nd14  1  0.965417  0.819576  0.603291  1
  Nd  Nd15  1  0.460668  0.684970  0.603096  1
  Nd  Nd16  1  0.042524  0.179384  0.396900  1
  Nd  Nd17  1  0.682794  0.825496  0.377074  1
  Nd  Nd18  1  0.637610  0.992227  0.749417  1
  Nd  Nd19  1  0.541287  0.313009  0.100914  1
  Si  Si20  1  0.480633  0.600744  0.247645  1
  Si  Si21  1  0.247895  0.379894  0.248031  1
  Si  Si22  1  0.521338  0.400595  0.751541  1
  Si  Si23  1  0.633799  0.024701  0.958185  1
  Si  Si24  1  0.017019  0.096395  0.751359  1
  Si  Si25  1  0.745391  0.621782  0.750595  1
  Si  Si26  1  0.751602  0.121384  0.248492  1
  Si  Si27  1  0.363756  0.972853  0.461005  1
  Si  Si28  1  0.982391  0.898605  0.248670  1
  Si  Si29  1  0.366258  0.974245  0.040782  1
  Si  Si30  1  0.637412  0.025763  0.541766  1
  Si  Si31  1  0.136301  0.473363  0.960736  1
  Si  Si32  1  0.150979  0.473608  0.542189  1
  Si  Si33  1  0.867007  0.525514  0.039744  1
  Si  Si34  1  0.247719  0.880636  0.751619  1
  Ag  Ag35  1  0.853178  0.525611  0.460993  1
