# generated using pymatgen
data_Ba6Sn8BiS
_symmetry_space_group_name_H-M   'P 1'
_cell_length_a   9.26421410
_cell_length_b   9.26421436
_cell_length_c   9.30361475
_cell_angle_alpha   119.86001382
_cell_angle_beta   119.86001319
_cell_angle_gamma   89.99999898
_symmetry_Int_Tables_number   1
_chemical_formula_structural   Ba6Sn8BiS
_chemical_formula_sum   'Ba6 Sn8 Bi1 S1'
_cell_volume   566.99787961
_cell_formula_units_Z   1
loop_
 _symmetry_equiv_pos_site_id
 _symmetry_equiv_pos_as_xyz
  1  'x, y, z'
loop_
 _atom_site_type_symbol
 _atom_site_label
 _atom_site_symmetry_multiplicity
 _atom_site_fract_x
 _atom_site_fract_y
 _atom_site_fract_z
 _atom_site_occupancy
  Ba  Ba0  1  0.233745  0.233745  0.467490  1
  Ba  Ba1  1  0.766255  0.766255  0.532510  1
  Ba  Ba2  1  0.678947  0.157597  0.000000  1
  Ba  Ba3  1  0.321053  0.842403  0.000000  1
  Ba  Ba4  1  0.842403  0.678947  0.000000  1
  Ba  Ba5  1  0.157597  0.321053  0.000000  1
  Sn  Sn6  1  0.337936  0.833040  0.389307  1
  Sn  Sn7  1  0.662064  0.166960  0.610693  1
  Sn  Sn8  1  0.051372  0.556268  0.389307  1
  Sn  Sn9  1  0.556268  0.337936  0.389307  1
  Sn  Sn10  1  0.166960  0.948628  0.610693  1
  Sn  Sn11  1  0.948628  0.443732  0.610693  1
  Sn  Sn12  1  0.443732  0.662064  0.610693  1
  Sn  Sn13  1  0.833040  0.051372  0.389307  1
  Bi  Bi14  1  0.500000  0.500000  0.000000  1
  S  S15  1  0.000000  0.000000  0.000000  1
