# generated using pymatgen
data_Tb7Er(GeI6)2
_symmetry_space_group_name_H-M   'P 1'
_cell_length_a   4.23049400
_cell_length_b   14.06433167
_cell_length_c   14.83072781
_cell_angle_alpha   89.92942533
_cell_angle_beta   90.00000000
_cell_angle_gamma   90.00000000
_symmetry_Int_Tables_number   1
_chemical_formula_structural   Tb7Er(GeI6)2
_chemical_formula_sum   'Tb7 Er1 Ge2 I12'
_cell_volume   882.41385373
_cell_formula_units_Z   1
loop_
 _symmetry_equiv_pos_site_id
 _symmetry_equiv_pos_as_xyz
  1  'x, y, z'
loop_
 _atom_site_type_symbol
 _atom_site_label
 _atom_site_symmetry_multiplicity
 _atom_site_fract_x
 _atom_site_fract_y
 _atom_site_fract_z
 _atom_site_occupancy
  Tb  Tb0  1  0.500000  0.885403  0.652979  1
  Tb  Tb1  1  0.500000  0.615058  0.153650  1
  Tb  Tb2  1  0.500000  0.384927  0.846394  1
  Tb  Tb3  1  0.000000  0.112186  0.575343  1
  Tb  Tb4  1  0.000000  0.887626  0.424899  1
  Tb  Tb5  1  0.000000  0.612463  0.924629  1
  Tb  Tb6  1  0.000000  0.387466  0.075455  1
  Er  Er7  1  0.500000  0.114402  0.347414  1
  Ge  Ge8  1  0.500000  0.001054  0.498559  1
  Ge  Ge9  1  0.500000  0.500031  0.999970  1
  I  I10  1  0.500000  0.243639  0.162942  1
  I  I11  1  0.500000  0.755456  0.838322  1
  I  I12  1  0.500000  0.744707  0.338383  1
  I  I13  1  0.500000  0.255381  0.661458  1
  I  I14  1  0.000000  0.256386  0.412380  1
  I  I15  1  0.000000  0.741109  0.585561  1
  I  I16  1  0.000000  0.759070  0.085621  1
  I  I17  1  0.000000  0.240932  0.914470  1
  I  I18  1  0.000000  0.001768  0.241836  1
  I  I19  1  0.000000  0.000968  0.759690  1
  I  I20  1  0.000000  0.498960  0.259901  1
  I  I21  1  0.000000  0.501010  0.740144  1
