# generated using pymatgen
data_Dy3Er(SiAu2)8
_symmetry_space_group_name_H-M   'P 1'
_cell_length_a   4.41563100
_cell_length_b   4.41563100
_cell_length_c   26.99461400
_cell_angle_alpha   90.00000000
_cell_angle_beta   90.00000000
_cell_angle_gamma   90.00000000
_symmetry_Int_Tables_number   1
_chemical_formula_structural   Dy3Er(SiAu2)8
_chemical_formula_sum   'Dy3 Er1 Si8 Au16'
_cell_volume   526.33550733
_cell_formula_units_Z   1
loop_
 _symmetry_equiv_pos_site_id
 _symmetry_equiv_pos_as_xyz
  1  'x, y, z'
loop_
 _atom_site_type_symbol
 _atom_site_label
 _atom_site_symmetry_multiplicity
 _atom_site_fract_x
 _atom_site_fract_y
 _atom_site_fract_z
 _atom_site_occupancy
  Dy  Dy0  1  0.000000  0.500000  0.749414  1
  Dy  Dy1  1  0.500000  0.000000  0.250586  1
  Dy  Dy2  1  0.500000  0.500000  0.500000  1
  Er  Er3  1  0.500000  0.500000  0.000000  1
  Si  Si4  1  0.000000  0.000000  0.956917  1
  Si  Si5  1  0.000000  0.000000  0.456940  1
  Si  Si6  1  0.500000  0.000000  0.792706  1
  Si  Si7  1  0.500000  0.000000  0.706167  1
  Si  Si8  1  0.000000  0.500000  0.207294  1
  Si  Si9  1  0.000000  0.500000  0.293833  1
  Si  Si10  1  0.000000  0.000000  0.043083  1
  Si  Si11  1  0.000000  0.000000  0.543060  1
  Au  Au12  1  0.500000  0.000000  0.085624  1
  Au  Au13  1  0.500000  0.500000  0.663203  1
  Au  Au14  1  0.500000  0.500000  0.835566  1
  Au  Au15  1  0.000000  0.500000  0.085032  1
  Au  Au16  1  0.500000  0.000000  0.914968  1
  Au  Au17  1  0.000000  0.000000  0.664238  1
  Au  Au18  1  0.000000  0.500000  0.415380  1
  Au  Au19  1  0.500000  0.500000  0.336797  1
  Au  Au20  1  0.500000  0.000000  0.414781  1
  Au  Au21  1  0.000000  0.000000  0.335762  1
  Au  Au22  1  0.000000  0.000000  0.165474  1
  Au  Au23  1  0.500000  0.000000  0.584620  1
  Au  Au24  1  0.000000  0.000000  0.834526  1
  Au  Au25  1  0.500000  0.500000  0.164434  1
  Au  Au26  1  0.000000  0.500000  0.585219  1
  Au  Au27  1  0.000000  0.500000  0.914376  1
