# generated using pymatgen
data_Zr6Zn15Ag8As
_symmetry_space_group_name_H-M   'P 1'
_cell_length_a   8.95971182
_cell_length_b   8.95971099
_cell_length_c   8.95971100
_cell_angle_alpha   59.99999627
_cell_angle_beta   59.99999935
_cell_angle_gamma   59.99999648
_symmetry_Int_Tables_number   1
_chemical_formula_structural   Zr6Zn15Ag8As
_chemical_formula_sum   'Zr6 Zn15 Ag8 As1'
_cell_volume   508.58906720
_cell_formula_units_Z   1
loop_
 _symmetry_equiv_pos_site_id
 _symmetry_equiv_pos_as_xyz
  1  'x, y, z'
loop_
 _atom_site_type_symbol
 _atom_site_label
 _atom_site_symmetry_multiplicity
 _atom_site_fract_x
 _atom_site_fract_y
 _atom_site_fract_z
 _atom_site_occupancy
  Zr  Zr0  1  0.709172  0.290828  0.290828  1
  Zr  Zr1  1  0.290828  0.709172  0.709172  1
  Zr  Zr2  1  0.290828  0.709172  0.290828  1
  Zr  Zr3  1  0.709172  0.290828  0.709172  1
  Zr  Zr4  1  0.290828  0.290828  0.709172  1
  Zr  Zr5  1  0.709172  0.709172  0.290828  1
  Zn  Zn6  1  0.500000  0.000000  0.000000  1
  Zn  Zn7  1  0.000000  0.500000  0.500000  1
  Zn  Zn8  1  0.000000  0.500000  0.000000  1
  Zn  Zn9  1  0.500000  0.000000  0.500000  1
  Zn  Zn10  1  0.000000  0.000000  0.500000  1
  Zn  Zn11  1  0.500000  0.500000  0.000000  1
  Zn  Zn12  1  0.334905  0.334905  0.334905  1
  Zn  Zn13  1  0.665095  0.665095  0.665095  1
  Zn  Zn14  1  0.334905  0.334905  0.995288  1
  Zn  Zn15  1  0.334905  0.995288  0.334905  1
  Zn  Zn16  1  0.665095  0.665095  0.004712  1
  Zn  Zn17  1  0.665095  0.004712  0.665095  1
  Zn  Zn18  1  0.995288  0.334905  0.334905  1
  Zn  Zn19  1  0.004712  0.665095  0.665095  1
  Zn  Zn20  1  0.000000  0.000000  0.000000  1
  Ag  Ag21  1  0.121115  0.121115  0.121115  1
  Ag  Ag22  1  0.878885  0.878885  0.878885  1
  Ag  Ag23  1  0.121115  0.121115  0.636656  1
  Ag  Ag24  1  0.121115  0.636656  0.121115  1
  Ag  Ag25  1  0.878885  0.878885  0.363344  1
  Ag  Ag26  1  0.878885  0.363344  0.878885  1
  Ag  Ag27  1  0.636656  0.121115  0.121115  1
  Ag  Ag28  1  0.363344  0.878885  0.878885  1
  As  As29  1  0.500000  0.500000  0.500000  1
