# generated using pymatgen
data_Sc5N4O
_symmetry_space_group_name_H-M   'P 1'
_cell_length_a   5.51991253
_cell_length_b   5.51991273
_cell_length_c   5.51991170
_cell_angle_alpha   99.58202580
_cell_angle_beta   99.58203498
_cell_angle_gamma   131.84218427
_symmetry_Int_Tables_number   1
_chemical_formula_structural   Sc5N4O
_chemical_formula_sum   'Sc5 N4 O1'
_cell_volume   114.39510306
_cell_formula_units_Z   1
loop_
 _symmetry_equiv_pos_site_id
 _symmetry_equiv_pos_as_xyz
  1  'x, y, z'
loop_
 _atom_site_type_symbol
 _atom_site_label
 _atom_site_symmetry_multiplicity
 _atom_site_fract_x
 _atom_site_fract_y
 _atom_site_fract_z
 _atom_site_occupancy
  Sc  Sc0  1  0.694381  0.896086  0.590466  1
  Sc  Sc1  1  0.896086  0.305619  0.201704  1
  Sc  Sc2  1  0.103914  0.694381  0.798296  1
  Sc  Sc3  1  0.305619  0.103914  0.409534  1
  Sc  Sc4  1  0.500000  0.500000  0.000000  1
  N  N5  1  0.202123  0.400322  0.602444  1
  N  N6  1  0.400322  0.797877  0.198199  1
  N  N7  1  0.599678  0.202123  0.801801  1
  N  N8  1  0.797877  0.599678  0.397556  1
  O  O9  1  0.000000  0.000000  0.000000  1
