# generated using pymatgen
data_Yb3YP7N12
_symmetry_space_group_name_H-M   'P 1'
_cell_length_a   7.44155400
_cell_length_b   7.46219050
_cell_length_c   7.46219100
_cell_angle_alpha   109.52717213
_cell_angle_beta   109.41520821
_cell_angle_gamma   109.41521122
_symmetry_Int_Tables_number   1
_chemical_formula_structural   Yb3YP7N12
_chemical_formula_sum   'Yb3 Y1 P7 N12'
_cell_volume   319.20830767
_cell_formula_units_Z   1
loop_
 _symmetry_equiv_pos_site_id
 _symmetry_equiv_pos_as_xyz
  1  'x, y, z'
loop_
 _atom_site_type_symbol
 _atom_site_label
 _atom_site_symmetry_multiplicity
 _atom_site_fract_x
 _atom_site_fract_y
 _atom_site_fract_z
 _atom_site_occupancy
  Yb  Yb0  1  0.997880  0.000000  0.639335  1
  Yb  Yb1  1  0.997880  0.639335  0.000000  1
  Yb  Yb2  1  0.358545  0.360665  0.360665  1
  Y  Y3  1  0.640154  0.000000  0.000000  1
  P  P4  1  0.249531  0.748976  0.498362  1
  P  P5  1  0.751169  0.250613  0.501638  1
  P  P6  1  0.751169  0.501638  0.250613  1
  P  P7  1  0.249531  0.498362  0.748976  1
  P  P8  1  0.500555  0.749387  0.251024  1
  P  P9  1  0.500555  0.251024  0.749387  1
  P  P10  1  0.987912  0.000000  0.000000  1
  N  N11  1  0.701151  0.297508  0.297508  1
  N  N12  1  0.297610  0.698435  0.296977  1
  N  N13  1  0.307052  0.604656  0.604656  1
  N  N14  1  0.599175  0.598542  0.301565  1
  N  N15  1  0.403642  0.702492  0.000000  1
  N  N16  1  0.000634  0.703023  0.401458  1
  N  N17  1  0.599175  0.301565  0.598542  1
  N  N18  1  0.702397  0.000000  0.395344  1
  N  N19  1  0.403642  0.000000  0.702492  1
  N  N20  1  0.702397  0.395344  0.000000  1
  N  N21  1  0.297610  0.296977  0.698435  1
  N  N22  1  0.000634  0.401458  0.703023  1
