# generated using pymatgen
data_La12Mn2I17
_symmetry_space_group_name_H-M   'P 1'
_cell_length_a   9.98521642
_cell_length_b   12.14470239
_cell_length_c   12.22665055
_cell_angle_alpha   73.45887781
_cell_angle_beta   74.94045820
_cell_angle_gamma   66.49111902
_symmetry_Int_Tables_number   1
_chemical_formula_structural   La12Mn2I17
_chemical_formula_sum   'La12 Mn2 I17'
_cell_volume   1285.19463750
_cell_formula_units_Z   1
loop_
 _symmetry_equiv_pos_site_id
 _symmetry_equiv_pos_as_xyz
  1  'x, y, z'
loop_
 _atom_site_type_symbol
 _atom_site_label
 _atom_site_symmetry_multiplicity
 _atom_site_fract_x
 _atom_site_fract_y
 _atom_site_fract_z
 _atom_site_occupancy
  La  La0  1  0.451865  0.480785  0.326638  1
  La  La1  1  0.562208  0.669149  0.002786  1
  La  La2  1  0.284980  0.995970  0.093244  1
  La  La3  1  0.837482  0.282492  0.844946  1
  La  La4  1  0.409599  0.239394  0.725081  1
  La  La5  1  0.715020  0.004030  0.906756  1
  La  La6  1  0.548135  0.519215  0.673362  1
  La  La7  1  0.437792  0.330851  0.997214  1
  La  La8  1  0.590401  0.760606  0.274919  1
  La  La9  1  0.830123  0.186590  0.578682  1
  La  La10  1  0.169877  0.813410  0.421318  1
  La  La11  1  0.162518  0.717508  0.155054  1
  Mn  Mn12  1  0.354592  0.734637  0.207616  1
  Mn  Mn13  1  0.645408  0.265363  0.792384  1
  I  I14  1  0.056862  0.105727  0.318943  1
  I  I15  1  0.464005  0.944293  0.825787  1
  I  I16  1  0.428878  0.821378  0.529949  1
  I  I17  1  0.571122  0.178622  0.470051  1
  I  I18  1  0.853450  0.698028  0.048750  1
  I  I19  1  0.214350  0.419693  0.245938  1
  I  I20  1  0.688051  0.365557  0.105256  1
  I  I21  1  0.535995  0.055707  0.174213  1
  I  I22  1  0.744193  0.473969  0.413919  1
  I  I23  1  0.885987  0.785034  0.369445  1
  I  I24  1  0.943138  0.894273  0.681057  1
  I  I25  1  0.146550  0.301972  0.951250  1
  I  I26  1  0.311949  0.634443  0.894744  1
  I  I27  1  0.000000  0.000000  0.000000  1
  I  I28  1  0.114013  0.214966  0.630555  1
  I  I29  1  0.785650  0.580307  0.754062  1
  I  I30  1  0.255807  0.526031  0.586081  1
