# generated using pymatgen
data_Lu(Cu2P)2
_symmetry_space_group_name_H-M   'P 1'
_cell_length_a   7.18544100
_cell_length_b   7.18544100
_cell_length_c   3.76795300
_cell_angle_alpha   90.00000000
_cell_angle_beta   90.00000000
_cell_angle_gamma   90.00000000
_symmetry_Int_Tables_number   1
_chemical_formula_structural   Lu(Cu2P)2
_chemical_formula_sum   'Lu2 Cu8 P4'
_cell_volume   194.54153235
_cell_formula_units_Z   2
loop_
 _symmetry_equiv_pos_site_id
 _symmetry_equiv_pos_as_xyz
  1  'x, y, z'
loop_
 _atom_site_type_symbol
 _atom_site_label
 _atom_site_symmetry_multiplicity
 _atom_site_fract_x
 _atom_site_fract_y
 _atom_site_fract_z
 _atom_site_occupancy
  Lu  Lu0  1  0.500000  0.500000  0.000000  1
  Lu  Lu1  1  0.000000  0.000000  0.500000  1
  Cu  Cu2  1  0.165418  0.584793  0.500000  1
  Cu  Cu3  1  0.834582  0.415207  0.500000  1
  Cu  Cu4  1  0.334582  0.084793  0.000000  1
  Cu  Cu5  1  0.665418  0.915207  0.000000  1
  Cu  Cu6  1  0.584793  0.165418  0.500000  1
  Cu  Cu7  1  0.415207  0.834582  0.500000  1
  Cu  Cu8  1  0.084793  0.334582  0.000000  1
  Cu  Cu9  1  0.915207  0.665418  0.000000  1
  P  P10  1  0.712256  0.712256  0.500000  1
  P  P11  1  0.287744  0.287744  0.500000  1
  P  P12  1  0.787744  0.212256  0.000000  1
  P  P13  1  0.212256  0.787744  0.000000  1
