# generated using pymatgen
data_Ca4Tb3LuCd8
_symmetry_space_group_name_H-M   'P 1'
_cell_length_a   7.53085200
_cell_length_b   7.54405200
_cell_length_c   7.47101300
_cell_angle_alpha   90.00000000
_cell_angle_beta   90.00044888
_cell_angle_gamma   90.00000000
_symmetry_Int_Tables_number   1
_chemical_formula_structural   Ca4Tb3LuCd8
_chemical_formula_sum   'Ca4 Tb3 Lu1 Cd8'
_cell_volume   424.45170073
_cell_formula_units_Z   1
loop_
 _symmetry_equiv_pos_site_id
 _symmetry_equiv_pos_as_xyz
  1  'x, y, z'
loop_
 _atom_site_type_symbol
 _atom_site_label
 _atom_site_symmetry_multiplicity
 _atom_site_fract_x
 _atom_site_fract_y
 _atom_site_fract_z
 _atom_site_occupancy
  Ca  Ca0  1  0.749438  0.250000  0.000084  1
  Ca  Ca1  1  0.249449  0.750000  0.499904  1
  Ca  Ca2  1  0.750590  0.250000  0.500094  1
  Ca  Ca3  1  0.250574  0.750000  0.999916  1
  Tb  Tb4  1  0.250623  0.250000  0.000002  1
  Tb  Tb5  1  0.749357  0.750000  0.999998  1
  Tb  Tb6  1  0.750650  0.750000  0.499994  1
  Lu  Lu7  1  0.249323  0.250000  0.500010  1
  Cd  Cd8  1  0.000867  0.499339  0.249407  1
  Cd  Cd9  1  0.000867  0.000663  0.249407  1
  Cd  Cd10  1  0.499413  0.000788  0.251895  1
  Cd  Cd11  1  0.499413  0.499212  0.251895  1
  Cd  Cd12  1  0.499150  0.499389  0.748107  1
  Cd  Cd13  1  0.499150  0.000613  0.748107  1
  Cd  Cd14  1  0.000566  0.000822  0.750592  1
  Cd  Cd15  1  0.000566  0.499178  0.750592  1
