# generated using pymatgen
data_Pr2Ho2Al17SiRh6
_symmetry_space_group_name_H-M   'P 1'
_cell_length_a   7.58840899
_cell_length_b   7.58840001
_cell_length_c   9.51213900
_cell_angle_alpha   90.00000000
_cell_angle_beta   90.00000000
_cell_angle_gamma   119.34313574
_symmetry_Int_Tables_number   1
_chemical_formula_structural   Pr2Ho2Al17SiRh6
_chemical_formula_sum   'Pr2 Ho2 Al17 Si1 Rh6'
_cell_volume   477.47042187
_cell_formula_units_Z   1
loop_
 _symmetry_equiv_pos_site_id
 _symmetry_equiv_pos_as_xyz
  1  'x, y, z'
loop_
 _atom_site_type_symbol
 _atom_site_label
 _atom_site_symmetry_multiplicity
 _atom_site_fract_x
 _atom_site_fract_y
 _atom_site_fract_z
 _atom_site_occupancy
  Pr  Pr0  1  0.004729  0.329819  0.750000  1
  Pr  Pr1  1  0.329819  0.004728  0.750000  1
  Ho  Ho2  1  0.994371  0.677697  0.250000  1
  Ho  Ho3  1  0.677697  0.994371  0.250000  1
  Al  Al4  1  0.869905  0.869905  0.750000  1
  Al  Al5  1  0.000705  0.337833  0.081700  1
  Al  Al6  1  0.995817  0.665282  0.930404  1
  Al  Al7  1  0.995817  0.665282  0.569596  1
  Al  Al8  1  0.337832  0.000705  0.418300  1
  Al  Al9  1  0.000705  0.337833  0.418300  1
  Al  Al10  1  0.665283  0.995818  0.569596  1
  Al  Al11  1  0.665283  0.995818  0.930404  1
  Al  Al12  1  0.337832  0.000705  0.081700  1
  Al  Al13  1  0.333957  0.333957  0.545568  1
  Al  Al14  1  0.664059  0.664059  0.445657  1
  Al  Al15  1  0.664059  0.664059  0.054343  1
  Al  Al16  1  0.333957  0.333957  0.954432  1
  Al  Al17  1  0.337465  0.552305  0.250000  1
  Al  Al18  1  0.661678  0.454295  0.750000  1
  Al  Al19  1  0.552306  0.337466  0.250000  1
  Al  Al20  1  0.454296  0.661678  0.750000  1
  Si  Si21  1  0.129574  0.129574  0.250000  1
  Rh  Rh22  1  0.670175  0.326941  0.003258  1
  Rh  Rh23  1  0.326941  0.670174  0.003257  1
  Rh  Rh24  1  0.326941  0.670174  0.496743  1
  Rh  Rh25  1  0.670175  0.326941  0.496742  1
  Rh  Rh26  1  0.999309  0.999309  0.010352  1
  Rh  Rh27  1  0.999309  0.999309  0.489648  1
