# generated using pymatgen
data_Er4Ga6Pt7
_symmetry_space_group_name_H-M   'P 1'
_cell_length_a   7.34629595
_cell_length_b   7.34629569
_cell_length_c   7.34629500
_cell_angle_alpha   109.47122700
_cell_angle_beta   109.47122629
_cell_angle_gamma   109.47121568
_symmetry_Int_Tables_number   1
_chemical_formula_structural   Er4Ga6Pt7
_chemical_formula_sum   'Er4 Ga6 Pt7'
_cell_volume   305.19910821
_cell_formula_units_Z   1
loop_
 _symmetry_equiv_pos_site_id
 _symmetry_equiv_pos_as_xyz
  1  'x, y, z'
loop_
 _atom_site_type_symbol
 _atom_site_label
 _atom_site_symmetry_multiplicity
 _atom_site_fract_x
 _atom_site_fract_y
 _atom_site_fract_z
 _atom_site_occupancy
  Er  Er0  1  0.000000  0.000000  0.500000  1
  Er  Er1  1  0.000000  0.500000  0.000000  1
  Er  Er2  1  0.500000  0.000000  0.000000  1
  Er  Er3  1  0.500000  0.500000  0.500000  1
  Ga  Ga4  1  0.684838  0.684838  0.000000  1
  Ga  Ga5  1  0.315162  0.000000  0.315162  1
  Ga  Ga6  1  0.000000  0.315162  0.315162  1
  Ga  Ga7  1  0.315162  0.315162  0.000000  1
  Ga  Ga8  1  0.684838  0.000000  0.684838  1
  Ga  Ga9  1  0.000000  0.684838  0.684838  1
  Pt  Pt10  1  0.000000  0.000000  0.000000  1
  Pt  Pt11  1  0.750000  0.250000  0.500000  1
  Pt  Pt12  1  0.750000  0.500000  0.250000  1
  Pt  Pt13  1  0.500000  0.250000  0.750000  1
  Pt  Pt14  1  0.250000  0.500000  0.750000  1
  Pt  Pt15  1  0.250000  0.750000  0.500000  1
  Pt  Pt16  1  0.500000  0.750000  0.250000  1
