# generated using pymatgen
data_TbLu3Al16(ZnPd3)2
_symmetry_space_group_name_H-M   'P 1'
_cell_length_a   7.57576083
_cell_length_b   7.57739513
_cell_length_c   9.44427800
_cell_angle_alpha   90.00000000
_cell_angle_beta   90.00000000
_cell_angle_gamma   119.04881797
_symmetry_Int_Tables_number   1
_chemical_formula_structural   TbLu3Al16(ZnPd3)2
_chemical_formula_sum   'Tb1 Lu3 Al16 Zn2 Pd6'
_cell_volume   473.94603212
_cell_formula_units_Z   1
loop_
 _symmetry_equiv_pos_site_id
 _symmetry_equiv_pos_as_xyz
  1  'x, y, z'
loop_
 _atom_site_type_symbol
 _atom_site_label
 _atom_site_symmetry_multiplicity
 _atom_site_fract_x
 _atom_site_fract_y
 _atom_site_fract_z
 _atom_site_occupancy
  Tb  Tb0  1  0.993708  0.672391  0.250000  1
  Lu  Lu1  1  0.005452  0.325917  0.750000  1
  Lu  Lu2  1  0.672727  0.993749  0.250000  1
  Lu  Lu3  1  0.326681  0.006798  0.750000  1
  Al  Al4  1  0.001272  0.332044  0.078754  1
  Al  Al5  1  0.999138  0.666180  0.917364  1
  Al  Al6  1  0.999138  0.666180  0.582636  1
  Al  Al7  1  0.335067  0.002542  0.421362  1
  Al  Al8  1  0.001272  0.332044  0.421246  1
  Al  Al9  1  0.665903  0.999230  0.581209  1
  Al  Al10  1  0.665903  0.999230  0.918791  1
  Al  Al11  1  0.335067  0.002542  0.078638  1
  Al  Al12  1  0.331884  0.332103  0.558835  1
  Al  Al13  1  0.666935  0.668079  0.445188  1
  Al  Al14  1  0.666935  0.668079  0.054812  1
  Al  Al15  1  0.331884  0.332103  0.941165  1
  Al  Al16  1  0.340955  0.549053  0.250000  1
  Al  Al17  1  0.659225  0.449778  0.750000  1
  Al  Al18  1  0.548239  0.339876  0.250000  1
  Al  Al19  1  0.449499  0.660035  0.750000  1
  Zn  Zn20  1  0.141048  0.140767  0.250000  1
  Zn  Zn21  1  0.859795  0.860713  0.750000  1
  Pd  Pd22  1  0.673519  0.327013  0.999637  1
  Pd  Pd23  1  0.327357  0.673127  0.999873  1
  Pd  Pd24  1  0.327357  0.673127  0.500127  1
  Pd  Pd25  1  0.673519  0.327013  0.500363  1
  Pd  Pd26  1  0.000261  0.000143  0.999084  1
  Pd  Pd27  1  0.000261  0.000143  0.500916  1
