# generated using pymatgen
data_Tb4Ga18(RuRh)3
_symmetry_space_group_name_H-M   'P 1'
_cell_length_a   7.52574843
_cell_length_b   7.52575004
_cell_length_c   9.65734203
_cell_angle_alpha   90.02146639
_cell_angle_beta   90.02146418
_cell_angle_gamma   119.62939888
_symmetry_Int_Tables_number   1
_chemical_formula_structural   Tb4Ga18(RuRh)3
_chemical_formula_sum   'Tb4 Ga18 Ru3 Rh3'
_cell_volume   475.44180500
_cell_formula_units_Z   1
loop_
 _symmetry_equiv_pos_site_id
 _symmetry_equiv_pos_as_xyz
  1  'x, y, z'
loop_
 _atom_site_type_symbol
 _atom_site_label
 _atom_site_symmetry_multiplicity
 _atom_site_fract_x
 _atom_site_fract_y
 _atom_site_fract_z
 _atom_site_occupancy
  Tb  Tb0  1  0.997929  0.669501  0.249235  1
  Tb  Tb1  1  0.002692  0.330919  0.750522  1
  Tb  Tb2  1  0.669081  0.997308  0.249478  1
  Tb  Tb3  1  0.330499  0.002071  0.750765  1
  Ga  Ga4  1  0.335243  0.337592  0.562901  1
  Ga  Ga5  1  0.662408  0.664757  0.437099  1
  Ga  Ga6  1  0.663025  0.662863  0.060693  1
  Ga  Ga7  1  0.337137  0.336975  0.939307  1
  Ga  Ga8  1  0.337009  0.548167  0.249823  1
  Ga  Ga9  1  0.664271  0.454131  0.751212  1
  Ga  Ga10  1  0.545869  0.335729  0.248788  1
  Ga  Ga11  1  0.451833  0.662991  0.750177  1
  Ga  Ga12  1  0.003091  0.335868  0.076869  1
  Ga  Ga13  1  0.997432  0.663599  0.923888  1
  Ga  Ga14  1  0.998084  0.665138  0.577589  1
  Ga  Ga15  1  0.334862  0.001916  0.422411  1
  Ga  Ga16  1  0.004113  0.335925  0.422348  1
  Ga  Ga17  1  0.664075  0.995887  0.577652  1
  Ga  Ga18  1  0.664132  0.996909  0.923131  1
  Ga  Ga19  1  0.336401  0.002568  0.076112  1
  Ga  Ga20  1  0.128542  0.128047  0.249880  1
  Ga  Ga21  1  0.871953  0.871458  0.750120  1
  Ru  Ru22  1  0.673368  0.326632  0.000000  1
  Ru  Ru23  1  0.327135  0.672865  0.000000  1
  Ru  Ru24  1  0.326828  0.673172  0.500000  1
  Rh  Rh25  1  0.000210  0.999790  0.000000  1
  Rh  Rh26  1  0.000425  0.999575  0.500000  1
  Rh  Rh27  1  0.672354  0.327646  0.500000  1
