# generated using pymatgen
data_La3IrPd2Pb3
_symmetry_space_group_name_H-M   'P 1'
_cell_length_a   7.88160300
_cell_length_b   7.88160289
_cell_length_c   4.20433400
_cell_angle_alpha   90.00000000
_cell_angle_beta   90.00000000
_cell_angle_gamma   120.00000468
_symmetry_Int_Tables_number   1
_chemical_formula_structural   La3IrPd2Pb3
_chemical_formula_sum   'La3 Ir1 Pd2 Pb3'
_cell_volume   226.18141971
_cell_formula_units_Z   1
loop_
 _symmetry_equiv_pos_site_id
 _symmetry_equiv_pos_as_xyz
  1  'x, y, z'
loop_
 _atom_site_type_symbol
 _atom_site_label
 _atom_site_symmetry_multiplicity
 _atom_site_fract_x
 _atom_site_fract_y
 _atom_site_fract_z
 _atom_site_occupancy
  La  La0  1  0.419740  0.408546  0.500000  1
  La  La1  1  0.591454  0.011193  0.500000  1
  La  La2  1  0.988807  0.580260  0.500000  1
  Ir  Ir3  1  0.666667  0.333333  0.000000  1
  Pd  Pd4  1  0.333333  0.666667  0.000000  1
  Pd  Pd5  1  0.000000  0.000000  0.500000  1
  Pb  Pb6  1  0.743992  0.745752  0.000000  1
  Pb  Pb7  1  0.254248  0.998240  0.000000  1
  Pb  Pb8  1  0.001760  0.256008  0.000000  1
