# generated using pymatgen
data_LiSc7B24Ir3Rh
_symmetry_space_group_name_H-M   'P 1'
_cell_length_a   3.46577500
_cell_length_b   8.87210703
_cell_length_c   11.17851704
_cell_angle_alpha   89.97011742
_cell_angle_beta   90.00000000
_cell_angle_gamma   90.00000000
_symmetry_Int_Tables_number   1
_chemical_formula_structural   LiSc7B24Ir3Rh
_chemical_formula_sum   'Li1 Sc7 B24 Ir3 Rh1'
_cell_volume   343.72511924
_cell_formula_units_Z   1
loop_
 _symmetry_equiv_pos_site_id
 _symmetry_equiv_pos_as_xyz
  1  'x, y, z'
loop_
 _atom_site_type_symbol
 _atom_site_label
 _atom_site_symmetry_multiplicity
 _atom_site_fract_x
 _atom_site_fract_y
 _atom_site_fract_z
 _atom_site_occupancy
  Li  Li0  1  0.000000  0.944745  0.377312  1
  Sc  Sc1  1  0.000000  0.053716  0.619808  1
  Sc  Sc2  1  0.000000  0.556076  0.875303  1
  Sc  Sc3  1  0.000000  0.182656  0.914656  1
  Sc  Sc4  1  0.000000  0.817703  0.088391  1
  Sc  Sc5  1  0.000000  0.685459  0.583939  1
  Sc  Sc6  1  0.000000  0.314324  0.412864  1
  Sc  Sc7  1  0.000000  0.443766  0.126697  1
  B  B8  1  0.500000  0.369386  0.818873  1
  B  B9  1  0.500000  0.978391  0.215865  1
  B  B10  1  0.500000  0.556078  0.435388  1
  B  B11  1  0.500000  0.293080  0.237956  1
  B  B12  1  0.500000  0.204292  0.735301  1
  B  B13  1  0.500000  0.099839  0.470885  1
  B  B14  1  0.500000  0.796705  0.265444  1
  B  B15  1  0.500000  0.446295  0.562781  1
  B  B16  1  0.500000  0.246413  0.575085  1
  B  B17  1  0.500000  0.479621  0.287841  1
  B  B18  1  0.500000  0.705801  0.761789  1
  B  B19  1  0.500000  0.756719  0.420822  1
  B  B20  1  0.500000  0.521316  0.713028  1
  B  B21  1  0.500000  0.898555  0.525410  1
  B  B22  1  0.500000  0.053576  0.065349  1
  B  B23  1  0.500000  0.603633  0.028761  1
  B  B24  1  0.500000  0.747770  0.923042  1
  B  B25  1  0.500000  0.020713  0.785106  1
  B  B26  1  0.500000  0.396422  0.972456  1
  B  B27  1  0.500000  0.946359  0.936933  1
  B  B28  1  0.500000  0.631077  0.182832  1
  B  B29  1  0.500000  0.252182  0.079066  1
  B  B30  1  0.500000  0.868943  0.678140  1
  B  B31  1  0.500000  0.126777  0.319934  1
  Ir  Ir32  1  0.000000  0.136881  0.180720  1
  Ir  Ir33  1  0.000000  0.360692  0.680799  1
  Ir  Ir34  1  0.000000  0.862019  0.821991  1
  Rh  Rh35  1  0.000000  0.642013  0.319432  1
