# generated using pymatgen
data_Dy2Lu3Ga4
_symmetry_space_group_name_H-M   'P 1'
_cell_length_a   7.41112400
_cell_length_b   7.76605700
_cell_length_c   14.97679600
_cell_angle_alpha   90.00000000
_cell_angle_beta   90.00000000
_cell_angle_gamma   90.00000000
_symmetry_Int_Tables_number   1
_chemical_formula_structural   Dy2Lu3Ga4
_chemical_formula_sum   'Dy8 Lu12 Ga16'
_cell_volume   861.99266015
_cell_formula_units_Z   4
loop_
 _symmetry_equiv_pos_site_id
 _symmetry_equiv_pos_as_xyz
  1  'x, y, z'
loop_
 _atom_site_type_symbol
 _atom_site_label
 _atom_site_symmetry_multiplicity
 _atom_site_fract_x
 _atom_site_fract_y
 _atom_site_fract_z
 _atom_site_occupancy
  Dy  Dy0  1  0.013208  0.180692  0.095145  1
  Dy  Dy1  1  0.986792  0.819308  0.904855  1
  Dy  Dy2  1  0.486792  0.680692  0.904855  1
  Dy  Dy3  1  0.986792  0.819308  0.595145  1
  Dy  Dy4  1  0.513208  0.319308  0.095145  1
  Dy  Dy5  1  0.013208  0.180692  0.404855  1
  Dy  Dy6  1  0.513208  0.319308  0.404855  1
  Dy  Dy7  1  0.486792  0.680692  0.595145  1
  Lu  Lu8  1  0.164450  0.508863  0.750000  1
  Lu  Lu9  1  0.835550  0.491137  0.250000  1
  Lu  Lu10  1  0.335550  0.008863  0.250000  1
  Lu  Lu11  1  0.664450  0.991137  0.750000  1
  Lu  Lu12  1  0.328286  0.174463  0.622169  1
  Lu  Lu13  1  0.671714  0.825537  0.377831  1
  Lu  Lu14  1  0.171714  0.674463  0.377831  1
  Lu  Lu15  1  0.671714  0.825537  0.122169  1
  Lu  Lu16  1  0.828286  0.325537  0.622169  1
  Lu  Lu17  1  0.328286  0.174463  0.877831  1
  Lu  Lu18  1  0.828286  0.325537  0.877831  1
  Lu  Lu19  1  0.171714  0.674463  0.122169  1
  Ga  Ga20  1  0.033768  0.112235  0.750000  1
  Ga  Ga21  1  0.966232  0.887765  0.250000  1
  Ga  Ga22  1  0.466232  0.612235  0.250000  1
  Ga  Ga23  1  0.533768  0.387765  0.750000  1
  Ga  Ga24  1  0.279533  0.871507  0.750000  1
  Ga  Ga25  1  0.720467  0.128493  0.250000  1
  Ga  Ga26  1  0.220467  0.371507  0.250000  1
  Ga  Ga27  1  0.779533  0.628493  0.750000  1
  Ga  Ga28  1  0.160484  0.470035  0.539917  1
  Ga  Ga29  1  0.839516  0.529965  0.460083  1
  Ga  Ga30  1  0.339516  0.970035  0.460083  1
  Ga  Ga31  1  0.839516  0.529965  0.039917  1
  Ga  Ga32  1  0.660484  0.029965  0.539917  1
  Ga  Ga33  1  0.160484  0.470035  0.960083  1
  Ga  Ga34  1  0.660484  0.029965  0.960083  1
  Ga  Ga35  1  0.339516  0.970035  0.039917  1
