# generated using pymatgen
data_TmAs4(RuRh)3
_symmetry_space_group_name_H-M   'P 1'
_cell_length_a   7.19182200
_cell_length_b   7.19182239
_cell_length_c   3.84546800
_cell_angle_alpha   90.00000000
_cell_angle_beta   90.00000000
_cell_angle_gamma   119.99999821
_symmetry_Int_Tables_number   1
_chemical_formula_structural   TmAs4(RuRh)3
_chemical_formula_sum   'Tm1 As4 Ru3 Rh3'
_cell_volume   172.24940268
_cell_formula_units_Z   1
loop_
 _symmetry_equiv_pos_site_id
 _symmetry_equiv_pos_as_xyz
  1  'x, y, z'
loop_
 _atom_site_type_symbol
 _atom_site_label
 _atom_site_symmetry_multiplicity
 _atom_site_fract_x
 _atom_site_fract_y
 _atom_site_fract_z
 _atom_site_occupancy
  Tm  Tm0  1  0.000000  0.000000  0.000000  1
  As  As1  1  0.806456  0.612911  0.500000  1
  As  As2  1  0.333333  0.666667  0.000000  1
  As  As3  1  0.387089  0.193544  0.500000  1
  As  As4  1  0.806456  0.193544  0.500000  1
  Ru  Ru5  1  0.533951  0.067903  0.000000  1
  Ru  Ru6  1  0.533951  0.466049  0.000000  1
  Ru  Ru7  1  0.932097  0.466049  0.000000  1
  Rh  Rh8  1  0.608600  0.804300  0.500000  1
  Rh  Rh9  1  0.195700  0.391400  0.500000  1
  Rh  Rh10  1  0.195700  0.804300  0.500000  1
