# generated using pymatgen
data_LiH2N7
_symmetry_space_group_name_H-M   'P 1'
_cell_length_a   3.71299605
_cell_length_b   6.51509390
_cell_length_c   9.33736591
_cell_angle_alpha   93.81483828
_cell_angle_beta   82.28944338
_cell_angle_gamma   116.65567081
_symmetry_Int_Tables_number   1
_chemical_formula_structural   LiH2N7
_chemical_formula_sum   'Li1 H2 N7'
_cell_volume   200.03903513
_cell_formula_units_Z   1
loop_
 _symmetry_equiv_pos_site_id
 _symmetry_equiv_pos_as_xyz
  1  'x, y, z'
loop_
 _atom_site_type_symbol
 _atom_site_label
 _atom_site_symmetry_multiplicity
 _atom_site_fract_x
 _atom_site_fract_y
 _atom_site_fract_z
 _atom_site_occupancy
  Li  Li0  1  0.404519  0.621712  0.576100  1
  H  H1  1  0.830274  0.476084  0.447837  1
  H  H2  1  0.688983  0.357033  0.602822  1
  N  N3  1  0.344300  0.000571  0.779720  1
  N  N4  1  0.771694  0.926829  0.410742  1
  N  N5  1  0.961607  0.019376  0.311351  1
  N  N6  1  0.829601  0.517045  0.556362  1
  N  N7  1  0.220077  0.054781  0.882432  1
  N  N8  1  0.144508  0.532141  0.044602  1
  N  N9  1  0.978008  0.494729  0.155433  1
