# generated using pymatgen
data_NdSc(Tc2P)4
_symmetry_space_group_name_H-M   'P 1'
_cell_length_a   7.40668323
_cell_length_b   7.40668323
_cell_length_c   3.95391400
_cell_angle_alpha   90.00000000
_cell_angle_beta   90.00000000
_cell_angle_gamma   91.08536399
_symmetry_Int_Tables_number   1
_chemical_formula_structural   NdSc(Tc2P)4
_chemical_formula_sum   'Nd1 Sc1 Tc8 P4'
_cell_volume   216.86867907
_cell_formula_units_Z   1
loop_
 _symmetry_equiv_pos_site_id
 _symmetry_equiv_pos_as_xyz
  1  'x, y, z'
loop_
 _atom_site_type_symbol
 _atom_site_label
 _atom_site_symmetry_multiplicity
 _atom_site_fract_x
 _atom_site_fract_y
 _atom_site_fract_z
 _atom_site_occupancy
  Nd  Nd0  1  0.000000  0.000000  0.500000  1
  Sc  Sc1  1  0.500000  0.500000  0.000000  1
  Tc  Tc2  1  0.342996  0.086195  0.000000  1
  Tc  Tc3  1  0.580340  0.164318  0.500000  1
  Tc  Tc4  1  0.419660  0.835682  0.500000  1
  Tc  Tc5  1  0.657004  0.913805  0.000000  1
  Tc  Tc6  1  0.164318  0.580340  0.500000  1
  Tc  Tc7  1  0.835682  0.419660  0.500000  1
  Tc  Tc8  1  0.086195  0.342996  0.000000  1
  Tc  Tc9  1  0.913805  0.657004  0.000000  1
  P  P10  1  0.783744  0.216256  0.000000  1
  P  P11  1  0.705407  0.705407  0.500000  1
  P  P12  1  0.294593  0.294593  0.500000  1
  P  P13  1  0.216256  0.783744  0.000000  1
