# generated using pymatgen
data_TbNd6FeBr12
_symmetry_space_group_name_H-M   'P 1'
_cell_length_a   9.44761370
_cell_length_b   9.44761297
_cell_length_c   9.44761298
_cell_angle_alpha   106.96355158
_cell_angle_beta   106.96355443
_cell_angle_gamma   106.96355159
_symmetry_Int_Tables_number   1
_chemical_formula_structural   TbNd6FeBr12
_chemical_formula_sum   'Tb1 Nd6 Fe1 Br12'
_cell_volume   702.97985885
_cell_formula_units_Z   1
loop_
 _symmetry_equiv_pos_site_id
 _symmetry_equiv_pos_as_xyz
  1  'x, y, z'
loop_
 _atom_site_type_symbol
 _atom_site_label
 _atom_site_symmetry_multiplicity
 _atom_site_fract_x
 _atom_site_fract_y
 _atom_site_fract_z
 _atom_site_occupancy
  Tb  Tb0  1  0.500000  0.500000  0.500000  1
  Nd  Nd1  1  0.900365  0.977512  0.692443  1
  Nd  Nd2  1  0.977512  0.692443  0.900365  1
  Nd  Nd3  1  0.692443  0.900365  0.977512  1
  Nd  Nd4  1  0.099635  0.022488  0.307557  1
  Nd  Nd5  1  0.022488  0.307557  0.099635  1
  Nd  Nd6  1  0.307557  0.099635  0.022488  1
  Fe  Fe7  1  0.000000  0.000000  0.000000  1
  Br  Br8  1  0.534006  0.825779  0.610368  1
  Br  Br9  1  0.825779  0.610368  0.534006  1
  Br  Br10  1  0.610368  0.534006  0.825779  1
  Br  Br11  1  0.465994  0.174221  0.389632  1
  Br  Br12  1  0.174221  0.389632  0.465994  1
  Br  Br13  1  0.389632  0.465994  0.174221  1
  Br  Br14  1  0.682018  0.224639  0.071037  1
  Br  Br15  1  0.224639  0.071037  0.682018  1
  Br  Br16  1  0.071037  0.682018  0.224639  1
  Br  Br17  1  0.317982  0.775361  0.928963  1
  Br  Br18  1  0.775361  0.928963  0.317982  1
  Br  Br19  1  0.928963  0.317982  0.775361  1
