# generated using pymatgen
data_NaLa(Si3O7)2
_symmetry_space_group_name_H-M   'P 1'
_cell_length_a   7.77452844
_cell_length_b   13.27064076
_cell_length_c   13.27064200
_cell_angle_alpha   72.20543492
_cell_angle_beta   72.96702240
_cell_angle_gamma   72.96701514
_symmetry_Int_Tables_number   1
_chemical_formula_structural   NaLa(Si3O7)2
_chemical_formula_sum   'Na4 La4 Si24 O56'
_cell_volume   1214.97507511
_cell_formula_units_Z   4
loop_
 _symmetry_equiv_pos_site_id
 _symmetry_equiv_pos_as_xyz
  1  'x, y, z'
loop_
 _atom_site_type_symbol
 _atom_site_label
 _atom_site_symmetry_multiplicity
 _atom_site_fract_x
 _atom_site_fract_y
 _atom_site_fract_z
 _atom_site_occupancy
  Na  Na0  1  0.250000  0.750000  0.750000  1
  Na  Na1  1  0.000000  0.500000  0.500000  1
  Na  Na2  1  0.750000  0.250000  0.250000  1
  Na  Na3  1  0.500000  0.000000  0.000000  1
  La  La4  1  0.750000  0.022473  0.477527  1
  La  La5  1  0.250000  0.522473  0.977527  1
  La  La6  1  0.250000  0.977527  0.522473  1
  La  La7  1  0.750000  0.477527  0.022473  1
  Si  Si8  1  0.296411  0.472824  0.234323  1
  Si  Si9  1  0.503557  0.027176  0.265677  1
  Si  Si10  1  0.731711  0.333485  0.666515  1
  Si  Si11  1  0.003557  0.765677  0.527176  1
  Si  Si12  1  0.677279  0.633885  0.366115  1
  Si  Si13  1  0.383892  0.276672  0.431757  1
  Si  Si14  1  0.796411  0.734323  0.972824  1
  Si  Si15  1  0.177279  0.866115  0.133885  1
  Si  Si16  1  0.592321  0.223328  0.068243  1
  Si  Si17  1  0.496443  0.972824  0.734323  1
  Si  Si18  1  0.407679  0.776672  0.931757  1
  Si  Si19  1  0.231711  0.166515  0.833485  1
  Si  Si20  1  0.116108  0.068243  0.223328  1
  Si  Si21  1  0.768289  0.833485  0.166515  1
  Si  Si22  1  0.203589  0.265677  0.027176  1
  Si  Si23  1  0.092321  0.568243  0.723328  1
  Si  Si24  1  0.703589  0.527176  0.765677  1
  Si  Si25  1  0.268289  0.666515  0.333485  1
  Si  Si26  1  0.883892  0.931757  0.776672  1
  Si  Si27  1  0.822721  0.133885  0.866115  1
  Si  Si28  1  0.616108  0.723328  0.568243  1
  Si  Si29  1  0.322721  0.366115  0.633885  1
  Si  Si30  1  0.907679  0.431757  0.276672  1
  Si  Si31  1  0.996443  0.234323  0.472824  1
  O  O32  1  0.050654  0.882612  0.492177  1
  O  O33  1  0.074558  0.382612  0.992177  1
  O  O34  1  0.684129  0.142188  0.983514  1
  O  O35  1  0.279163  0.703119  0.933347  1
  O  O36  1  0.454569  0.856515  0.809984  1
  O  O37  1  0.731514  0.810660  0.061438  1
  O  O38  1  0.415629  0.796881  0.566653  1
  O  O39  1  0.915629  0.066653  0.296881  1
  O  O40  1  0.257555  0.770040  0.229960  1
  O  O41  1  0.690170  0.642188  0.483514  1
  O  O42  1  0.896387  0.310660  0.561438  1
  O  O43  1  0.268486  0.189340  0.938562  1
  O  O44  1  0.574558  0.492177  0.882612  1
  O  O45  1  0.550654  0.992177  0.382612  1
  O  O46  1  0.315871  0.857812  0.016486  1
  O  O47  1  0.396387  0.061438  0.810660  1
  O  O48  1  0.031056  0.137686  0.862314  1
  O  O49  1  0.222380  0.206536  0.464004  1
  O  O50  1  0.103613  0.689340  0.438562  1
  O  O51  1  0.531056  0.362314  0.637686  1
  O  O52  1  0.949346  0.117388  0.507823  1
  O  O53  1  0.045431  0.690016  0.643485  1
  O  O54  1  0.925442  0.617388  0.007823  1
  O  O55  1  0.184129  0.483514  0.642188  1
  O  O56  1  0.584371  0.203119  0.433347  1
  O  O57  1  0.084371  0.933347  0.703119  1
  O  O58  1  0.190170  0.983514  0.142188  1
  O  O59  1  0.378933  0.356515  0.309984  1
  O  O60  1  0.231514  0.561438  0.310660  1
  O  O61  1  0.757555  0.729960  0.270040  1
  O  O62  1  0.449346  0.007823  0.617388  1
  O  O63  1  0.878933  0.809984  0.856515  1
  O  O64  1  0.392921  0.293464  0.035996  1
  O  O65  1  0.968944  0.862314  0.137686  1
  O  O66  1  0.742445  0.229960  0.770040  1
  O  O67  1  0.720837  0.296881  0.066653  1
  O  O68  1  0.809830  0.016486  0.857812  1
  O  O69  1  0.220837  0.566653  0.796881  1
  O  O70  1  0.121067  0.190016  0.143485  1
  O  O71  1  0.722380  0.964004  0.706536  1
  O  O72  1  0.277620  0.035996  0.293464  1
  O  O73  1  0.621067  0.643485  0.690016  1
  O  O74  1  0.607079  0.706536  0.964004  1
  O  O75  1  0.779163  0.433347  0.203119  1
  O  O76  1  0.892921  0.535996  0.793464  1
  O  O77  1  0.815871  0.516486  0.357812  1
  O  O78  1  0.242445  0.270040  0.729960  1
  O  O79  1  0.425442  0.507823  0.117388  1
  O  O80  1  0.954569  0.309984  0.356515  1
  O  O81  1  0.107079  0.464004  0.206536  1
  O  O82  1  0.777620  0.793464  0.535996  1
  O  O83  1  0.309830  0.357812  0.516486  1
  O  O84  1  0.545431  0.143485  0.190016  1
  O  O85  1  0.468944  0.637686  0.362314  1
  O  O86  1  0.768486  0.438562  0.689340  1
  O  O87  1  0.603613  0.938562  0.189340  1
