# generated using pymatgen
data_BaSrSmCuO5
_symmetry_space_group_name_H-M   'P 1'
_cell_length_a   6.70255100
_cell_length_b   6.69546700
_cell_length_c   5.74928900
_cell_angle_alpha   90.00000000
_cell_angle_beta   90.00000000
_cell_angle_gamma   90.00000000
_symmetry_Int_Tables_number   1
_chemical_formula_structural   BaSrSmCuO5
_chemical_formula_sum   'Ba2 Sr2 Sm2 Cu2 O10'
_cell_volume   258.00916962
_cell_formula_units_Z   2
loop_
 _symmetry_equiv_pos_site_id
 _symmetry_equiv_pos_as_xyz
  1  'x, y, z'
loop_
 _atom_site_type_symbol
 _atom_site_label
 _atom_site_symmetry_multiplicity
 _atom_site_fract_x
 _atom_site_fract_y
 _atom_site_fract_z
 _atom_site_occupancy
  Ba  Ba0  1  0.998477  0.005888  0.000000  1
  Ba  Ba1  1  0.498477  0.494112  0.000000  1
  Sr  Sr2  1  0.324110  0.174566  0.500001  1
  Sr  Sr3  1  0.824110  0.325434  0.500001  1
  Sm  Sm4  1  0.171699  0.674793  0.500001  1
  Sm  Sm5  1  0.671699  0.825207  0.500001  1
  Cu  Cu6  1  0.499284  0.987567  0.000000  1
  Cu  Cu7  1  0.999284  0.512433  0.000000  1
  O  O8  1  0.638037  0.117146  0.229138  1
  O  O9  1  0.138037  0.382854  0.229138  1
  O  O10  1  0.866088  0.648433  0.231560  1
  O  O11  1  0.366087  0.851568  0.231560  1
  O  O12  1  0.998181  0.981565  0.500001  1
  O  O13  1  0.498181  0.518435  0.500001  1
  O  O14  1  0.638037  0.117146  0.770862  1
  O  O15  1  0.138037  0.382854  0.770862  1
  O  O16  1  0.866088  0.648433  0.768440  1
  O  O17  1  0.366087  0.851568  0.768440  1
