# generated using pymatgen
data_Pd(RuO3)2
_symmetry_space_group_name_H-M   'P 1'
_cell_length_a   4.58959700
_cell_length_b   4.58959700
_cell_length_c   9.43931900
_cell_angle_alpha   90.00000000
_cell_angle_beta   90.00000000
_cell_angle_gamma   90.00000000
_symmetry_Int_Tables_number   1
_chemical_formula_structural   Pd(RuO3)2
_chemical_formula_sum   'Pd2 Ru4 O12'
_cell_volume   198.83359702
_cell_formula_units_Z   2
loop_
 _symmetry_equiv_pos_site_id
 _symmetry_equiv_pos_as_xyz
  1  'x, y, z'
loop_
 _atom_site_type_symbol
 _atom_site_label
 _atom_site_symmetry_multiplicity
 _atom_site_fract_x
 _atom_site_fract_y
 _atom_site_fract_z
 _atom_site_occupancy
  Pd  Pd0  1  0.000000  0.000000  0.000000  1
  Pd  Pd1  1  0.500000  0.500000  0.500000  1
  Ru  Ru2  1  0.500000  0.500000  0.833673  1
  Ru  Ru3  1  0.000000  0.000000  0.333673  1
  Ru  Ru4  1  0.500000  0.500000  0.166327  1
  Ru  Ru5  1  0.000000  0.000000  0.666327  1
  O  O6  1  0.701879  0.701879  0.673319  1
  O  O7  1  0.298121  0.298121  0.673319  1
  O  O8  1  0.701879  0.701879  0.326681  1
  O  O9  1  0.201879  0.798121  0.173319  1
  O  O10  1  0.798121  0.201879  0.173319  1
  O  O11  1  0.798121  0.201879  0.826681  1
  O  O12  1  0.314231  0.314231  0.000000  1
  O  O13  1  0.185769  0.814231  0.500000  1
  O  O14  1  0.814231  0.185769  0.500000  1
  O  O15  1  0.685769  0.685769  0.000000  1
  O  O16  1  0.298121  0.298121  0.326681  1
  O  O17  1  0.201879  0.798121  0.826681  1
