# generated using pymatgen
data_La12TcIrI17
_symmetry_space_group_name_H-M   'P 1'
_cell_length_a   10.14541711
_cell_length_b   12.16514026
_cell_length_c   12.20589500
_cell_angle_alpha   93.41019429
_cell_angle_beta   104.81636334
_cell_angle_gamma   114.36338719
_symmetry_Int_Tables_number   1
_chemical_formula_structural   La12TcIrI17
_chemical_formula_sum   'La12 Tc1 Ir1 I17'
_cell_volume   1303.18797694
_cell_formula_units_Z   1
loop_
 _symmetry_equiv_pos_site_id
 _symmetry_equiv_pos_as_xyz
  1  'x, y, z'
loop_
 _atom_site_type_symbol
 _atom_site_label
 _atom_site_symmetry_multiplicity
 _atom_site_fract_x
 _atom_site_fract_y
 _atom_site_fract_z
 _atom_site_occupancy
  La  La0  1  0.059065  0.514235  0.323276  1
  La  La1  1  0.985959  0.809430  0.579496  1
  La  La2  1  0.639533  0.239578  0.285417  1
  La  La3  1  0.014782  0.189325  0.422019  1
  La  La4  1  0.225520  0.669562  0.993176  1
  La  La5  1  0.265506  0.996369  0.895907  1
  La  La6  1  0.354045  0.759676  0.716478  1
  La  La7  1  0.937319  0.480226  0.674400  1
  La  La8  1  0.737942  0.009831  0.105703  1
  La  La9  1  0.156523  0.288218  0.148236  1
  La  La10  1  0.774361  0.330687  0.007220  1
  La  La11  1  0.850944  0.713787  0.850288  1
  Tc  Tc12  1  0.105013  0.738647  0.787632  1
  Ir  Ir13  1  0.896314  0.261127  0.214954  1
  I  I14  1  0.781836  0.528032  0.417222  1
  I  I15  1  0.637448  0.416836  0.758734  1
  I  I16  1  0.842964  0.893626  0.324620  1
  I  I17  1  0.328748  0.210642  0.370039  1
  I  I18  1  0.156815  0.107218  0.673133  1
  I  I19  1  0.588844  0.052965  0.841265  1
  I  I20  1  0.753005  0.178597  0.538504  1
  I  I21  1  0.551710  0.709037  0.955602  1
  I  I22  1  0.363026  0.582827  0.242562  1
  I  I23  1  0.217263  0.471376  0.582346  1
  I  I24  1  0.054485  0.366181  0.896049  1
  I  I25  1  0.449868  0.297682  0.047157  1
  I  I26  1  0.999692  0.999854  0.999770  1
  I  I27  1  0.243872  0.815796  0.459256  1
  I  I28  1  0.411680  0.947638  0.157909  1
  I  I29  1  0.672342  0.787320  0.628640  1
  I  I30  1  0.943573  0.633676  0.102995  1
