# generated using pymatgen
data_LiEr12Th4In3Co4
_symmetry_space_group_name_H-M   'P 1'
_cell_length_a   9.56648059
_cell_length_b   9.55341348
_cell_length_c   9.55341300
_cell_angle_alpha   60.00000511
_cell_angle_beta   60.04517931
_cell_angle_gamma   60.04517988
_symmetry_Int_Tables_number   1
_chemical_formula_structural   LiEr12Th4In3Co4
_chemical_formula_sum   'Li1 Er12 Th4 In3 Co4'
_cell_volume   617.80380525
_cell_formula_units_Z   1
loop_
 _symmetry_equiv_pos_site_id
 _symmetry_equiv_pos_as_xyz
  1  'x, y, z'
loop_
 _atom_site_type_symbol
 _atom_site_label
 _atom_site_symmetry_multiplicity
 _atom_site_fract_x
 _atom_site_fract_y
 _atom_site_fract_z
 _atom_site_occupancy
  Li  Li0  1  0.525679  0.824774  0.824774  1
  Er  Er1  1  0.062529  0.437041  0.437041  1
  Er  Er2  1  0.434088  0.065040  0.065040  1
  Er  Er3  1  0.434088  0.065040  0.435834  1
  Er  Er4  1  0.062529  0.437041  0.063390  1
  Er  Er5  1  0.434088  0.435834  0.065040  1
  Er  Er6  1  0.062529  0.063390  0.437041  1
  Er  Er7  1  0.185725  0.815635  0.815635  1
  Er  Er8  1  0.815630  0.184533  0.184533  1
  Er  Er9  1  0.815630  0.184533  0.815305  1
  Er  Er10  1  0.185725  0.815635  0.183004  1
  Er  Er11  1  0.815630  0.815305  0.184533  1
  Er  Er12  1  0.185725  0.183004  0.815635  1
  Th  Th13  1  0.593743  0.595845  0.595845  1
  Th  Th14  1  0.593743  0.595845  0.214568  1
  Th  Th15  1  0.593743  0.214568  0.595845  1
  Th  Th16  1  0.213984  0.595339  0.595339  1
  In  In17  1  0.831056  0.833640  0.833640  1
  In  In18  1  0.831056  0.833640  0.501666  1
  In  In19  1  0.831056  0.501666  0.833640  1
  Co  Co20  1  0.392470  0.394247  0.394247  1
  Co  Co21  1  0.392470  0.394247  0.819035  1
  Co  Co22  1  0.392470  0.819035  0.394247  1
  Co  Co23  1  0.814618  0.395127  0.395127  1
