# generated using pymatgen
data_TiCu4P4PbO17
_symmetry_space_group_name_H-M   'P 1'
_cell_length_a   9.64217100
_cell_length_b   9.64217100
_cell_length_c   7.15048800
_cell_angle_alpha   90.00000000
_cell_angle_beta   90.00000000
_cell_angle_gamma   90.00000000
_symmetry_Int_Tables_number   1
_chemical_formula_structural   TiCu4P4PbO17
_chemical_formula_sum   'Ti2 Cu8 P8 Pb2 O34'
_cell_volume   664.79132046
_cell_formula_units_Z   2
loop_
 _symmetry_equiv_pos_site_id
 _symmetry_equiv_pos_as_xyz
  1  'x, y, z'
loop_
 _atom_site_type_symbol
 _atom_site_label
 _atom_site_symmetry_multiplicity
 _atom_site_fract_x
 _atom_site_fract_y
 _atom_site_fract_z
 _atom_site_occupancy
  Ti  Ti0  1  0.000000  0.500000  0.981623  1
  Ti  Ti1  1  0.500000  0.000000  0.018377  1
  Cu  Cu2  1  0.767286  0.519398  0.399948  1
  Cu  Cu3  1  0.232714  0.480602  0.399948  1
  Cu  Cu4  1  0.732714  0.019398  0.600052  1
  Cu  Cu5  1  0.267286  0.980602  0.600052  1
  Cu  Cu6  1  0.519398  0.767286  0.600052  1
  Cu  Cu7  1  0.480602  0.232714  0.600052  1
  Cu  Cu8  1  0.019398  0.732714  0.399948  1
  Cu  Cu9  1  0.980602  0.267286  0.399948  1
  P  P10  1  0.773767  0.315626  0.742308  1
  P  P11  1  0.226233  0.684374  0.742308  1
  P  P12  1  0.726233  0.815626  0.257692  1
  P  P13  1  0.273767  0.184374  0.257692  1
  P  P14  1  0.315626  0.773767  0.257692  1
  P  P15  1  0.684374  0.226233  0.257692  1
  P  P16  1  0.815626  0.726233  0.742308  1
  P  P17  1  0.184374  0.273767  0.742308  1
  Pb  Pb18  1  0.500000  0.500000  0.000000  1
  Pb  Pb19  1  0.000000  0.000000  0.000000  1
  O  O20  1  0.841964  0.368703  0.553967  1
  O  O21  1  0.158036  0.631297  0.553967  1
  O  O22  1  0.658036  0.868703  0.446033  1
  O  O23  1  0.341964  0.131297  0.446033  1
  O  O24  1  0.368703  0.841964  0.446033  1
  O  O25  1  0.631297  0.158036  0.446033  1
  O  O26  1  0.868703  0.658036  0.553967  1
  O  O27  1  0.131297  0.341964  0.553967  1
  O  O28  1  0.615203  0.345353  0.736224  1
  O  O29  1  0.384797  0.654647  0.736224  1
  O  O30  1  0.884797  0.845353  0.263776  1
  O  O31  1  0.115203  0.154647  0.263776  1
  O  O32  1  0.345353  0.615203  0.263776  1
  O  O33  1  0.654647  0.384797  0.263776  1
  O  O34  1  0.845353  0.884797  0.736224  1
  O  O35  1  0.154647  0.115203  0.736224  1
  O  O36  1  0.829374  0.401020  0.907838  1
  O  O37  1  0.170626  0.598980  0.907838  1
  O  O38  1  0.670626  0.901020  0.092162  1
  O  O39  1  0.329374  0.098980  0.092162  1
  O  O40  1  0.401020  0.829374  0.092162  1
  O  O41  1  0.598980  0.170626  0.092162  1
  O  O42  1  0.901020  0.670626  0.907838  1
  O  O43  1  0.098980  0.329374  0.907838  1
  O  O44  1  0.000000  0.500000  0.221057  1
  O  O45  1  0.500000  0.000000  0.778943  1
  O  O46  1  0.813167  0.160863  0.762703  1
  O  O47  1  0.186833  0.839137  0.762703  1
  O  O48  1  0.686833  0.660863  0.237297  1
  O  O49  1  0.313167  0.339137  0.237297  1
  O  O50  1  0.160863  0.813167  0.237297  1
  O  O51  1  0.839137  0.186833  0.237297  1
  O  O52  1  0.660863  0.686833  0.762703  1
  O  O53  1  0.339137  0.313167  0.762703  1
