# generated using pymatgen
data_Yb2Ho2B16Os3Ru
_symmetry_space_group_name_H-M   'P 1'
_cell_length_a   3.54488300
_cell_length_b   5.95633768
_cell_length_c   11.51457080
_cell_angle_alpha   89.87016515
_cell_angle_beta   90.00000000
_cell_angle_gamma   90.00000000
_symmetry_Int_Tables_number   1
_chemical_formula_structural   Yb2Ho2B16Os3Ru
_chemical_formula_sum   'Yb2 Ho2 B16 Os3 Ru1'
_cell_volume   243.12401318
_cell_formula_units_Z   1
loop_
 _symmetry_equiv_pos_site_id
 _symmetry_equiv_pos_as_xyz
  1  'x, y, z'
loop_
 _atom_site_type_symbol
 _atom_site_label
 _atom_site_symmetry_multiplicity
 _atom_site_fract_x
 _atom_site_fract_y
 _atom_site_fract_z
 _atom_site_occupancy
  Yb  Yb0  1  0.500000  0.129244  0.350479  1
  Yb  Yb1  1  0.500000  0.870736  0.649779  1
  Ho  Ho2  1  0.500000  0.628899  0.150353  1
  Ho  Ho3  1  0.500000  0.371308  0.849797  1
  B  B4  1  0.000000  0.974902  0.192032  1
  B  B5  1  0.000000  0.025014  0.807844  1
  B  B6  1  0.000000  0.475456  0.308720  1
  B  B7  1  0.000000  0.525051  0.691366  1
  B  B8  1  0.000000  0.788955  0.315252  1
  B  B9  1  0.000000  0.210888  0.684691  1
  B  B10  1  0.000000  0.287443  0.185945  1
  B  B11  1  0.000000  0.712351  0.814259  1
  B  B12  1  0.000000  0.864109  0.469632  1
  B  B13  1  0.000000  0.135905  0.530400  1
  B  B14  1  0.000000  0.363875  0.030367  1
  B  B15  1  0.000000  0.636044  0.969368  1
  B  B16  1  0.000000  0.887758  0.047320  1
  B  B17  1  0.000000  0.112197  0.952508  1
  B  B18  1  0.000000  0.386037  0.453104  1
  B  B19  1  0.000000  0.613958  0.546907  1
  Os  Os20  1  0.500000  0.636891  0.409558  1
  Os  Os21  1  0.500000  0.362963  0.590473  1
  Os  Os22  1  0.500000  0.140989  0.091205  1
  Ru  Ru23  1  0.500000  0.859027  0.908642  1
