# generated using pymatgen
data_AlNi20(SnB3)2
_symmetry_space_group_name_H-M   'P 1'
_cell_length_a   7.49771058
_cell_length_b   7.49771050
_cell_length_c   7.49771000
_cell_angle_alpha   60.00000222
_cell_angle_beta   60.00000256
_cell_angle_gamma   59.99999882
_symmetry_Int_Tables_number   1
_chemical_formula_structural   AlNi20(SnB3)2
_chemical_formula_sum   'Al1 Ni20 Sn2 B6'
_cell_volume   298.03755536
_cell_formula_units_Z   1
loop_
 _symmetry_equiv_pos_site_id
 _symmetry_equiv_pos_as_xyz
  1  'x, y, z'
loop_
 _atom_site_type_symbol
 _atom_site_label
 _atom_site_symmetry_multiplicity
 _atom_site_fract_x
 _atom_site_fract_y
 _atom_site_fract_z
 _atom_site_occupancy
  Al  Al0  1  0.000000  0.000000  0.000000  1
  Ni  Ni1  1  0.000000  0.335920  0.664080  1
  Ni  Ni2  1  0.000000  0.000000  0.664080  1
  Ni  Ni3  1  0.664080  0.335920  0.000000  1
  Ni  Ni4  1  0.000000  0.335920  0.000000  1
  Ni  Ni5  1  0.335920  0.000000  0.664080  1
  Ni  Ni6  1  0.335920  0.000000  0.000000  1
  Ni  Ni7  1  0.664080  0.000000  0.000000  1
  Ni  Ni8  1  0.335920  0.664080  0.000000  1
  Ni  Ni9  1  0.664080  0.000000  0.335920  1
  Ni  Ni10  1  0.000000  0.000000  0.335920  1
  Ni  Ni11  1  0.000000  0.664080  0.000000  1
  Ni  Ni12  1  0.000000  0.664080  0.335920  1
  Ni  Ni13  1  0.614710  0.155869  0.614710  1
  Ni  Ni14  1  0.385290  0.385290  0.844131  1
  Ni  Ni15  1  0.844131  0.385290  0.385290  1
  Ni  Ni16  1  0.385290  0.385290  0.385290  1
  Ni  Ni17  1  0.155869  0.614710  0.614710  1
  Ni  Ni18  1  0.614710  0.614710  0.614710  1
  Ni  Ni19  1  0.614710  0.614710  0.155869  1
  Ni  Ni20  1  0.385290  0.844131  0.385290  1
  Sn  Sn21  1  0.750000  0.750000  0.750000  1
  Sn  Sn22  1  0.250000  0.250000  0.250000  1
  B  B23  1  0.726648  0.273352  0.726648  1
  B  B24  1  0.726648  0.273352  0.273352  1
  B  B25  1  0.273352  0.726648  0.726648  1
  B  B26  1  0.273352  0.273352  0.726648  1
  B  B27  1  0.726648  0.726648  0.273352  1
  B  B28  1  0.273352  0.726648  0.273352  1
