# generated using pymatgen
data_Dy10In8HgRh3
_symmetry_space_group_name_H-M   'P 1'
_cell_length_a   3.63505100
_cell_length_b   8.16585273
_cell_length_c   18.42267344
_cell_angle_alpha   90.08426286
_cell_angle_beta   90.00000000
_cell_angle_gamma   90.00000000
_symmetry_Int_Tables_number   1
_chemical_formula_structural   Dy10In8HgRh3
_chemical_formula_sum   'Dy10 In8 Hg1 Rh3'
_cell_volume   546.84498783
_cell_formula_units_Z   1
loop_
 _symmetry_equiv_pos_site_id
 _symmetry_equiv_pos_as_xyz
  1  'x, y, z'
loop_
 _atom_site_type_symbol
 _atom_site_label
 _atom_site_symmetry_multiplicity
 _atom_site_fract_x
 _atom_site_fract_y
 _atom_site_fract_z
 _atom_site_occupancy
  Dy  Dy0  1  0.000000  0.115930  0.415902  1
  Dy  Dy1  1  0.000000  0.883234  0.589874  1
  Dy  Dy2  1  0.000000  0.384879  0.909372  1
  Dy  Dy3  1  0.000000  0.625141  0.075200  1
  Dy  Dy4  1  0.000000  0.216565  0.223310  1
  Dy  Dy5  1  0.000000  0.754494  0.777907  1
  Dy  Dy6  1  0.000000  0.253288  0.721997  1
  Dy  Dy7  1  0.000000  0.766838  0.284842  1
  Dy  Dy8  1  0.000000  0.999916  0.997967  1
  Dy  Dy9  1  0.000000  0.501186  0.502015  1
  In  In10  1  0.500000  0.419313  0.353872  1
  In  In11  1  0.500000  0.571435  0.650216  1
  In  In12  1  0.500000  0.071484  0.849979  1
  In  In13  1  0.500000  0.925771  0.147799  1
  In  In14  1  0.500000  0.291470  0.064226  1
  In  In15  1  0.500000  0.708685  0.928698  1
  In  In16  1  0.500000  0.206459  0.569038  1
  In  In17  1  0.500000  0.793269  0.434031  1
  Hg  Hg18  1  0.500000  0.525776  0.198442  1
  Rh  Rh19  1  0.500000  0.025157  0.306222  1
  Rh  Rh20  1  0.500000  0.980239  0.695521  1
  Rh  Rh21  1  0.500000  0.479469  0.803568  1
