# generated using pymatgen
data_Er2Lu3Mo2C7
_symmetry_space_group_name_H-M   'P 1'
_cell_length_a   8.26151226
_cell_length_b   8.29838467
_cell_length_c   3.38192900
_cell_angle_alpha   90.00000000
_cell_angle_beta   90.00000000
_cell_angle_gamma   121.94629007
_symmetry_Int_Tables_number   1
_chemical_formula_structural   Er2Lu3Mo2C7
_chemical_formula_sum   'Er2 Lu3 Mo2 C7'
_cell_volume   196.73979358
_cell_formula_units_Z   1
loop_
 _symmetry_equiv_pos_site_id
 _symmetry_equiv_pos_as_xyz
  1  'x, y, z'
loop_
 _atom_site_type_symbol
 _atom_site_label
 _atom_site_symmetry_multiplicity
 _atom_site_fract_x
 _atom_site_fract_y
 _atom_site_fract_z
 _atom_site_occupancy
  Er  Er0  1  0.668394  0.923939  0.500000  1
  Er  Er1  1  0.331606  0.076061  0.500000  1
  Lu  Lu2  1  0.500000  0.500000  0.000000  1
  Lu  Lu3  1  0.077426  0.337780  0.500000  1
  Lu  Lu4  1  0.922574  0.662220  0.500000  1
  Mo  Mo5  1  0.711827  0.287970  0.000000  1
  Mo  Mo6  1  0.288173  0.712030  0.000000  1
  C  C7  1  0.621331  0.379154  0.500000  1
  C  C8  1  0.378669  0.620846  0.500000  1
  C  C9  1  0.000000  0.000000  0.000000  1
  C  C10  1  0.165327  0.171817  0.000000  1
  C  C11  1  0.834673  0.828183  0.000000  1
  C  C12  1  0.000000  0.500000  0.000000  1
  C  C13  1  0.500000  0.000000  0.000000  1
