# generated using pymatgen
data_Ce3Sm(HgRh2)2
_symmetry_space_group_name_H-M   'P 1'
_cell_length_a   7.69683615
_cell_length_b   7.69683617
_cell_length_c   3.70919100
_cell_angle_alpha   90.00000000
_cell_angle_beta   90.00000000
_cell_angle_gamma   91.91001127
_symmetry_Int_Tables_number   1
_chemical_formula_structural   Ce3Sm(HgRh2)2
_chemical_formula_sum   'Ce3 Sm1 Hg2 Rh4'
_cell_volume   219.61516384
_cell_formula_units_Z   1
loop_
 _symmetry_equiv_pos_site_id
 _symmetry_equiv_pos_as_xyz
  1  'x, y, z'
loop_
 _atom_site_type_symbol
 _atom_site_label
 _atom_site_symmetry_multiplicity
 _atom_site_fract_x
 _atom_site_fract_y
 _atom_site_fract_z
 _atom_site_occupancy
  Ce  Ce0  1  0.671292  0.168279  0.500000  1
  Ce  Ce1  1  0.331721  0.828708  0.500000  1
  Ce  Ce2  1  0.170547  0.329453  0.500000  1
  Sm  Sm3  1  0.831253  0.668747  0.500000  1
  Hg  Hg4  1  0.997805  0.991834  0.000000  1
  Hg  Hg5  1  0.508166  0.502195  0.000000  1
  Rh  Rh6  1  0.145148  0.632362  0.000000  1
  Rh  Rh7  1  0.867638  0.354852  0.000000  1
  Rh  Rh8  1  0.619656  0.880344  0.000000  1
  Rh  Rh9  1  0.356775  0.143225  0.000000  1
