# generated using pymatgen
data_Sm5HoCo14(P3Ru)4
_symmetry_space_group_name_H-M   'P 1'
_cell_length_a   3.77279400
_cell_length_b   10.62585730
_cell_length_c   12.40375935
_cell_angle_alpha   90.02727337
_cell_angle_beta   90.00000000
_cell_angle_gamma   90.00000000
_symmetry_Int_Tables_number   1
_chemical_formula_structural   Sm5HoCo14(P3Ru)4
_chemical_formula_sum   'Sm5 Ho1 Co14 P12 Ru4'
_cell_volume   497.25636925
_cell_formula_units_Z   1
loop_
 _symmetry_equiv_pos_site_id
 _symmetry_equiv_pos_as_xyz
  1  'x, y, z'
loop_
 _atom_site_type_symbol
 _atom_site_label
 _atom_site_symmetry_multiplicity
 _atom_site_fract_x
 _atom_site_fract_y
 _atom_site_fract_z
 _atom_site_occupancy
  Sm  Sm0  1  0.000000  0.499852  0.528247  1
  Sm  Sm1  1  0.500000  0.000028  0.479029  1
  Sm  Sm2  1  0.500000  0.817702  0.202572  1
  Sm  Sm3  1  0.500000  0.182481  0.202722  1
  Sm  Sm4  1  0.000000  0.683151  0.795853  1
  Ho  Ho5  1  0.000000  0.316016  0.795963  1
  Co  Co6  1  0.000000  0.499146  0.985434  1
  Co  Co7  1  0.500000  0.000783  0.012156  1
  Co  Co8  1  0.000000  0.200916  0.575000  1
  Co  Co9  1  0.000000  0.799472  0.573703  1
  Co  Co10  1  0.500000  0.881545  0.711069  1
  Co  Co11  1  0.500000  0.120414  0.712103  1
  Co  Co12  1  0.000000  0.619478  0.286605  1
  Co  Co13  1  0.000000  0.380492  0.286970  1
  Co  Co14  1  0.500000  0.332297  0.989391  1
  Co  Co15  1  0.500000  0.666852  0.990553  1
  Co  Co16  1  0.000000  0.167755  0.007037  1
  Co  Co17  1  0.000000  0.833009  0.007650  1
  Co  Co18  1  0.500000  0.498100  0.706508  1
  Co  Co19  1  0.000000  0.000216  0.294130  1
  P  P20  1  0.500000  0.307504  0.622163  1
  P  P21  1  0.500000  0.692698  0.620045  1
  P  P22  1  0.000000  0.186028  0.383318  1
  P  P23  1  0.000000  0.814285  0.383054  1
  P  P24  1  0.500000  0.498334  0.883312  1
  P  P25  1  0.000000  0.000346  0.114288  1
  P  P26  1  0.500000  0.847584  0.895242  1
  P  P27  1  0.500000  0.153945  0.893989  1
  P  P28  1  0.000000  0.652194  0.103001  1
  P  P29  1  0.000000  0.347533  0.103412  1
  P  P30  1  0.500000  0.499919  0.343508  1
  P  P31  1  0.000000  0.999835  0.653703  1
  Ru  Ru32  1  0.500000  0.296178  0.430951  1
  Ru  Ru33  1  0.500000  0.703579  0.430068  1
  Ru  Ru34  1  0.500000  0.499757  0.155979  1
  Ru  Ru35  1  0.000000  0.000576  0.841273  1
