# generated using pymatgen
data_La3Al12Ir3Ru
_symmetry_space_group_name_H-M   'P 1'
_cell_length_a   8.96765600
_cell_length_b   8.96765471
_cell_length_c   9.66509300
_cell_angle_alpha   90.00000000
_cell_angle_beta   90.00000000
_cell_angle_gamma   119.99999737
_symmetry_Int_Tables_number   1
_chemical_formula_structural   La3Al12Ir3Ru
_chemical_formula_sum   'La6 Al24 Ir6 Ru2'
_cell_volume   673.12310631
_cell_formula_units_Z   2
loop_
 _symmetry_equiv_pos_site_id
 _symmetry_equiv_pos_as_xyz
  1  'x, y, z'
loop_
 _atom_site_type_symbol
 _atom_site_label
 _atom_site_symmetry_multiplicity
 _atom_site_fract_x
 _atom_site_fract_y
 _atom_site_fract_z
 _atom_site_occupancy
  La  La0  1  0.190583  0.381167  0.250000  1
  La  La1  1  0.809417  0.618833  0.750000  1
  La  La2  1  0.618833  0.809417  0.250000  1
  La  La3  1  0.381167  0.190583  0.750000  1
  La  La4  1  0.190583  0.809417  0.250000  1
  La  La5  1  0.809417  0.190583  0.750000  1
  Al  Al6  1  0.333333  0.666667  0.009939  1
  Al  Al7  1  0.666667  0.333333  0.990061  1
  Al  Al8  1  0.666667  0.333333  0.509939  1
  Al  Al9  1  0.333333  0.666667  0.490061  1
  Al  Al10  1  0.162583  0.325165  0.575473  1
  Al  Al11  1  0.837417  0.674835  0.424527  1
  Al  Al12  1  0.674835  0.837417  0.575473  1
  Al  Al13  1  0.837417  0.674835  0.075473  1
  Al  Al14  1  0.325165  0.162583  0.424527  1
  Al  Al15  1  0.162583  0.325165  0.924527  1
  Al  Al16  1  0.162583  0.837417  0.575473  1
  Al  Al17  1  0.325165  0.162583  0.075473  1
  Al  Al18  1  0.837417  0.162583  0.424527  1
  Al  Al19  1  0.674835  0.837417  0.924527  1
  Al  Al20  1  0.837417  0.162583  0.075473  1
  Al  Al21  1  0.162583  0.837417  0.924527  1
  Al  Al22  1  0.564147  0.128293  0.250000  1
  Al  Al23  1  0.435853  0.871707  0.750000  1
  Al  Al24  1  0.871707  0.435853  0.250000  1
  Al  Al25  1  0.128293  0.564147  0.750000  1
  Al  Al26  1  0.564147  0.435853  0.250000  1
  Al  Al27  1  0.435853  0.564147  0.750000  1
  Al  Al28  1  0.000000  0.000000  0.250000  1
  Al  Al29  1  0.000000  0.000000  0.750000  1
  Ir  Ir30  1  0.500000  0.000000  0.000000  1
  Ir  Ir31  1  0.000000  0.500000  0.000000  1
  Ir  Ir32  1  0.500000  0.000000  0.500000  1
  Ir  Ir33  1  0.500000  0.500000  0.000000  1
  Ir  Ir34  1  0.000000  0.500000  0.500000  1
  Ir  Ir35  1  0.500000  0.500000  0.500000  1
  Ru  Ru36  1  0.000000  0.000000  0.000000  1
  Ru  Ru37  1  0.000000  0.000000  0.500000  1
