# generated using pymatgen
data_NdTm11Pb10
_symmetry_space_group_name_H-M   'P 1'
_cell_length_a   6.56919700
_cell_length_b   9.42473661
_cell_length_c   11.67177455
_cell_angle_alpha   114.01465957
_cell_angle_beta   106.34460540
_cell_angle_gamma   90.00000210
_symmetry_Int_Tables_number   1
_chemical_formula_structural   NdTm11Pb10
_chemical_formula_sum   'Nd1 Tm11 Pb10'
_cell_volume   627.97742117
_cell_formula_units_Z   1
loop_
 _symmetry_equiv_pos_site_id
 _symmetry_equiv_pos_as_xyz
  1  'x, y, z'
loop_
 _atom_site_type_symbol
 _atom_site_label
 _atom_site_symmetry_multiplicity
 _atom_site_fract_x
 _atom_site_fract_y
 _atom_site_fract_z
 _atom_site_occupancy
  Nd  Nd0  1  0.359854  0.973762  0.719706  1
  Tm  Tm1  1  0.555663  0.305706  0.610578  1
  Tm  Tm2  1  0.444433  0.693323  0.388219  1
  Tm  Tm3  1  0.943785  0.693323  0.388219  1
  Tm  Tm4  1  0.054915  0.305706  0.610578  1
  Tm  Tm5  1  0.439278  0.677388  0.878555  1
  Tm  Tm6  1  0.560779  0.323520  0.121557  1
  Tm  Tm7  1  0.939907  0.204421  0.879814  1
  Tm  Tm8  1  0.060588  0.795994  0.121175  1
  Tm  Tm9  1  0.140314  0.253538  0.280629  1
  Tm  Tm10  1  0.859757  0.745021  0.719514  1
  Tm  Tm11  1  0.640139  0.026448  0.280277  1
  Pb  Pb12  1  0.291168  0.591259  0.582338  1
  Pb  Pb13  1  0.707588  0.403236  0.415176  1
  Pb  Pb14  1  0.792178  0.988420  0.584354  1
  Pb  Pb15  1  0.207084  0.011923  0.414169  1
  Pb  Pb16  1  0.249474  0.000363  0.001640  1
  Pb  Pb17  1  0.752166  0.000363  0.001640  1
  Pb  Pb18  1  0.073801  0.475755  0.147603  1
  Pb  Pb19  1  0.926059  0.524262  0.852118  1
  Pb  Pb20  1  0.573178  0.670993  0.146358  1
  Pb  Pb21  1  0.427894  0.335277  0.855785  1
