# generated using pymatgen
data_Tb4Ho4Sc11Si16Ag
_symmetry_space_group_name_H-M   'P 1'
_cell_length_a   7.02912753
_cell_length_b   7.39189106
_cell_length_c   14.01433289
_cell_angle_alpha   90.00895541
_cell_angle_beta   90.03988418
_cell_angle_gamma   89.92033938
_symmetry_Int_Tables_number   1
_chemical_formula_structural   Tb4Ho4Sc11Si16Ag
_chemical_formula_sum   'Tb4 Ho4 Sc11 Si16 Ag1'
_cell_volume   728.16345680
_cell_formula_units_Z   1
loop_
 _symmetry_equiv_pos_site_id
 _symmetry_equiv_pos_as_xyz
  1  'x, y, z'
loop_
 _atom_site_type_symbol
 _atom_site_label
 _atom_site_symmetry_multiplicity
 _atom_site_fract_x
 _atom_site_fract_y
 _atom_site_fract_z
 _atom_site_occupancy
  Tb  Tb0  1  0.011103  0.175436  0.096424  1
  Tb  Tb1  1  0.990449  0.815694  0.901201  1
  Tb  Tb2  1  0.484476  0.673577  0.901744  1
  Tb  Tb3  1  0.990473  0.815535  0.598627  1
  Ho  Ho4  1  0.510581  0.323482  0.096551  1
  Ho  Ho5  1  0.011444  0.175834  0.403332  1
  Ho  Ho6  1  0.510604  0.323383  0.403609  1
  Ho  Ho7  1  0.484438  0.673888  0.598421  1
  Sc  Sc8  1  0.838534  0.497265  0.250104  1
  Sc  Sc9  1  0.340193  0.003248  0.250095  1
  Sc  Sc10  1  0.657511  0.997907  0.749912  1
  Sc  Sc11  1  0.326410  0.182565  0.626538  1
  Sc  Sc12  1  0.670879  0.823591  0.374965  1
  Sc  Sc13  1  0.170669  0.678485  0.373995  1
  Sc  Sc14  1  0.670886  0.823569  0.125213  1
  Sc  Sc15  1  0.835472  0.327175  0.626397  1
  Sc  Sc16  1  0.326370  0.182382  0.873361  1
  Sc  Sc17  1  0.835625  0.327204  0.873430  1
  Sc  Sc18  1  0.170719  0.678307  0.126135  1
  Si  Si19  1  0.028478  0.100655  0.749919  1
  Si  Si20  1  0.968951  0.887461  0.250204  1
  Si  Si21  1  0.467563  0.616318  0.250070  1
  Si  Si22  1  0.537094  0.384969  0.749782  1
  Si  Si23  1  0.288530  0.883486  0.749743  1
  Si  Si24  1  0.713286  0.128089  0.250336  1
  Si  Si25  1  0.213418  0.372273  0.250271  1
  Si  Si26  1  0.776243  0.628455  0.749650  1
  Si  Si27  1  0.161578  0.459836  0.531738  1
  Si  Si28  1  0.842589  0.534815  0.461694  1
  Si  Si29  1  0.344463  0.965614  0.462473  1
  Si  Si30  1  0.842503  0.535282  0.038222  1
  Si  Si31  1  0.657243  0.034097  0.540017  1
  Si  Si32  1  0.160960  0.460047  0.968308  1
  Si  Si33  1  0.657339  0.034547  0.960052  1
  Si  Si34  1  0.345057  0.965756  0.037552  1
  Ag  Ag35  1  0.157865  0.509771  0.749915  1
