# generated using pymatgen
data_Mg3Ta2Re19Tc5
_symmetry_space_group_name_H-M   'P 1'
_cell_length_a   8.38598534
_cell_length_b   8.38252625
_cell_length_c   8.37863800
_cell_angle_alpha   109.49367170
_cell_angle_beta   109.45421736
_cell_angle_gamma   109.48271902
_symmetry_Int_Tables_number   1
_chemical_formula_structural   Mg3Ta2Re19Tc5
_chemical_formula_sum   'Mg3 Ta2 Re19 Tc5'
_cell_volume   453.30410794
_cell_formula_units_Z   1
loop_
 _symmetry_equiv_pos_site_id
 _symmetry_equiv_pos_as_xyz
  1  'x, y, z'
loop_
 _atom_site_type_symbol
 _atom_site_label
 _atom_site_symmetry_multiplicity
 _atom_site_fract_x
 _atom_site_fract_y
 _atom_site_fract_z
 _atom_site_occupancy
  Mg  Mg0  1  0.996055  0.996163  0.000125  1
  Mg  Mg1  1  0.639765  0.999905  0.000118  1
  Mg  Mg2  1  0.997905  0.638914  0.998319  1
  Ta  Ta3  1  0.000801  0.001045  0.638221  1
  Ta  Ta4  1  0.362753  0.362352  0.362102  1
  Re  Re5  1  0.322249  0.721300  0.325724  1
  Re  Re6  1  0.319070  0.318438  0.719295  1
  Re  Re7  1  0.996568  0.679725  0.396882  1
  Re  Re8  1  0.679740  0.996904  0.396795  1
  Re  Re9  1  0.599687  0.598932  0.280372  1
  Re  Re10  1  0.282795  0.599711  0.603361  1
  Re  Re11  1  0.599703  0.282797  0.602657  1
  Re  Re12  1  0.376816  0.196225  0.000071  1
  Re  Re13  1  0.186861  0.809235  0.809721  1
  Re  Re14  1  0.376138  0.997871  0.190099  1
  Re  Re15  1  0.195724  0.377476  0.000064  1
  Re  Re16  1  0.999502  0.377637  0.190381  1
  Re  Re17  1  0.809049  0.187124  0.809861  1
  Re  Re18  1  0.810606  0.810992  0.186778  1
  Re  Re19  1  0.000925  0.195923  0.377106  1
  Re  Re20  1  0.195288  0.000007  0.376459  1
  Re  Re21  1  0.624081  0.624014  0.813791  1
  Re  Re22  1  0.818895  0.623617  0.623060  1
  Re  Re23  1  0.625115  0.819336  0.624322  1
  Tc  Tc24  1  0.395766  0.676950  0.999571  1
  Tc  Tc25  1  0.720023  0.320319  0.324931  1
  Tc  Tc26  1  0.395208  0.995678  0.674806  1
  Tc  Tc27  1  0.676773  0.396050  0.000144  1
  Tc  Tc28  1  0.996140  0.395359  0.674868  1
