# generated using pymatgen
data_Zr3VI12
_symmetry_space_group_name_H-M   'P 1'
_cell_length_a   6.66596715
_cell_length_b   7.97503219
_cell_length_c   13.89305500
_cell_angle_alpha   90.00000000
_cell_angle_beta   90.00000000
_cell_angle_gamma   90.02464160
_symmetry_Int_Tables_number   1
_chemical_formula_structural   Zr3VI12
_chemical_formula_sum   'Zr3 V1 I12'
_cell_volume   738.57283251
_cell_formula_units_Z   1
loop_
 _symmetry_equiv_pos_site_id
 _symmetry_equiv_pos_as_xyz
  1  'x, y, z'
loop_
 _atom_site_type_symbol
 _atom_site_label
 _atom_site_symmetry_multiplicity
 _atom_site_fract_x
 _atom_site_fract_y
 _atom_site_fract_z
 _atom_site_occupancy
  Zr  Zr0  1  0.750235  0.752042  0.500000  1
  Zr  Zr1  1  0.252382  0.247888  0.000000  1
  Zr  Zr2  1  0.747330  0.247863  0.000000  1
  V  V3  1  0.250775  0.751966  0.500000  1
  I  I4  1  0.008018  0.606990  0.644511  1
  I  I5  1  0.007943  0.042126  0.500000  1
  I  I6  1  0.999742  0.098151  0.850153  1
  I  I7  1  0.999742  0.098151  0.149847  1
  I  I8  1  0.492050  0.897085  0.355640  1
  I  I9  1  0.499981  0.398853  0.150696  1
  I  I10  1  0.492083  0.462097  0.500000  1
  I  I11  1  0.492050  0.897085  0.644360  1
  I  I12  1  0.499981  0.398853  0.849304  1
  I  I13  1  0.499672  0.944977  0.000000  1
  I  I14  1  0.000000  0.548880  0.000000  1
  I  I15  1  0.008018  0.606990  0.355489  1
