# generated using pymatgen
data_TbNd4IrRh
_symmetry_space_group_name_H-M   'P 1'
_cell_length_a   6.64732776
_cell_length_b   7.25484368
_cell_length_c   8.98294849
_cell_angle_alpha   96.50007110
_cell_angle_beta   111.71543516
_cell_angle_gamma   89.99999756
_symmetry_Int_Tables_number   1
_chemical_formula_structural   TbNd4IrRh
_chemical_formula_sum   'Tb2 Nd8 Ir2 Rh2'
_cell_volume   399.46323677
_cell_formula_units_Z   2
loop_
 _symmetry_equiv_pos_site_id
 _symmetry_equiv_pos_as_xyz
  1  'x, y, z'
loop_
 _atom_site_type_symbol
 _atom_site_label
 _atom_site_symmetry_multiplicity
 _atom_site_fract_x
 _atom_site_fract_y
 _atom_site_fract_z
 _atom_site_occupancy
  Tb  Tb0  1  0.434707  0.750000  0.000000  1
  Tb  Tb1  1  0.563407  0.250000  0.000000  1
  Nd  Nd2  1  0.982152  0.922443  0.185805  1
  Nd  Nd3  1  0.796348  0.577557  0.814195  1
  Nd  Nd4  1  0.021625  0.078048  0.815794  1
  Nd  Nd5  1  0.205831  0.421952  0.184206  1
  Nd  Nd6  1  0.644835  0.811835  0.429727  1
  Nd  Nd7  1  0.215108  0.688165  0.570273  1
  Nd  Nd8  1  0.353456  0.188585  0.568135  1
  Nd  Nd9  1  0.785321  0.311415  0.431865  1
  Ir  Ir10  1  0.188276  0.428610  0.785819  1
  Ir  Ir11  1  0.402457  0.071390  0.214181  1
  Rh  Rh12  1  0.810356  0.570829  0.214235  1
  Rh  Rh13  1  0.596122  0.929171  0.785765  1
