# generated using pymatgen
data_TbEr2Mg3Si2Ag
_symmetry_space_group_name_H-M   'P 1'
_cell_length_a   7.24321700
_cell_length_b   7.24321621
_cell_length_c   4.31265200
_cell_angle_alpha   90.00000000
_cell_angle_beta   90.00000000
_cell_angle_gamma   120.14751931
_symmetry_Int_Tables_number   1
_chemical_formula_structural   TbEr2Mg3Si2Ag
_chemical_formula_sum   'Tb1 Er2 Mg3 Si2 Ag1'
_cell_volume   195.65479300
_cell_formula_units_Z   1
loop_
 _symmetry_equiv_pos_site_id
 _symmetry_equiv_pos_as_xyz
  1  'x, y, z'
loop_
 _atom_site_type_symbol
 _atom_site_label
 _atom_site_symmetry_multiplicity
 _atom_site_fract_x
 _atom_site_fract_y
 _atom_site_fract_z
 _atom_site_occupancy
  Tb  Tb0  1  0.422975  0.422975  0.500000  1
  Er  Er1  1  0.577344  0.000719  0.500000  1
  Er  Er2  1  0.000719  0.577344  0.500000  1
  Mg  Mg3  1  0.752438  0.752438  0.000000  1
  Mg  Mg4  1  0.248095  0.999567  0.000000  1
  Mg  Mg5  1  0.999567  0.248095  0.000000  1
  Si  Si6  1  0.668127  0.332602  0.000000  1
  Si  Si7  1  0.332602  0.668127  0.000000  1
  Ag  Ag8  1  0.998132  0.998132  0.500000  1
