# generated using pymatgen
data_Pr4Y6Co2Br15
_symmetry_space_group_name_H-M   'P 1'
_cell_length_a   9.51731409
_cell_length_b   10.28763578
_cell_length_c   11.05113900
_cell_angle_alpha   92.38168600
_cell_angle_beta   113.79445781
_cell_angle_gamma   110.79492641
_symmetry_Int_Tables_number   1
_chemical_formula_structural   Pr4Y6Co2Br15
_chemical_formula_sum   'Pr4 Y6 Co2 Br15'
_cell_volume   903.70003807
_cell_formula_units_Z   1
loop_
 _symmetry_equiv_pos_site_id
 _symmetry_equiv_pos_as_xyz
  1  'x, y, z'
loop_
 _atom_site_type_symbol
 _atom_site_label
 _atom_site_symmetry_multiplicity
 _atom_site_fract_x
 _atom_site_fract_y
 _atom_site_fract_z
 _atom_site_occupancy
  Pr  Pr0  1  0.802784  0.404764  0.272653  1
  Pr  Pr1  1  0.197216  0.595236  0.727347  1
  Pr  Pr2  1  0.669273  0.750908  0.818916  1
  Pr  Pr3  1  0.330727  0.249092  0.181084  1
  Y  Y4  1  0.527283  0.709033  0.099309  1
  Y  Y5  1  0.472717  0.290967  0.900691  1
  Y  Y6  1  0.590806  0.044661  0.332351  1
  Y  Y7  1  0.409194  0.955339  0.667649  1
  Y  Y8  1  0.724274  0.076791  0.047184  1
  Y  Y9  1  0.275726  0.923209  0.952816  1
  Co  Co10  1  0.466991  0.829479  0.882408  1
  Co  Co11  1  0.533009  0.170521  0.117592  1
  Br  Br12  1  0.000000  0.000000  0.000000  1
  Br  Br13  1  0.631341  0.892948  0.580476  1
  Br  Br14  1  0.368659  0.107052  0.419524  1
  Br  Br15  1  0.879397  0.293539  0.526299  1
  Br  Br16  1  0.120603  0.706461  0.473701  1
  Br  Br17  1  0.306403  0.767822  0.187199  1
  Br  Br18  1  0.693597  0.232178  0.812801  1
  Br  Br19  1  0.052452  0.332738  0.217164  1
  Br  Br20  1  0.176664  0.059002  0.702843  1
  Br  Br21  1  0.823336  0.940998  0.297157  1
  Br  Br22  1  0.254931  0.416802  0.950826  1
  Br  Br23  1  0.745069  0.583198  0.049174  1
  Br  Br24  1  0.405893  0.457128  0.669811  1
  Br  Br25  1  0.594107  0.542872  0.330189  1
  Br  Br26  1  0.947548  0.667262  0.782836  1
