# generated using pymatgen
data_Nd5Th3(Si3Ni)4
_symmetry_space_group_name_H-M   'P 1'
_cell_length_a   8.04624892
_cell_length_b   8.07359859
_cell_length_c   8.49773200
_cell_angle_alpha   90.00000000
_cell_angle_beta   90.00000000
_cell_angle_gamma   119.64976489
_symmetry_Int_Tables_number   1
_chemical_formula_structural   Nd5Th3(Si3Ni)4
_chemical_formula_sum   'Nd5 Th3 Si12 Ni4'
_cell_volume   479.75134158
_cell_formula_units_Z   1
loop_
 _symmetry_equiv_pos_site_id
 _symmetry_equiv_pos_as_xyz
  1  'x, y, z'
loop_
 _atom_site_type_symbol
 _atom_site_label
 _atom_site_symmetry_multiplicity
 _atom_site_fract_x
 _atom_site_fract_y
 _atom_site_fract_z
 _atom_site_occupancy
  Nd  Nd0  1  0.999797  0.499881  0.250000  1
  Nd  Nd1  1  0.499850  0.999756  0.750000  1
  Nd  Nd2  1  0.500149  0.000304  0.250000  1
  Nd  Nd3  1  0.000016  0.999982  0.750000  1
  Nd  Nd4  1  0.000006  0.000018  0.250000  1
  Th  Th5  1  0.499923  0.500079  0.750000  1
  Th  Th6  1  0.500065  0.499935  0.250000  1
  Th  Th7  1  0.000171  0.500103  0.750000  1
  Si  Si8  1  0.827341  0.171668  0.999445  1
  Si  Si9  1  0.172677  0.828302  0.999964  1
  Si  Si10  1  0.341684  0.169764  0.000002  1
  Si  Si11  1  0.172677  0.828302  0.500036  1
  Si  Si12  1  0.658307  0.830240  0.000402  1
  Si  Si13  1  0.827341  0.171668  0.500555  1
  Si  Si14  1  0.830949  0.660665  0.999902  1
  Si  Si15  1  0.658307  0.830240  0.499598  1
  Si  Si16  1  0.169040  0.339339  0.000261  1
  Si  Si17  1  0.341684  0.169764  0.499998  1
  Si  Si18  1  0.169040  0.339339  0.499739  1
  Si  Si19  1  0.830949  0.660665  0.500098  1
  Ni  Ni20  1  0.666418  0.337724  0.997333  1
  Ni  Ni21  1  0.333598  0.662271  0.997924  1
  Ni  Ni22  1  0.333598  0.662271  0.502076  1
  Ni  Ni23  1  0.666418  0.337724  0.502667  1
