# generated using pymatgen
data_SmHoNi2P7Ru10
_symmetry_space_group_name_H-M   'P 1'
_cell_length_a   9.46844646
_cell_length_b   9.30644570
_cell_length_c   3.87518300
_cell_angle_alpha   90.00000000
_cell_angle_beta   90.00000000
_cell_angle_gamma   119.89523211
_symmetry_Int_Tables_number   1
_chemical_formula_structural   SmHoNi2P7Ru10
_chemical_formula_sum   'Sm1 Ho1 Ni2 P7 Ru10'
_cell_volume   296.03492163
_cell_formula_units_Z   1
loop_
 _symmetry_equiv_pos_site_id
 _symmetry_equiv_pos_as_xyz
  1  'x, y, z'
loop_
 _atom_site_type_symbol
 _atom_site_label
 _atom_site_symmetry_multiplicity
 _atom_site_fract_x
 _atom_site_fract_y
 _atom_site_fract_z
 _atom_site_occupancy
  Sm  Sm0  1  0.665624  0.335274  0.000000  1
  Ho  Ho1  1  0.004282  0.000585  0.500000  1
  Ni  Ni2  1  0.445928  0.940877  0.000000  1
  Ni  Ni3  1  0.060950  0.502625  0.000000  1
  P  P4  1  0.755522  0.780395  0.000000  1
  P  P5  1  0.221881  0.965873  0.000000  1
  P  P6  1  0.027987  0.246822  0.000000  1
  P  P7  1  0.449327  0.381163  0.500000  1
  P  P8  1  0.622830  0.069704  0.500000  1
  P  P9  1  0.932345  0.554243  0.500000  1
  P  P10  1  0.327347  0.666517  0.000000  1
  Ru  Ru11  1  0.757193  0.028635  0.000000  1
  Ru  Ru12  1  0.973348  0.729016  0.000000  1
  Ru  Ru13  1  0.264149  0.234076  0.000000  1
  Ru  Ru14  1  0.492732  0.555711  0.000000  1
  Ru  Ru15  1  0.723986  0.622547  0.500000  1
  Ru  Ru16  1  0.386491  0.101842  0.500000  1
  Ru  Ru17  1  0.901028  0.283510  0.500000  1
  Ru  Ru18  1  0.530716  0.785803  0.500000  1
  Ru  Ru19  1  0.208049  0.754825  0.500000  1
  Ru  Ru20  1  0.248285  0.459956  0.500000  1
