# generated using pymatgen
data_CeSm(Al5Os)4
_symmetry_space_group_name_H-M   'P 1'
_cell_length_a   6.88170579
_cell_length_b   6.88170448
_cell_length_c   9.16690000
_cell_angle_alpha   90.00000000
_cell_angle_beta   90.00000000
_cell_angle_gamma   96.85943373
_symmetry_Int_Tables_number   1
_chemical_formula_structural   CeSm(Al5Os)4
_chemical_formula_sum   'Ce1 Sm1 Al20 Os4'
_cell_volume   431.01741841
_cell_formula_units_Z   1
loop_
 _symmetry_equiv_pos_site_id
 _symmetry_equiv_pos_as_xyz
  1  'x, y, z'
loop_
 _atom_site_type_symbol
 _atom_site_label
 _atom_site_symmetry_multiplicity
 _atom_site_fract_x
 _atom_site_fract_y
 _atom_site_fract_z
 _atom_site_occupancy
  Ce  Ce0  1  0.626900  0.373100  0.750000  1
  Sm  Sm1  1  0.372069  0.627931  0.250000  1
  Al  Al2  1  0.281023  0.018208  0.750000  1
  Al  Al3  1  0.017473  0.282087  0.250000  1
  Al  Al4  1  0.717913  0.982527  0.250000  1
  Al  Al5  1  0.981792  0.718977  0.750000  1
  Al  Al6  1  0.877383  0.122617  0.949099  1
  Al  Al7  1  0.123217  0.876783  0.045645  1
  Al  Al8  1  0.877383  0.122617  0.550901  1
  Al  Al9  1  0.123217  0.876783  0.454355  1
  Al  Al10  1  0.643100  0.911674  0.750000  1
  Al  Al11  1  0.916458  0.646600  0.250000  1
  Al  Al12  1  0.353400  0.083542  0.250000  1
  Al  Al13  1  0.088326  0.356900  0.750000  1
  Al  Al14  1  0.342281  0.657719  0.898153  1
  Al  Al15  1  0.659219  0.340781  0.102397  1
  Al  Al16  1  0.342281  0.657719  0.601847  1
  Al  Al17  1  0.659219  0.340781  0.397603  1
  Al  Al18  1  0.724482  0.725198  0.001054  1
  Al  Al19  1  0.724482  0.725198  0.498946  1
  Al  Al20  1  0.274802  0.275518  0.001054  1
  Al  Al21  1  0.274802  0.275518  0.498946  1
  Os  Os22  1  0.500300  0.000912  0.999505  1
  Os  Os23  1  0.999088  0.499700  0.999505  1
  Os  Os24  1  0.500300  0.000912  0.500495  1
  Os  Os25  1  0.999088  0.499700  0.500495  1
