# generated using pymatgen
data_La6Pr3Dy(Sn5Ir2)4
_symmetry_space_group_name_H-M   'P 1'
_cell_length_a   14.23268926
_cell_length_b   14.23268908
_cell_length_c   4.71121600
_cell_angle_alpha   90.00000000
_cell_angle_beta   90.00000000
_cell_angle_gamma   89.94053717
_symmetry_Int_Tables_number   1
_chemical_formula_structural   La6Pr3Dy(Sn5Ir2)4
_chemical_formula_sum   'La6 Pr3 Dy1 Sn20 Ir8'
_cell_volume   954.34787801
_cell_formula_units_Z   1
loop_
 _symmetry_equiv_pos_site_id
 _symmetry_equiv_pos_as_xyz
  1  'x, y, z'
loop_
 _atom_site_type_symbol
 _atom_site_label
 _atom_site_symmetry_multiplicity
 _atom_site_fract_x
 _atom_site_fract_y
 _atom_site_fract_z
 _atom_site_occupancy
  La  La0  1  0.500210  0.499961  0.000000  1
  La  La1  1  0.999961  0.000210  0.000000  1
  La  La2  1  0.886759  0.386759  0.500000  1
  La  La3  1  0.112686  0.612686  0.500000  1
  La  La4  1  0.387795  0.112508  0.500000  1
  La  La5  1  0.612508  0.887795  0.500000  1
  Pr  Pr6  1  0.323168  0.823168  0.500000  1
  Pr  Pr7  1  0.177237  0.323135  0.500000  1
  Pr  Pr8  1  0.823135  0.677237  0.500000  1
  Dy  Dy9  1  0.675735  0.175735  0.500000  1
  Sn  Sn10  1  0.570892  0.070892  0.000000  1
  Sn  Sn11  1  0.430925  0.930925  0.000000  1
  Sn  Sn12  1  0.069614  0.430218  0.000000  1
  Sn  Sn13  1  0.930218  0.569614  0.000000  1
  Sn  Sn14  1  0.654420  0.698361  0.000000  1
  Sn  Sn15  1  0.346147  0.301364  0.000000  1
  Sn  Sn16  1  0.154414  0.801749  0.000000  1
  Sn  Sn17  1  0.843811  0.198141  0.000000  1
  Sn  Sn18  1  0.301749  0.654414  0.000000  1
  Sn  Sn19  1  0.698141  0.343811  0.000000  1
  Sn  Sn20  1  0.198361  0.154420  0.000000  1
  Sn  Sn21  1  0.801364  0.846147  0.000000  1
  Sn  Sn22  1  0.663364  0.504998  0.500000  1
  Sn  Sn23  1  0.336143  0.495746  0.500000  1
  Sn  Sn24  1  0.163484  0.995604  0.500000  1
  Sn  Sn25  1  0.835522  0.006597  0.500000  1
  Sn  Sn26  1  0.495604  0.663484  0.500000  1
  Sn  Sn27  1  0.506597  0.335522  0.500000  1
  Sn  Sn28  1  0.004998  0.163364  0.500000  1
  Sn  Sn29  1  0.995746  0.836143  0.500000  1
  Ir  Ir30  1  0.746043  0.527466  0.000000  1
  Ir  Ir31  1  0.253954  0.471150  0.000000  1
  Ir  Ir32  1  0.246243  0.971553  0.000000  1
  Ir  Ir33  1  0.752893  0.029989  0.000000  1
  Ir  Ir34  1  0.471553  0.746243  0.000000  1
  Ir  Ir35  1  0.529989  0.252893  0.000000  1
  Ir  Ir36  1  0.027466  0.246043  0.000000  1
  Ir  Ir37  1  0.971150  0.753954  0.000000  1
