# generated using pymatgen
data_SmDyMo2O7
_symmetry_space_group_name_H-M   'P 1'
_cell_length_a   7.41200772
_cell_length_b   7.41200756
_cell_length_c   7.51046700
_cell_angle_alpha   59.55959918
_cell_angle_beta   59.55959991
_cell_angle_gamma   59.23988882
_symmetry_Int_Tables_number   1
_chemical_formula_structural   SmDyMo2O7
_chemical_formula_sum   'Sm2 Dy2 Mo4 O14'
_cell_volume   288.12214093
_cell_formula_units_Z   2
loop_
 _symmetry_equiv_pos_site_id
 _symmetry_equiv_pos_as_xyz
  1  'x, y, z'
loop_
 _atom_site_type_symbol
 _atom_site_label
 _atom_site_symmetry_multiplicity
 _atom_site_fract_x
 _atom_site_fract_y
 _atom_site_fract_z
 _atom_site_occupancy
  Sm  Sm0  1  0.125000  0.125000  0.625000  1
  Sm  Sm1  1  0.125000  0.125000  0.125000  1
  Dy  Dy2  1  0.625000  0.125000  0.125000  1
  Dy  Dy3  1  0.125000  0.625000  0.125000  1
  Mo  Mo4  1  0.125000  0.625000  0.625000  1
  Mo  Mo5  1  0.625000  0.125000  0.625000  1
  Mo  Mo6  1  0.625000  0.625000  0.125000  1
  Mo  Mo7  1  0.625000  0.625000  0.625000  1
  O  O8  1  0.716468  0.716468  0.283532  1
  O  O9  1  0.288972  0.288972  0.711028  1
  O  O10  1  0.706666  0.287095  0.718508  1
  O  O11  1  0.287095  0.706666  0.287730  1
  O  O12  1  0.287095  0.706666  0.718508  1
  O  O13  1  0.706666  0.287095  0.287730  1
  O  O14  1  0.533532  0.533532  0.966468  1
  O  O15  1  0.961028  0.961028  0.538972  1
  O  O16  1  0.543334  0.962905  0.531492  1
  O  O17  1  0.962905  0.543334  0.962270  1
  O  O18  1  0.962905  0.543334  0.531492  1
  O  O19  1  0.543334  0.962905  0.962270  1
  O  O20  1  0.250947  0.250947  0.249053  1
  O  O21  1  0.999053  0.999053  0.000947  1
