# generated using pymatgen
data_Nd2Pt(SeO3)4
_symmetry_space_group_name_H-M   'P 1'
_cell_length_a   7.10158300
_cell_length_b   8.30826222
_cell_length_c   11.02825193
_cell_angle_alpha   70.85020198
_cell_angle_beta   90.00000000
_cell_angle_gamma   90.00000000
_symmetry_Int_Tables_number   1
_chemical_formula_structural   Nd2Pt(SeO3)4
_chemical_formula_sum   'Nd4 Pt2 Se8 O24'
_cell_volume   614.68055996
_cell_formula_units_Z   2
loop_
 _symmetry_equiv_pos_site_id
 _symmetry_equiv_pos_as_xyz
  1  'x, y, z'
loop_
 _atom_site_type_symbol
 _atom_site_label
 _atom_site_symmetry_multiplicity
 _atom_site_fract_x
 _atom_site_fract_y
 _atom_site_fract_z
 _atom_site_occupancy
  Nd  Nd0  1  0.661471  0.761432  0.083640  1
  Nd  Nd1  1  0.161471  0.738568  0.916360  1
  Nd  Nd2  1  0.338529  0.238568  0.916360  1
  Nd  Nd3  1  0.838529  0.261432  0.083640  1
  Pt  Pt4  1  0.500000  0.500000  0.500000  1
  Pt  Pt5  1  0.000000  0.000000  0.500000  1
  Se  Se6  1  0.677368  0.630377  0.821076  1
  Se  Se7  1  0.177368  0.869623  0.178924  1
  Se  Se8  1  0.322632  0.369623  0.178924  1
  Se  Se9  1  0.822632  0.130377  0.821076  1
  Se  Se10  1  0.328885  0.121629  0.634206  1
  Se  Se11  1  0.828885  0.378371  0.365794  1
  Se  Se12  1  0.671115  0.878371  0.365794  1
  Se  Se13  1  0.171115  0.621629  0.634206  1
  O  O14  1  0.398293  0.314865  0.656864  1
  O  O15  1  0.898293  0.185135  0.343136  1
  O  O16  1  0.601707  0.685135  0.343136  1
  O  O17  1  0.101707  0.814865  0.656864  1
  O  O18  1  0.613717  0.423730  0.847964  1
  O  O19  1  0.113717  0.076270  0.152036  1
  O  O20  1  0.386283  0.576270  0.152036  1
  O  O21  1  0.886283  0.923730  0.847964  1
  O  O22  1  0.841526  0.587753  0.948027  1
  O  O23  1  0.341526  0.912247  0.051973  1
  O  O24  1  0.158474  0.412247  0.051973  1
  O  O25  1  0.658474  0.087753  0.948027  1
  O  O26  1  0.104340  0.181200  0.569343  1
  O  O27  1  0.604340  0.318800  0.430657  1
  O  O28  1  0.895660  0.818800  0.430657  1
  O  O29  1  0.395660  0.681200  0.569343  1
  O  O30  1  0.505853  0.715602  0.894617  1
  O  O31  1  0.005853  0.784398  0.105383  1
  O  O32  1  0.494147  0.284398  0.105383  1
  O  O33  1  0.994147  0.215602  0.894617  1
  O  O34  1  0.286793  0.029300  0.795542  1
  O  O35  1  0.786793  0.470700  0.204458  1
  O  O36  1  0.713207  0.970700  0.204458  1
  O  O37  1  0.213207  0.529300  0.795542  1
