# generated using pymatgen
data_Tb11Pr5MgAg3Ir4
_symmetry_space_group_name_H-M   'P 1'
_cell_length_a   9.75802965
_cell_length_b   9.74419130
_cell_length_c   9.74419096
_cell_angle_alpha   59.92433861
_cell_angle_beta   59.90376050
_cell_angle_gamma   59.90376089
_symmetry_Int_Tables_number   1
_chemical_formula_structural   Tb11Pr5MgAg3Ir4
_chemical_formula_sum   'Tb11 Pr5 Mg1 Ag3 Ir4'
_cell_volume   653.81851432
_cell_formula_units_Z   1
loop_
 _symmetry_equiv_pos_site_id
 _symmetry_equiv_pos_as_xyz
  1  'x, y, z'
loop_
 _atom_site_type_symbol
 _atom_site_label
 _atom_site_symmetry_multiplicity
 _atom_site_fract_x
 _atom_site_fract_y
 _atom_site_fract_z
 _atom_site_occupancy
  Tb  Tb0  1  0.347967  0.348288  0.348288  1
  Tb  Tb1  1  0.346884  0.348816  0.959798  1
  Tb  Tb2  1  0.346884  0.959798  0.348816  1
  Tb  Tb3  1  0.945719  0.351935  0.351935  1
  Tb  Tb4  1  0.809124  0.189047  0.189047  1
  Tb  Tb5  1  0.183209  0.815419  0.815419  1
  Tb  Tb6  1  0.184622  0.812795  0.187435  1
  Tb  Tb7  1  0.809246  0.189371  0.810966  1
  Tb  Tb8  1  0.184622  0.187435  0.812795  1
  Tb  Tb9  1  0.809246  0.810966  0.189371  1
  Tb  Tb10  1  0.938081  0.557157  0.557157  1
  Pr  Pr11  1  0.557816  0.941443  0.941443  1
  Pr  Pr12  1  0.562028  0.936999  0.559953  1
  Pr  Pr13  1  0.941363  0.557819  0.936665  1
  Pr  Pr14  1  0.562028  0.559953  0.936999  1
  Pr  Pr15  1  0.941363  0.936665  0.557819  1
  Mg  Mg16  1  0.293200  0.568833  0.568833  1
  Ag  Ag17  1  0.585182  0.580484  0.580484  1
  Ag  Ag18  1  0.580423  0.581809  0.257276  1
  Ag  Ag19  1  0.580423  0.257276  0.581809  1
  Ir  Ir20  1  0.139545  0.142137  0.142137  1
  Ir  Ir21  1  0.138281  0.147882  0.574589  1
  Ir  Ir22  1  0.138281  0.574589  0.147882  1
  Ir  Ir23  1  0.574464  0.143087  0.143087  1
