# generated using pymatgen
data_Li2TbHoPt2
_symmetry_space_group_name_H-M   'P 1'
_cell_length_a   4.02779900
_cell_length_b   7.08214000
_cell_length_c   8.50140400
_cell_angle_alpha   90.00000000
_cell_angle_beta   90.00000000
_cell_angle_gamma   90.00000000
_symmetry_Int_Tables_number   1
_chemical_formula_structural   Li2TbHoPt2
_chemical_formula_sum   'Li4 Tb2 Ho2 Pt4'
_cell_volume   242.50625920
_cell_formula_units_Z   2
loop_
 _symmetry_equiv_pos_site_id
 _symmetry_equiv_pos_as_xyz
  1  'x, y, z'
loop_
 _atom_site_type_symbol
 _atom_site_label
 _atom_site_symmetry_multiplicity
 _atom_site_fract_x
 _atom_site_fract_y
 _atom_site_fract_z
 _atom_site_occupancy
  Li  Li0  1  0.250000  0.375117  0.554025  1
  Li  Li1  1  0.250000  0.875117  0.945975  1
  Li  Li2  1  0.750000  0.625160  0.441225  1
  Li  Li3  1  0.750000  0.125160  0.058775  1
  Tb  Tb4  1  0.750000  0.049826  0.680006  1
  Tb  Tb5  1  0.750000  0.549826  0.819994  1
  Ho  Ho6  1  0.250000  0.950102  0.319847  1
  Ho  Ho7  1  0.250000  0.450102  0.180153  1
  Pt  Pt8  1  0.250000  0.257163  0.875376  1
  Pt  Pt9  1  0.250000  0.757163  0.624624  1
  Pt  Pt10  1  0.750000  0.742631  0.128028  1
  Pt  Pt11  1  0.750000  0.242631  0.371972  1
