# generated using pymatgen
data_Nd2Dy3Y(RuCl3)2
_symmetry_space_group_name_H-M   'P 1'
_cell_length_a   4.03104000
_cell_length_b   8.48085222
_cell_length_c   11.68014800
_cell_angle_alpha   87.06162566
_cell_angle_beta   90.00000000
_cell_angle_gamma   90.00000000
_symmetry_Int_Tables_number   1
_chemical_formula_structural   Nd2Dy3Y(RuCl3)2
_chemical_formula_sum   'Nd2 Dy3 Y1 Ru2 Cl6'
_cell_volume   398.78019716
_cell_formula_units_Z   1
loop_
 _symmetry_equiv_pos_site_id
 _symmetry_equiv_pos_as_xyz
  1  'x, y, z'
loop_
 _atom_site_type_symbol
 _atom_site_label
 _atom_site_symmetry_multiplicity
 _atom_site_fract_x
 _atom_site_fract_y
 _atom_site_fract_z
 _atom_site_occupancy
  Nd  Nd0  1  0.250000  0.292301  0.393320  1
  Nd  Nd1  1  0.750000  0.706587  0.607112  1
  Dy  Dy2  1  0.250000  0.863742  0.360199  1
  Dy  Dy3  1  0.750000  0.135516  0.639350  1
  Dy  Dy4  1  0.250000  0.892123  0.835281  1
  Y  Y5  1  0.750000  0.108930  0.163708  1
  Ru  Ru6  1  0.250000  0.936474  0.599746  1
  Ru  Ru7  1  0.750000  0.062243  0.400499  1
  Cl  Cl8  1  0.250000  0.416876  0.634236  1
  Cl  Cl9  1  0.750000  0.581187  0.366727  1
  Cl  Cl10  1  0.250000  0.891964  0.101701  1
  Cl  Cl11  1  0.750000  0.109639  0.897491  1
  Cl  Cl12  1  0.250000  0.327656  0.137180  1
  Cl  Cl13  1  0.750000  0.674758  0.863451  1
