# generated using pymatgen
data_La4Cd3Ga
_symmetry_space_group_name_H-M   'P 1'
_cell_length_a   3.83932500
_cell_length_b   3.83932500
_cell_length_c   15.99409800
_cell_angle_alpha   90.00000000
_cell_angle_beta   90.00000000
_cell_angle_gamma   90.00000000
_symmetry_Int_Tables_number   1
_chemical_formula_structural   La4Cd3Ga
_chemical_formula_sum   'La4 Cd3 Ga1'
_cell_volume   235.75966535
_cell_formula_units_Z   1
loop_
 _symmetry_equiv_pos_site_id
 _symmetry_equiv_pos_as_xyz
  1  'x, y, z'
loop_
 _atom_site_type_symbol
 _atom_site_label
 _atom_site_symmetry_multiplicity
 _atom_site_fract_x
 _atom_site_fract_y
 _atom_site_fract_z
 _atom_site_occupancy
  La  La0  1  0.500000  0.500000  0.113418  1
  La  La1  1  0.500000  0.500000  0.372977  1
  La  La2  1  0.500000  0.500000  0.627023  1
  La  La3  1  0.500000  0.500000  0.886582  1
  Cd  Cd4  1  0.000000  0.000000  0.245025  1
  Cd  Cd5  1  0.000000  0.000000  0.500000  1
  Cd  Cd6  1  0.000000  0.000000  0.754975  1
  Ga  Ga7  1  0.000000  0.000000  0.000000  1
