# generated using pymatgen
data_Li3ThPt2
_symmetry_space_group_name_H-M   'P 1'
_cell_length_a   4.21737200
_cell_length_b   4.21737262
_cell_length_c   6.97335900
_cell_angle_alpha   90.00000000
_cell_angle_beta   90.00000000
_cell_angle_gamma   119.99999517
_symmetry_Int_Tables_number   1
_chemical_formula_structural   Li3ThPt2
_chemical_formula_sum   'Li3 Th1 Pt2'
_cell_volume   107.41292938
_cell_formula_units_Z   1
loop_
 _symmetry_equiv_pos_site_id
 _symmetry_equiv_pos_as_xyz
  1  'x, y, z'
loop_
 _atom_site_type_symbol
 _atom_site_label
 _atom_site_symmetry_multiplicity
 _atom_site_fract_x
 _atom_site_fract_y
 _atom_site_fract_z
 _atom_site_occupancy
  Li  Li0  1  0.666667  0.333333  0.360510  1
  Li  Li1  1  0.333333  0.666667  0.639490  1
  Li  Li2  1  0.000000  0.000000  0.500000  1
  Th  Th3  1  0.000000  0.000000  0.000000  1
  Pt  Pt4  1  0.666667  0.333333  0.753403  1
  Pt  Pt5  1  0.333333  0.666667  0.246597  1
