# generated using pymatgen
data_Yb6Ag16P
_symmetry_space_group_name_H-M   'P 1'
_cell_length_a   8.67683032
_cell_length_b   8.67682932
_cell_length_c   8.67683000
_cell_angle_alpha   109.47122455
_cell_angle_beta   109.47122222
_cell_angle_gamma   109.47122138
_symmetry_Int_Tables_number   1
_chemical_formula_structural   Yb6Ag16P
_chemical_formula_sum   'Yb6 Ag16 P1'
_cell_volume   502.87648038
_cell_formula_units_Z   1
loop_
 _symmetry_equiv_pos_site_id
 _symmetry_equiv_pos_as_xyz
  1  'x, y, z'
loop_
 _atom_site_type_symbol
 _atom_site_label
 _atom_site_symmetry_multiplicity
 _atom_site_fract_x
 _atom_site_fract_y
 _atom_site_fract_z
 _atom_site_occupancy
  Yb  Yb0  1  0.000000  0.282642  0.282642  1
  Yb  Yb1  1  0.282642  0.000000  0.282642  1
  Yb  Yb2  1  0.717358  0.000000  0.717358  1
  Yb  Yb3  1  0.717358  0.717358  0.000000  1
  Yb  Yb4  1  0.282642  0.282642  0.000000  1
  Yb  Yb5  1  0.000000  0.717358  0.717358  1
  Ag  Ag6  1  0.500000  0.500000  0.500000  1
  Ag  Ag7  1  0.500000  0.000000  0.000000  1
  Ag  Ag8  1  0.000000  0.500000  0.000000  1
  Ag  Ag9  1  0.000000  0.000000  0.500000  1
  Ag  Ag10  1  0.686974  0.343487  0.343487  1
  Ag  Ag11  1  0.343487  0.000000  0.656513  1
  Ag  Ag12  1  0.343487  0.686974  0.343487  1
  Ag  Ag13  1  0.343487  0.343487  0.686974  1
  Ag  Ag14  1  0.343487  0.656513  0.000000  1
  Ag  Ag15  1  0.000000  0.343487  0.656513  1
  Ag  Ag16  1  0.000000  0.656513  0.343487  1
  Ag  Ag17  1  0.656513  0.656513  0.313026  1
  Ag  Ag18  1  0.656513  0.000000  0.343487  1
  Ag  Ag19  1  0.656513  0.343487  0.000000  1
  Ag  Ag20  1  0.656513  0.313026  0.656513  1
  Ag  Ag21  1  0.313026  0.656513  0.656513  1
  P  P22  1  0.000000  0.000000  0.000000  1
