# generated using pymatgen
data_SmY3Ho2Ta2O14
_symmetry_space_group_name_H-M   'P 1'
_cell_length_a   6.49827933
_cell_length_b   6.51633186
_cell_length_c   7.50432219
_cell_angle_alpha   89.92935566
_cell_angle_beta   90.07204712
_cell_angle_gamma   108.65218411
_symmetry_Int_Tables_number   1
_chemical_formula_structural   SmY3Ho2Ta2O14
_chemical_formula_sum   'Sm1 Y3 Ho2 Ta2 O14'
_cell_volume   301.07967835
_cell_formula_units_Z   1
loop_
 _symmetry_equiv_pos_site_id
 _symmetry_equiv_pos_as_xyz
  1  'x, y, z'
loop_
 _atom_site_type_symbol
 _atom_site_label
 _atom_site_symmetry_multiplicity
 _atom_site_fract_x
 _atom_site_fract_y
 _atom_site_fract_z
 _atom_site_occupancy
  Sm  Sm0  1  0.528505  0.530248  0.499535  1
  Y  Y1  1  0.463338  0.461554  0.999513  1
  Y  Y2  1  0.999673  0.534617  0.239984  1
  Y  Y3  1  0.999845  0.465476  0.742836  1
  Ho  Ho4  1  0.534926  0.000350  0.759924  1
  Ho  Ho5  1  0.465210  0.999253  0.256956  1
  Ta  Ta6  1  0.002201  0.002049  0.499918  1
  Ta  Ta7  1  0.997385  0.997499  0.999920  1
  O  O8  1  0.931134  0.065682  0.749820  1
  O  O9  1  0.068972  0.934462  0.250200  1
  O  O10  1  0.360133  0.643092  0.244626  1
  O  O11  1  0.640196  0.357239  0.754303  1
  O  O12  1  0.370382  0.632821  0.755618  1
  O  O13  1  0.629303  0.366868  0.245331  1
  O  O14  1  0.327509  0.079168  0.974937  1
  O  O15  1  0.672524  0.922414  0.474664  1
  O  O16  1  0.308857  0.049958  0.545166  1
  O  O17  1  0.693672  0.954753  0.045445  1
  O  O18  1  0.055721  0.309949  0.457117  1
  O  O19  1  0.948561  0.692504  0.956744  1
  O  O20  1  0.919392  0.672851  0.523803  1
  O  O21  1  0.082563  0.327195  0.023639  1
