# generated using pymatgen
data_Li2ZrNpN4
_symmetry_space_group_name_H-M   'P 1'
_cell_length_a   20.78951801
_cell_length_b   4.25251300
_cell_length_c   4.41605900
_cell_angle_alpha   90.00081788
_cell_angle_beta   89.99993478
_cell_angle_gamma   89.99889822
_symmetry_Int_Tables_number   1
_chemical_formula_structural   Li2ZrNpN4
_chemical_formula_sum   'Li8 Zr4 Np4 N16'
_cell_volume   390.41359990
_cell_formula_units_Z   4
loop_
 _symmetry_equiv_pos_site_id
 _symmetry_equiv_pos_as_xyz
  1  'x, y, z'
loop_
 _atom_site_type_symbol
 _atom_site_label
 _atom_site_symmetry_multiplicity
 _atom_site_fract_x
 _atom_site_fract_y
 _atom_site_fract_z
 _atom_site_occupancy
  Li  Li0  1  0.188641  0.998557  0.746626  1
  Li  Li1  1  0.811359  0.001443  0.253374  1
  Li  Li2  1  0.311486  0.998555  0.246635  1
  Li  Li3  1  0.688514  0.001445  0.753365  1
  Li  Li4  1  0.065308  0.499272  0.749121  1
  Li  Li5  1  0.934692  0.500728  0.250879  1
  Li  Li6  1  0.434472  0.499249  0.249120  1
  Li  Li7  1  0.565528  0.500751  0.750880  1
  Zr  Zr8  1  0.443892  0.999246  0.749741  1
  Zr  Zr9  1  0.556108  0.000754  0.250259  1
  Zr  Zr10  1  0.056094  0.999254  0.249741  1
  Zr  Zr11  1  0.943906  0.000746  0.750259  1
  Np  Np12  1  0.314241  0.498749  0.747051  1
  Np  Np13  1  0.685759  0.501251  0.252949  1
  Np  Np14  1  0.185677  0.498734  0.247052  1
  Np  Np15  1  0.814323  0.501266  0.752948  1
  N  N16  1  0.324018  0.998753  0.747185  1
  N  N17  1  0.675982  0.001247  0.252815  1
  N  N18  1  0.175845  0.998738  0.247184  1
  N  N19  1  0.824155  0.001262  0.752816  1
  N  N20  1  0.413337  0.499073  0.749195  1
  N  N21  1  0.586663  0.500927  0.250805  1
  N  N22  1  0.086496  0.499078  0.249187  1
  N  N23  1  0.913504  0.500922  0.750813  1
  N  N24  1  0.046251  0.999155  0.749650  1
  N  N25  1  0.953749  0.000845  0.250350  1
  N  N26  1  0.453745  0.999144  0.249653  1
  N  N27  1  0.546255  0.000856  0.750347  1
  N  N28  1  0.208991  0.498584  0.746749  1
  N  N29  1  0.791009  0.501416  0.253251  1
  N  N30  1  0.291007  0.498586  0.246747  1
  N  N31  1  0.708993  0.501414  0.753253  1
