# generated using pymatgen
data_Dy5Ho12Th3Pb16
_symmetry_space_group_name_H-M   'P 1'
_cell_length_a   8.19798724
_cell_length_b   8.27991208
_cell_length_c   15.62037200
_cell_angle_alpha   90.00613099
_cell_angle_beta   90.01376135
_cell_angle_gamma   89.99494703
_symmetry_Int_Tables_number   1
_chemical_formula_structural   Dy5Ho12Th3Pb16
_chemical_formula_sum   'Dy5 Ho12 Th3 Pb16'
_cell_volume   1060.28915368
_cell_formula_units_Z   1
loop_
 _symmetry_equiv_pos_site_id
 _symmetry_equiv_pos_as_xyz
  1  'x, y, z'
loop_
 _atom_site_type_symbol
 _atom_site_label
 _atom_site_symmetry_multiplicity
 _atom_site_fract_x
 _atom_site_fract_y
 _atom_site_fract_z
 _atom_site_occupancy
  Dy  Dy0  1  0.540074  0.326183  0.898846  1
  Dy  Dy1  1  0.039327  0.174225  0.601809  1
  Dy  Dy2  1  0.462611  0.674432  0.398374  1
  Dy  Dy3  1  0.961706  0.824748  0.101874  1
  Dy  Dy4  1  0.465420  0.674552  0.099421  1
  Ho  Ho5  1  0.373577  0.839279  0.879275  1
  Ho  Ho6  1  0.873154  0.661179  0.621807  1
  Ho  Ho7  1  0.627257  0.158451  0.377217  1
  Ho  Ho8  1  0.126429  0.340551  0.121996  1
  Ho  Ho9  1  0.626875  0.157719  0.122031  1
  Ho  Ho10  1  0.127714  0.342008  0.377544  1
  Ho  Ho11  1  0.372998  0.841713  0.622082  1
  Ho  Ho12  1  0.874140  0.658961  0.878454  1
  Ho  Ho13  1  0.205460  0.502292  0.750885  1
  Ho  Ho14  1  0.705139  0.997798  0.750106  1
  Ho  Ho15  1  0.793989  0.498471  0.248869  1
  Ho  Ho16  1  0.294456  0.002759  0.248891  1
  Th  Th17  1  0.971155  0.820091  0.401748  1
  Th  Th18  1  0.528544  0.322313  0.596900  1
  Th  Th19  1  0.029778  0.179043  0.903725  1
  Pb  Pb20  1  0.283839  0.029662  0.044719  1
  Pb  Pb21  1  0.783596  0.468594  0.455111  1
  Pb  Pb22  1  0.717739  0.970262  0.544443  1
  Pb  Pb23  1  0.220210  0.531423  0.956436  1
  Pb  Pb24  1  0.712525  0.962711  0.957588  1
  Pb  Pb25  1  0.211422  0.539345  0.541850  1
  Pb  Pb26  1  0.288123  0.038523  0.458098  1
  Pb  Pb27  1  0.784465  0.464793  0.042405  1
  Pb  Pb28  1  0.568140  0.628428  0.749140  1
  Pb  Pb29  1  0.068608  0.872254  0.751089  1
  Pb  Pb30  1  0.432007  0.372201  0.249683  1
  Pb  Pb31  1  0.931366  0.127962  0.251194  1
  Pb  Pb32  1  0.344373  0.150338  0.752816  1
  Pb  Pb33  1  0.845018  0.349964  0.747105  1
  Pb  Pb34  1  0.651382  0.846429  0.249758  1
  Pb  Pb35  1  0.157382  0.650341  0.246710  1
