# generated using pymatgen
data_Tb3Tm9Tc3Rh
_symmetry_space_group_name_H-M   'P 1'
_cell_length_a   6.25038376
_cell_length_b   7.33788394
_cell_length_c   9.01856400
_cell_angle_alpha   90.00000000
_cell_angle_beta   90.00000000
_cell_angle_gamma   89.97705926
_symmetry_Int_Tables_number   1
_chemical_formula_structural   Tb3Tm9Tc3Rh
_chemical_formula_sum   'Tb3 Tm9 Tc3 Rh1'
_cell_volume   413.63271289
_cell_formula_units_Z   1
loop_
 _symmetry_equiv_pos_site_id
 _symmetry_equiv_pos_as_xyz
  1  'x, y, z'
loop_
 _atom_site_type_symbol
 _atom_site_label
 _atom_site_symmetry_multiplicity
 _atom_site_fract_x
 _atom_site_fract_y
 _atom_site_fract_z
 _atom_site_occupancy
  Tb  Tb0  1  0.623165  0.038039  0.250000  1
  Tb  Tb1  1  0.128979  0.457542  0.750000  1
  Tb  Tb2  1  0.374235  0.959843  0.750000  1
  Tm  Tm3  1  0.331940  0.676310  0.066547  1
  Tm  Tm4  1  0.160786  0.176770  0.436089  1
  Tm  Tm5  1  0.662555  0.322699  0.560808  1
  Tm  Tm6  1  0.839192  0.825044  0.938989  1
  Tm  Tm7  1  0.662555  0.322699  0.939192  1
  Tm  Tm8  1  0.839192  0.825044  0.561011  1
  Tm  Tm9  1  0.331940  0.676310  0.433453  1
  Tm  Tm10  1  0.160786  0.176770  0.063911  1
  Tm  Tm11  1  0.874332  0.540539  0.250000  1
  Tc  Tc12  1  0.041114  0.883835  0.250000  1
  Tc  Tc13  1  0.463314  0.387191  0.250000  1
  Tc  Tc14  1  0.957961  0.116658  0.750000  1
  Rh  Rh15  1  0.547957  0.614705  0.750000  1
