# generated using pymatgen
data_Ta5Cr3(Co4P3)4
_symmetry_space_group_name_H-M   'P 1'
_cell_length_a   11.65549100
_cell_length_b   11.65549236
_cell_length_c   3.56114200
_cell_angle_alpha   90.00000000
_cell_angle_beta   90.00000000
_cell_angle_gamma   120.00000466
_symmetry_Int_Tables_number   1
_chemical_formula_structural   Ta5Cr3(Co4P3)4
_chemical_formula_sum   'Ta5 Cr3 Co16 P12'
_cell_volume   418.96823768
_cell_formula_units_Z   1
loop_
 _symmetry_equiv_pos_site_id
 _symmetry_equiv_pos_as_xyz
  1  'x, y, z'
loop_
 _atom_site_type_symbol
 _atom_site_label
 _atom_site_symmetry_multiplicity
 _atom_site_fract_x
 _atom_site_fract_y
 _atom_site_fract_z
 _atom_site_occupancy
  Ta  Ta0  1  0.666667  0.333333  0.000000  1
  Ta  Ta1  1  0.333333  0.666667  0.000000  1
  Ta  Ta2  1  0.818960  0.818960  0.500000  1
  Ta  Ta3  1  0.181040  0.000000  0.500000  1
  Ta  Ta4  1  0.000000  0.181040  0.500000  1
  Cr  Cr5  1  0.449897  0.449897  0.000000  1
  Cr  Cr6  1  0.550103  0.000000  0.000000  1
  Cr  Cr7  1  0.000000  0.550103  0.000000  1
  Co  Co8  1  0.868838  0.352356  0.500000  1
  Co  Co9  1  0.647644  0.516482  0.500000  1
  Co  Co10  1  0.483518  0.131162  0.500000  1
  Co  Co11  1  0.352356  0.868838  0.500000  1
  Co  Co12  1  0.516482  0.647644  0.500000  1
  Co  Co13  1  0.131162  0.483518  0.500000  1
  Co  Co14  1  0.805938  0.179455  0.000000  1
  Co  Co15  1  0.820545  0.626483  0.000000  1
  Co  Co16  1  0.373517  0.194062  0.000000  1
  Co  Co17  1  0.179455  0.805938  0.000000  1
  Co  Co18  1  0.626483  0.820545  0.000000  1
  Co  Co19  1  0.194062  0.373517  0.000000  1
  Co  Co20  1  0.279330  0.279330  0.500000  1
  Co  Co21  1  0.720670  0.000000  0.500000  1
  Co  Co22  1  0.000000  0.720670  0.500000  1
  Co  Co23  1  0.000000  0.000000  0.000000  1
  P  P24  1  0.680459  0.164404  0.500000  1
  P  P25  1  0.835596  0.516054  0.500000  1
  P  P26  1  0.483946  0.319541  0.500000  1
  P  P27  1  0.164404  0.680459  0.500000  1
  P  P28  1  0.516054  0.835596  0.500000  1
  P  P29  1  0.319541  0.483946  0.500000  1
  P  P30  1  0.175618  0.175618  0.000000  1
  P  P31  1  0.824382  0.000000  0.000000  1
  P  P32  1  0.000000  0.824382  0.000000  1
  P  P33  1  0.640137  0.640137  0.000000  1
  P  P34  1  0.359863  0.000000  0.000000  1
  P  P35  1  0.000000  0.359863  0.000000  1
