# generated using pymatgen
data_LaYb6Pr3Si8
_symmetry_space_group_name_H-M   'P 1'
_cell_length_a   7.52821166
_cell_length_b   7.99192300
_cell_length_c   15.23665336
_cell_angle_alpha   90.00000000
_cell_angle_beta   89.94959755
_cell_angle_gamma   90.00000000
_symmetry_Int_Tables_number   1
_chemical_formula_structural   LaYb6Pr3Si8
_chemical_formula_sum   'La2 Yb12 Pr6 Si16'
_cell_volume   916.71118614
_cell_formula_units_Z   2
loop_
 _symmetry_equiv_pos_site_id
 _symmetry_equiv_pos_as_xyz
  1  'x, y, z'
loop_
 _atom_site_type_symbol
 _atom_site_label
 _atom_site_symmetry_multiplicity
 _atom_site_fract_x
 _atom_site_fract_y
 _atom_site_fract_z
 _atom_site_occupancy
  La  La0  1  0.020802  0.183595  0.402922  1
  La  La1  1  0.520802  0.316405  0.402922  1
  Yb  Yb2  1  0.325809  0.183852  0.623372  1
  Yb  Yb3  1  0.674818  0.815887  0.376790  1
  Yb  Yb4  1  0.650059  0.002860  0.750350  1
  Yb  Yb5  1  0.174818  0.684113  0.376790  1
  Yb  Yb6  1  0.825316  0.315890  0.877110  1
  Yb  Yb7  1  0.825809  0.316148  0.623372  1
  Yb  Yb8  1  0.850518  0.502505  0.249217  1
  Yb  Yb9  1  0.350518  0.997495  0.249217  1
  Yb  Yb10  1  0.325316  0.184110  0.877110  1
  Yb  Yb11  1  0.174510  0.684276  0.122005  1
  Yb  Yb12  1  0.674510  0.815724  0.122005  1
  Yb  Yb13  1  0.150059  0.497140  0.750350  1
  Pr  Pr14  1  0.476392  0.686889  0.901747  1
  Pr  Pr15  1  0.476485  0.688115  0.599924  1
  Pr  Pr16  1  0.976485  0.811885  0.599924  1
  Pr  Pr17  1  0.976392  0.813111  0.901747  1
  Pr  Pr18  1  0.523512  0.313500  0.097961  1
  Pr  Pr19  1  0.023512  0.186500  0.097961  1
  Si  Si20  1  0.262277  0.871864  0.750507  1
  Si  Si21  1  0.463910  0.587996  0.248547  1
  Si  Si22  1  0.036432  0.086958  0.749934  1
  Si  Si23  1  0.536432  0.413042  0.749934  1
  Si  Si24  1  0.145373  0.473145  0.537161  1
  Si  Si25  1  0.963910  0.912004  0.248547  1
  Si  Si26  1  0.737641  0.127413  0.249242  1
  Si  Si27  1  0.855380  0.527588  0.036276  1
  Si  Si28  1  0.355380  0.972412  0.036276  1
  Si  Si29  1  0.144242  0.471927  0.962764  1
  Si  Si30  1  0.645373  0.026855  0.537161  1
  Si  Si31  1  0.356528  0.970919  0.464171  1
  Si  Si32  1  0.856528  0.529081  0.464171  1
  Si  Si33  1  0.762277  0.628136  0.750507  1
  Si  Si34  1  0.237641  0.372587  0.249242  1
  Si  Si35  1  0.644242  0.028073  0.962764  1
