# generated using pymatgen
data_Sr3ErCrO6
_symmetry_space_group_name_H-M   'P 1'
_cell_length_a   6.83277456
_cell_length_b   6.83276021
_cell_length_c   6.83274728
_cell_angle_alpha   92.33727732
_cell_angle_beta   92.33662716
_cell_angle_gamma   92.33699870
_symmetry_Int_Tables_number   1
_chemical_formula_structural   Sr3ErCrO6
_chemical_formula_sum   'Sr6 Er2 Cr2 O12'
_cell_volume   318.18020599
_cell_formula_units_Z   2
loop_
 _symmetry_equiv_pos_site_id
 _symmetry_equiv_pos_as_xyz
  1  'x, y, z'
loop_
 _atom_site_type_symbol
 _atom_site_label
 _atom_site_symmetry_multiplicity
 _atom_site_fract_x
 _atom_site_fract_y
 _atom_site_fract_z
 _atom_site_occupancy
  Sr  Sr0  1  0.615494  0.884505  0.249997  1
  Sr  Sr1  1  0.884513  0.249996  0.615493  1
  Sr  Sr2  1  0.250009  0.615488  0.884508  1
  Sr  Sr3  1  0.115489  0.749992  0.384513  1
  Sr  Sr4  1  0.749994  0.384517  0.115494  1
  Sr  Sr5  1  0.384512  0.115497  0.750000  1
  Er  Er6  1  0.249987  0.250011  0.250010  1
  Er  Er7  1  0.749996  0.750005  0.749983  1
  Cr  Cr8  1  0.500002  0.500001  0.500004  1
  Cr  Cr9  1  0.000007  0.000001  0.000001  1
  O  O10  1  0.541547  0.214025  0.410210  1
  O  O11  1  0.214034  0.410215  0.541556  1
  O  O12  1  0.410210  0.541555  0.214030  1
  O  O13  1  0.041548  0.910206  0.714030  1
  O  O14  1  0.910212  0.714032  0.041557  1
  O  O15  1  0.714033  0.041554  0.910219  1
  O  O16  1  0.458450  0.785966  0.589790  1
  O  O17  1  0.785958  0.589785  0.458446  1
  O  O18  1  0.589785  0.458441  0.785970  1
  O  O19  1  0.958450  0.089794  0.285964  1
  O  O20  1  0.089790  0.285969  0.958441  1
  O  O21  1  0.285978  0.958447  0.089781  1
