# generated using pymatgen
data_Lu6Ti7Al9(CoIr3)2
_symmetry_space_group_name_H-M   'P 1'
_cell_length_a   8.95169732
_cell_length_b   8.95169501
_cell_length_c   8.95169713
_cell_angle_alpha   60.17017999
_cell_angle_beta   60.17018662
_cell_angle_gamma   60.17018514
_symmetry_Int_Tables_number   1
_chemical_formula_structural   Lu6Ti7Al9(CoIr3)2
_chemical_formula_sum   'Lu6 Ti7 Al9 Co2 Ir6'
_cell_volume   509.18048065
_cell_formula_units_Z   1
loop_
 _symmetry_equiv_pos_site_id
 _symmetry_equiv_pos_as_xyz
  1  'x, y, z'
loop_
 _atom_site_type_symbol
 _atom_site_label
 _atom_site_symmetry_multiplicity
 _atom_site_fract_x
 _atom_site_fract_y
 _atom_site_fract_z
 _atom_site_occupancy
  Lu  Lu0  1  0.205170  0.205170  0.796154  1
  Lu  Lu1  1  0.796154  0.205170  0.205170  1
  Lu  Lu2  1  0.205170  0.796154  0.205170  1
  Lu  Lu3  1  0.798009  0.798009  0.193873  1
  Lu  Lu4  1  0.193873  0.798009  0.798009  1
  Lu  Lu5  1  0.798009  0.193873  0.798009  1
  Ti  Ti6  1  0.382024  0.382024  0.382024  1
  Ti  Ti7  1  0.383260  0.853724  0.383260  1
  Ti  Ti8  1  0.853724  0.383260  0.383260  1
  Ti  Ti9  1  0.383260  0.383260  0.853724  1
  Ti  Ti10  1  0.833017  0.501979  0.833017  1
  Ti  Ti11  1  0.501979  0.833017  0.833017  1
  Ti  Ti12  1  0.833017  0.833017  0.501979  1
  Al  Al13  1  0.171658  0.171658  0.171658  1
  Al  Al14  1  0.170578  0.490451  0.170578  1
  Al  Al15  1  0.490451  0.170578  0.170578  1
  Al  Al16  1  0.170578  0.170578  0.490451  1
  Al  Al17  1  0.616719  0.616719  0.616719  1
  Al  Al18  1  0.615638  0.151523  0.615638  1
  Al  Al19  1  0.151523  0.615638  0.615638  1
  Al  Al20  1  0.615638  0.615638  0.151523  1
  Al  Al21  1  0.825870  0.825870  0.825870  1
  Co  Co22  1  0.500659  0.500659  0.500659  1
  Co  Co23  1  0.002447  0.002447  0.002447  1
  Ir  Ir24  1  0.000627  0.000627  0.496892  1
  Ir  Ir25  1  0.496892  0.000627  0.000627  1
  Ir  Ir26  1  0.000627  0.496892  0.000627  1
  Ir  Ir27  1  0.502391  0.502391  0.998645  1
  Ir  Ir28  1  0.998645  0.502391  0.502391  1
  Ir  Ir29  1  0.502391  0.998645  0.502391  1
