# generated using pymatgen
data_TbMg3P6N13
_symmetry_space_group_name_H-M   'P 1'
_cell_length_a   7.14468250
_cell_length_b   7.14468356
_cell_length_c   7.14468267
_cell_angle_alpha   109.27960824
_cell_angle_beta   109.27961080
_cell_angle_gamma   109.27960320
_symmetry_Int_Tables_number   1
_chemical_formula_structural   TbMg3P6N13
_chemical_formula_sum   'Tb1 Mg3 P6 N13'
_cell_volume   282.72888287
_cell_formula_units_Z   1
loop_
 _symmetry_equiv_pos_site_id
 _symmetry_equiv_pos_as_xyz
  1  'x, y, z'
loop_
 _atom_site_type_symbol
 _atom_site_label
 _atom_site_symmetry_multiplicity
 _atom_site_fract_x
 _atom_site_fract_y
 _atom_site_fract_z
 _atom_site_occupancy
  Tb  Tb0  1  0.286246  0.286246  0.286246  1
  Mg  Mg1  1  0.990621  0.694292  0.990621  1
  Mg  Mg2  1  0.694292  0.990621  0.990621  1
  Mg  Mg3  1  0.990621  0.990621  0.694292  1
  P  P4  1  0.504604  0.252124  0.757462  1
  P  P5  1  0.504604  0.757462  0.252124  1
  P  P6  1  0.757462  0.252124  0.504604  1
  P  P7  1  0.252124  0.504604  0.757462  1
  P  P8  1  0.757462  0.504604  0.252124  1
  P  P9  1  0.252124  0.757462  0.504604  1
  N  N10  1  0.980861  0.980861  0.980861  1
  N  N11  1  0.001732  0.733739  0.448002  1
  N  N12  1  0.271841  0.716246  0.271841  1
  N  N13  1  0.280332  0.560887  0.560887  1
  N  N14  1  0.560887  0.560887  0.280332  1
  N  N15  1  0.560887  0.280332  0.560887  1
  N  N16  1  0.733739  0.001732  0.448002  1
  N  N17  1  0.448002  0.001732  0.733739  1
  N  N18  1  0.733739  0.448002  0.001732  1
  N  N19  1  0.271841  0.271841  0.716246  1
  N  N20  1  0.716246  0.271841  0.271841  1
  N  N21  1  0.001732  0.448002  0.733739  1
  N  N22  1  0.448002  0.733739  0.001732  1
