# generated using pymatgen
data_Dy7(LuSn2)3
_symmetry_space_group_name_H-M   'P 1'
_cell_length_a   8.91506700
_cell_length_b   8.91506582
_cell_length_c   6.48285400
_cell_angle_alpha   90.00000000
_cell_angle_beta   90.00000000
_cell_angle_gamma   119.99999325
_symmetry_Int_Tables_number   1
_chemical_formula_structural   Dy7(LuSn2)3
_chemical_formula_sum   'Dy7 Lu3 Sn6'
_cell_volume   446.21695420
_cell_formula_units_Z   1
loop_
 _symmetry_equiv_pos_site_id
 _symmetry_equiv_pos_as_xyz
  1  'x, y, z'
loop_
 _atom_site_type_symbol
 _atom_site_label
 _atom_site_symmetry_multiplicity
 _atom_site_fract_x
 _atom_site_fract_y
 _atom_site_fract_z
 _atom_site_occupancy
  Dy  Dy0  1  0.999822  0.760928  0.749795  1
  Dy  Dy1  1  0.999822  0.238894  0.250205  1
  Dy  Dy2  1  0.761106  0.760928  0.250205  1
  Dy  Dy3  1  0.761106  0.000178  0.749795  1
  Dy  Dy4  1  0.239072  0.238894  0.749795  1
  Dy  Dy5  1  0.239072  0.000178  0.250205  1
  Dy  Dy6  1  0.333333  0.666667  0.000000  1
  Lu  Lu7  1  0.333333  0.666667  0.500000  1
  Lu  Lu8  1  0.666667  0.333333  0.000000  1
  Lu  Lu9  1  0.666667  0.333333  0.500000  1
  Sn  Sn10  1  0.397393  0.001488  0.748743  1
  Sn  Sn11  1  0.397393  0.395906  0.251257  1
  Sn  Sn12  1  0.998512  0.602607  0.251257  1
  Sn  Sn13  1  0.998512  0.395906  0.748743  1
  Sn  Sn14  1  0.604094  0.602607  0.748743  1
  Sn  Sn15  1  0.604094  0.001488  0.251257  1
