# generated using pymatgen
data_Cs3TmNpBr9
_symmetry_space_group_name_H-M   'P 1'
_cell_length_a   10.51264284
_cell_length_b   10.51264388
_cell_length_c   10.51264302
_cell_angle_alpha   83.41247477
_cell_angle_beta   83.41247830
_cell_angle_gamma   83.41247640
_symmetry_Int_Tables_number   1
_chemical_formula_structural   Cs3TmNpBr9
_chemical_formula_sum   'Cs6 Tm2 Np2 Br18'
_cell_volume   1140.43355580
_cell_formula_units_Z   2
loop_
 _symmetry_equiv_pos_site_id
 _symmetry_equiv_pos_as_xyz
  1  'x, y, z'
loop_
 _atom_site_type_symbol
 _atom_site_label
 _atom_site_symmetry_multiplicity
 _atom_site_fract_x
 _atom_site_fract_y
 _atom_site_fract_z
 _atom_site_occupancy
  Cs  Cs0  1  0.751955  0.412131  0.087867  1
  Cs  Cs1  1  0.087867  0.751955  0.412131  1
  Cs  Cs2  1  0.248045  0.587869  0.912133  1
  Cs  Cs3  1  0.412131  0.087867  0.751955  1
  Cs  Cs4  1  0.912133  0.248045  0.587869  1
  Cs  Cs5  1  0.587869  0.912133  0.248045  1
  Tm  Tm6  1  0.847813  0.847813  0.847813  1
  Tm  Tm7  1  0.152187  0.152187  0.152187  1
  Np  Np8  1  0.348145  0.348145  0.348145  1
  Np  Np9  1  0.651855  0.651855  0.651855  1
  Br  Br10  1  0.412318  0.767648  0.579339  1
  Br  Br11  1  0.232352  0.420661  0.587682  1
  Br  Br12  1  0.401694  0.246736  0.091641  1
  Br  Br13  1  0.091641  0.401694  0.246736  1
  Br  Br14  1  0.916814  0.736788  0.077048  1
  Br  Br15  1  0.922952  0.083186  0.263212  1
  Br  Br16  1  0.598306  0.753264  0.908359  1
  Br  Br17  1  0.753264  0.908359  0.598306  1
  Br  Br18  1  0.579339  0.412318  0.767648  1
  Br  Br19  1  0.246736  0.091641  0.401694  1
  Br  Br20  1  0.767648  0.579339  0.412318  1
  Br  Br21  1  0.736788  0.077048  0.916814  1
  Br  Br22  1  0.083186  0.263212  0.922952  1
  Br  Br23  1  0.420661  0.587682  0.232352  1
  Br  Br24  1  0.587682  0.232352  0.420661  1
  Br  Br25  1  0.908359  0.598306  0.753264  1
  Br  Br26  1  0.263212  0.922952  0.083186  1
  Br  Br27  1  0.077048  0.916814  0.736788  1
