# generated using pymatgen
data_Li12Sm11Gd(TeO6)8
_symmetry_space_group_name_H-M   'P 1'
_cell_length_a   10.89809069
_cell_length_b   10.89417464
_cell_length_c   10.89418129
_cell_angle_alpha   109.44474232
_cell_angle_beta   109.47724378
_cell_angle_gamma   109.47727519
_symmetry_Int_Tables_number   1
_chemical_formula_structural   Li12Sm11Gd(TeO6)8
_chemical_formula_sum   'Li12 Sm11 Gd1 Te8 O48'
_cell_volume   995.85150335
_cell_formula_units_Z   1
loop_
 _symmetry_equiv_pos_site_id
 _symmetry_equiv_pos_as_xyz
  1  'x, y, z'
loop_
 _atom_site_type_symbol
 _atom_site_label
 _atom_site_symmetry_multiplicity
 _atom_site_fract_x
 _atom_site_fract_y
 _atom_site_fract_z
 _atom_site_occupancy
  Li  Li0  1  0.750002  0.375002  0.125001  1
  Li  Li1  1  0.875141  0.750093  0.124992  1
  Li  Li2  1  0.125005  0.375002  0.249992  1
  Li  Li3  1  0.624855  0.875008  0.249906  1
  Li  Li4  1  0.624852  0.249847  0.374948  1
  Li  Li5  1  0.250002  0.124664  0.374664  1
  Li  Li6  1  0.749997  0.874999  0.624999  1
  Li  Li7  1  0.374995  0.750009  0.624999  1
  Li  Li8  1  0.374991  0.124983  0.749994  1
  Li  Li9  1  0.875147  0.625052  0.750152  1
  Li  Li10  1  0.249998  0.625335  0.875336  1
  Li  Li11  1  0.125010  0.250006  0.875016  1
  Sm  Sm12  1  0.374923  0.249690  0.125050  1
  Sm  Sm13  1  0.374923  0.625232  0.249873  1
  Sm  Sm14  1  0.874983  0.125005  0.249986  1
  Sm  Sm15  1  0.750000  0.625000  0.375000  1
  Sm  Sm16  1  0.125077  0.750127  0.374767  1
  Sm  Sm17  1  0.874984  0.249978  0.624996  1
  Sm  Sm18  1  0.250000  0.375000  0.625000  1
  Sm  Sm19  1  0.125077  0.874950  0.750309  1
  Sm  Sm20  1  0.625017  0.375003  0.750022  1
  Sm  Sm21  1  0.750001  0.125000  0.874999  1
  Sm  Sm22  1  0.625017  0.750013  0.874995  1
  Gd  Gd23  1  0.250001  0.875001  0.125000  1
  Te  Te24  1  0.000196  0.999668  0.000155  1
  Te  Te25  1  0.499804  0.999845  0.000332  1
  Te  Te26  1  0.000196  0.500529  0.000041  1
  Te  Te27  1  0.499984  0.500002  0.999998  1
  Te  Te28  1  0.000017  0.000002  0.499998  1
  Te  Te29  1  0.499984  0.499981  0.499985  1
  Te  Te30  1  0.499804  0.999959  0.499472  1
  Te  Te31  1  0.000016  0.500014  0.500019  1
  O  O32  1  0.196399  0.619947  0.025537  1
  O  O33  1  0.328704  0.406593  0.024708  1
  O  O34  1  0.695690  0.171089  0.077751  1
  O  O35  1  0.881763  0.906530  0.077857  1
  O  O36  1  0.618237  0.922143  0.093470  1
  O  O37  1  0.975643  0.171098  0.093589  1
  O  O38  1  0.025229  0.696670  0.118138  1
  O  O39  1  0.593416  0.422151  0.118163  1
  O  O40  1  0.196399  0.076452  0.170862  1
  O  O41  1  0.474772  0.092910  0.171441  1
  O  O42  1  0.118170  0.524751  0.195842  1
  O  O43  1  0.577765  0.671248  0.195968  1
  O  O44  1  0.474771  0.881863  0.303331  1
  O  O45  1  0.328705  0.422111  0.303997  1
  O  O46  1  0.906583  0.524746  0.328734  1
  O  O47  1  0.922235  0.804032  0.328752  1
  O  O48  1  0.303601  0.974464  0.380054  1
  O  O49  1  0.577765  0.406517  0.381797  1
  O  O50  1  0.828753  0.024677  0.406538  1
  O  O51  1  0.077745  0.381844  0.406535  1
  O  O52  1  0.828754  0.304076  0.422216  1
  O  O53  1  0.093480  0.118178  0.422180  1
  O  O54  1  0.381830  0.804158  0.475248  1
  O  O55  1  0.593417  0.671267  0.475254  1
  O  O56  1  0.618237  0.196094  0.524767  1
  O  O57  1  0.406520  0.328700  0.524697  1
  O  O58  1  0.171295  0.696004  0.577888  1
  O  O59  1  0.906583  0.881836  0.577849  1
  O  O60  1  0.171296  0.975292  0.593407  1
  O  O61  1  0.922235  0.618203  0.593483  1
  O  O62  1  0.422255  0.593464  0.618156  1
  O  O63  1  0.695689  0.024600  0.617937  1
  O  O64  1  0.077745  0.195902  0.671210  1
  O  O65  1  0.093480  0.475303  0.671300  1
  O  O66  1  0.671246  0.577785  0.695924  1
  O  O67  1  0.524358  0.117946  0.695455  1
  O  O68  1  0.881763  0.475234  0.803906  1
  O  O69  1  0.422255  0.328790  0.804099  1
  O  O70  1  0.804310  0.922248  0.828912  1
  O  O71  1  0.524357  0.906411  0.828902  1
  O  O72  1  0.975643  0.304546  0.882054  1
  O  O73  1  0.406520  0.577820  0.881823  1
  O  O74  1  0.381830  0.077672  0.906582  1
  O  O75  1  0.025227  0.828559  0.907090  1
  O  O76  1  0.118170  0.093419  0.922328  1
  O  O77  1  0.303601  0.829138  0.923548  1
  O  O78  1  0.804311  0.382062  0.975399  1
  O  O79  1  0.671248  0.593462  0.975323  1
