# generated using pymatgen
data_Pa6Al9IrPt2
_symmetry_space_group_name_H-M   'P 1'
_cell_length_a   9.74702100
_cell_length_b   9.74702043
_cell_length_c   8.35749600
_cell_angle_alpha   90.00000000
_cell_angle_beta   90.00000000
_cell_angle_gamma   119.99999177
_symmetry_Int_Tables_number   1
_chemical_formula_structural   Pa6Al9IrPt2
_chemical_formula_sum   'Pa12 Al18 Ir2 Pt4'
_cell_volume   687.62336141
_cell_formula_units_Z   2
loop_
 _symmetry_equiv_pos_site_id
 _symmetry_equiv_pos_as_xyz
  1  'x, y, z'
loop_
 _atom_site_type_symbol
 _atom_site_label
 _atom_site_symmetry_multiplicity
 _atom_site_fract_x
 _atom_site_fract_y
 _atom_site_fract_z
 _atom_site_occupancy
  Pa  Pa0  1  0.332018  0.000000  0.087813  1
  Pa  Pa1  1  0.667982  0.000000  0.912187  1
  Pa  Pa2  1  0.000000  0.332018  0.087813  1
  Pa  Pa3  1  0.667982  0.000000  0.587813  1
  Pa  Pa4  1  0.000000  0.332018  0.412187  1
  Pa  Pa5  1  0.000000  0.667982  0.912187  1
  Pa  Pa6  1  0.332018  0.000000  0.412187  1
  Pa  Pa7  1  0.000000  0.667982  0.587813  1
  Pa  Pa8  1  0.667982  0.667982  0.087813  1
  Pa  Pa9  1  0.332018  0.332018  0.912187  1
  Pa  Pa10  1  0.332018  0.332018  0.587813  1
  Pa  Pa11  1  0.667982  0.667982  0.412187  1
  Al  Al12  1  0.165842  0.499311  0.750000  1
  Al  Al13  1  0.834158  0.500689  0.250000  1
  Al  Al14  1  0.500689  0.666531  0.750000  1
  Al  Al15  1  0.499311  0.165842  0.750000  1
  Al  Al16  1  0.499311  0.333469  0.250000  1
  Al  Al17  1  0.500689  0.834158  0.250000  1
  Al  Al18  1  0.333469  0.834158  0.750000  1
  Al  Al19  1  0.666531  0.500689  0.750000  1
  Al  Al20  1  0.666531  0.165842  0.250000  1
  Al  Al21  1  0.333469  0.499311  0.250000  1
  Al  Al22  1  0.834158  0.333469  0.750000  1
  Al  Al23  1  0.165842  0.666531  0.250000  1
  Al  Al24  1  0.163962  0.000000  0.750000  1
  Al  Al25  1  0.836038  0.000000  0.250000  1
  Al  Al26  1  0.000000  0.163962  0.750000  1
  Al  Al27  1  0.000000  0.836038  0.250000  1
  Al  Al28  1  0.836038  0.836038  0.750000  1
  Al  Al29  1  0.163962  0.163962  0.250000  1
  Ir  Ir30  1  0.000000  0.000000  0.500000  1
  Ir  Ir31  1  0.000000  0.000000  0.000000  1
  Pt  Pt32  1  0.333333  0.666667  0.500000  1
  Pt  Pt33  1  0.666667  0.333333  0.500000  1
  Pt  Pt34  1  0.666667  0.333333  0.000000  1
  Pt  Pt35  1  0.333333  0.666667  0.000000  1
