# generated using pymatgen
data_Y12Er4MgCo4Ag3
_symmetry_space_group_name_H-M   'P 1'
_cell_length_a   9.49296578
_cell_length_b   9.48968723
_cell_length_c   9.48968700
_cell_angle_alpha   60.00000430
_cell_angle_beta   60.01142827
_cell_angle_gamma   60.01142241
_symmetry_Int_Tables_number   1
_chemical_formula_structural   Y12Er4MgCo4Ag3
_chemical_formula_sum   'Y12 Er4 Mg1 Co4 Ag3'
_cell_volume   604.59659578
_cell_formula_units_Z   1
loop_
 _symmetry_equiv_pos_site_id
 _symmetry_equiv_pos_as_xyz
  1  'x, y, z'
loop_
 _atom_site_type_symbol
 _atom_site_label
 _atom_site_symmetry_multiplicity
 _atom_site_fract_x
 _atom_site_fract_y
 _atom_site_fract_z
 _atom_site_occupancy
  Y  Y0  1  0.809099  0.189516  0.189516  1
  Y  Y1  1  0.186842  0.812794  0.812794  1
  Y  Y2  1  0.186842  0.812794  0.187570  1
  Y  Y3  1  0.809099  0.189516  0.811869  1
  Y  Y4  1  0.186842  0.187570  0.812794  1
  Y  Y5  1  0.809099  0.811869  0.189516  1
  Y  Y6  1  0.936832  0.562020  0.562020  1
  Y  Y7  1  0.561803  0.937290  0.937290  1
  Y  Y8  1  0.561803  0.937290  0.563617  1
  Y  Y9  1  0.936832  0.562020  0.939128  1
  Y  Y10  1  0.561803  0.563617  0.937290  1
  Y  Y11  1  0.936832  0.939128  0.562020  1
  Er  Er12  1  0.345708  0.345493  0.345493  1
  Er  Er13  1  0.345708  0.345493  0.963307  1
  Er  Er14  1  0.345708  0.963307  0.345493  1
  Er  Er15  1  0.951248  0.349584  0.349584  1
  Mg  Mg16  1  0.288298  0.570567  0.570567  1
  Co  Co17  1  0.139667  0.143920  0.143920  1
  Co  Co18  1  0.139667  0.143920  0.572493  1
  Co  Co19  1  0.139667  0.572493  0.143920  1
  Co  Co20  1  0.572066  0.142645  0.142645  1
  Ag  Ag21  1  0.582844  0.582116  0.582116  1
  Ag  Ag22  1  0.582844  0.582116  0.252924  1
  Ag  Ag23  1  0.582844  0.252924  0.582116  1
