# generated using pymatgen
data_Nb16ZnNi7C3N
_symmetry_space_group_name_H-M   'P 1'
_cell_length_a   8.31293346
_cell_length_b   8.31293408
_cell_length_c   8.31293447
_cell_angle_alpha   60.07720621
_cell_angle_beta   60.07720057
_cell_angle_gamma   60.07720389
_symmetry_Int_Tables_number   1
_chemical_formula_structural   Nb16ZnNi7C3N
_chemical_formula_sum   'Nb16 Zn1 Ni7 C3 N1'
_cell_volume   406.91823566
_cell_formula_units_Z   1
loop_
 _symmetry_equiv_pos_site_id
 _symmetry_equiv_pos_as_xyz
  1  'x, y, z'
loop_
 _atom_site_type_symbol
 _atom_site_label
 _atom_site_symmetry_multiplicity
 _atom_site_fract_x
 _atom_site_fract_y
 _atom_site_fract_z
 _atom_site_occupancy
  Nb  Nb0  1  0.814683  0.188562  0.814683  1
  Nb  Nb1  1  0.067392  0.432241  0.432241  1
  Nb  Nb2  1  0.433069  0.066853  0.066853  1
  Nb  Nb3  1  0.066853  0.433069  0.066853  1
  Nb  Nb4  1  0.432241  0.432241  0.067392  1
  Nb  Nb5  1  0.066853  0.066853  0.433069  1
  Nb  Nb6  1  0.814683  0.814683  0.188562  1
  Nb  Nb7  1  0.188562  0.814683  0.814683  1
  Nb  Nb8  1  0.818351  0.181283  0.181283  1
  Nb  Nb9  1  0.181283  0.181283  0.818351  1
  Nb  Nb10  1  0.432241  0.067392  0.432241  1
  Nb  Nb11  1  0.181283  0.818351  0.181283  1
  Nb  Nb12  1  0.625944  0.625944  0.625944  1
  Nb  Nb13  1  0.129950  0.619525  0.619525  1
  Nb  Nb14  1  0.619525  0.129950  0.619525  1
  Nb  Nb15  1  0.619525  0.619525  0.129950  1
  Zn  Zn16  1  0.835134  0.835134  0.835134  1
  Ni  Ni17  1  0.419639  0.419639  0.419639  1
  Ni  Ni18  1  0.511544  0.831137  0.831137  1
  Ni  Ni19  1  0.831137  0.511544  0.831137  1
  Ni  Ni20  1  0.831137  0.831137  0.511544  1
  Ni  Ni21  1  0.420229  0.739090  0.420229  1
  Ni  Ni22  1  0.420229  0.420229  0.739090  1
  Ni  Ni23  1  0.739090  0.420229  0.420229  1
  C  C24  1  0.625982  0.124316  0.124316  1
  C  C25  1  0.124316  0.625982  0.124316  1
  C  C26  1  0.124316  0.124316  0.625982  1
  N  N27  1  0.124808  0.124808  0.124808  1
