# generated using pymatgen
data_Tb3Y4Sn23Os6
_symmetry_space_group_name_H-M   'P 1'
_cell_length_a   9.87278900
_cell_length_b   9.87278968
_cell_length_c   10.13911900
_cell_angle_alpha   90.00000000
_cell_angle_beta   90.00000000
_cell_angle_gamma   120.00000777
_symmetry_Int_Tables_number   1
_chemical_formula_structural   Tb3Y4Sn23Os6
_chemical_formula_sum   'Tb3 Y4 Sn23 Os6'
_cell_volume   855.87542938
_cell_formula_units_Z   1
loop_
 _symmetry_equiv_pos_site_id
 _symmetry_equiv_pos_as_xyz
  1  'x, y, z'
loop_
 _atom_site_type_symbol
 _atom_site_label
 _atom_site_symmetry_multiplicity
 _atom_site_fract_x
 _atom_site_fract_y
 _atom_site_fract_z
 _atom_site_occupancy
  Tb  Tb0  1  0.031342  0.515671  0.302439  1
  Tb  Tb1  1  0.484329  0.968658  0.302439  1
  Tb  Tb2  1  0.484329  0.515671  0.302439  1
  Y  Y3  1  0.000000  0.000000  0.999996  1
  Y  Y4  1  0.968618  0.484309  0.697451  1
  Y  Y5  1  0.515691  0.031382  0.697451  1
  Y  Y6  1  0.515691  0.484309  0.697451  1
  Sn  Sn7  1  0.000000  0.000000  0.500030  1
  Sn  Sn8  1  0.117350  0.882650  0.275394  1
  Sn  Sn9  1  0.765298  0.882650  0.275394  1
  Sn  Sn10  1  0.117350  0.234702  0.275394  1
  Sn  Sn11  1  0.882685  0.117315  0.724669  1
  Sn  Sn12  1  0.234632  0.117315  0.724669  1
  Sn  Sn13  1  0.882685  0.765368  0.724669  1
  Sn  Sn14  1  0.349548  0.999885  0.000012  1
  Sn  Sn15  1  0.650338  0.650452  0.000012  1
  Sn  Sn16  1  0.000115  0.349662  0.000012  1
  Sn  Sn17  1  0.349548  0.349662  0.000012  1
  Sn  Sn18  1  0.000115  0.650452  0.000012  1
  Sn  Sn19  1  0.650338  0.999885  0.000012  1
  Sn  Sn20  1  0.780497  0.560994  0.462244  1
  Sn  Sn21  1  0.780497  0.219503  0.462244  1
  Sn  Sn22  1  0.439006  0.219503  0.462244  1
  Sn  Sn23  1  0.219502  0.439004  0.537922  1
  Sn  Sn24  1  0.219502  0.780498  0.537922  1
  Sn  Sn25  1  0.560996  0.780498  0.537922  1
  Sn  Sn26  1  0.666667  0.333333  0.175444  1
  Sn  Sn27  1  0.333333  0.666667  0.824351  1
  Sn  Sn28  1  0.666667  0.333333  0.872148  1
  Sn  Sn29  1  0.333333  0.666667  0.127819  1
  Os  Os30  1  0.169962  0.830038  0.798084  1
  Os  Os31  1  0.660076  0.830038  0.798084  1
  Os  Os32  1  0.169962  0.339924  0.798084  1
  Os  Os33  1  0.829984  0.170016  0.201844  1
  Os  Os34  1  0.340033  0.170016  0.201844  1
  Os  Os35  1  0.829984  0.659967  0.201844  1
