# generated using pymatgen
data_Li4NdPaSe6
_symmetry_space_group_name_H-M   'P 1'
_cell_length_a   7.09505376
_cell_length_b   7.09505418
_cell_length_c   6.88039400
_cell_angle_alpha   100.03703977
_cell_angle_beta   100.03704038
_cell_angle_gamma   119.80528316
_symmetry_Int_Tables_number   1
_chemical_formula_structural   Li4NdPaSe6
_chemical_formula_sum   'Li4 Nd1 Pa1 Se6'
_cell_volume   281.80628630
_cell_formula_units_Z   1
loop_
 _symmetry_equiv_pos_site_id
 _symmetry_equiv_pos_as_xyz
  1  'x, y, z'
loop_
 _atom_site_type_symbol
 _atom_site_label
 _atom_site_symmetry_multiplicity
 _atom_site_fract_x
 _atom_site_fract_y
 _atom_site_fract_z
 _atom_site_occupancy
  Li  Li0  1  0.499140  0.500858  0.000000  1
  Li  Li1  1  0.008080  0.991919  0.499999  1
  Li  Li2  1  0.664989  0.335011  0.500001  1
  Li  Li3  1  0.334750  0.665250  0.500001  1
  Nd  Nd4  1  0.832803  0.167196  0.000000  1
  Pa  Pa5  1  0.166174  0.833824  0.000000  1
  Se  Se6  1  0.926404  0.599384  0.247406  1
  Se  Se7  1  0.568205  0.915236  0.253241  1
  Se  Se8  1  0.252848  0.238776  0.255801  1
  Se  Se9  1  0.761225  0.747153  0.744198  1
  Se  Se10  1  0.084766  0.431797  0.746761  1
  Se  Se11  1  0.400618  0.073598  0.752595  1
