# generated using pymatgen
data_K8Li4LuSc3As8
_symmetry_space_group_name_H-M   'P 1'
_cell_length_a   10.12316928
_cell_length_b   10.12317035
_cell_length_c   6.59401649
_cell_angle_alpha   90.03365590
_cell_angle_beta   89.96634172
_cell_angle_gamma   98.98694816
_symmetry_Int_Tables_number   1
_chemical_formula_structural   K8Li4LuSc3As8
_chemical_formula_sum   'K8 Li4 Lu1 Sc3 As8'
_cell_volume   667.44967869
_cell_formula_units_Z   1
loop_
 _symmetry_equiv_pos_site_id
 _symmetry_equiv_pos_as_xyz
  1  'x, y, z'
loop_
 _atom_site_type_symbol
 _atom_site_label
 _atom_site_symmetry_multiplicity
 _atom_site_fract_x
 _atom_site_fract_y
 _atom_site_fract_z
 _atom_site_occupancy
  K  K0  1  0.069314  0.432869  0.748309  1
  K  K1  1  0.676755  0.323568  0.786990  1
  K  K2  1  0.323568  0.676755  0.213010  1
  K  K3  1  0.570236  0.929685  0.749543  1
  K  K4  1  0.432869  0.069314  0.251691  1
  K  K5  1  0.929685  0.570236  0.250457  1
  K  K6  1  0.821333  0.177000  0.288579  1
  K  K7  1  0.177000  0.821333  0.711421  1
  Li  Li8  1  0.119509  0.119509  0.500000  1
  Li  Li9  1  0.879917  0.879917  0.500000  1
  Li  Li10  1  0.381587  0.381587  0.000000  1
  Li  Li11  1  0.619727  0.619727  0.000000  1
  Lu  Lu12  1  0.131207  0.131207  0.000000  1
  Sc  Sc13  1  0.868042  0.868042  0.000000  1
  Sc  Sc14  1  0.369806  0.369806  0.500000  1
  Sc  Sc15  1  0.631113  0.631113  0.500000  1
  As  As16  1  0.841528  0.658050  0.750088  1
  As  As17  1  0.090961  0.902014  0.230267  1
  As  As18  1  0.408390  0.592522  0.726562  1
  As  As19  1  0.592522  0.408390  0.273438  1
  As  As20  1  0.658050  0.841528  0.249912  1
  As  As21  1  0.157121  0.347746  0.255676  1
  As  As22  1  0.347746  0.157121  0.744324  1
  As  As23  1  0.902014  0.090961  0.769733  1
