# generated using pymatgen
data_EuSb5(IO4)2
_symmetry_space_group_name_H-M   'P 1'
_cell_length_a   5.81676100
_cell_length_b   5.75953215
_cell_length_c   9.62299000
_cell_angle_alpha   86.43646113
_cell_angle_beta   90.00000000
_cell_angle_gamma   90.00000000
_symmetry_Int_Tables_number   1
_chemical_formula_structural   EuSb5(IO4)2
_chemical_formula_sum   'Eu1 Sb5 I2 O8'
_cell_volume   321.76435607
_cell_formula_units_Z   1
loop_
 _symmetry_equiv_pos_site_id
 _symmetry_equiv_pos_as_xyz
  1  'x, y, z'
loop_
 _atom_site_type_symbol
 _atom_site_label
 _atom_site_symmetry_multiplicity
 _atom_site_fract_x
 _atom_site_fract_y
 _atom_site_fract_z
 _atom_site_occupancy
  Eu  Eu0  1  0.773760  0.750000  0.500000  1
  Sb  Sb1  1  0.685362  0.293557  0.772155  1
  Sb  Sb2  1  0.155171  0.250000  0.500000  1
  Sb  Sb3  1  0.685362  0.206443  0.227845  1
  Sb  Sb4  1  0.314351  0.696842  0.230990  1
  Sb  Sb5  1  0.314351  0.803158  0.769010  1
  I  I6  1  0.775062  0.750000  0.000000  1
  I  I7  1  0.233891  0.250000  0.000000  1
  O  O8  1  0.086241  0.912950  0.625455  1
  O  O9  1  0.086241  0.587050  0.374545  1
  O  O10  1  0.911759  0.106229  0.379184  1
  O  O11  1  0.911759  0.393771  0.620816  1
  O  O12  1  0.482546  0.545015  0.669493  1
  O  O13  1  0.550799  0.475730  0.327600  1
  O  O14  1  0.482546  0.954985  0.330507  1
  O  O15  1  0.550799  0.024270  0.672400  1
