# generated using pymatgen
data_Lu20Ir7Au5
_symmetry_space_group_name_H-M   'P 1'
_cell_length_a   10.93552387
_cell_length_b   10.93552393
_cell_length_c   6.25734175
_cell_angle_alpha   89.81167410
_cell_angle_beta   89.81167414
_cell_angle_gamma   89.61484233
_symmetry_Int_Tables_number   1
_chemical_formula_structural   Lu20Ir7Au5
_chemical_formula_sum   'Lu20 Ir7 Au5'
_cell_volume   748.26354879
_cell_formula_units_Z   1
loop_
 _symmetry_equiv_pos_site_id
 _symmetry_equiv_pos_as_xyz
  1  'x, y, z'
loop_
 _atom_site_type_symbol
 _atom_site_label
 _atom_site_symmetry_multiplicity
 _atom_site_fract_x
 _atom_site_fract_y
 _atom_site_fract_z
 _atom_site_occupancy
  Lu  Lu0  1  0.299972  0.090049  0.362619  1
  Lu  Lu1  1  0.301275  0.908100  0.861793  1
  Lu  Lu2  1  0.697576  0.079850  0.858236  1
  Lu  Lu3  1  0.697549  0.906373  0.360260  1
  Lu  Lu4  1  0.579869  0.785953  0.874819  1
  Lu  Lu5  1  0.575108  0.205919  0.360402  1
  Lu  Lu6  1  0.418506  0.789331  0.374318  1
  Lu  Lu7  1  0.411852  0.207017  0.875383  1
  Lu  Lu8  1  0.214047  0.420131  0.625181  1
  Lu  Lu9  1  0.210669  0.581494  0.125682  1
  Lu  Lu10  1  0.794081  0.424892  0.139598  1
  Lu  Lu11  1  0.792983  0.588148  0.624617  1
  Lu  Lu12  1  0.909951  0.700028  0.137381  1
  Lu  Lu13  1  0.920150  0.302424  0.641764  1
  Lu  Lu14  1  0.091900  0.698725  0.638207  1
  Lu  Lu15  1  0.093627  0.302451  0.139740  1
  Lu  Lu16  1  0.998294  0.000709  0.499377  1
  Lu  Lu17  1  0.999291  0.001706  0.000623  1
  Lu  Lu18  1  0.496077  0.501809  0.001704  1
  Lu  Lu19  1  0.498191  0.503923  0.498296  1
  Ir  Ir20  1  0.653764  0.651113  0.250449  1
  Ir  Ir21  1  0.348887  0.346236  0.249551  1
  Ir  Ir22  1  0.345459  0.654541  0.750000  1
  Ir  Ir23  1  0.499127  0.998979  0.110148  1
  Ir  Ir24  1  0.499066  0.999958  0.611795  1
  Ir  Ir25  1  0.000042  0.500934  0.888205  1
  Ir  Ir26  1  0.001021  0.500873  0.389852  1
  Au  Au27  1  0.841190  0.158810  0.250000  1
  Au  Au28  1  0.843299  0.845461  0.750979  1
  Au  Au29  1  0.154539  0.156701  0.749021  1
  Au  Au30  1  0.156021  0.843979  0.250000  1
  Au  Au31  1  0.656615  0.343385  0.750000  1
