# generated using pymatgen
data_Ac2Lu(MgGa)3
_symmetry_space_group_name_H-M   'P 1'
_cell_length_a   7.52236196
_cell_length_b   7.52236170
_cell_length_c   4.69426100
_cell_angle_alpha   90.00000000
_cell_angle_beta   90.00000000
_cell_angle_gamma   118.85844419
_symmetry_Int_Tables_number   1
_chemical_formula_structural   Ac2Lu(MgGa)3
_chemical_formula_sum   'Ac2 Lu1 Mg3 Ga3'
_cell_volume   232.64191215
_cell_formula_units_Z   1
loop_
 _symmetry_equiv_pos_site_id
 _symmetry_equiv_pos_as_xyz
  1  'x, y, z'
loop_
 _atom_site_type_symbol
 _atom_site_label
 _atom_site_symmetry_multiplicity
 _atom_site_fract_x
 _atom_site_fract_y
 _atom_site_fract_z
 _atom_site_occupancy
  Ac  Ac0  1  0.569409  0.996191  0.000000  1
  Ac  Ac1  1  0.996191  0.569409  0.000000  1
  Lu  Lu2  1  0.422090  0.422090  0.000000  1
  Mg  Mg3  1  0.240468  0.004840  0.500000  1
  Mg  Mg4  1  0.004840  0.240468  0.500000  1
  Mg  Mg5  1  0.757120  0.757120  0.500000  1
  Ga  Ga6  1  0.339710  0.648694  0.500000  1
  Ga  Ga7  1  0.648694  0.339710  0.500000  1
  Ga  Ga8  1  0.021477  0.021477  0.000000  1
