# generated using pymatgen
data_Er18Tm2GaBi11
_symmetry_space_group_name_H-M   'P 1'
_cell_length_a   8.18062778
_cell_length_b   9.44557413
_cell_length_c   11.95369500
_cell_angle_alpha   90.00817681
_cell_angle_beta   89.60158355
_cell_angle_gamma   89.99542263
_symmetry_Int_Tables_number   1
_chemical_formula_structural   Er18Tm2GaBi11
_chemical_formula_sum   'Er18 Tm2 Ga1 Bi11'
_cell_volume   923.64834858
_cell_formula_units_Z   1
loop_
 _symmetry_equiv_pos_site_id
 _symmetry_equiv_pos_as_xyz
  1  'x, y, z'
loop_
 _atom_site_type_symbol
 _atom_site_label
 _atom_site_symmetry_multiplicity
 _atom_site_fract_x
 _atom_site_fract_y
 _atom_site_fract_z
 _atom_site_occupancy
  Er  Er0  1  0.036834  0.250199  0.509668  1
  Er  Er1  1  0.978150  0.749899  0.489530  1
  Er  Er2  1  0.475134  0.750065  0.010991  1
  Er  Er3  1  0.525497  0.250014  0.989325  1
  Er  Er4  1  0.356049  0.250174  0.293110  1
  Er  Er5  1  0.647688  0.749996  0.716269  1
  Er  Er6  1  0.149059  0.749898  0.783414  1
  Er  Er7  1  0.852555  0.250196  0.215328  1
  Er  Er8  1  0.192180  0.250047  0.778020  1
  Er  Er9  1  0.810333  0.749966  0.217590  1
  Er  Er10  1  0.312925  0.749941  0.281678  1
  Er  Er11  1  0.676104  0.250093  0.711236  1
  Er  Er12  1  0.192700  0.065345  0.060307  1
  Er  Er13  1  0.807379  0.934963  0.940904  1
  Er  Er14  1  0.308667  0.948681  0.559150  1
  Er  Er15  1  0.807286  0.564992  0.940911  1
  Er  Er16  1  0.685038  0.071102  0.444876  1
  Er  Er17  1  0.192743  0.434680  0.060290  1
  Tm  Tm18  1  0.685089  0.428257  0.444839  1
  Tm  Tm19  1  0.308484  0.551402  0.559269  1
  Ga  Ga20  1  0.407714  0.250690  0.539693  1
  Bi  Bi21  1  0.593542  0.749235  0.457600  1
  Bi  Bi22  1  0.094062  0.749998  0.042727  1
  Bi  Bi23  1  0.907113  0.249977  0.955063  1
  Bi  Bi24  1  0.062853  0.002689  0.323952  1
  Bi  Bi25  1  0.935765  0.997273  0.675140  1
  Bi  Bi26  1  0.435758  0.996446  0.825431  1
  Bi  Bi27  1  0.935877  0.502763  0.675097  1
  Bi  Bi28  1  0.564451  0.004171  0.174652  1
  Bi  Bi29  1  0.062748  0.497340  0.323938  1
  Bi  Bi30  1  0.564412  0.495916  0.174658  1
  Bi  Bi31  1  0.435813  0.503590  0.825346  1
