# generated using pymatgen
data_DyEr3(ScRh)4
_symmetry_space_group_name_H-M   'P 1'
_cell_length_a   4.20419000
_cell_length_b   7.20902942
_cell_length_c   8.71753514
_cell_angle_alpha   89.72985856
_cell_angle_beta   90.00000000
_cell_angle_gamma   90.00000000
_symmetry_Int_Tables_number   1
_chemical_formula_structural   DyEr3(ScRh)4
_chemical_formula_sum   'Dy1 Er3 Sc4 Rh4'
_cell_volume   264.20924639
_cell_formula_units_Z   1
loop_
 _symmetry_equiv_pos_site_id
 _symmetry_equiv_pos_as_xyz
  1  'x, y, z'
loop_
 _atom_site_type_symbol
 _atom_site_label
 _atom_site_symmetry_multiplicity
 _atom_site_fract_x
 _atom_site_fract_y
 _atom_site_fract_z
 _atom_site_occupancy
  Dy  Dy0  1  0.250000  0.983259  0.327302  1
  Er  Er1  1  0.250000  0.481923  0.171961  1
  Er  Er2  1  0.750000  0.017413  0.673149  1
  Er  Er3  1  0.750000  0.518292  0.827287  1
  Sc  Sc4  1  0.250000  0.360155  0.567592  1
  Sc  Sc5  1  0.250000  0.859897  0.933023  1
  Sc  Sc6  1  0.750000  0.639377  0.433280  1
  Sc  Sc7  1  0.750000  0.139365  0.064900  1
  Rh  Rh8  1  0.250000  0.245206  0.897218  1
  Rh  Rh9  1  0.250000  0.743910  0.603330  1
  Rh  Rh10  1  0.750000  0.754317  0.101960  1
  Rh  Rh11  1  0.750000  0.256887  0.398998  1
