# generated using pymatgen
data_Dy5Y3Ti11Si16Tc
_symmetry_space_group_name_H-M   'P 1'
_cell_length_a   7.03773726
_cell_length_b   7.02771428
_cell_length_c   12.94230495
_cell_angle_alpha   90.10584082
_cell_angle_beta   90.11686644
_cell_angle_gamma   90.04986171
_symmetry_Int_Tables_number   1
_chemical_formula_structural   Dy5Y3Ti11Si16Tc
_chemical_formula_sum   'Dy5 Y3 Ti11 Si16 Tc1'
_cell_volume   640.11346665
_cell_formula_units_Z   1
loop_
 _symmetry_equiv_pos_site_id
 _symmetry_equiv_pos_as_xyz
  1  'x, y, z'
loop_
 _atom_site_type_symbol
 _atom_site_label
 _atom_site_symmetry_multiplicity
 _atom_site_fract_x
 _atom_site_fract_y
 _atom_site_fract_z
 _atom_site_occupancy
  Dy  Dy0  1  0.158793  0.501522  0.783350  1
  Dy  Dy1  1  0.841224  0.496177  0.283408  1
  Dy  Dy2  1  0.501465  0.160643  0.218596  1
  Dy  Dy3  1  0.497023  0.839154  0.715431  1
  Dy  Dy4  1  0.340700  0.002076  0.466586  1
  Y  Y5  1  0.998309  0.658795  0.034909  1
  Y  Y6  1  0.002425  0.340987  0.530995  1
  Y  Y7  1  0.660820  0.996253  0.967164  1
  Ti  Ti8  1  0.846210  0.991014  0.375941  1
  Ti  Ti9  1  0.009911  0.155167  0.126871  1
  Ti  Ti10  1  0.994253  0.844558  0.621759  1
  Ti  Ti11  1  0.507832  0.346194  0.625879  1
  Ti  Ti12  1  0.152129  0.008467  0.875132  1
  Ti  Ti13  1  0.668744  0.670502  0.498304  1
  Ti  Ti14  1  0.826521  0.172831  0.749982  1
  Ti  Ti15  1  0.177076  0.823809  0.251188  1
  Ti  Ti16  1  0.327951  0.328118  0.000921  1
  Ti  Ti17  1  0.495090  0.653973  0.124554  1
  Ti  Ti18  1  0.653128  0.492878  0.874745  1
  Si  Si19  1  0.048328  0.709909  0.434928  1
  Si  Si20  1  0.954333  0.290755  0.935776  1
  Si  Si21  1  0.708648  0.047132  0.564690  1
  Si  Si22  1  0.210643  0.455468  0.187758  1
  Si  Si23  1  0.790381  0.546274  0.684997  1
  Si  Si24  1  0.454135  0.208666  0.814966  1
  Si  Si25  1  0.543598  0.787796  0.313695  1
  Si  Si26  1  0.291813  0.953133  0.064753  1
  Si  Si27  1  0.797637  0.870479  0.184777  1
  Si  Si28  1  0.298947  0.629823  0.562958  1
  Si  Si29  1  0.702041  0.368489  0.066196  1
  Si  Si30  1  0.625154  0.301570  0.434021  1
  Si  Si31  1  0.369101  0.702519  0.934224  1
  Si  Si32  1  0.130130  0.205678  0.317211  1
  Si  Si33  1  0.201620  0.130182  0.683768  1
  Si  Si34  1  0.869703  0.797808  0.814824  1
  Tc  Tc35  1  0.344187  0.511200  0.374744  1
