# generated using pymatgen
data_Pr2Gd2S3N2
_symmetry_space_group_name_H-M   'P 1'
_cell_length_a   8.07015556
_cell_length_b   8.07015411
_cell_length_c   6.23189600
_cell_angle_alpha   90.29855139
_cell_angle_beta   90.29855134
_cell_angle_gamma   75.06264880
_symmetry_Int_Tables_number   1
_chemical_formula_structural   Pr2Gd2S3N2
_chemical_formula_sum   'Pr4 Gd4 S6 N4'
_cell_volume   392.14374944
_cell_formula_units_Z   2
loop_
 _symmetry_equiv_pos_site_id
 _symmetry_equiv_pos_as_xyz
  1  'x, y, z'
loop_
 _atom_site_type_symbol
 _atom_site_label
 _atom_site_symmetry_multiplicity
 _atom_site_fract_x
 _atom_site_fract_y
 _atom_site_fract_z
 _atom_site_occupancy
  Pr  Pr0  1  0.941338  0.301014  0.530972  1
  Pr  Pr1  1  0.698986  0.058662  0.969028  1
  Pr  Pr2  1  0.058662  0.698986  0.469028  1
  Pr  Pr3  1  0.301014  0.941338  0.030972  1
  Gd  Gd4  1  0.579849  0.742824  0.564547  1
  Gd  Gd5  1  0.257176  0.420151  0.935453  1
  Gd  Gd6  1  0.420151  0.257176  0.435453  1
  Gd  Gd7  1  0.742824  0.579849  0.064547  1
  S  S8  1  0.984236  0.254126  0.030397  1
  S  S9  1  0.408955  0.591045  0.250000  1
  S  S10  1  0.745874  0.015764  0.469603  1
  S  S11  1  0.015764  0.745874  0.969603  1
  S  S12  1  0.591045  0.408955  0.750000  1
  S  S13  1  0.254126  0.984236  0.530397  1
  N  N14  1  0.823104  0.584419  0.410789  1
  N  N15  1  0.584419  0.823104  0.910789  1
  N  N16  1  0.176896  0.415581  0.589211  1
  N  N17  1  0.415581  0.176896  0.089211  1
