# generated using pymatgen
data_Ho3ZnCd3Au2
_symmetry_space_group_name_H-M   'P 1'
_cell_length_a   7.84961300
_cell_length_b   7.84961252
_cell_length_c   3.78490900
_cell_angle_alpha   90.00000000
_cell_angle_beta   90.00000000
_cell_angle_gamma   119.99999782
_symmetry_Int_Tables_number   1
_chemical_formula_structural   Ho3ZnCd3Au2
_chemical_formula_sum   'Ho3 Zn1 Cd3 Au2'
_cell_volume   201.96799235
_cell_formula_units_Z   1
loop_
 _symmetry_equiv_pos_site_id
 _symmetry_equiv_pos_as_xyz
  1  'x, y, z'
loop_
 _atom_site_type_symbol
 _atom_site_label
 _atom_site_symmetry_multiplicity
 _atom_site_fract_x
 _atom_site_fract_y
 _atom_site_fract_z
 _atom_site_occupancy
  Ho  Ho0  1  0.591666  0.000000  0.000000  1
  Ho  Ho1  1  0.000000  0.591666  0.000000  1
  Ho  Ho2  1  0.408334  0.408334  0.000000  1
  Zn  Zn3  1  0.000000  0.000000  0.000000  1
  Cd  Cd4  1  0.257004  0.000000  0.500000  1
  Cd  Cd5  1  0.000000  0.257004  0.500000  1
  Cd  Cd6  1  0.742996  0.742996  0.500000  1
  Au  Au7  1  0.333333  0.666667  0.500000  1
  Au  Au8  1  0.666667  0.333333  0.500000  1
