# generated using pymatgen
data_Hf5Sc(ZnRh2)6
_symmetry_space_group_name_H-M   'P 1'
_cell_length_a   4.45574100
_cell_length_b   6.26690100
_cell_length_c   13.30919600
_cell_angle_alpha   90.00000000
_cell_angle_beta   90.00023196
_cell_angle_gamma   90.00000000
_symmetry_Int_Tables_number   1
_chemical_formula_structural   Hf5Sc(ZnRh2)6
_chemical_formula_sum   'Hf5 Sc1 Zn6 Rh12'
_cell_volume   371.64183302
_cell_formula_units_Z   1
loop_
 _symmetry_equiv_pos_site_id
 _symmetry_equiv_pos_as_xyz
  1  'x, y, z'
loop_
 _atom_site_type_symbol
 _atom_site_label
 _atom_site_symmetry_multiplicity
 _atom_site_fract_x
 _atom_site_fract_y
 _atom_site_fract_z
 _atom_site_occupancy
  Hf  Hf0  1  0.000003  0.000000  0.998981  1
  Hf  Hf1  1  0.499719  0.500000  0.165944  1
  Hf  Hf2  1  0.999721  0.000000  0.333357  1
  Hf  Hf3  1  0.500004  0.500000  0.500700  1
  Hf  Hf4  1  0.000282  0.000000  0.667662  1
  Sc  Sc5  1  0.500281  0.500000  0.833360  1
  Zn  Zn6  1  0.999999  0.500000  0.999552  1
  Zn  Zn7  1  0.499921  0.000000  0.166326  1
  Zn  Zn8  1  0.999887  0.500000  0.333336  1
  Zn  Zn9  1  0.500001  0.000000  0.500337  1
  Zn  Zn10  1  0.000111  0.500000  0.667114  1
  Zn  Zn11  1  0.500080  0.000000  0.833336  1
  Rh  Rh12  1  0.499996  0.249835  0.000520  1
  Rh  Rh13  1  0.499996  0.750165  0.000520  1
  Rh  Rh14  1  0.999725  0.250181  0.166925  1
  Rh  Rh15  1  0.999725  0.749818  0.166925  1
  Rh  Rh16  1  0.499719  0.249912  0.333316  1
  Rh  Rh17  1  0.499719  0.750088  0.333316  1
  Rh  Rh18  1  0.999998  0.250221  0.499756  1
  Rh  Rh19  1  0.999998  0.749778  0.499756  1
  Rh  Rh20  1  0.500279  0.249877  0.666163  1
  Rh  Rh21  1  0.500279  0.750123  0.666163  1
  Rh  Rh22  1  0.000278  0.249163  0.833317  1
  Rh  Rh23  1  0.000278  0.750836  0.833317  1
