# generated using pymatgen
data_CaLaGaIr2
_symmetry_space_group_name_H-M   'P 1'
_cell_length_a   5.73952393
_cell_length_b   5.73952431
_cell_length_c   5.73952418
_cell_angle_alpha   137.81417966
_cell_angle_beta   118.59362060
_cell_angle_gamma   77.31651789
_symmetry_Int_Tables_number   1
_chemical_formula_structural   CaLaGaIr2
_chemical_formula_sum   'Ca1 La1 Ga1 Ir2'
_cell_volume   108.51941657
_cell_formula_units_Z   1
loop_
 _symmetry_equiv_pos_site_id
 _symmetry_equiv_pos_as_xyz
  1  'x, y, z'
loop_
 _atom_site_type_symbol
 _atom_site_label
 _atom_site_symmetry_multiplicity
 _atom_site_fract_x
 _atom_site_fract_y
 _atom_site_fract_z
 _atom_site_occupancy
  Ca  Ca0  1  0.296446  0.796446  0.500000  1
  La  La1  1  0.700963  0.200964  0.500000  1
  Ga  Ga2  1  0.001218  0.001218  0.000000  1
  Ir  Ir3  1  0.732786  0.500686  0.232100  1
  Ir  Ir4  1  0.268586  0.500686  0.767900  1
