# generated using pymatgen
data_Nd16Mg4Os2PdPt
_symmetry_space_group_name_H-M   'P 1'
_cell_length_a   10.04907458
_cell_length_b   10.04405039
_cell_length_c   10.11944000
_cell_angle_alpha   59.75139475
_cell_angle_beta   59.76809819
_cell_angle_gamma   59.74479494
_symmetry_Int_Tables_number   1
_chemical_formula_structural   Nd16Mg4Os2PdPt
_chemical_formula_sum   'Nd16 Mg4 Os2 Pd1 Pt1'
_cell_volume   718.20958870
_cell_formula_units_Z   1
loop_
 _symmetry_equiv_pos_site_id
 _symmetry_equiv_pos_as_xyz
  1  'x, y, z'
loop_
 _atom_site_type_symbol
 _atom_site_label
 _atom_site_symmetry_multiplicity
 _atom_site_fract_x
 _atom_site_fract_y
 _atom_site_fract_z
 _atom_site_occupancy
  Nd  Nd0  1  0.347359  0.345373  0.351940  1
  Nd  Nd1  1  0.347359  0.345373  0.955327  1
  Nd  Nd2  1  0.342677  0.962882  0.347221  1
  Nd  Nd3  1  0.961844  0.341364  0.348396  1
  Nd  Nd4  1  0.816149  0.186903  0.189869  1
  Nd  Nd5  1  0.187530  0.817593  0.805392  1
  Nd  Nd6  1  0.187530  0.817593  0.189484  1
  Nd  Nd7  1  0.816149  0.186903  0.807079  1
  Nd  Nd8  1  0.187778  0.187506  0.812358  1
  Nd  Nd9  1  0.807396  0.809764  0.191420  1
  Nd  Nd10  1  0.937200  0.556652  0.567198  1
  Nd  Nd11  1  0.556769  0.937510  0.939277  1
  Nd  Nd12  1  0.556769  0.937510  0.566444  1
  Nd  Nd13  1  0.937200  0.556652  0.938950  1
  Nd  Nd14  1  0.564200  0.563030  0.936385  1
  Nd  Nd15  1  0.938688  0.938511  0.561401  1
  Mg  Mg16  1  0.578501  0.578597  0.579601  1
  Mg  Mg17  1  0.578501  0.578597  0.263303  1
  Mg  Mg18  1  0.579239  0.261483  0.579640  1
  Mg  Mg19  1  0.261760  0.579084  0.579579  1
  Os  Os20  1  0.144522  0.144666  0.135929  1
  Os  Os21  1  0.144522  0.144666  0.574885  1
  Pd  Pd22  1  0.145297  0.575392  0.139657  1
  Pt  Pt23  1  0.575065  0.146400  0.139269  1
