# generated using pymatgen
data_SrY2Ni2Rh7
_symmetry_space_group_name_H-M   'P 1'
_cell_length_a   5.33392757
_cell_length_b   5.33392590
_cell_length_c   8.98561300
_cell_angle_alpha   72.73427267
_cell_angle_beta   72.73427825
_cell_angle_gamma   60.00000178
_symmetry_Int_Tables_number   1
_chemical_formula_structural   SrY2Ni2Rh7
_chemical_formula_sum   'Sr1 Y2 Ni2 Rh7'
_cell_volume   207.98905828
_cell_formula_units_Z   1
loop_
 _symmetry_equiv_pos_site_id
 _symmetry_equiv_pos_as_xyz
  1  'x, y, z'
loop_
 _atom_site_type_symbol
 _atom_site_label
 _atom_site_symmetry_multiplicity
 _atom_site_fract_x
 _atom_site_fract_y
 _atom_site_fract_z
 _atom_site_occupancy
  Sr  Sr0  1  0.000000  0.000000  0.000000  1
  Y  Y1  1  0.139359  0.139359  0.581924  1
  Y  Y2  1  0.860641  0.860641  0.418076  1
  Ni  Ni3  1  0.333088  0.333088  0.000736  1
  Ni  Ni4  1  0.666912  0.666912  0.999264  1
  Rh  Rh5  1  0.078876  0.582052  0.757021  1
  Rh  Rh6  1  0.582052  0.582052  0.757021  1
  Rh  Rh7  1  0.582052  0.078876  0.757021  1
  Rh  Rh8  1  0.921124  0.417948  0.242979  1
  Rh  Rh9  1  0.417948  0.417948  0.242979  1
  Rh  Rh10  1  0.417948  0.921124  0.242979  1
  Rh  Rh11  1  0.500000  0.500000  0.500000  1
