# generated using pymatgen
data_Ce3Nd(Al3Co)6
_symmetry_space_group_name_H-M   'P 1'
_cell_length_a   7.48888139
_cell_length_b   7.49900477
_cell_length_c   9.36442400
_cell_angle_alpha   90.00000000
_cell_angle_beta   90.00000000
_cell_angle_gamma   119.31303191
_symmetry_Int_Tables_number   1
_chemical_formula_structural   Ce3Nd(Al3Co)6
_chemical_formula_sum   'Ce3 Nd1 Al18 Co6'
_cell_volume   458.56107678
_cell_formula_units_Z   1
loop_
 _symmetry_equiv_pos_site_id
 _symmetry_equiv_pos_as_xyz
  1  'x, y, z'
loop_
 _atom_site_type_symbol
 _atom_site_label
 _atom_site_symmetry_multiplicity
 _atom_site_fract_x
 _atom_site_fract_y
 _atom_site_fract_z
 _atom_site_occupancy
  Ce  Ce0  1  0.996028  0.673349  0.250000  1
  Ce  Ce1  1  0.672362  0.994822  0.250000  1
  Ce  Ce2  1  0.328402  0.004138  0.750000  1
  Nd  Nd3  1  0.005412  0.328329  0.750000  1
  Al  Al4  1  0.665570  0.665443  0.044719  1
  Al  Al5  1  0.336296  0.001129  0.072368  1
  Al  Al6  1  0.999781  0.335738  0.073242  1
  Al  Al7  1  0.128548  0.128459  0.250000  1
  Al  Al8  1  0.553074  0.341561  0.250000  1
  Al  Al9  1  0.340717  0.552414  0.250000  1
  Al  Al10  1  0.336296  0.001129  0.427631  1
  Al  Al11  1  0.999781  0.335738  0.426757  1
  Al  Al12  1  0.665570  0.665443  0.455281  1
  Al  Al13  1  0.333298  0.333612  0.541532  1
  Al  Al14  1  0.998857  0.664559  0.570273  1
  Al  Al15  1  0.665093  0.998988  0.570480  1
  Al  Al16  1  0.657449  0.447031  0.750000  1
  Al  Al17  1  0.449074  0.661269  0.750000  1
  Al  Al18  1  0.873488  0.871748  0.750000  1
  Al  Al19  1  0.998857  0.664559  0.929727  1
  Al  Al20  1  0.665093  0.998988  0.929520  1
  Al  Al21  1  0.333298  0.333612  0.958467  1
  Co  Co22  1  0.999029  0.997602  0.003020  1
  Co  Co23  1  0.670217  0.328326  0.001702  1
  Co  Co24  1  0.329582  0.673043  0.001811  1
  Co  Co25  1  0.999029  0.997602  0.496980  1
  Co  Co26  1  0.670217  0.328326  0.498298  1
  Co  Co27  1  0.329582  0.673043  0.498189  1
