# generated using pymatgen
data_Tb2Dy4MnTe2
_symmetry_space_group_name_H-M   'P 1'
_cell_length_a   8.31941718
_cell_length_b   8.31003541
_cell_length_c   4.08837900
_cell_angle_alpha   90.00000000
_cell_angle_beta   90.00000000
_cell_angle_gamma   119.96270327
_symmetry_Int_Tables_number   1
_chemical_formula_structural   Tb2Dy4MnTe2
_chemical_formula_sum   'Tb2 Dy4 Mn1 Te2'
_cell_volume   244.87286023
_cell_formula_units_Z   1
loop_
 _symmetry_equiv_pos_site_id
 _symmetry_equiv_pos_as_xyz
  1  'x, y, z'
loop_
 _atom_site_type_symbol
 _atom_site_label
 _atom_site_symmetry_multiplicity
 _atom_site_fract_x
 _atom_site_fract_y
 _atom_site_fract_z
 _atom_site_occupancy
  Tb  Tb0  1  0.602706  0.602583  0.500000  1
  Tb  Tb1  1  0.397294  0.999876  0.500000  1
  Dy  Dy2  1  0.000000  0.394729  0.500000  1
  Dy  Dy3  1  0.000000  0.762957  0.000000  1
  Dy  Dy4  1  0.238980  0.238035  0.000000  1
  Dy  Dy5  1  0.761020  0.999054  0.000000  1
  Mn  Mn6  1  0.000000  0.003608  0.500000  1
  Te  Te7  1  0.332229  0.665694  0.000000  1
  Te  Te8  1  0.667771  0.333464  0.000000  1
