# generated using pymatgen
data_Y3Tm5Cd2IrRu
_symmetry_space_group_name_H-M   'P 1'
_cell_length_a   9.55979590
_cell_length_b   9.55979682
_cell_length_c   9.59321100
_cell_angle_alpha   59.88430604
_cell_angle_beta   59.88430286
_cell_angle_gamma   59.75576412
_symmetry_Int_Tables_number   1
_chemical_formula_structural   Y3Tm5Cd2IrRu
_chemical_formula_sum   'Y6 Tm10 Cd4 Ir2 Ru2'
_cell_volume   617.70249684
_cell_formula_units_Z   2
loop_
 _symmetry_equiv_pos_site_id
 _symmetry_equiv_pos_as_xyz
  1  'x, y, z'
loop_
 _atom_site_type_symbol
 _atom_site_label
 _atom_site_symmetry_multiplicity
 _atom_site_fract_x
 _atom_site_fract_y
 _atom_site_fract_z
 _atom_site_occupancy
  Y  Y0  1  0.939715  0.558573  0.561464  1
  Y  Y1  1  0.558573  0.939715  0.940248  1
  Y  Y2  1  0.558573  0.939715  0.561464  1
  Y  Y3  1  0.939715  0.558573  0.940248  1
  Y  Y4  1  0.559961  0.559961  0.940039  1
  Y  Y5  1  0.939681  0.939681  0.560319  1
  Tm  Tm6  1  0.347664  0.347664  0.347464  1
  Tm  Tm7  1  0.347664  0.347664  0.957209  1
  Tm  Tm8  1  0.346298  0.960671  0.346516  1
  Tm  Tm9  1  0.960671  0.346298  0.346516  1
  Tm  Tm10  1  0.812813  0.187296  0.189089  1
  Tm  Tm11  1  0.187296  0.812813  0.810802  1
  Tm  Tm12  1  0.187296  0.812813  0.189089  1
  Tm  Tm13  1  0.812813  0.187296  0.810802  1
  Tm  Tm14  1  0.187288  0.187288  0.812712  1
  Tm  Tm15  1  0.810335  0.810335  0.189665  1
  Cd  Cd16  1  0.580050  0.580050  0.580062  1
  Cd  Cd17  1  0.580050  0.580050  0.259840  1
  Cd  Cd18  1  0.580702  0.258075  0.580613  1
  Cd  Cd19  1  0.258075  0.580702  0.580613  1
  Ir  Ir20  1  0.143544  0.577420  0.139518  1
  Ir  Ir21  1  0.577420  0.143544  0.139518  1
  Ru  Ru22  1  0.141904  0.141904  0.137455  1
  Ru  Ru23  1  0.141904  0.141904  0.578738  1
