# generated using pymatgen
data_Ac2Fe2IrN3
_symmetry_space_group_name_H-M   'P 1'
_cell_length_a   6.52620388
_cell_length_b   6.52620375
_cell_length_c   6.52566000
_cell_angle_alpha   89.74451150
_cell_angle_beta   89.74452028
_cell_angle_gamma   117.00920603
_symmetry_Int_Tables_number   1
_chemical_formula_structural   Ac2Fe2IrN3
_chemical_formula_sum   'Ac4 Fe4 Ir2 N6'
_cell_volume   247.61400833
_cell_formula_units_Z   2
loop_
 _symmetry_equiv_pos_site_id
 _symmetry_equiv_pos_as_xyz
  1  'x, y, z'
loop_
 _atom_site_type_symbol
 _atom_site_label
 _atom_site_symmetry_multiplicity
 _atom_site_fract_x
 _atom_site_fract_y
 _atom_site_fract_z
 _atom_site_occupancy
  Ac  Ac0  1  0.829526  0.666775  0.897145  1
  Ac  Ac1  1  0.333225  0.170474  0.602855  1
  Ac  Ac2  1  0.170474  0.333225  0.102855  1
  Ac  Ac3  1  0.666775  0.829526  0.397145  1
  Fe  Fe4  1  0.569433  0.164722  0.106535  1
  Fe  Fe5  1  0.430567  0.835278  0.893465  1
  Fe  Fe6  1  0.835278  0.430567  0.393465  1
  Fe  Fe7  1  0.164722  0.569433  0.606535  1
  Ir  Ir8  1  0.815107  0.184893  0.750000  1
  Ir  Ir9  1  0.184893  0.815107  0.250000  1
  N  N10  1  0.419929  0.580071  0.750000  1
  N  N11  1  0.580071  0.419929  0.250000  1
  N  N12  1  0.000157  0.727683  0.516055  1
  N  N13  1  0.727683  0.000157  0.016055  1
  N  N14  1  0.999843  0.272317  0.483945  1
  N  N15  1  0.272317  0.999843  0.983945  1
