# generated using pymatgen
data_Tm5Cd2(InNi)2
_symmetry_space_group_name_H-M   'P 1'
_cell_length_a   7.83525700
_cell_length_b   17.90842300
_cell_length_c   3.53764600
_cell_angle_alpha   90.00000000
_cell_angle_beta   90.00000000
_cell_angle_gamma   90.00000000
_symmetry_Int_Tables_number   1
_chemical_formula_structural   Tm5Cd2(InNi)2
_chemical_formula_sum   'Tm10 Cd4 In4 Ni4'
_cell_volume   496.39221577
_cell_formula_units_Z   2
loop_
 _symmetry_equiv_pos_site_id
 _symmetry_equiv_pos_as_xyz
  1  'x, y, z'
loop_
 _atom_site_type_symbol
 _atom_site_label
 _atom_site_symmetry_multiplicity
 _atom_site_fract_x
 _atom_site_fract_y
 _atom_site_fract_z
 _atom_site_occupancy
  Tm  Tm0  1  0.500000  0.500000  0.000000  1
  Tm  Tm1  1  0.000000  0.000000  0.000000  1
  Tm  Tm2  1  0.758473  0.278631  0.000000  1
  Tm  Tm3  1  0.241527  0.721369  0.000000  1
  Tm  Tm4  1  0.741527  0.778631  0.000000  1
  Tm  Tm5  1  0.258473  0.221369  0.000000  1
  Tm  Tm6  1  0.618703  0.089493  0.000000  1
  Tm  Tm7  1  0.381297  0.910507  0.000000  1
  Tm  Tm8  1  0.881297  0.589493  0.000000  1
  Tm  Tm9  1  0.118703  0.410507  0.000000  1
  Cd  Cd10  1  0.705389  0.930740  0.500000  1
  Cd  Cd11  1  0.294611  0.069260  0.500000  1
  Cd  Cd12  1  0.794611  0.430740  0.500000  1
  Cd  Cd13  1  0.205389  0.569260  0.500000  1
  In  In14  1  0.562437  0.650336  0.500000  1
  In  In15  1  0.437563  0.349664  0.500000  1
  In  In16  1  0.937563  0.150336  0.500000  1
  In  In17  1  0.062437  0.849664  0.500000  1
  Ni  Ni18  1  0.536435  0.197158  0.500000  1
  Ni  Ni19  1  0.463565  0.802842  0.500000  1
  Ni  Ni20  1  0.963565  0.697158  0.500000  1
  Ni  Ni21  1  0.036435  0.302842  0.500000  1
