# generated using pymatgen
data_Sc5GaBiPb2
_symmetry_space_group_name_H-M   'P 1'
_cell_length_a   8.85499561
_cell_length_b   8.85499425
_cell_length_c   6.15696300
_cell_angle_alpha   90.00000000
_cell_angle_beta   90.00000000
_cell_angle_gamma   119.99999445
_symmetry_Int_Tables_number   1
_chemical_formula_structural   Sc5GaBiPb2
_chemical_formula_sum   'Sc10 Ga2 Bi2 Pb4'
_cell_volume   418.09390190
_cell_formula_units_Z   2
loop_
 _symmetry_equiv_pos_site_id
 _symmetry_equiv_pos_as_xyz
  1  'x, y, z'
loop_
 _atom_site_type_symbol
 _atom_site_label
 _atom_site_symmetry_multiplicity
 _atom_site_fract_x
 _atom_site_fract_y
 _atom_site_fract_z
 _atom_site_occupancy
  Sc  Sc0  1  0.668040  0.334486  0.002035  1
  Sc  Sc1  1  0.331960  0.666447  0.002035  1
  Sc  Sc2  1  0.331960  0.666447  0.497965  1
  Sc  Sc3  1  0.668040  0.334486  0.497965  1
  Sc  Sc4  1  0.745595  0.743862  0.750000  1
  Sc  Sc5  1  0.254405  0.998267  0.750000  1
  Sc  Sc6  1  0.000000  0.255658  0.750000  1
  Sc  Sc7  1  0.257138  0.257239  0.250000  1
  Sc  Sc8  1  0.742862  0.000100  0.250000  1
  Sc  Sc9  1  0.000000  0.741753  0.250000  1
  Ga  Ga10  1  0.000000  0.999298  0.001722  1
  Ga  Ga11  1  0.000000  0.999298  0.498278  1
  Bi  Bi12  1  0.388078  0.388523  0.750000  1
  Bi  Bi13  1  0.611922  0.000445  0.750000  1
  Pb  Pb14  1  0.000000  0.611441  0.750000  1
  Pb  Pb15  1  0.613397  0.614147  0.250000  1
  Pb  Pb16  1  0.386603  0.000751  0.250000  1
  Pb  Pb17  1  0.000000  0.387351  0.250000  1
