# generated using pymatgen
data_DyYTm2Al4IrPt3
_symmetry_space_group_name_H-M   'P 1'
_cell_length_a   4.40717900
_cell_length_b   6.79639776
_cell_length_c   7.77926524
_cell_angle_alpha   90.13433261
_cell_angle_beta   90.00000000
_cell_angle_gamma   90.00000000
_symmetry_Int_Tables_number   1
_chemical_formula_structural   DyYTm2Al4IrPt3
_chemical_formula_sum   'Dy1 Y1 Tm2 Al4 Ir1 Pt3'
_cell_volume   233.01123613
_cell_formula_units_Z   1
loop_
 _symmetry_equiv_pos_site_id
 _symmetry_equiv_pos_as_xyz
  1  'x, y, z'
loop_
 _atom_site_type_symbol
 _atom_site_label
 _atom_site_symmetry_multiplicity
 _atom_site_fract_x
 _atom_site_fract_y
 _atom_site_fract_z
 _atom_site_occupancy
  Dy  Dy0  1  0.250000  0.967840  0.323091  1
  Y  Y1  1  0.250000  0.470434  0.179316  1
  Tm  Tm2  1  0.750000  0.532387  0.816983  1
  Tm  Tm3  1  0.750000  0.024607  0.680634  1
  Al  Al4  1  0.250000  0.854324  0.936102  1
  Al  Al5  1  0.750000  0.145378  0.059793  1
  Al  Al6  1  0.750000  0.644243  0.440608  1
  Al  Al7  1  0.250000  0.360786  0.563626  1
  Ir  Ir8  1  0.250000  0.732400  0.620349  1
  Pt  Pt9  1  0.750000  0.268609  0.382993  1
  Pt  Pt10  1  0.750000  0.771776  0.117897  1
  Pt  Pt11  1  0.250000  0.227214  0.878607  1
