# generated using pymatgen
data_Tm5P12Ir9(RuRh)5
_symmetry_space_group_name_H-M   'P 1'
_cell_length_a   12.59558680
_cell_length_b   12.59754904
_cell_length_c   3.95194300
_cell_angle_alpha   90.00000000
_cell_angle_beta   90.00000000
_cell_angle_gamma   119.65397119
_symmetry_Int_Tables_number   1
_chemical_formula_structural   Tm5P12Ir9(RuRh)5
_chemical_formula_sum   'Tm5 P12 Ir9 Ru5 Rh5'
_cell_volume   544.94106430
_cell_formula_units_Z   1
loop_
 _symmetry_equiv_pos_site_id
 _symmetry_equiv_pos_as_xyz
  1  'x, y, z'
loop_
 _atom_site_type_symbol
 _atom_site_label
 _atom_site_symmetry_multiplicity
 _atom_site_fract_x
 _atom_site_fract_y
 _atom_site_fract_z
 _atom_site_occupancy
  Tm  Tm0  1  0.334478  0.665845  0.500000  1
  Tm  Tm1  1  0.665028  0.332944  0.500000  1
  Tm  Tm2  1  0.183716  0.183871  0.000000  1
  Tm  Tm3  1  0.816479  0.001548  0.000000  1
  Tm  Tm4  1  0.001472  0.816747  0.000000  1
  P  P5  1  0.306124  0.824187  0.000000  1
  P  P6  1  0.174199  0.481870  0.000000  1
  P  P7  1  0.519887  0.692052  0.000000  1
  P  P8  1  0.825084  0.307326  0.000000  1
  P  P9  1  0.480450  0.172291  0.000000  1
  P  P10  1  0.687449  0.518005  0.000000  1
  P  P11  1  0.359129  0.359438  0.500000  1
  P  P12  1  0.640708  0.999759  0.500000  1
  P  P13  1  0.003998  0.641242  0.500000  1
  P  P14  1  0.819476  0.822160  0.500000  1
  P  P15  1  0.182242  0.999967  0.500000  1
  P  P16  1  0.000456  0.182698  0.500000  1
  Ir  Ir17  1  0.364818  0.494144  0.000000  1
  Ir  Ir18  1  0.505069  0.868597  0.000000  1
  Ir  Ir19  1  0.636541  0.129605  0.000000  1
  Ir  Ir20  1  0.491776  0.361503  0.000000  1
  Ir  Ir21  1  0.864057  0.503951  0.000000  1
  Ir  Ir22  1  0.720007  0.719093  0.000000  1
  Ir  Ir23  1  0.284130  0.999724  0.000000  1
  Ir  Ir24  1  0.000216  0.285564  0.000000  1
  Ir  Ir25  1  0.000751  0.000798  0.500000  1
  Ru  Ru26  1  0.197866  0.818294  0.500000  1
  Ru  Ru27  1  0.182066  0.378212  0.500000  1
  Ru  Ru28  1  0.623102  0.804014  0.500000  1
  Ru  Ru29  1  0.818007  0.195419  0.500000  1
  Ru  Ru30  1  0.375983  0.181227  0.500000  1
  Rh  Rh31  1  0.808835  0.626331  0.500000  1
  Rh  Rh32  1  0.128167  0.635658  0.000000  1
  Rh  Rh33  1  0.544083  0.541857  0.500000  1
  Rh  Rh34  1  0.456806  0.000332  0.500000  1
  Rh  Rh35  1  0.997347  0.453730  0.500000  1
