# generated using pymatgen
data_KBaZnReN4
_symmetry_space_group_name_H-M   'P 1'
_cell_length_a   6.10009300
_cell_length_b   6.65326924
_cell_length_c   6.74097817
_cell_angle_alpha   74.81705118
_cell_angle_beta   90.00000000
_cell_angle_gamma   90.00000000
_symmetry_Int_Tables_number   1
_chemical_formula_structural   KBaZnReN4
_chemical_formula_sum   'K2 Ba2 Zn2 Re2 N8'
_cell_volume   264.03670648
_cell_formula_units_Z   2
loop_
 _symmetry_equiv_pos_site_id
 _symmetry_equiv_pos_as_xyz
  1  'x, y, z'
loop_
 _atom_site_type_symbol
 _atom_site_label
 _atom_site_symmetry_multiplicity
 _atom_site_fract_x
 _atom_site_fract_y
 _atom_site_fract_z
 _atom_site_occupancy
  K  K0  1  0.250000  0.223220  0.067737  1
  K  K1  1  0.750000  0.776780  0.932263  1
  Ba  Ba2  1  0.750000  0.798466  0.429251  1
  Ba  Ba3  1  0.250000  0.201534  0.570749  1
  Zn  Zn4  1  0.750000  0.325268  0.289987  1
  Zn  Zn5  1  0.250000  0.674732  0.710013  1
  Re  Re6  1  0.250000  0.687361  0.203053  1
  Re  Re7  1  0.750000  0.312639  0.796947  1
  N  N8  1  0.510076  0.479185  0.743827  1
  N  N9  1  0.010076  0.520815  0.256173  1
  N  N10  1  0.489924  0.520815  0.256173  1
  N  N11  1  0.989924  0.479185  0.743827  1
  N  N12  1  0.750000  0.146964  0.608945  1
  N  N13  1  0.250000  0.853036  0.391055  1
  N  N14  1  0.750000  0.158473  0.069639  1
  N  N15  1  0.250000  0.841527  0.930361  1
