# generated using pymatgen
data_Na3Lu(PO4)2
_symmetry_space_group_name_H-M   'P 1'
_cell_length_a   5.59568000
_cell_length_b   7.13234264
_cell_length_c   8.85361892
_cell_angle_alpha   90.20285663
_cell_angle_beta   90.00000000
_cell_angle_gamma   90.00000000
_symmetry_Int_Tables_number   1
_chemical_formula_structural   Na3Lu(PO4)2
_chemical_formula_sum   'Na6 Lu2 P4 O16'
_cell_volume   353.34843504
_cell_formula_units_Z   2
loop_
 _symmetry_equiv_pos_site_id
 _symmetry_equiv_pos_as_xyz
  1  'x, y, z'
loop_
 _atom_site_type_symbol
 _atom_site_label
 _atom_site_symmetry_multiplicity
 _atom_site_fract_x
 _atom_site_fract_y
 _atom_site_fract_z
 _atom_site_occupancy
  Na  Na0  1  0.750000  0.503326  0.744775  1
  Na  Na1  1  0.250000  0.496674  0.255225  1
  Na  Na2  1  0.750000  0.721084  0.434754  1
  Na  Na3  1  0.250000  0.278916  0.565246  1
  Na  Na4  1  0.750000  0.289087  0.062197  1
  Na  Na5  1  0.250000  0.710913  0.937803  1
  Lu  Lu6  1  0.750000  0.001603  0.752373  1
  Lu  Lu7  1  0.250000  0.998397  0.247627  1
  P  P8  1  0.750000  0.226366  0.401409  1
  P  P9  1  0.250000  0.773634  0.598591  1
  P  P10  1  0.750000  0.775088  0.095867  1
  P  P11  1  0.250000  0.224912  0.904133  1
  O  O12  1  0.750000  0.054597  0.508677  1
  O  O13  1  0.250000  0.945403  0.491323  1
  O  O14  1  0.750000  0.408033  0.492420  1
  O  O15  1  0.250000  0.591967  0.507580  1
  O  O16  1  0.023704  0.783193  0.704205  1
  O  O17  1  0.523704  0.216807  0.295795  1
  O  O18  1  0.976296  0.216807  0.295795  1
  O  O19  1  0.476296  0.783193  0.704205  1
  O  O20  1  0.750000  0.953929  0.996595  1
  O  O21  1  0.250000  0.046071  0.003405  1
  O  O22  1  0.023513  0.222674  0.798154  1
  O  O23  1  0.523513  0.777326  0.201846  1
  O  O24  1  0.976487  0.777326  0.201846  1
  O  O25  1  0.476487  0.222674  0.798154  1
  O  O26  1  0.750000  0.600137  0.996405  1
  O  O27  1  0.250000  0.399863  0.003595  1
