# generated using pymatgen
data_Sm6Co13Tc2(NiP4)3
_symmetry_space_group_name_H-M   'P 1'
_cell_length_a   3.78175200
_cell_length_b   10.60897932
_cell_length_c   12.35844552
_cell_angle_alpha   89.94294200
_cell_angle_beta   90.00000000
_cell_angle_gamma   90.00000000
_symmetry_Int_Tables_number   1
_chemical_formula_structural   Sm6Co13Tc2(NiP4)3
_chemical_formula_sum   'Sm6 Co13 Tc2 Ni3 P12'
_cell_volume   495.82712333
_cell_formula_units_Z   1
loop_
 _symmetry_equiv_pos_site_id
 _symmetry_equiv_pos_as_xyz
  1  'x, y, z'
loop_
 _atom_site_type_symbol
 _atom_site_label
 _atom_site_symmetry_multiplicity
 _atom_site_fract_x
 _atom_site_fract_y
 _atom_site_fract_z
 _atom_site_occupancy
  Sm  Sm0  1  0.000000  0.500067  0.522033  1
  Sm  Sm1  1  0.500000  0.999953  0.478266  1
  Sm  Sm2  1  0.500000  0.815910  0.205338  1
  Sm  Sm3  1  0.500000  0.183796  0.205595  1
  Sm  Sm4  1  0.000000  0.684202  0.794609  1
  Sm  Sm5  1  0.000000  0.316209  0.793842  1
  Co  Co6  1  0.000000  0.499396  0.987427  1
  Co  Co7  1  0.500000  0.999405  0.012684  1
  Co  Co8  1  0.500000  0.668221  0.991961  1
  Co  Co9  1  0.000000  0.168566  0.009030  1
  Co  Co10  1  0.000000  0.832333  0.008792  1
  Co  Co11  1  0.500000  0.298188  0.430307  1
  Co  Co12  1  0.500000  0.701931  0.430331  1
  Co  Co13  1  0.000000  0.201665  0.569799  1
  Co  Co14  1  0.000000  0.798274  0.569740  1
  Co  Co15  1  0.500000  0.880525  0.709929  1
  Co  Co16  1  0.500000  0.119037  0.709403  1
  Co  Co17  1  0.000000  0.619763  0.289991  1
  Co  Co18  1  0.000000  0.381094  0.291298  1
  Tc  Tc19  1  0.500000  0.499267  0.155370  1
  Tc  Tc20  1  0.000000  0.000243  0.845235  1
  Ni  Ni21  1  0.500000  0.500034  0.702724  1
  Ni  Ni22  1  0.000000  0.000057  0.296628  1
  Ni  Ni23  1  0.500000  0.330870  0.990075  1
  P  P24  1  0.500000  0.501928  0.883928  1
  P  P25  1  0.000000  0.000231  0.114792  1
  P  P26  1  0.500000  0.500636  0.345359  1
  P  P27  1  0.000000  0.999812  0.654813  1
  P  P28  1  0.500000  0.307523  0.614064  1
  P  P29  1  0.500000  0.692784  0.614158  1
  P  P30  1  0.000000  0.192590  0.385880  1
  P  P31  1  0.000000  0.807145  0.385654  1
  P  P32  1  0.500000  0.847125  0.895127  1
  P  P33  1  0.500000  0.150103  0.893263  1
  P  P34  1  0.000000  0.652381  0.104621  1
  P  P35  1  0.000000  0.348733  0.107934  1
