# generated using pymatgen
data_Pd2Au3
_symmetry_space_group_name_H-M   'P 1'
_cell_length_a   4.97221537
_cell_length_b   4.98434860
_cell_length_c   7.61128029
_cell_angle_alpha   139.64464725
_cell_angle_beta   71.39287554
_cell_angle_gamma   131.25170947
_symmetry_Int_Tables_number   1
_chemical_formula_structural   Pd2Au3
_chemical_formula_sum   'Pd2 Au3'
_cell_volume   85.06565322
_cell_formula_units_Z   1
loop_
 _symmetry_equiv_pos_site_id
 _symmetry_equiv_pos_as_xyz
  1  'x, y, z'
loop_
 _atom_site_type_symbol
 _atom_site_label
 _atom_site_symmetry_multiplicity
 _atom_site_fract_x
 _atom_site_fract_y
 _atom_site_fract_z
 _atom_site_occupancy
  Pd  Pd0  1  0.794052  0.939866  0.251436  1
  Pd  Pd1  1  0.193466  0.737940  0.850247  1
  Au  Au2  1  0.993950  0.339239  0.050928  1
  Au  Au3  1  0.397770  0.142170  0.654230  1
  Au  Au4  1  0.589972  0.535837  0.447455  1
