# generated using pymatgen
data_Er3LuAl18Ir5Au
_symmetry_space_group_name_H-M   'P 1'
_cell_length_a   7.56797819
_cell_length_b   7.56901702
_cell_length_c   9.42993806
_cell_angle_alpha   89.96463599
_cell_angle_beta   89.99218971
_cell_angle_gamma   119.53514874
_symmetry_Int_Tables_number   1
_chemical_formula_structural   Er3LuAl18Ir5Au
_chemical_formula_sum   'Er3 Lu1 Al18 Ir5 Au1'
_cell_volume   469.97416845
_cell_formula_units_Z   1
loop_
 _symmetry_equiv_pos_site_id
 _symmetry_equiv_pos_as_xyz
  1  'x, y, z'
loop_
 _atom_site_type_symbol
 _atom_site_label
 _atom_site_symmetry_multiplicity
 _atom_site_fract_x
 _atom_site_fract_y
 _atom_site_fract_z
 _atom_site_occupancy
  Er  Er0  1  0.996288  0.674668  0.251524  1
  Er  Er1  1  0.003916  0.325360  0.748582  1
  Er  Er2  1  0.674272  0.995931  0.251416  1
  Lu  Lu3  1  0.325216  0.003895  0.748234  1
  Al  Al4  1  0.135832  0.135557  0.256057  1
  Al  Al5  1  0.864682  0.864387  0.744293  1
  Al  Al6  1  0.001612  0.344314  0.079313  1
  Al  Al7  1  0.999016  0.656343  0.919734  1
  Al  Al8  1  0.000778  0.664479  0.574989  1
  Al  Al9  1  0.335829  0.999754  0.426551  1
  Al  Al10  1  0.999763  0.335689  0.425999  1
  Al  Al11  1  0.663945  0.000336  0.574992  1
  Al  Al12  1  0.655169  0.998658  0.919552  1
  Al  Al13  1  0.344056  0.001555  0.078495  1
  Al  Al14  1  0.333039  0.332747  0.553745  1
  Al  Al15  1  0.667227  0.667124  0.447782  1
  Al  Al16  1  0.658429  0.658409  0.059030  1
  Al  Al17  1  0.341317  0.340874  0.939336  1
  Al  Al18  1  0.339565  0.550831  0.251277  1
  Al  Al19  1  0.660114  0.448491  0.748723  1
  Al  Al20  1  0.550857  0.339253  0.251269  1
  Al  Al21  1  0.449004  0.660910  0.748737  1
  Ir  Ir22  1  0.672445  0.327735  0.999820  1
  Ir  Ir23  1  0.327634  0.672287  0.999792  1
  Ir  Ir24  1  0.327816  0.672257  0.500142  1
  Ir  Ir25  1  0.672277  0.327714  0.500175  1
  Ir  Ir26  1  0.000276  0.000176  0.500387  1
  Au  Au27  1  0.999628  0.000264  0.000055  1
