# generated using pymatgen
data_Pu2NpUB16
_symmetry_space_group_name_H-M   'P 1'
_cell_length_a   7.07011916
_cell_length_b   7.05376013
_cell_length_c   3.97706200
_cell_angle_alpha   90.00000000
_cell_angle_beta   90.00000000
_cell_angle_gamma   90.18439143
_symmetry_Int_Tables_number   1
_chemical_formula_structural   Pu2NpUB16
_chemical_formula_sum   'Pu2 Np1 U1 B16'
_cell_volume   198.33873207
_cell_formula_units_Z   1
loop_
 _symmetry_equiv_pos_site_id
 _symmetry_equiv_pos_as_xyz
  1  'x, y, z'
loop_
 _atom_site_type_symbol
 _atom_site_label
 _atom_site_symmetry_multiplicity
 _atom_site_fract_x
 _atom_site_fract_y
 _atom_site_fract_z
 _atom_site_occupancy
  Pu  Pu0  1  0.811041  0.311787  0.000000  1
  Pu  Pu1  1  0.311812  0.187622  0.000000  1
  Np  Np2  1  0.690501  0.809938  0.000000  1
  U  U3  1  0.189547  0.689827  0.000000  1
  B  B4  1  0.999173  0.999993  0.200530  1
  B  B5  1  0.500614  0.500419  0.799507  1
  B  B6  1  0.999173  0.999993  0.799470  1
  B  B7  1  0.500614  0.500419  0.200493  1
  B  B8  1  0.587480  0.085542  0.500000  1
  B  B9  1  0.087319  0.414556  0.500000  1
  B  B10  1  0.913448  0.587359  0.500000  1
  B  B11  1  0.412864  0.912130  0.500000  1
  B  B12  1  0.038648  0.177954  0.500000  1
  B  B13  1  0.177576  0.960264  0.500000  1
  B  B14  1  0.820752  0.036410  0.500000  1
  B  B15  1  0.959698  0.821358  0.500000  1
  B  B16  1  0.461462  0.678934  0.500000  1
  B  B17  1  0.538605  0.322079  0.500000  1
  B  B18  1  0.678081  0.540773  0.500000  1
  B  B19  1  0.321589  0.462644  0.500000  1
