# generated using pymatgen
data_Tb3Er5(ScSn4)2
_symmetry_space_group_name_H-M   'P 1'
_cell_length_a   7.88929800
_cell_length_b   8.08430607
_cell_length_c   15.32887500
_cell_angle_alpha   90.04103538
_cell_angle_beta   90.00000000
_cell_angle_gamma   90.00000000
_symmetry_Int_Tables_number   1
_chemical_formula_structural   Tb3Er5(ScSn4)2
_chemical_formula_sum   'Tb6 Er10 Sc4 Sn16'
_cell_volume   977.66772828
_cell_formula_units_Z   2
loop_
 _symmetry_equiv_pos_site_id
 _symmetry_equiv_pos_as_xyz
  1  'x, y, z'
loop_
 _atom_site_type_symbol
 _atom_site_label
 _atom_site_symmetry_multiplicity
 _atom_site_fract_x
 _atom_site_fract_y
 _atom_site_fract_z
 _atom_site_occupancy
  Tb  Tb0  1  0.484673  0.679352  0.405358  1
  Tb  Tb1  1  0.984673  0.820648  0.094642  1
  Tb  Tb2  1  0.483153  0.677556  0.094910  1
  Tb  Tb3  1  0.983153  0.822444  0.405090  1
  Tb  Tb4  1  0.514684  0.321572  0.595492  1
  Tb  Tb5  1  0.014684  0.178428  0.904508  1
  Er  Er6  1  0.356129  0.838091  0.875023  1
  Er  Er7  1  0.856129  0.661909  0.624977  1
  Er  Er8  1  0.641129  0.161076  0.375578  1
  Er  Er9  1  0.141129  0.338924  0.124422  1
  Er  Er10  1  0.641683  0.161812  0.124651  1
  Er  Er11  1  0.141683  0.338188  0.375349  1
  Er  Er12  1  0.359621  0.838886  0.625247  1
  Er  Er13  1  0.859621  0.661114  0.874753  1
  Er  Er14  1  0.519965  0.321152  0.903134  1
  Er  Er15  1  0.019965  0.178848  0.596866  1
  Sc  Sc16  1  0.189263  0.502628  0.749865  1
  Sc  Sc17  1  0.689263  0.997372  0.750135  1
  Sc  Sc18  1  0.810002  0.496765  0.249672  1
  Sc  Sc19  1  0.310002  0.003235  0.250328  1
  Sn  Sn20  1  0.302803  0.038919  0.043128  1
  Sn  Sn21  1  0.802803  0.461081  0.456872  1
  Sn  Sn22  1  0.701242  0.964824  0.544393  1
  Sn  Sn23  1  0.201242  0.535176  0.955607  1
  Sn  Sn24  1  0.696055  0.960700  0.956495  1
  Sn  Sn25  1  0.196055  0.539300  0.543505  1
  Sn  Sn26  1  0.300541  0.039591  0.457987  1
  Sn  Sn27  1  0.800541  0.460409  0.042013  1
  Sn  Sn28  1  0.550321  0.616129  0.750442  1
  Sn  Sn29  1  0.050321  0.883871  0.749558  1
  Sn  Sn30  1  0.448636  0.382685  0.250207  1
  Sn  Sn31  1  0.948636  0.117315  0.249793  1
  Sn  Sn32  1  0.326650  0.154341  0.750691  1
  Sn  Sn33  1  0.826650  0.345659  0.749309  1
  Sn  Sn34  1  0.673444  0.846211  0.249809  1
  Sn  Sn35  1  0.173444  0.653789  0.250191  1
