# generated using pymatgen
data_Ce2FeCoC4
_symmetry_space_group_name_H-M   'P 1'
_cell_length_a   3.73730097
_cell_length_b   3.73885531
_cell_length_c   7.40561565
_cell_angle_alpha   82.49121126
_cell_angle_beta   82.63965718
_cell_angle_gamma   90.02347918
_symmetry_Int_Tables_number   1
_chemical_formula_structural   Ce2FeCoC4
_chemical_formula_sum   'Ce2 Fe1 Co1 C4'
_cell_volume   101.73215209
_cell_formula_units_Z   1
loop_
 _symmetry_equiv_pos_site_id
 _symmetry_equiv_pos_as_xyz
  1  'x, y, z'
loop_
 _atom_site_type_symbol
 _atom_site_label
 _atom_site_symmetry_multiplicity
 _atom_site_fract_x
 _atom_site_fract_y
 _atom_site_fract_z
 _atom_site_occupancy
  Ce  Ce0  1  0.065566  0.931947  0.997753  1
  Ce  Ce1  1  0.934015  0.066840  0.500526  1
  Fe  Fe2  1  0.373810  0.507987  0.693941  1
  Co  Co3  1  0.513384  0.372519  0.194742  1
  C  C4  1  0.442116  0.597047  0.429336  1
  C  C5  1  0.590621  0.444274  0.928278  1
  C  C6  1  0.489546  0.855970  0.274484  1
  C  C7  1  0.857940  0.490413  0.774741  1
