# generated using pymatgen
data_Ba2Li4ThBi4
_symmetry_space_group_name_H-M   'P 1'
_cell_length_a   9.34232608
_cell_length_b   9.34232557
_cell_length_c   9.34232630
_cell_angle_alpha   149.75708731
_cell_angle_beta   127.92395366
_cell_angle_gamma   61.41168266
_symmetry_Int_Tables_number   1
_chemical_formula_structural   Ba2Li4ThBi4
_chemical_formula_sum   'Ba2 Li4 Th1 Bi4'
_cell_volume   321.12382596
_cell_formula_units_Z   1
loop_
 _symmetry_equiv_pos_site_id
 _symmetry_equiv_pos_as_xyz
  1  'x, y, z'
loop_
 _atom_site_type_symbol
 _atom_site_label
 _atom_site_symmetry_multiplicity
 _atom_site_fract_x
 _atom_site_fract_y
 _atom_site_fract_z
 _atom_site_occupancy
  Ba  Ba0  1  0.622569  0.122569  0.500000  1
  Ba  Ba1  1  0.377431  0.877431  0.500000  1
  Li  Li2  1  0.988006  0.672868  0.315138  1
  Li  Li3  1  0.011994  0.327132  0.684862  1
  Li  Li4  1  0.642270  0.327132  0.315138  1
  Li  Li5  1  0.357730  0.672868  0.684862  1
  Th  Th6  1  0.000000  0.000000  0.000000  1
  Bi  Bi7  1  0.791117  0.791117  0.000000  1
  Bi  Bi8  1  0.208883  0.208883  0.000000  1
  Bi  Bi9  1  0.733214  0.500000  0.233214  1
  Bi  Bi10  1  0.266786  0.500000  0.766786  1
