# generated using pymatgen
data_DyTiP7Ru12
_symmetry_space_group_name_H-M   'P 1'
_cell_length_a   9.37947000
_cell_length_b   9.37946925
_cell_length_c   3.90402100
_cell_angle_alpha   90.00000000
_cell_angle_beta   90.00000000
_cell_angle_gamma   120.00000172
_symmetry_Int_Tables_number   1
_chemical_formula_structural   DyTiP7Ru12
_chemical_formula_sum   'Dy1 Ti1 P7 Ru12'
_cell_volume   297.43997208
_cell_formula_units_Z   1
loop_
 _symmetry_equiv_pos_site_id
 _symmetry_equiv_pos_as_xyz
  1  'x, y, z'
loop_
 _atom_site_type_symbol
 _atom_site_label
 _atom_site_symmetry_multiplicity
 _atom_site_fract_x
 _atom_site_fract_y
 _atom_site_fract_z
 _atom_site_occupancy
  Dy  Dy0  1  0.333333  0.666667  0.000000  1
  Ti  Ti1  1  0.666667  0.333333  0.500000  1
  P  P2  1  0.599631  0.719144  0.500000  1
  P  P3  1  0.000000  0.000000  0.000000  1
  P  P4  1  0.280856  0.880487  0.500000  1
  P  P5  1  0.119513  0.400369  0.500000  1
  P  P6  1  0.884081  0.570901  0.000000  1
  P  P7  1  0.429099  0.313180  0.000000  1
  P  P8  1  0.686820  0.115919  0.000000  1
  Ru  Ru9  1  0.557652  0.955412  0.500000  1
  Ru  Ru10  1  0.397760  0.442348  0.500000  1
  Ru  Ru11  1  0.913743  0.121588  0.500000  1
  Ru  Ru12  1  0.207845  0.086257  0.500000  1
  Ru  Ru13  1  0.878412  0.792155  0.500000  1
  Ru  Ru14  1  0.725663  0.889520  0.000000  1
  Ru  Ru15  1  0.110480  0.836142  0.000000  1
  Ru  Ru16  1  0.163858  0.274337  0.000000  1
  Ru  Ru17  1  0.428686  0.075848  0.000000  1
  Ru  Ru18  1  0.924152  0.352839  0.000000  1
  Ru  Ru19  1  0.647161  0.571314  0.000000  1
  Ru  Ru20  1  0.044588  0.602240  0.500000  1
