# generated using pymatgen
data_K4Li2CrH12Ir
_symmetry_space_group_name_H-M   'P 1'
_cell_length_a   9.66559586
_cell_length_b   9.66559585
_cell_length_c   9.66559624
_cell_angle_alpha   34.08340586
_cell_angle_beta   34.08340533
_cell_angle_gamma   34.08340446
_symmetry_Int_Tables_number   1
_chemical_formula_structural   K4Li2CrH12Ir
_chemical_formula_sum   'K4 Li2 Cr1 H12 Ir1'
_cell_volume   252.81461733
_cell_formula_units_Z   1
loop_
 _symmetry_equiv_pos_site_id
 _symmetry_equiv_pos_as_xyz
  1  'x, y, z'
loop_
 _atom_site_type_symbol
 _atom_site_label
 _atom_site_symmetry_multiplicity
 _atom_site_fract_x
 _atom_site_fract_y
 _atom_site_fract_z
 _atom_site_occupancy
  K  K0  1  0.127943  0.127943  0.127943  1
  K  K1  1  0.872057  0.872057  0.872057  1
  K  K2  1  0.284673  0.284673  0.284673  1
  K  K3  1  0.715327  0.715327  0.715327  1
  Li  Li4  1  0.406263  0.406263  0.406263  1
  Li  Li5  1  0.593737  0.593737  0.593737  1
  Cr  Cr6  1  0.000000  0.000000  0.000000  1
  H  H7  1  0.185366  0.185366  0.738647  1
  H  H8  1  0.738647  0.185366  0.185366  1
  H  H9  1  0.185366  0.738647  0.185366  1
  H  H10  1  0.814634  0.261353  0.814634  1
  H  H11  1  0.814634  0.814634  0.261353  1
  H  H12  1  0.261353  0.814634  0.814634  1
  H  H13  1  0.397483  0.397483  0.815036  1
  H  H14  1  0.815036  0.397483  0.397483  1
  H  H15  1  0.184964  0.602517  0.602517  1
  H  H16  1  0.602517  0.602517  0.184964  1
  H  H17  1  0.602517  0.184964  0.602517  1
  H  H18  1  0.397483  0.815036  0.397483  1
  Ir  Ir19  1  0.500000  0.500000  0.500000  1
