# generated using pymatgen
data_Sc2U(CoSn)3
_symmetry_space_group_name_H-M   'P 1'
_cell_length_a   7.35788300
_cell_length_b   7.10174514
_cell_length_c   3.66799200
_cell_angle_alpha   90.00000000
_cell_angle_beta   90.00000000
_cell_angle_gamma   121.20043578
_symmetry_Int_Tables_number   1
_chemical_formula_structural   Sc2U(CoSn)3
_chemical_formula_sum   'Sc2 U1 Co3 Sn3'
_cell_volume   163.94396718
_cell_formula_units_Z   1
loop_
 _symmetry_equiv_pos_site_id
 _symmetry_equiv_pos_as_xyz
  1  'x, y, z'
loop_
 _atom_site_type_symbol
 _atom_site_label
 _atom_site_symmetry_multiplicity
 _atom_site_fract_x
 _atom_site_fract_y
 _atom_site_fract_z
 _atom_site_occupancy
  Sc  Sc0  1  0.006582  0.404257  0.500000  1
  Sc  Sc1  1  0.602324  0.595743  0.500000  1
  U  U2  1  0.413492  0.000000  0.500000  1
  Co  Co3  1  0.334912  0.705865  0.000000  1
  Co  Co4  1  0.629048  0.294135  0.000000  1
  Co  Co5  1  0.015165  0.000000  0.500000  1
  Sn  Sn6  1  0.979844  0.718291  0.000000  1
  Sn  Sn7  1  0.261553  0.281709  0.000000  1
  Sn  Sn8  1  0.757081  0.000000  0.000000  1
