# generated using pymatgen
data_Ac3Pr(SbPt)4
_symmetry_space_group_name_H-M   'P 1'
_cell_length_a   4.64812700
_cell_length_b   8.73073038
_cell_length_c   7.97671700
_cell_angle_alpha   89.94957343
_cell_angle_beta   90.00000000
_cell_angle_gamma   90.00000000
_symmetry_Int_Tables_number   1
_chemical_formula_structural   Ac3Pr(SbPt)4
_chemical_formula_sum   'Ac3 Pr1 Sb4 Pt4'
_cell_volume   323.70736347
_cell_formula_units_Z   1
loop_
 _symmetry_equiv_pos_site_id
 _symmetry_equiv_pos_as_xyz
  1  'x, y, z'
loop_
 _atom_site_type_symbol
 _atom_site_label
 _atom_site_symmetry_multiplicity
 _atom_site_fract_x
 _atom_site_fract_y
 _atom_site_fract_z
 _atom_site_occupancy
  Ac  Ac0  1  0.750000  0.005627  0.748559  1
  Ac  Ac1  1  0.250000  0.006186  0.250308  1
  Ac  Ac2  1  0.750000  0.505021  0.752009  1
  Pr  Pr3  1  0.250000  0.509061  0.249259  1
  Sb  Sb4  1  0.750000  0.274819  0.410759  1
  Sb  Sb5  1  0.250000  0.263942  0.917258  1
  Sb  Sb6  1  0.250000  0.760920  0.583686  1
  Sb  Sb7  1  0.750000  0.754603  0.087957  1
  Pt  Pt8  1  0.250000  0.725250  0.920242  1
  Pt  Pt9  1  0.250000  0.237405  0.578970  1
  Pt  Pt10  1  0.750000  0.723704  0.420781  1
  Pt  Pt11  1  0.750000  0.233464  0.080214  1
