# generated using pymatgen
data_ErPa3(Co2Pb)2
_symmetry_space_group_name_H-M   'P 1'
_cell_length_a   7.49512109
_cell_length_b   7.49512042
_cell_length_c   3.48661500
_cell_angle_alpha   90.00000000
_cell_angle_beta   90.00000000
_cell_angle_gamma   87.56588972
_symmetry_Int_Tables_number   1
_chemical_formula_structural   ErPa3(Co2Pb)2
_chemical_formula_sum   'Er1 Pa3 Co4 Pb2'
_cell_volume   195.69026974
_cell_formula_units_Z   1
loop_
 _symmetry_equiv_pos_site_id
 _symmetry_equiv_pos_as_xyz
  1  'x, y, z'
loop_
 _atom_site_type_symbol
 _atom_site_label
 _atom_site_symmetry_multiplicity
 _atom_site_fract_x
 _atom_site_fract_y
 _atom_site_fract_z
 _atom_site_occupancy
  Er  Er0  1  0.334461  0.834461  0.500000  1
  Pa  Pa1  1  0.665012  0.165012  0.500000  1
  Pa  Pa2  1  0.170166  0.332800  0.500000  1
  Pa  Pa3  1  0.832800  0.670166  0.500000  1
  Co  Co4  1  0.379465  0.149720  0.000000  1
  Co  Co5  1  0.103183  0.603183  0.000000  1
  Co  Co6  1  0.649720  0.879465  0.000000  1
  Co  Co7  1  0.859870  0.359870  0.000000  1
  Pb  Pb8  1  0.009336  0.995988  0.000000  1
  Pb  Pb9  1  0.495988  0.509336  0.000000  1
