# generated using pymatgen
data_PuTaB6Os
_symmetry_space_group_name_H-M   'P 1'
_cell_length_a   3.42275400
_cell_length_b   9.00960800
_cell_length_c   11.32595400
_cell_angle_alpha   90.00000000
_cell_angle_beta   90.00000000
_cell_angle_gamma   90.00000000
_symmetry_Int_Tables_number   1
_chemical_formula_structural   PuTaB6Os
_chemical_formula_sum   'Pu4 Ta4 B24 Os4'
_cell_volume   349.26605251
_cell_formula_units_Z   4
loop_
 _symmetry_equiv_pos_site_id
 _symmetry_equiv_pos_as_xyz
  1  'x, y, z'
loop_
 _atom_site_type_symbol
 _atom_site_label
 _atom_site_symmetry_multiplicity
 _atom_site_fract_x
 _atom_site_fract_y
 _atom_site_fract_z
 _atom_site_occupancy
  Pu  Pu0  1  0.000000  0.322387  0.412365  1
  Pu  Pu1  1  0.000000  0.677613  0.587635  1
  Pu  Pu2  1  0.000000  0.822387  0.087635  1
  Pu  Pu3  1  0.000000  0.177613  0.912365  1
  Ta  Ta4  1  0.000000  0.946432  0.375147  1
  Ta  Ta5  1  0.000000  0.053568  0.624854  1
  Ta  Ta6  1  0.000000  0.446432  0.124853  1
  Ta  Ta7  1  0.000000  0.553568  0.875146  1
  B  B8  1  0.500000  0.551218  0.436019  1
  B  B9  1  0.500000  0.448782  0.563981  1
  B  B10  1  0.500000  0.051218  0.063981  1
  B  B11  1  0.500000  0.948782  0.936019  1
  B  B12  1  0.500000  0.753766  0.422914  1
  B  B13  1  0.500000  0.246234  0.577086  1
  B  B14  1  0.500000  0.253766  0.077086  1
  B  B15  1  0.500000  0.746234  0.922914  1
  B  B16  1  0.500000  0.798662  0.263547  1
  B  B17  1  0.500000  0.201338  0.736453  1
  B  B18  1  0.500000  0.298661  0.236453  1
  B  B19  1  0.500000  0.701338  0.763547  1
  B  B20  1  0.500000  0.632015  0.179610  1
  B  B21  1  0.500000  0.367985  0.820390  1
  B  B22  1  0.500000  0.132015  0.320390  1
  B  B23  1  0.500000  0.867985  0.679610  1
  B  B24  1  0.500000  0.978030  0.213406  1
  B  B25  1  0.500000  0.021970  0.786594  1
  B  B26  1  0.500000  0.478030  0.286594  1
  B  B27  1  0.500000  0.521970  0.713406  1
  B  B28  1  0.500000  0.601088  0.026989  1
  B  B29  1  0.500000  0.398912  0.973011  1
  B  B30  1  0.500000  0.101088  0.473011  1
  B  B31  1  0.500000  0.898912  0.526989  1
  Os  Os32  1  0.000000  0.641873  0.319836  1
  Os  Os33  1  0.000000  0.358127  0.680164  1
  Os  Os34  1  0.000000  0.141873  0.180164  1
  Os  Os35  1  0.000000  0.858127  0.819836  1
