# generated using pymatgen
data_Dy3Y13Cd4TcNi3
_symmetry_space_group_name_H-M   'P 1'
_cell_length_a   9.63067752
_cell_length_b   9.64052500
_cell_length_c   9.64052516
_cell_angle_alpha   59.40115637
_cell_angle_beta   59.36070187
_cell_angle_gamma   59.36069367
_symmetry_Int_Tables_number   1
_chemical_formula_structural   Dy3Y13Cd4TcNi3
_chemical_formula_sum   'Dy3 Y13 Cd4 Tc1 Ni3'
_cell_volume   623.89671673
_cell_formula_units_Z   1
loop_
 _symmetry_equiv_pos_site_id
 _symmetry_equiv_pos_as_xyz
  1  'x, y, z'
loop_
 _atom_site_type_symbol
 _atom_site_label
 _atom_site_symmetry_multiplicity
 _atom_site_fract_x
 _atom_site_fract_y
 _atom_site_fract_z
 _atom_site_occupancy
  Dy  Dy0  1  0.597285  0.596964  0.596964  1
  Dy  Dy1  1  0.601786  0.601323  0.204552  1
  Dy  Dy2  1  0.601786  0.204552  0.601323  1
  Y  Y3  1  0.202366  0.602310  0.602310  1
  Y  Y4  1  0.060982  0.437864  0.437864  1
  Y  Y5  1  0.437792  0.060281  0.060281  1
  Y  Y6  1  0.437986  0.060931  0.437920  1
  Y  Y7  1  0.060101  0.437793  0.060901  1
  Y  Y8  1  0.437986  0.437920  0.060931  1
  Y  Y9  1  0.060101  0.060901  0.437793  1
  Y  Y10  1  0.186669  0.815016  0.815016  1
  Y  Y11  1  0.805297  0.189463  0.189463  1
  Y  Y12  1  0.814530  0.186690  0.814861  1
  Y  Y13  1  0.189476  0.805624  0.189004  1
  Y  Y14  1  0.814530  0.814861  0.186690  1
  Y  Y15  1  0.189476  0.189004  0.805624  1
  Cd  Cd16  1  0.829461  0.829607  0.829607  1
  Cd  Cd17  1  0.829478  0.829584  0.506157  1
  Cd  Cd18  1  0.829478  0.506157  0.829584  1
  Cd  Cd19  1  0.506405  0.829413  0.829413  1
  Tc  Tc20  1  0.395708  0.394195  0.394195  1
  Ni  Ni21  1  0.394022  0.392348  0.824016  1
  Ni  Ni22  1  0.394022  0.824016  0.392348  1
  Ni  Ni23  1  0.823273  0.393181  0.393181  1
