# generated using pymatgen
data_Pr2Dy3YCoI10
_symmetry_space_group_name_H-M   'P 1'
_cell_length_a   7.80381355
_cell_length_b   9.82118693
_cell_length_c   9.82362582
_cell_angle_alpha   106.88563282
_cell_angle_beta   96.11196749
_cell_angle_gamma   105.18728350
_symmetry_Int_Tables_number   1
_chemical_formula_structural   Pr2Dy3YCoI10
_chemical_formula_sum   'Pr2 Dy3 Y1 Co1 I10'
_cell_volume   681.56421417
_cell_formula_units_Z   1
loop_
 _symmetry_equiv_pos_site_id
 _symmetry_equiv_pos_as_xyz
  1  'x, y, z'
loop_
 _atom_site_type_symbol
 _atom_site_label
 _atom_site_symmetry_multiplicity
 _atom_site_fract_x
 _atom_site_fract_y
 _atom_site_fract_z
 _atom_site_occupancy
  Pr  Pr0  1  0.886116  0.957673  0.231312  1
  Pr  Pr1  1  0.113768  0.042176  0.768608  1
  Dy  Dy2  1  0.029645  0.719368  0.915641  1
  Dy  Dy3  1  0.970455  0.280745  0.084313  1
  Dy  Dy4  1  0.659276  0.878311  0.839573  1
  Y  Y5  1  0.342031  0.122006  0.160854  1
  Co  Co6  1  0.999064  0.999614  0.999524  1
  I  I7  1  0.652563  0.553984  0.731559  1
  I  I8  1  0.347281  0.446235  0.268465  1
  I  I9  1  0.733878  0.911336  0.544158  1
  I  I10  1  0.265979  0.088610  0.456019  1
  I  I11  1  0.082489  0.377797  0.824325  1
  I  I12  1  0.917560  0.622201  0.175693  1
  I  I13  1  0.447569  0.817063  0.089306  1
  I  I14  1  0.552342  0.182817  0.910530  1
  I  I15  1  0.228135  0.739623  0.659951  1
  I  I16  1  0.771849  0.260444  0.340167  1
