# generated using pymatgen
data_Y2Lu2Ru7W
_symmetry_space_group_name_H-M   'P 1'
_cell_length_a   5.47382900
_cell_length_b   5.18102866
_cell_length_c   8.98322919
_cell_angle_alpha   89.98068107
_cell_angle_beta   90.00000000
_cell_angle_gamma   121.88776728
_symmetry_Int_Tables_number   1
_chemical_formula_structural   Y2Lu2Ru7W
_chemical_formula_sum   'Y2 Lu2 Ru7 W1'
_cell_volume   216.31696186
_cell_formula_units_Z   1
loop_
 _symmetry_equiv_pos_site_id
 _symmetry_equiv_pos_as_xyz
  1  'x, y, z'
loop_
 _atom_site_type_symbol
 _atom_site_label
 _atom_site_symmetry_multiplicity
 _atom_site_fract_x
 _atom_site_fract_y
 _atom_site_fract_z
 _atom_site_occupancy
  Y  Y0  1  0.334989  0.669980  0.431137  1
  Y  Y1  1  0.673167  0.346333  0.563654  1
  Lu  Lu2  1  0.674221  0.348441  0.937583  1
  Lu  Lu3  1  0.334397  0.668796  0.067257  1
  Ru  Ru4  1  0.171622  0.819623  0.753776  1
  Ru  Ru5  1  0.332700  0.163714  0.246722  1
  Ru  Ru6  1  0.821887  0.643772  0.246551  1
  Ru  Ru7  1  0.648001  0.819623  0.753776  1
  Ru  Ru8  1  0.009439  0.018879  0.001862  1
  Ru  Ru9  1  0.831014  0.163714  0.246722  1
  Ru  Ru10  1  0.009120  0.018240  0.498511  1
  W  W11  1  0.159442  0.318884  0.752450  1
