# generated using pymatgen
data_ZrU2PaSb5
_symmetry_space_group_name_H-M   'P 1'
_cell_length_a   9.28104215
_cell_length_b   9.28140615
_cell_length_c   6.17323700
_cell_angle_alpha   90.00000000
_cell_angle_beta   90.00000000
_cell_angle_gamma   120.01911145
_symmetry_Int_Tables_number   1
_chemical_formula_structural   ZrU2PaSb5
_chemical_formula_sum   'Zr2 U4 Pa2 Sb10'
_cell_volume   460.43723383
_cell_formula_units_Z   2
loop_
 _symmetry_equiv_pos_site_id
 _symmetry_equiv_pos_as_xyz
  1  'x, y, z'
loop_
 _atom_site_type_symbol
 _atom_site_label
 _atom_site_symmetry_multiplicity
 _atom_site_fract_x
 _atom_site_fract_y
 _atom_site_fract_z
 _atom_site_occupancy
  Zr  Zr0  1  0.998269  0.999160  0.000042  1
  Zr  Zr1  1  0.998269  0.999160  0.499958  1
  U  U2  1  0.000349  0.614028  0.250000  1
  U  U3  1  0.000366  0.386338  0.750000  1
  U  U4  1  0.614606  0.614398  0.750000  1
  U  U5  1  0.614556  0.000238  0.250000  1
  Pa  Pa6  1  0.387088  0.999465  0.750000  1
  Pa  Pa7  1  0.386984  0.387561  0.250000  1
  Sb  Sb8  1  0.667132  0.333541  0.499913  1
  Sb  Sb9  1  0.333897  0.666982  0.000050  1
  Sb  Sb10  1  0.727453  0.999561  0.750000  1
  Sb  Sb11  1  0.727467  0.727874  0.250000  1
  Sb  Sb12  1  0.333897  0.666982  0.499950  1
  Sb  Sb13  1  0.667132  0.333541  0.000087  1
  Sb  Sb14  1  0.271996  0.999639  0.250000  1
  Sb  Sb15  1  0.271975  0.272321  0.750000  1
  Sb  Sb16  1  0.999271  0.727555  0.750000  1
  Sb  Sb17  1  0.999293  0.271659  0.250000  1
