# generated using pymatgen
data_Tb5Er5Si5Sn
_symmetry_space_group_name_H-M   'P 1'
_cell_length_a   8.50388821
_cell_length_b   8.53126863
_cell_length_c   6.37014800
_cell_angle_alpha   90.00000000
_cell_angle_beta   90.00000000
_cell_angle_gamma   119.81133540
_symmetry_Int_Tables_number   1
_chemical_formula_structural   Tb5Er5Si5Sn
_chemical_formula_sum   'Tb5 Er5 Si5 Sn1'
_cell_volume   400.99025630
_cell_formula_units_Z   1
loop_
 _symmetry_equiv_pos_site_id
 _symmetry_equiv_pos_as_xyz
  1  'x, y, z'
loop_
 _atom_site_type_symbol
 _atom_site_label
 _atom_site_symmetry_multiplicity
 _atom_site_fract_x
 _atom_site_fract_y
 _atom_site_fract_z
 _atom_site_occupancy
  Tb  Tb0  1  0.990036  0.748734  0.750000  1
  Tb  Tb1  1  0.998604  0.242965  0.250000  1
  Tb  Tb2  1  0.754730  0.756419  0.250000  1
  Tb  Tb3  1  0.765330  0.000219  0.750000  1
  Tb  Tb4  1  0.241775  0.000327  0.250000  1
  Er  Er5  1  0.241676  0.251970  0.750000  1
  Er  Er6  1  0.331075  0.656971  0.497243  1
  Er  Er7  1  0.673630  0.342691  0.002776  1
  Er  Er8  1  0.673630  0.342691  0.497224  1
  Er  Er9  1  0.331075  0.656971  0.002757  1
  Si  Si10  1  0.394442  0.393011  0.250000  1
  Si  Si11  1  0.001616  0.607294  0.250000  1
  Si  Si12  1  0.999396  0.394573  0.750000  1
  Si  Si13  1  0.602551  0.604115  0.750000  1
  Si  Si14  1  0.604343  0.000185  0.250000  1
  Sn  Sn15  1  0.396093  0.000862  0.750000  1
