# generated using pymatgen
data_TbPa(Co3P2)2
_symmetry_space_group_name_H-M   'P 1'
_cell_length_a   3.73671400
_cell_length_b   10.48349462
_cell_length_c   12.21565547
_cell_angle_alpha   90.10801348
_cell_angle_beta   90.00000000
_cell_angle_gamma   90.00000000
_symmetry_Int_Tables_number   1
_chemical_formula_structural   TbPa(Co3P2)2
_chemical_formula_sum   'Tb3 Pa3 Co18 P12'
_cell_volume   478.53305186
_cell_formula_units_Z   3
loop_
 _symmetry_equiv_pos_site_id
 _symmetry_equiv_pos_as_xyz
  1  'x, y, z'
loop_
 _atom_site_type_symbol
 _atom_site_label
 _atom_site_symmetry_multiplicity
 _atom_site_fract_x
 _atom_site_fract_y
 _atom_site_fract_z
 _atom_site_occupancy
  Tb  Tb0  1  0.500000  0.187247  0.205702  1
  Tb  Tb1  1  0.000000  0.685993  0.794406  1
  Tb  Tb2  1  0.000000  0.313992  0.792821  1
  Pa  Pa3  1  0.000000  0.499030  0.528006  1
  Pa  Pa4  1  0.500000  0.000765  0.474656  1
  Pa  Pa5  1  0.500000  0.817618  0.208251  1
  Co  Co6  1  0.500000  0.500074  0.159676  1
  Co  Co7  1  0.000000  0.999034  0.843535  1
  Co  Co8  1  0.500000  0.499247  0.694745  1
  Co  Co9  1  0.000000  0.993571  0.300283  1
  Co  Co10  1  0.000000  0.500062  0.981159  1
  Co  Co11  1  0.500000  0.000176  0.016579  1
  Co  Co12  1  0.500000  0.335437  0.992973  1
  Co  Co13  1  0.500000  0.665991  0.994914  1
  Co  Co14  1  0.000000  0.167688  0.006171  1
  Co  Co15  1  0.000000  0.834750  0.008224  1
  Co  Co16  1  0.500000  0.300898  0.430817  1
  Co  Co17  1  0.500000  0.696601  0.429989  1
  Co  Co18  1  0.000000  0.195325  0.567684  1
  Co  Co19  1  0.000000  0.803268  0.570812  1
  Co  Co20  1  0.500000  0.881157  0.712687  1
  Co  Co21  1  0.500000  0.118749  0.712007  1
  Co  Co22  1  0.000000  0.622800  0.286046  1
  Co  Co23  1  0.000000  0.381697  0.288465  1
  P  P24  1  0.500000  0.500234  0.877206  1
  P  P25  1  0.000000  0.003091  0.118853  1
  P  P26  1  0.500000  0.498546  0.343260  1
  P  P27  1  0.000000  0.999479  0.659212  1
  P  P28  1  0.500000  0.305158  0.615381  1
  P  P29  1  0.500000  0.693460  0.616727  1
  P  P30  1  0.000000  0.190832  0.382511  1
  P  P31  1  0.000000  0.806026  0.388709  1
  P  P32  1  0.500000  0.848253  0.895352  1
  P  P33  1  0.500000  0.153107  0.895211  1
  P  P34  1  0.000000  0.650386  0.102583  1
  P  P35  1  0.000000  0.350258  0.104387  1
