# generated using pymatgen
data_Ca3GaO4F
_symmetry_space_group_name_H-M   'P 1'
_cell_length_a   5.41352500
_cell_length_b   7.43618500
_cell_length_c   12.91528900
_cell_angle_alpha   90.00000000
_cell_angle_beta   90.00000000
_cell_angle_gamma   90.00000000
_symmetry_Int_Tables_number   1
_chemical_formula_structural   Ca3GaO4F
_chemical_formula_sum   'Ca12 Ga4 O16 F4'
_cell_volume   519.91753046
_cell_formula_units_Z   4
loop_
 _symmetry_equiv_pos_site_id
 _symmetry_equiv_pos_as_xyz
  1  'x, y, z'
loop_
 _atom_site_type_symbol
 _atom_site_label
 _atom_site_symmetry_multiplicity
 _atom_site_fract_x
 _atom_site_fract_y
 _atom_site_fract_z
 _atom_site_occupancy
  Ca  Ca0  1  0.234283  0.250000  0.412695  1
  Ca  Ca1  1  0.765717  0.750000  0.587305  1
  Ca  Ca2  1  0.265717  0.750000  0.912695  1
  Ca  Ca3  1  0.734283  0.250000  0.087305  1
  Ca  Ca4  1  0.267377  0.006382  0.169081  1
  Ca  Ca5  1  0.732623  0.993618  0.830919  1
  Ca  Ca6  1  0.232623  0.993618  0.669081  1
  Ca  Ca7  1  0.732623  0.506382  0.830919  1
  Ca  Ca8  1  0.767377  0.006382  0.330919  1
  Ca  Ca9  1  0.267377  0.493618  0.169081  1
  Ca  Ca10  1  0.767377  0.493618  0.330919  1
  Ca  Ca11  1  0.232623  0.506382  0.669081  1
  Ga  Ga12  1  0.706652  0.250000  0.583498  1
  Ga  Ga13  1  0.293348  0.750000  0.416502  1
  Ga  Ga14  1  0.793348  0.750000  0.083498  1
  Ga  Ga15  1  0.206652  0.250000  0.916502  1
  O  O16  1  0.353841  0.250000  0.582347  1
  O  O17  1  0.646159  0.750000  0.417653  1
  O  O18  1  0.146159  0.750000  0.082347  1
  O  O19  1  0.853841  0.250000  0.917653  1
  O  O20  1  0.198042  0.542204  0.345753  1
  O  O21  1  0.801958  0.457796  0.654247  1
  O  O22  1  0.301958  0.457796  0.845753  1
  O  O23  1  0.801958  0.042204  0.654247  1
  O  O24  1  0.698042  0.542204  0.154247  1
  O  O25  1  0.198042  0.957796  0.345753  1
  O  O26  1  0.698042  0.957796  0.154247  1
  O  O27  1  0.301958  0.042204  0.845753  1
  O  O28  1  0.304211  0.250000  0.055194  1
  O  O29  1  0.695789  0.750000  0.944806  1
  O  O30  1  0.195789  0.750000  0.555194  1
  O  O31  1  0.804211  0.250000  0.444806  1
  F  F32  1  0.000541  0.250000  0.234872  1
  F  F33  1  0.999459  0.750000  0.765128  1
  F  F34  1  0.499459  0.750000  0.734872  1
  F  F35  1  0.500541  0.250000  0.265128  1
