# generated using pymatgen
data_TbPr6(DySn2)3
_symmetry_space_group_name_H-M   'P 1'
_cell_length_a   9.23129300
_cell_length_b   9.23129390
_cell_length_c   6.74522300
_cell_angle_alpha   90.00000000
_cell_angle_beta   90.00000000
_cell_angle_gamma   120.00000035
_symmetry_Int_Tables_number   1
_chemical_formula_structural   TbPr6(DySn2)3
_chemical_formula_sum   'Tb1 Pr6 Dy3 Sn6'
_cell_volume   497.79674904
_cell_formula_units_Z   1
loop_
 _symmetry_equiv_pos_site_id
 _symmetry_equiv_pos_as_xyz
  1  'x, y, z'
loop_
 _atom_site_type_symbol
 _atom_site_label
 _atom_site_symmetry_multiplicity
 _atom_site_fract_x
 _atom_site_fract_y
 _atom_site_fract_z
 _atom_site_occupancy
  Tb  Tb0  1  0.333333  0.666667  0.500000  1
  Pr  Pr1  1  0.999987  0.758663  0.750011  1
  Pr  Pr2  1  0.999987  0.241324  0.249989  1
  Pr  Pr3  1  0.758676  0.758663  0.249989  1
  Pr  Pr4  1  0.758676  0.000013  0.750011  1
  Pr  Pr5  1  0.241337  0.241324  0.750011  1
  Pr  Pr6  1  0.241337  0.000013  0.249989  1
  Dy  Dy7  1  0.666667  0.333333  0.000000  1
  Dy  Dy8  1  0.666667  0.333333  0.500000  1
  Dy  Dy9  1  0.333333  0.666667  0.000000  1
  Sn  Sn10  1  0.398843  0.000048  0.750033  1
  Sn  Sn11  1  0.398843  0.398795  0.249967  1
  Sn  Sn12  1  0.999952  0.601157  0.249967  1
  Sn  Sn13  1  0.999952  0.398795  0.750033  1
  Sn  Sn14  1  0.601205  0.601157  0.750033  1
  Sn  Sn15  1  0.601205  0.000048  0.249967  1
