# generated using pymatgen
data_Yb2P7Ru11Pt
_symmetry_space_group_name_H-M   'P 1'
_cell_length_a   9.32871300
_cell_length_b   9.46464887
_cell_length_c   3.94305200
_cell_angle_alpha   90.00000000
_cell_angle_beta   90.00000000
_cell_angle_gamma   119.15487475
_symmetry_Int_Tables_number   1
_chemical_formula_structural   Yb2P7Ru11Pt
_chemical_formula_sum   'Yb2 P7 Ru11 Pt1'
_cell_volume   304.03613696
_cell_formula_units_Z   1
loop_
 _symmetry_equiv_pos_site_id
 _symmetry_equiv_pos_as_xyz
  1  'x, y, z'
loop_
 _atom_site_type_symbol
 _atom_site_label
 _atom_site_symmetry_multiplicity
 _atom_site_fract_x
 _atom_site_fract_y
 _atom_site_fract_z
 _atom_site_occupancy
  Yb  Yb0  1  0.669874  0.335695  0.500000  1
  Yb  Yb1  1  0.329775  0.660124  0.000000  1
  P  P2  1  0.599967  0.703904  0.500000  1
  P  P3  1  0.996301  0.000198  0.000000  1
  P  P4  1  0.272073  0.878245  0.500000  1
  P  P5  1  0.115406  0.398307  0.500000  1
  P  P6  1  0.887857  0.579746  0.000000  1
  P  P7  1  0.428980  0.310227  0.000000  1
  P  P8  1  0.705109  0.129015  0.000000  1
  Ru  Ru9  1  0.390586  0.435633  0.500000  1
  Ru  Ru10  1  0.909828  0.125172  0.500000  1
  Ru  Ru11  1  0.209883  0.085992  0.500000  1
  Ru  Ru12  1  0.879691  0.799501  0.500000  1
  Ru  Ru13  1  0.724296  0.894001  0.000000  1
  Ru  Ru14  1  0.110896  0.840299  0.000000  1
  Ru  Ru15  1  0.162067  0.266747  0.000000  1
  Ru  Ru16  1  0.431446  0.066559  0.000000  1
  Ru  Ru17  1  0.943634  0.367593  0.000000  1
  Ru  Ru18  1  0.640689  0.579216  0.000000  1
  Ru  Ru19  1  0.047618  0.608320  0.500000  1
  Pt  Pt20  1  0.544023  0.935508  0.500000  1
