# generated using pymatgen
data_HfTh2Zr3F24
_symmetry_space_group_name_H-M   'P 1'
_cell_length_a   8.28561843
_cell_length_b   8.28561869
_cell_length_c   7.95552422
_cell_angle_alpha   61.80455589
_cell_angle_beta   61.80455403
_cell_angle_gamma   79.70675339
_symmetry_Int_Tables_number   1
_chemical_formula_structural   HfTh2Zr3F24
_chemical_formula_sum   'Hf1 Th2 Zr3 F24'
_cell_volume   423.53676557
_cell_formula_units_Z   1
loop_
 _symmetry_equiv_pos_site_id
 _symmetry_equiv_pos_as_xyz
  1  'x, y, z'
loop_
 _atom_site_type_symbol
 _atom_site_label
 _atom_site_symmetry_multiplicity
 _atom_site_fract_x
 _atom_site_fract_y
 _atom_site_fract_z
 _atom_site_occupancy
  Hf  Hf0  1  0.810905  0.810905  0.569220  1
  Th  Th1  1  0.778740  0.221859  0.000439  1
  Th  Th2  1  0.221859  0.778740  0.000439  1
  Zr  Zr3  1  0.351149  0.351149  0.773948  1
  Zr  Zr4  1  0.649640  0.649640  0.225260  1
  Zr  Zr5  1  0.187964  0.187964  0.430615  1
  F  F6  1  0.439265  0.695444  0.133478  1
  F  F7  1  0.304561  0.561004  0.866639  1
  F  F8  1  0.561004  0.304561  0.866639  1
  F  F9  1  0.695444  0.439265  0.133478  1
  F  F10  1  0.221839  0.221839  0.140346  1
  F  F11  1  0.778220  0.778220  0.856144  1
  F  F12  1  0.000084  0.000084  0.999794  1
  F  F13  1  0.998195  0.998195  0.500730  1
  F  F14  1  0.388135  0.612372  0.499779  1
  F  F15  1  0.612372  0.388135  0.499779  1
  F  F16  1  0.830037  0.537013  0.719757  1
  F  F17  1  0.466361  0.169160  0.279073  1
  F  F18  1  0.169160  0.466361  0.279073  1
  F  F19  1  0.537013  0.830037  0.719757  1
  F  F20  1  0.712739  0.712739  0.429527  1
  F  F21  1  0.288280  0.288280  0.571365  1
  F  F22  1  0.934033  0.645465  0.110786  1
  F  F23  1  0.354739  0.065711  0.889152  1
  F  F24  1  0.065711  0.354739  0.889152  1
  F  F25  1  0.645465  0.934033  0.110786  1
  F  F26  1  0.780517  0.056770  0.337573  1
  F  F27  1  0.939711  0.220088  0.664849  1
  F  F28  1  0.220088  0.939711  0.664849  1
  F  F29  1  0.056770  0.780517  0.337573  1
