# generated using pymatgen
data_TbY2Ti(Co4P3)2
_symmetry_space_group_name_H-M   'P 1'
_cell_length_a   3.70702600
_cell_length_b   10.63539400
_cell_length_c   12.32418500
_cell_angle_alpha   90.00000000
_cell_angle_beta   90.00000000
_cell_angle_gamma   90.00000000
_symmetry_Int_Tables_number   1
_chemical_formula_structural   TbY2Ti(Co4P3)2
_chemical_formula_sum   'Tb2 Y4 Ti2 Co16 P12'
_cell_volume   485.88939968
_cell_formula_units_Z   2
loop_
 _symmetry_equiv_pos_site_id
 _symmetry_equiv_pos_as_xyz
  1  'x, y, z'
loop_
 _atom_site_type_symbol
 _atom_site_label
 _atom_site_symmetry_multiplicity
 _atom_site_fract_x
 _atom_site_fract_y
 _atom_site_fract_z
 _atom_site_occupancy
  Tb  Tb0  1  0.000000  0.500000  0.525257  1
  Tb  Tb1  1  0.500000  0.000000  0.474743  1
  Y  Y2  1  0.500000  0.819938  0.204385  1
  Y  Y3  1  0.500000  0.180062  0.204385  1
  Y  Y4  1  0.000000  0.680062  0.795615  1
  Y  Y5  1  0.000000  0.319938  0.795615  1
  Ti  Ti6  1  0.500000  0.500000  0.153420  1
  Ti  Ti7  1  0.000000  0.000000  0.846580  1
  Co  Co8  1  0.500000  0.500000  0.702712  1
  Co  Co9  1  0.000000  0.000000  0.297288  1
  Co  Co10  1  0.000000  0.500000  0.987260  1
  Co  Co11  1  0.500000  0.000000  0.012740  1
  Co  Co12  1  0.500000  0.332201  0.993977  1
  Co  Co13  1  0.500000  0.667799  0.993977  1
  Co  Co14  1  0.000000  0.167799  0.006023  1
  Co  Co15  1  0.000000  0.832201  0.006023  1
  Co  Co16  1  0.500000  0.295887  0.431698  1
  Co  Co17  1  0.500000  0.704113  0.431698  1
  Co  Co18  1  0.000000  0.204113  0.568302  1
  Co  Co19  1  0.000000  0.795887  0.568302  1
  Co  Co20  1  0.500000  0.878660  0.706326  1
  Co  Co21  1  0.500000  0.121340  0.706326  1
  Co  Co22  1  0.000000  0.621340  0.293674  1
  Co  Co23  1  0.000000  0.378660  0.293674  1
  P  P24  1  0.500000  0.500000  0.883283  1
  P  P25  1  0.000000  0.000000  0.116717  1
  P  P26  1  0.500000  0.500000  0.352583  1
  P  P27  1  0.000000  0.000000  0.647417  1
  P  P28  1  0.500000  0.310097  0.615653  1
  P  P29  1  0.500000  0.689903  0.615653  1
  P  P30  1  0.000000  0.189903  0.384347  1
  P  P31  1  0.000000  0.810097  0.384347  1
  P  P32  1  0.500000  0.842991  0.892345  1
  P  P33  1  0.500000  0.157009  0.892345  1
  P  P34  1  0.000000  0.657009  0.107655  1
  P  P35  1  0.000000  0.342991  0.107655  1
