# generated using pymatgen
data_La8Ga3Fe
_symmetry_space_group_name_H-M   'P 1'
_cell_length_a   10.69183750
_cell_length_b   10.68460253
_cell_length_c   7.09127800
_cell_angle_alpha   90.00000000
_cell_angle_beta   90.00000000
_cell_angle_gamma   120.05747344
_symmetry_Int_Tables_number   1
_chemical_formula_structural   La8Ga3Fe
_chemical_formula_sum   'La16 Ga6 Fe2'
_cell_volume   701.15503110
_cell_formula_units_Z   2
loop_
 _symmetry_equiv_pos_site_id
 _symmetry_equiv_pos_as_xyz
  1  'x, y, z'
loop_
 _atom_site_type_symbol
 _atom_site_label
 _atom_site_symmetry_multiplicity
 _atom_site_fract_x
 _atom_site_fract_y
 _atom_site_fract_z
 _atom_site_occupancy
  La  La0  1  0.169700  0.830241  0.987768  1
  La  La1  1  0.339569  0.169910  0.487798  1
  La  La2  1  0.830125  0.660422  0.487814  1
  La  La3  1  0.169875  0.339578  0.987814  1
  La  La4  1  0.660431  0.830090  0.987798  1
  La  La5  1  0.830300  0.169759  0.487768  1
  La  La6  1  0.333275  0.666850  0.699582  1
  La  La7  1  0.666725  0.333150  0.199582  1
  La  La8  1  0.456638  0.543315  0.289947  1
  La  La9  1  0.913251  0.456620  0.789936  1
  La  La10  1  0.543428  0.086813  0.789916  1
  La  La11  1  0.456572  0.913187  0.289916  1
  La  La12  1  0.086749  0.543380  0.289936  1
  La  La13  1  0.543362  0.456685  0.789947  1
  La  La14  1  0.000005  0.000089  0.280752  1
  La  La15  1  0.999995  0.999911  0.780752  1
  Ga  Ga16  1  0.164456  0.835849  0.535777  1
  Ga  Ga17  1  0.328902  0.164234  0.035709  1
  Ga  Ga18  1  0.835752  0.671163  0.035625  1
  Ga  Ga19  1  0.164248  0.328837  0.535625  1
  Ga  Ga20  1  0.671098  0.835766  0.535709  1
  Ga  Ga21  1  0.835544  0.164151  0.035777  1
  Fe  Fe22  1  0.333296  0.666717  0.042374  1
  Fe  Fe23  1  0.666704  0.333283  0.542374  1
