# generated using pymatgen
data_Pr2Hf2O7
_symmetry_space_group_name_H-M   'P 1'
_cell_length_a   7.61347719
_cell_length_b   7.61347694
_cell_length_c   7.61347700
_cell_angle_alpha   60.00000410
_cell_angle_beta   60.00000517
_cell_angle_gamma   59.99999987
_symmetry_Int_Tables_number   1
_chemical_formula_structural   Pr2Hf2O7
_chemical_formula_sum   'Pr4 Hf4 O14'
_cell_volume   312.05716599
_cell_formula_units_Z   2
loop_
 _symmetry_equiv_pos_site_id
 _symmetry_equiv_pos_as_xyz
  1  'x, y, z'
loop_
 _atom_site_type_symbol
 _atom_site_label
 _atom_site_symmetry_multiplicity
 _atom_site_fract_x
 _atom_site_fract_y
 _atom_site_fract_z
 _atom_site_occupancy
  Pr  Pr0  1  0.625000  0.125000  0.125000  1
  Pr  Pr1  1  0.125000  0.625000  0.125000  1
  Pr  Pr2  1  0.125000  0.125000  0.625000  1
  Pr  Pr3  1  0.125000  0.125000  0.125000  1
  Hf  Hf4  1  0.125000  0.625000  0.625000  1
  Hf  Hf5  1  0.625000  0.125000  0.625000  1
  Hf  Hf6  1  0.625000  0.625000  0.125000  1
  Hf  Hf7  1  0.625000  0.625000  0.625000  1
  O  O8  1  0.706219  0.706219  0.293781  1
  O  O9  1  0.293781  0.293781  0.706219  1
  O  O10  1  0.706219  0.293781  0.706219  1
  O  O11  1  0.293781  0.706219  0.293781  1
  O  O12  1  0.293781  0.706219  0.706219  1
  O  O13  1  0.706219  0.293781  0.293781  1
  O  O14  1  0.543781  0.543781  0.956219  1
  O  O15  1  0.956219  0.956219  0.543781  1
  O  O16  1  0.543781  0.956219  0.543781  1
  O  O17  1  0.956219  0.543781  0.956219  1
  O  O18  1  0.956219  0.543781  0.543781  1
  O  O19  1  0.543781  0.956219  0.956219  1
  O  O20  1  0.250000  0.250000  0.250000  1
  O  O21  1  0.000000  0.000000  0.000000  1
