# generated using pymatgen
data_La6Tb2CdPt6
_symmetry_space_group_name_H-M   'P 1'
_cell_length_a   7.80290336
_cell_length_b   7.80290386
_cell_length_c   7.80290461
_cell_angle_alpha   69.82623960
_cell_angle_beta   69.82623976
_cell_angle_gamma   69.82623495
_symmetry_Int_Tables_number   1
_chemical_formula_structural   La6Tb2CdPt6
_chemical_formula_sum   'La6 Tb2 Cd1 Pt6'
_cell_volume   404.58228771
_cell_formula_units_Z   1
loop_
 _symmetry_equiv_pos_site_id
 _symmetry_equiv_pos_as_xyz
  1  'x, y, z'
loop_
 _atom_site_type_symbol
 _atom_site_label
 _atom_site_symmetry_multiplicity
 _atom_site_fract_x
 _atom_site_fract_y
 _atom_site_fract_z
 _atom_site_occupancy
  La  La0  1  0.316672  0.614668  0.855560  1
  La  La1  1  0.855560  0.316672  0.614668  1
  La  La2  1  0.614668  0.855560  0.316672  1
  La  La3  1  0.683328  0.385332  0.144440  1
  La  La4  1  0.144440  0.683328  0.385332  1
  La  La5  1  0.385332  0.144440  0.683328  1
  Tb  Tb6  1  0.815525  0.815525  0.815525  1
  Tb  Tb7  1  0.184475  0.184475  0.184475  1
  Cd  Cd8  1  0.000000  0.000000  0.000000  1
  Pt  Pt9  1  0.177172  0.957529  0.571501  1
  Pt  Pt10  1  0.571501  0.177172  0.957529  1
  Pt  Pt11  1  0.957529  0.571501  0.177172  1
  Pt  Pt12  1  0.822828  0.042471  0.428499  1
  Pt  Pt13  1  0.428499  0.822828  0.042471  1
  Pt  Pt14  1  0.042471  0.428499  0.822828  1
