# generated using pymatgen
data_TbSm5NiI10
_symmetry_space_group_name_H-M   'P 1'
_cell_length_a   7.82384873
_cell_length_b   9.84981220
_cell_length_c   9.86756101
_cell_angle_alpha   107.28727367
_cell_angle_beta   96.83101145
_cell_angle_gamma   104.69817787
_symmetry_Int_Tables_number   1
_chemical_formula_structural   TbSm5NiI10
_chemical_formula_sum   'Tb1 Sm5 Ni1 I10'
_cell_volume   686.59288413
_cell_formula_units_Z   1
loop_
 _symmetry_equiv_pos_site_id
 _symmetry_equiv_pos_as_xyz
  1  'x, y, z'
loop_
 _atom_site_type_symbol
 _atom_site_label
 _atom_site_symmetry_multiplicity
 _atom_site_fract_x
 _atom_site_fract_y
 _atom_site_fract_z
 _atom_site_occupancy
  Tb  Tb0  1  0.339436  0.120541  0.161240  1
  Sm  Sm1  1  0.886825  0.959992  0.238873  1
  Sm  Sm2  1  0.115957  0.041283  0.762032  1
  Sm  Sm3  1  0.032478  0.717675  0.915490  1
  Sm  Sm4  1  0.969589  0.282918  0.085727  1
  Sm  Sm5  1  0.656156  0.877834  0.836432  1
  Ni  Ni6  1  0.000414  0.000195  0.999968  1
  I  I7  1  0.647732  0.548248  0.728851  1
  I  I8  1  0.355455  0.447752  0.271641  1
  I  I9  1  0.741834  0.913158  0.538856  1
  I  I10  1  0.262401  0.088649  0.459037  1
  I  I11  1  0.085026  0.370856  0.818998  1
  I  I12  1  0.915018  0.629238  0.181491  1
  I  I13  1  0.453654  0.818587  0.093919  1
  I  I14  1  0.545230  0.185724  0.911198  1
  I  I15  1  0.223000  0.742531  0.653018  1
  I  I16  1  0.769794  0.254817  0.343229  1
