# generated using pymatgen
data_Cs2SrPuO6
_symmetry_space_group_name_H-M   'P 1'
_cell_length_a   6.44847547
_cell_length_b   6.44847539
_cell_length_c   6.44847500
_cell_angle_alpha   119.99999289
_cell_angle_beta   119.99999245
_cell_angle_gamma   90.00001898
_symmetry_Int_Tables_number   1
_chemical_formula_structural   Cs2SrPuO6
_chemical_formula_sum   'Cs2 Sr1 Pu1 O6'
_cell_volume   189.60777669
_cell_formula_units_Z   1
loop_
 _symmetry_equiv_pos_site_id
 _symmetry_equiv_pos_as_xyz
  1  'x, y, z'
loop_
 _atom_site_type_symbol
 _atom_site_label
 _atom_site_symmetry_multiplicity
 _atom_site_fract_x
 _atom_site_fract_y
 _atom_site_fract_z
 _atom_site_occupancy
  Cs  Cs0  1  0.749999  0.250000  0.500000  1
  Cs  Cs1  1  0.250000  0.749999  0.500000  1
  Sr  Sr2  1  0.500000  0.500000  0.000000  1
  Pu  Pu3  1  0.000000  0.000000  0.000000  1
  O  O4  1  0.781476  0.218523  0.000000  1
  O  O5  1  0.218524  0.218524  0.000000  1
  O  O6  1  0.218523  0.781476  0.000000  1
  O  O7  1  0.781478  0.781478  0.000000  1
  O  O8  1  0.218523  0.218523  0.437046  1
  O  O9  1  0.781478  0.781478  0.562956  1
