# generated using pymatgen
data_Y3Th5(Pt2Pb)4
_symmetry_space_group_name_H-M   'P 1'
_cell_length_a   8.07172221
_cell_length_b   8.07172242
_cell_length_c   7.41304800
_cell_angle_alpha   90.00000000
_cell_angle_beta   90.00000000
_cell_angle_gamma   90.33156632
_symmetry_Int_Tables_number   1
_chemical_formula_structural   Y3Th5(Pt2Pb)4
_chemical_formula_sum   'Y3 Th5 Pt8 Pb4'
_cell_volume   482.97201321
_cell_formula_units_Z   1
loop_
 _symmetry_equiv_pos_site_id
 _symmetry_equiv_pos_as_xyz
  1  'x, y, z'
loop_
 _atom_site_type_symbol
 _atom_site_label
 _atom_site_symmetry_multiplicity
 _atom_site_fract_x
 _atom_site_fract_y
 _atom_site_fract_z
 _atom_site_occupancy
  Y  Y0  1  0.664592  0.664592  0.500000  1
  Y  Y1  1  0.838300  0.160536  0.000000  1
  Y  Y2  1  0.160536  0.838300  0.000000  1
  Th  Th3  1  0.677027  0.677027  0.000000  1
  Th  Th4  1  0.338873  0.338873  0.500000  1
  Th  Th5  1  0.824237  0.174355  0.500000  1
  Th  Th6  1  0.325094  0.325094  0.000000  1
  Th  Th7  1  0.174355  0.824237  0.500000  1
  Pt  Pt8  1  0.873000  0.873000  0.735240  1
  Pt  Pt9  1  0.129444  0.129444  0.736972  1
  Pt  Pt10  1  0.627234  0.371001  0.764958  1
  Pt  Pt11  1  0.627234  0.371001  0.235042  1
  Pt  Pt12  1  0.371001  0.627234  0.235042  1
  Pt  Pt13  1  0.129444  0.129444  0.263028  1
  Pt  Pt14  1  0.873000  0.873000  0.264760  1
  Pt  Pt15  1  0.371001  0.627234  0.764958  1
  Pb  Pb16  1  0.501608  0.996206  0.752268  1
  Pb  Pb17  1  0.501608  0.996206  0.247732  1
  Pb  Pb18  1  0.996206  0.501608  0.752268  1
  Pb  Pb19  1  0.996206  0.501608  0.247732  1
