# generated using pymatgen
data_Yb3MnAs3Pd2
_symmetry_space_group_name_H-M   'P 1'
_cell_length_a   6.89331901
_cell_length_b   6.98072201
_cell_length_c   4.22305900
_cell_angle_alpha   90.00000000
_cell_angle_beta   90.00000000
_cell_angle_gamma   119.59143968
_symmetry_Int_Tables_number   1
_chemical_formula_structural   Yb3MnAs3Pd2
_chemical_formula_sum   'Yb3 Mn1 As3 Pd2'
_cell_volume   176.70945087
_cell_formula_units_Z   1
loop_
 _symmetry_equiv_pos_site_id
 _symmetry_equiv_pos_as_xyz
  1  'x, y, z'
loop_
 _atom_site_type_symbol
 _atom_site_label
 _atom_site_symmetry_multiplicity
 _atom_site_fract_x
 _atom_site_fract_y
 _atom_site_fract_z
 _atom_site_occupancy
  Yb  Yb0  1  0.985388  0.564360  0.500000  1
  Yb  Yb1  1  0.420945  0.435619  0.500000  1
  Yb  Yb2  1  0.598371  0.000057  0.500000  1
  Mn  Mn3  1  0.233745  0.999951  0.000000  1
  As  As4  1  0.649684  0.322598  0.000000  1
  As  As5  1  0.327313  0.677552  0.000000  1
  As  As6  1  0.020528  0.999913  0.500000  1
  Pd  Pd7  1  0.759171  0.754229  0.000000  1
  Pd  Pd8  1  0.004855  0.245720  0.000000  1
