# generated using pymatgen
data_Rb3Tm(IO3)6
_symmetry_space_group_name_H-M   'P 1'
_cell_length_a   7.24537928
_cell_length_b   7.23977321
_cell_length_c   11.02280635
_cell_angle_alpha   87.67444449
_cell_angle_beta   107.58610158
_cell_angle_gamma   107.67603973
_symmetry_Int_Tables_number   1
_chemical_formula_structural   Rb3Tm(IO3)6
_chemical_formula_sum   'Rb3 Tm1 I6 O18'
_cell_volume   524.32172669
_cell_formula_units_Z   1
loop_
 _symmetry_equiv_pos_site_id
 _symmetry_equiv_pos_as_xyz
  1  'x, y, z'
loop_
 _atom_site_type_symbol
 _atom_site_label
 _atom_site_symmetry_multiplicity
 _atom_site_fract_x
 _atom_site_fract_y
 _atom_site_fract_z
 _atom_site_occupancy
  Rb  Rb0  1  0.000000  0.000000  0.000000  1
  Rb  Rb1  1  0.831083  0.027006  0.601305  1
  Rb  Rb2  1  0.168917  0.972994  0.398695  1
  Tm  Tm3  1  0.500000  0.500000  0.000000  1
  I  I4  1  0.029525  0.474061  0.190763  1
  I  I5  1  0.970475  0.525939  0.809237  1
  I  I6  1  0.558964  0.959553  0.192167  1
  I  I7  1  0.441036  0.040447  0.807833  1
  I  I8  1  0.414703  0.553742  0.636567  1
  I  I9  1  0.585297  0.446258  0.363433  1
  O  O10  1  0.835094  0.539055  0.054702  1
  O  O11  1  0.164906  0.460945  0.945298  1
  O  O12  1  0.956400  0.549879  0.320338  1
  O  O13  1  0.043600  0.450121  0.679662  1
  O  O14  1  0.920528  0.209212  0.183559  1
  O  O15  1  0.079472  0.790788  0.816441  1
  O  O16  1  0.571145  0.815535  0.059190  1
  O  O17  1  0.428855  0.184465  0.940810  1
  O  O18  1  0.292997  0.848329  0.186777  1
  O  O19  1  0.707003  0.151671  0.813223  1
  O  O20  1  0.691976  0.843889  0.326015  1
  O  O21  1  0.308024  0.156111  0.673985  1
  O  O22  1  0.519856  0.597059  0.812366  1
  O  O23  1  0.480144  0.402941  0.187634  1
  O  O24  1  0.662734  0.571863  0.614519  1
  O  O25  1  0.337266  0.428137  0.385481  1
  O  O26  1  0.409020  0.801057  0.602580  1
  O  O27  1  0.590980  0.198943  0.397420  1
