# generated using pymatgen
data_TbLuGa9Ru5
_symmetry_space_group_name_H-M   'P 1'
_cell_length_a   8.03754512
_cell_length_b   8.03754423
_cell_length_c   8.03754388
_cell_angle_alpha   134.52021238
_cell_angle_beta   135.36054977
_cell_angle_gamma   65.62523933
_symmetry_Int_Tables_number   1
_chemical_formula_structural   TbLuGa9Ru5
_chemical_formula_sum   'Tb1 Lu1 Ga9 Ru5'
_cell_volume   256.25382554
_cell_formula_units_Z   1
loop_
 _symmetry_equiv_pos_site_id
 _symmetry_equiv_pos_as_xyz
  1  'x, y, z'
loop_
 _atom_site_type_symbol
 _atom_site_label
 _atom_site_symmetry_multiplicity
 _atom_site_fract_x
 _atom_site_fract_y
 _atom_site_fract_z
 _atom_site_occupancy
  Tb  Tb0  1  0.500000  0.000000  0.500000  1
  Lu  Lu1  1  0.000000  0.500000  0.500000  1
  Ga  Ga2  1  0.436031  0.857341  0.997943  1
  Ga  Ga3  1  0.140602  0.142659  0.578690  1
  Ga  Ga4  1  0.859398  0.438088  0.002057  1
  Ga  Ga5  1  0.859398  0.857341  0.421310  1
  Ga  Ga6  1  0.563969  0.142659  0.002057  1
  Ga  Ga7  1  0.140602  0.561912  0.997943  1
  Ga  Ga8  1  0.563969  0.561912  0.421310  1
  Ga  Ga9  1  0.000000  0.000000  0.000000  1
  Ga  Ga10  1  0.436031  0.438088  0.578690  1
  Ru  Ru11  1  0.181575  0.181575  0.000000  1
  Ru  Ru12  1  0.818425  0.818425  0.000000  1
  Ru  Ru13  1  0.250006  0.750006  0.500000  1
  Ru  Ru14  1  0.749994  0.249994  0.500000  1
  Ru  Ru15  1  0.500000  0.500000  0.000000  1
