# generated using pymatgen
data_Ho4Al15Ga2SiIr6
_symmetry_space_group_name_H-M   'P 1'
_cell_length_a   7.52956153
_cell_length_b   7.53225536
_cell_length_c   9.44232600
_cell_angle_alpha   90.00000000
_cell_angle_beta   90.00000000
_cell_angle_gamma   119.57180689
_symmetry_Int_Tables_number   1
_chemical_formula_structural   Ho4Al15Ga2SiIr6
_chemical_formula_sum   'Ho4 Al15 Ga2 Si1 Ir6'
_cell_volume   465.75989990
_cell_formula_units_Z   1
loop_
 _symmetry_equiv_pos_site_id
 _symmetry_equiv_pos_as_xyz
  1  'x, y, z'
loop_
 _atom_site_type_symbol
 _atom_site_label
 _atom_site_symmetry_multiplicity
 _atom_site_fract_x
 _atom_site_fract_y
 _atom_site_fract_z
 _atom_site_occupancy
  Ho  Ho0  1  0.994277  0.676526  0.250000  1
  Ho  Ho1  1  0.001189  0.327394  0.750000  1
  Ho  Ho2  1  0.676756  0.995470  0.250000  1
  Ho  Ho3  1  0.331569  0.007484  0.750000  1
  Al  Al4  1  0.001075  0.337538  0.076402  1
  Al  Al5  1  0.998483  0.665885  0.926669  1
  Al  Al6  1  0.998483  0.665885  0.573331  1
  Al  Al7  1  0.337455  0.000599  0.423793  1
  Al  Al8  1  0.001075  0.337538  0.423598  1
  Al  Al9  1  0.665051  0.996766  0.573402  1
  Al  Al10  1  0.665051  0.996766  0.926598  1
  Al  Al11  1  0.337455  0.000599  0.076207  1
  Al  Al12  1  0.332582  0.333041  0.555128  1
  Al  Al13  1  0.663241  0.663097  0.442363  1
  Al  Al14  1  0.663241  0.663097  0.057637  1
  Al  Al15  1  0.332582  0.333041  0.944872  1
  Al  Al16  1  0.335479  0.549285  0.250000  1
  Al  Al17  1  0.549075  0.335263  0.250000  1
  Al  Al18  1  0.450280  0.660380  0.750000  1
  Ga  Ga19  1  0.874043  0.873338  0.750000  1
  Ga  Ga20  1  0.661084  0.455061  0.750000  1
  Si  Si21  1  0.132566  0.132736  0.250000  1
  Ir  Ir22  1  0.670579  0.326107  0.002059  1
  Ir  Ir23  1  0.327498  0.669949  0.000008  1
  Ir  Ir24  1  0.327498  0.669949  0.499992  1
  Ir  Ir25  1  0.670579  0.326107  0.497941  1
  Ir  Ir26  1  0.000876  0.000547  0.010194  1
  Ir  Ir27  1  0.000876  0.000547  0.489806  1
