# generated using pymatgen
data_BaSmGe4N7
_symmetry_space_group_name_H-M   'P 1'
_cell_length_a   6.40158000
_cell_length_b   6.40158008
_cell_length_c   10.45787100
_cell_angle_alpha   90.00000000
_cell_angle_beta   90.00000000
_cell_angle_gamma   119.99999957
_symmetry_Int_Tables_number   1
_chemical_formula_structural   BaSmGe4N7
_chemical_formula_sum   'Ba2 Sm2 Ge8 N14'
_cell_volume   371.14898227
_cell_formula_units_Z   2
loop_
 _symmetry_equiv_pos_site_id
 _symmetry_equiv_pos_as_xyz
  1  'x, y, z'
loop_
 _atom_site_type_symbol
 _atom_site_label
 _atom_site_symmetry_multiplicity
 _atom_site_fract_x
 _atom_site_fract_y
 _atom_site_fract_z
 _atom_site_occupancy
  Ba  Ba0  1  0.333333  0.666667  0.363534  1
  Ba  Ba1  1  0.666667  0.333333  0.863534  1
  Sm  Sm2  1  0.333333  0.666667  0.736153  1
  Sm  Sm3  1  0.666667  0.333333  0.236153  1
  Ge  Ge4  1  0.826360  0.652720  0.546582  1
  Ge  Ge5  1  0.173640  0.826360  0.046582  1
  Ge  Ge6  1  0.652720  0.826360  0.046582  1
  Ge  Ge7  1  0.347280  0.173640  0.546582  1
  Ge  Ge8  1  0.826360  0.173640  0.546582  1
  Ge  Ge9  1  0.173640  0.347280  0.046582  1
  Ge  Ge10  1  0.000000  0.000000  0.813845  1
  Ge  Ge11  1  0.000000  0.000000  0.313845  1
  N  N12  1  0.000000  0.000000  0.622631  1
  N  N13  1  0.000000  0.000000  0.122631  1
  N  N14  1  0.156725  0.313451  0.870792  1
  N  N15  1  0.843275  0.156725  0.370792  1
  N  N16  1  0.313451  0.156725  0.370792  1
  N  N17  1  0.686549  0.843275  0.870792  1
  N  N18  1  0.156725  0.843275  0.870792  1
  N  N19  1  0.843275  0.686549  0.370792  1
  N  N20  1  0.984364  0.492183  0.601872  1
  N  N21  1  0.492183  0.984364  0.101872  1
  N  N22  1  0.492183  0.507817  0.101872  1
  N  N23  1  0.507817  0.492183  0.601872  1
  N  N24  1  0.015636  0.507817  0.101872  1
  N  N25  1  0.507817  0.015636  0.601872  1
