# generated using pymatgen
data_DyY7(CoB14)2
_symmetry_space_group_name_H-M   'P 1'
_cell_length_a   7.23094601
_cell_length_b   7.23081001
_cell_length_c   7.52279700
_cell_angle_alpha   90.00000000
_cell_angle_beta   90.00000000
_cell_angle_gamma   90.00611715
_symmetry_Int_Tables_number   1
_chemical_formula_structural   DyY7(CoB14)2
_chemical_formula_sum   'Dy1 Y7 Co2 B28'
_cell_volume   393.33392847
_cell_formula_units_Z   1
loop_
 _symmetry_equiv_pos_site_id
 _symmetry_equiv_pos_as_xyz
  1  'x, y, z'
loop_
 _atom_site_type_symbol
 _atom_site_label
 _atom_site_symmetry_multiplicity
 _atom_site_fract_x
 _atom_site_fract_y
 _atom_site_fract_z
 _atom_site_occupancy
  Dy  Dy0  1  0.170198  0.306909  0.500000  1
  Y  Y1  1  0.193002  0.330159  0.000000  1
  Y  Y2  1  0.669792  0.193005  0.000000  1
  Y  Y3  1  0.330159  0.807013  0.000000  1
  Y  Y4  1  0.693020  0.169983  0.500000  1
  Y  Y5  1  0.306941  0.830069  0.500000  1
  Y  Y6  1  0.806994  0.669769  0.000000  1
  Y  Y7  1  0.830151  0.692879  0.500000  1
  Co  Co8  1  0.999993  0.000039  0.000000  1
  Co  Co9  1  0.499765  0.499882  0.500000  1
  B  B10  1  0.174031  0.038806  0.231099  1
  B  B11  1  0.961427  0.174097  0.231126  1
  B  B12  1  0.038706  0.825986  0.230997  1
  B  B13  1  0.673967  0.461277  0.269146  1
  B  B14  1  0.325950  0.538575  0.269245  1
  B  B15  1  0.826015  0.961304  0.230966  1
  B  B16  1  0.538692  0.673992  0.269155  1
  B  B17  1  0.461161  0.326010  0.269223  1
  B  B18  1  0.826015  0.961304  0.769034  1
  B  B19  1  0.038706  0.825986  0.769003  1
  B  B20  1  0.961427  0.174097  0.768874  1
  B  B21  1  0.325950  0.538575  0.730755  1
  B  B22  1  0.673967  0.461277  0.730854  1
  B  B23  1  0.174031  0.038806  0.768901  1
  B  B24  1  0.461161  0.326010  0.730777  1
  B  B25  1  0.538692  0.673992  0.730845  1
  B  B26  1  0.088342  0.588250  0.250413  1
  B  B27  1  0.411597  0.088401  0.250328  1
  B  B28  1  0.588324  0.911684  0.250110  1
  B  B29  1  0.911719  0.411642  0.250456  1
  B  B30  1  0.911719  0.411642  0.749544  1
  B  B31  1  0.588324  0.911684  0.749890  1
  B  B32  1  0.411597  0.088401  0.749672  1
  B  B33  1  0.088342  0.588250  0.749587  1
  B  B34  1  0.000082  0.000102  0.388188  1
  B  B35  1  0.499980  0.500020  0.111838  1
  B  B36  1  0.000082  0.000102  0.611812  1
  B  B37  1  0.499980  0.500020  0.888162  1
