# generated using pymatgen
data_La3Y2(TcB3)2
_symmetry_space_group_name_H-M   'P 1'
_cell_length_a   8.71445181
_cell_length_b   8.71445184
_cell_length_c   8.71445200
_cell_angle_alpha   37.31656804
_cell_angle_beta   37.31656780
_cell_angle_gamma   37.31656034
_symmetry_Int_Tables_number   1
_chemical_formula_structural   La3Y2(TcB3)2
_chemical_formula_sum   'La3 Y2 Tc2 B6'
_cell_volume   218.04276646
_cell_formula_units_Z   1
loop_
 _symmetry_equiv_pos_site_id
 _symmetry_equiv_pos_as_xyz
  1  'x, y, z'
loop_
 _atom_site_type_symbol
 _atom_site_label
 _atom_site_symmetry_multiplicity
 _atom_site_fract_x
 _atom_site_fract_y
 _atom_site_fract_z
 _atom_site_occupancy
  La  La0  1  0.747351  0.747351  0.747351  1
  La  La1  1  0.252649  0.252649  0.252649  1
  La  La2  1  0.000000  0.000000  0.000000  1
  Y  Y3  1  0.577540  0.577540  0.577540  1
  Y  Y4  1  0.422460  0.422460  0.422460  1
  Tc  Tc5  1  0.886425  0.886425  0.886425  1
  Tc  Tc6  1  0.113575  0.113575  0.113575  1
  B  B7  1  0.500000  0.831283  0.168717  1
  B  B8  1  0.168717  0.500000  0.831283  1
  B  B9  1  0.831283  0.168717  0.500000  1
  B  B10  1  0.500000  0.168717  0.831283  1
  B  B11  1  0.831283  0.500000  0.168717  1
  B  B12  1  0.168717  0.831283  0.500000  1
