# generated using pymatgen
data_CsMn2Cl7
_symmetry_space_group_name_H-M   'P 1'
_cell_length_a   11.65707200
_cell_length_b   7.41994534
_cell_length_c   7.35996809
_cell_angle_alpha   83.14818860
_cell_angle_beta   90.00000000
_cell_angle_gamma   90.00000000
_symmetry_Int_Tables_number   1
_chemical_formula_structural   CsMn2Cl7
_chemical_formula_sum   'Cs2 Mn4 Cl14'
_cell_volume   632.05266903
_cell_formula_units_Z   2
loop_
 _symmetry_equiv_pos_site_id
 _symmetry_equiv_pos_as_xyz
  1  'x, y, z'
loop_
 _atom_site_type_symbol
 _atom_site_label
 _atom_site_symmetry_multiplicity
 _atom_site_fract_x
 _atom_site_fract_y
 _atom_site_fract_z
 _atom_site_occupancy
  Cs  Cs0  1  0.750000  0.042307  0.656250  1
  Cs  Cs1  1  0.250000  0.957693  0.343750  1
  Mn  Mn2  1  0.884132  0.360300  0.129735  1
  Mn  Mn3  1  0.384132  0.639700  0.870265  1
  Mn  Mn4  1  0.115868  0.639700  0.870265  1
  Mn  Mn5  1  0.615868  0.360300  0.129735  1
  Cl  Cl6  1  0.750000  0.483400  0.904194  1
  Cl  Cl7  1  0.250000  0.516600  0.095806  1
  Cl  Cl8  1  0.750000  0.480429  0.326402  1
  Cl  Cl9  1  0.250000  0.519571  0.673598  1
  Cl  Cl10  1  0.750000  0.086544  0.149733  1
  Cl  Cl11  1  0.250000  0.913456  0.850267  1
  Cl  Cl12  1  0.005544  0.286948  0.915966  1
  Cl  Cl13  1  0.505544  0.713052  0.084034  1
  Cl  Cl14  1  0.994456  0.713052  0.084034  1
  Cl  Cl15  1  0.494456  0.286948  0.915966  1
  Cl  Cl16  1  0.996008  0.266299  0.364372  1
  Cl  Cl17  1  0.496008  0.733701  0.635628  1
  Cl  Cl18  1  0.003992  0.733701  0.635628  1
  Cl  Cl19  1  0.503992  0.266299  0.364372  1
