# generated using pymatgen
data_Sr6CdCo4O15
_symmetry_space_group_name_H-M   'P 1'
_cell_length_a   6.99517931
_cell_length_b   6.98996056
_cell_length_c   7.00956800
_cell_angle_alpha   86.18763603
_cell_angle_beta   86.10055132
_cell_angle_gamma   86.48412655
_symmetry_Int_Tables_number   1
_chemical_formula_structural   Sr6CdCo4O15
_chemical_formula_sum   'Sr6 Cd1 Co4 O15'
_cell_volume   340.63397235
_cell_formula_units_Z   1
loop_
 _symmetry_equiv_pos_site_id
 _symmetry_equiv_pos_as_xyz
  1  'x, y, z'
loop_
 _atom_site_type_symbol
 _atom_site_label
 _atom_site_symmetry_multiplicity
 _atom_site_fract_x
 _atom_site_fract_y
 _atom_site_fract_z
 _atom_site_occupancy
  Sr  Sr0  1  0.338107  0.662372  0.001730  1
  Sr  Sr1  1  0.996813  0.338830  0.661005  1
  Sr  Sr2  1  0.663919  0.999234  0.337642  1
  Sr  Sr3  1  0.142672  0.856299  0.499629  1
  Sr  Sr4  1  0.500552  0.143856  0.856468  1
  Sr  Sr5  1  0.857277  0.499347  0.144801  1
  Cd  Cd6  1  0.499345  0.502970  0.498847  1
  Co  Co7  1  0.285187  0.283449  0.285301  1
  Co  Co8  1  0.714054  0.713997  0.713478  1
  Co  Co9  1  0.093395  0.092441  0.094755  1
  Co  Co10  1  0.905976  0.907318  0.906431  1
  O  O11  1  0.150603  0.998233  0.850065  1
  O  O12  1  0.849619  0.151440  0.998454  1
  O  O13  1  0.998928  0.848653  0.153510  1
  O  O14  1  0.021713  0.191076  0.335074  1
  O  O15  1  0.335887  0.021924  0.190862  1
  O  O16  1  0.193639  0.334982  0.024574  1
  O  O17  1  0.806489  0.977541  0.663284  1
  O  O18  1  0.668133  0.807454  0.976393  1
  O  O19  1  0.976412  0.665919  0.806301  1
  O  O20  1  0.352695  0.208817  0.528747  1
  O  O21  1  0.532716  0.357024  0.210919  1
  O  O22  1  0.211287  0.531317  0.355490  1
  O  O23  1  0.792005  0.644257  0.467739  1
  O  O24  1  0.467898  0.793343  0.646512  1
  O  O25  1  0.644679  0.467910  0.791990  1
