# generated using pymatgen
data_HoFe4Si
_symmetry_space_group_name_H-M   'P 1'
_cell_length_a   4.96423187
_cell_length_b   4.96423190
_cell_length_c   3.92917200
_cell_angle_alpha   90.00000000
_cell_angle_beta   90.00000000
_cell_angle_gamma   119.76239085
_symmetry_Int_Tables_number   1
_chemical_formula_structural   HoFe4Si
_chemical_formula_sum   'Ho1 Fe4 Si1'
_cell_volume   84.05637473
_cell_formula_units_Z   1
loop_
 _symmetry_equiv_pos_site_id
 _symmetry_equiv_pos_as_xyz
  1  'x, y, z'
loop_
 _atom_site_type_symbol
 _atom_site_label
 _atom_site_symmetry_multiplicity
 _atom_site_fract_x
 _atom_site_fract_y
 _atom_site_fract_z
 _atom_site_occupancy
  Ho  Ho0  1  0.000000  0.000000  0.000000  1
  Fe  Fe1  1  0.332926  0.667074  0.000000  1
  Fe  Fe2  1  0.667074  0.332926  0.000000  1
  Fe  Fe3  1  0.500000  0.000000  0.500000  1
  Fe  Fe4  1  0.000000  0.500000  0.500000  1
  Si  Si5  1  0.500000  0.500000  0.500000  1
