# generated using pymatgen
data_Ca2Tb2HoAgPb3
_symmetry_space_group_name_H-M   'P 1'
_cell_length_a   9.34535300
_cell_length_b   9.34535381
_cell_length_c   6.84280700
_cell_angle_alpha   90.00000000
_cell_angle_beta   90.00000000
_cell_angle_gamma   120.00076402
_symmetry_Int_Tables_number   1
_chemical_formula_structural   Ca2Tb2HoAgPb3
_chemical_formula_sum   'Ca4 Tb4 Ho2 Ag2 Pb6'
_cell_volume   517.55086398
_cell_formula_units_Z   2
loop_
 _symmetry_equiv_pos_site_id
 _symmetry_equiv_pos_as_xyz
  1  'x, y, z'
loop_
 _atom_site_type_symbol
 _atom_site_label
 _atom_site_symmetry_multiplicity
 _atom_site_fract_x
 _atom_site_fract_y
 _atom_site_fract_z
 _atom_site_occupancy
  Ca  Ca0  1  0.666870  0.333398  0.500146  1
  Ca  Ca1  1  0.333398  0.666870  0.500146  1
  Ca  Ca2  1  0.333398  0.666870  0.999854  1
  Ca  Ca3  1  0.666870  0.333398  0.999854  1
  Tb  Tb4  1  0.729270  0.729270  0.250000  1
  Tb  Tb5  1  0.270426  0.999975  0.250000  1
  Tb  Tb6  1  0.999975  0.270426  0.250000  1
  Tb  Tb7  1  0.270820  0.270820  0.750000  1
  Ho  Ho8  1  0.729614  0.000089  0.750000  1
  Ho  Ho9  1  0.000089  0.729614  0.750000  1
  Ag  Ag10  1  0.999286  0.999286  0.501129  1
  Ag  Ag11  1  0.999286  0.999286  0.998871  1
  Pb  Pb12  1  0.379492  0.379492  0.250000  1
  Pb  Pb13  1  0.620616  0.999999  0.250000  1
  Pb  Pb14  1  0.999999  0.620616  0.250000  1
  Pb  Pb15  1  0.621612  0.621612  0.750000  1
  Pb  Pb16  1  0.379630  0.999348  0.750000  1
  Pb  Pb17  1  0.999348  0.379630  0.750000  1
