# generated using pymatgen
data_Lu2Sc3GaSi3
_symmetry_space_group_name_H-M   'P 1'
_cell_length_a   7.06102892
_cell_length_b   7.34644456
_cell_length_c   14.02453816
_cell_angle_alpha   89.99547007
_cell_angle_beta   89.83926851
_cell_angle_gamma   90.14221800
_symmetry_Int_Tables_number   1
_chemical_formula_structural   Lu2Sc3GaSi3
_chemical_formula_sum   'Lu8 Sc12 Ga4 Si12'
_cell_volume   727.49617758
_cell_formula_units_Z   4
loop_
 _symmetry_equiv_pos_site_id
 _symmetry_equiv_pos_as_xyz
  1  'x, y, z'
loop_
 _atom_site_type_symbol
 _atom_site_label
 _atom_site_symmetry_multiplicity
 _atom_site_fract_x
 _atom_site_fract_y
 _atom_site_fract_z
 _atom_site_occupancy
  Lu  Lu0  1  0.013624  0.175513  0.097197  1
  Lu  Lu1  1  0.988065  0.824198  0.901855  1
  Lu  Lu2  1  0.487122  0.677661  0.901632  1
  Lu  Lu3  1  0.987868  0.826834  0.600107  1
  Lu  Lu4  1  0.510748  0.320614  0.097269  1
  Lu  Lu5  1  0.009684  0.175417  0.400624  1
  Lu  Lu6  1  0.510939  0.323897  0.400592  1
  Lu  Lu7  1  0.490428  0.676494  0.600390  1
  Sc  Sc8  1  0.162804  0.501829  0.751465  1
  Sc  Sc9  1  0.836651  0.497401  0.250063  1
  Sc  Sc10  1  0.336312  0.003154  0.248380  1
  Sc  Sc11  1  0.663398  0.997242  0.749975  1
  Sc  Sc12  1  0.333493  0.174449  0.627877  1
  Sc  Sc13  1  0.669199  0.826456  0.373631  1
  Sc  Sc14  1  0.170050  0.673595  0.372942  1
  Sc  Sc15  1  0.668598  0.826324  0.125588  1
  Sc  Sc16  1  0.829064  0.324779  0.626769  1
  Sc  Sc17  1  0.330581  0.175496  0.874568  1
  Sc  Sc18  1  0.829284  0.323402  0.874169  1
  Sc  Sc19  1  0.173106  0.675427  0.124530  1
  Ga  Ga20  1  0.163203  0.461880  0.539683  1
  Ga  Ga21  1  0.837874  0.537500  0.461391  1
  Ga  Ga22  1  0.337694  0.962305  0.461501  1
  Ga  Ga23  1  0.838292  0.537823  0.038626  1
  Si  Si24  1  0.032483  0.113988  0.751199  1
  Si  Si25  1  0.967623  0.886056  0.249123  1
  Si  Si26  1  0.467934  0.612387  0.248444  1
  Si  Si27  1  0.532555  0.387683  0.751282  1
  Si  Si28  1  0.285831  0.869088  0.751255  1
  Si  Si29  1  0.714853  0.130508  0.248591  1
  Si  Si30  1  0.213933  0.369285  0.248586  1
  Si  Si31  1  0.786523  0.631495  0.751565  1
  Si  Si32  1  0.659702  0.035562  0.539274  1
  Si  Si33  1  0.159613  0.464159  0.960875  1
  Si  Si34  1  0.658260  0.035247  0.961280  1
  Si  Si35  1  0.342613  0.964856  0.037709  1
