# generated using pymatgen
data_Ho4TcB16Ir3
_symmetry_space_group_name_H-M   'P 1'
_cell_length_a   3.56522300
_cell_length_b   5.96858452
_cell_length_c   11.56685760
_cell_angle_alpha   89.87917744
_cell_angle_beta   90.00000000
_cell_angle_gamma   90.00000000
_symmetry_Int_Tables_number   1
_chemical_formula_structural   Ho4TcB16Ir3
_chemical_formula_sum   'Ho4 Tc1 B16 Ir3'
_cell_volume   246.13448832
_cell_formula_units_Z   1
loop_
 _symmetry_equiv_pos_site_id
 _symmetry_equiv_pos_as_xyz
  1  'x, y, z'
loop_
 _atom_site_type_symbol
 _atom_site_label
 _atom_site_symmetry_multiplicity
 _atom_site_fract_x
 _atom_site_fract_y
 _atom_site_fract_z
 _atom_site_occupancy
  Ho  Ho0  1  0.000000  0.630348  0.651356  1
  Ho  Ho1  1  0.000000  0.369142  0.351928  1
  Ho  Ho2  1  0.000000  0.130475  0.850181  1
  Ho  Ho3  1  0.000000  0.869304  0.147041  1
  Tc  Tc4  1  0.000000  0.639893  0.908293  1
  B  B5  1  0.500000  0.975644  0.692500  1
  B  B6  1  0.500000  0.026053  0.307261  1
  B  B7  1  0.500000  0.474997  0.807516  1
  B  B8  1  0.500000  0.527559  0.191796  1
  B  B9  1  0.500000  0.789466  0.813481  1
  B  B10  1  0.500000  0.208416  0.187279  1
  B  B11  1  0.500000  0.290744  0.687198  1
  B  B12  1  0.500000  0.707893  0.312770  1
  B  B13  1  0.500000  0.865518  0.969740  1
  B  B14  1  0.500000  0.136238  0.029710  1
  B  B15  1  0.500000  0.363772  0.529790  1
  B  B16  1  0.500000  0.636476  0.469988  1
  B  B17  1  0.500000  0.887407  0.547421  1
  B  B18  1  0.500000  0.112344  0.452984  1
  B  B19  1  0.500000  0.387514  0.952319  1
  B  B20  1  0.500000  0.613839  0.046039  1
  Ir  Ir21  1  0.000000  0.358135  0.095707  1
  Ir  Ir22  1  0.000000  0.143584  0.595054  1
  Ir  Ir23  1  0.000000  0.855241  0.402647  1
