# generated using pymatgen
data_Ti3Nb7(SiP2)2
_symmetry_space_group_name_H-M   'P 1'
_cell_length_a   7.43073756
_cell_length_b   7.43031838
_cell_length_c   7.43213930
_cell_angle_alpha   128.07314797
_cell_angle_beta   128.07466365
_cell_angle_gamma   76.48959160
_symmetry_Int_Tables_number   1
_chemical_formula_structural   Ti3Nb7(SiP2)2
_chemical_formula_sum   'Ti3 Nb7 Si2 P4'
_cell_volume   247.07203992
_cell_formula_units_Z   1
loop_
 _symmetry_equiv_pos_site_id
 _symmetry_equiv_pos_as_xyz
  1  'x, y, z'
loop_
 _atom_site_type_symbol
 _atom_site_label
 _atom_site_symmetry_multiplicity
 _atom_site_fract_x
 _atom_site_fract_y
 _atom_site_fract_z
 _atom_site_occupancy
  Ti  Ti0  1  0.016050  0.193927  0.499999  1
  Ti  Ti1  1  0.500594  0.499201  0.999660  1
  Ti  Ti2  1  0.000934  0.999542  0.000340  1
  Nb  Nb3  1  0.516858  0.016543  0.823210  1
  Nb  Nb4  1  0.193648  0.693333  0.176790  1
  Nb  Nb5  1  0.481857  0.983346  0.175736  1
  Nb  Nb6  1  0.693630  0.517156  0.500000  1
  Nb  Nb7  1  0.983733  0.806584  0.500000  1
  Nb  Nb8  1  0.307742  0.483440  0.500000  1
  Nb  Nb9  1  0.806122  0.307610  0.824265  1
  Si  Si10  1  0.752468  0.753804  0.003907  1
  Si  Si11  1  0.248562  0.249898  0.996093  1
  P  P12  1  0.136545  0.632482  0.771344  1
  P  P13  1  0.637656  0.863930  0.500001  1
  P  P14  1  0.358401  0.138065  0.500000  1
  P  P15  1  0.865202  0.361138  0.228656  1
