# generated using pymatgen
data_Y12TcRuRh2
_symmetry_space_group_name_H-M   'P 1'
_cell_length_a   6.41395209
_cell_length_b   7.35711214
_cell_length_c   9.25163600
_cell_angle_alpha   90.00000000
_cell_angle_beta   90.00000000
_cell_angle_gamma   89.99847396
_symmetry_Int_Tables_number   1
_chemical_formula_structural   Y12TcRuRh2
_chemical_formula_sum   'Y12 Tc1 Ru1 Rh2'
_cell_volume   436.56772457
_cell_formula_units_Z   1
loop_
 _symmetry_equiv_pos_site_id
 _symmetry_equiv_pos_as_xyz
  1  'x, y, z'
loop_
 _atom_site_type_symbol
 _atom_site_label
 _atom_site_symmetry_multiplicity
 _atom_site_fract_x
 _atom_site_fract_y
 _atom_site_fract_z
 _atom_site_occupancy
  Y  Y0  1  0.631856  0.040549  0.250000  1
  Y  Y1  1  0.364456  0.959916  0.750000  1
  Y  Y2  1  0.132042  0.456738  0.750000  1
  Y  Y3  1  0.870053  0.539968  0.250000  1
  Y  Y4  1  0.170619  0.178231  0.063899  1
  Y  Y5  1  0.829814  0.824981  0.933602  1
  Y  Y6  1  0.667735  0.322681  0.937939  1
  Y  Y7  1  0.829814  0.824981  0.566398  1
  Y  Y8  1  0.330232  0.675088  0.066255  1
  Y  Y9  1  0.170619  0.178231  0.436101  1
  Y  Y10  1  0.330232  0.675088  0.433745  1
  Y  Y11  1  0.667735  0.322681  0.562061  1
  Tc  Tc12  1  0.462896  0.386346  0.250000  1
  Ru  Ru13  1  0.960706  0.113497  0.750000  1
  Rh  Rh14  1  0.540885  0.616319  0.750000  1
  Rh  Rh15  1  0.040306  0.884711  0.250000  1
