# generated using pymatgen
data_Y4Hf3AlPt4
_symmetry_space_group_name_H-M   'P 1'
_cell_length_a   4.57862200
_cell_length_b   7.09511714
_cell_length_c   8.15990864
_cell_angle_alpha   87.17617860
_cell_angle_beta   90.00000000
_cell_angle_gamma   90.00000000
_symmetry_Int_Tables_number   1
_chemical_formula_structural   Y4Hf3AlPt4
_chemical_formula_sum   'Y4 Hf3 Al1 Pt4'
_cell_volume   264.75976710
_cell_formula_units_Z   1
loop_
 _symmetry_equiv_pos_site_id
 _symmetry_equiv_pos_as_xyz
  1  'x, y, z'
loop_
 _atom_site_type_symbol
 _atom_site_label
 _atom_site_symmetry_multiplicity
 _atom_site_fract_x
 _atom_site_fract_y
 _atom_site_fract_z
 _atom_site_occupancy
  Y  Y0  1  0.250000  0.472414  0.187047  1
  Y  Y1  1  0.750000  0.517197  0.814935  1
  Y  Y2  1  0.750000  0.038924  0.671472  1
  Y  Y3  1  0.250000  0.988142  0.336869  1
  Hf  Hf4  1  0.250000  0.855974  0.923733  1
  Hf  Hf5  1  0.750000  0.137536  0.070598  1
  Hf  Hf6  1  0.750000  0.640494  0.435552  1
  Al  Al7  1  0.250000  0.358614  0.572276  1
  Pt  Pt8  1  0.250000  0.725224  0.610142  1
  Pt  Pt9  1  0.750000  0.270883  0.380884  1
  Pt  Pt10  1  0.750000  0.765777  0.102363  1
  Pt  Pt11  1  0.250000  0.228825  0.894130  1
