# generated using pymatgen
data_PrNd3Co2(PtO6)2
_symmetry_space_group_name_H-M   'P 1'
_cell_length_a   5.48522202
_cell_length_b   5.85019911
_cell_length_c   7.88276121
_cell_angle_alpha   89.97845045
_cell_angle_beta   90.03304509
_cell_angle_gamma   89.99348746
_symmetry_Int_Tables_number   1
_chemical_formula_structural   PrNd3Co2(PtO6)2
_chemical_formula_sum   'Pr1 Nd3 Co2 Pt2 O12'
_cell_volume   252.95491560
_cell_formula_units_Z   1
loop_
 _symmetry_equiv_pos_site_id
 _symmetry_equiv_pos_as_xyz
  1  'x, y, z'
loop_
 _atom_site_type_symbol
 _atom_site_label
 _atom_site_symmetry_multiplicity
 _atom_site_fract_x
 _atom_site_fract_y
 _atom_site_fract_z
 _atom_site_occupancy
  Pr  Pr0  1  0.019464  0.933714  0.750010  1
  Nd  Nd1  1  0.979410  0.068114  0.250178  1
  Nd  Nd2  1  0.520381  0.567338  0.249830  1
  Nd  Nd3  1  0.479491  0.432733  0.750148  1
  Co  Co4  1  0.499744  0.000018  0.000744  1
  Co  Co5  1  0.000143  0.500492  0.499530  1
  Pt  Pt6  1  0.000238  0.500129  0.000519  1
  Pt  Pt7  1  0.499762  0.000007  0.499376  1
  O  O8  1  0.696219  0.303347  0.053304  1
  O  O9  1  0.809137  0.796449  0.055265  1
  O  O10  1  0.395272  0.964143  0.250240  1
  O  O11  1  0.104682  0.464870  0.249644  1
  O  O12  1  0.691307  0.295807  0.444517  1
  O  O13  1  0.804239  0.803511  0.446717  1
  O  O14  1  0.196508  0.197634  0.551170  1
  O  O15  1  0.310261  0.702854  0.553778  1
  O  O16  1  0.895733  0.532907  0.750725  1
  O  O17  1  0.600557  0.035631  0.749420  1
  O  O18  1  0.191951  0.205047  0.946486  1
  O  O19  1  0.305502  0.695260  0.948398  1
