# generated using pymatgen
data_Dy5LuAl24(Ru3Rh)2
_symmetry_space_group_name_H-M   'P 1'
_cell_length_a   8.78888376
_cell_length_b   8.78888399
_cell_length_c   9.54179800
_cell_angle_alpha   90.00000000
_cell_angle_beta   90.00000000
_cell_angle_gamma   119.54211276
_symmetry_Int_Tables_number   1
_chemical_formula_structural   Dy5LuAl24(Ru3Rh)2
_chemical_formula_sum   'Dy5 Lu1 Al24 Ru6 Rh2'
_cell_volume   641.22979235
_cell_formula_units_Z   1
loop_
 _symmetry_equiv_pos_site_id
 _symmetry_equiv_pos_as_xyz
  1  'x, y, z'
loop_
 _atom_site_type_symbol
 _atom_site_label
 _atom_site_symmetry_multiplicity
 _atom_site_fract_x
 _atom_site_fract_y
 _atom_site_fract_z
 _atom_site_occupancy
  Dy  Dy0  1  0.189332  0.385870  0.250000  1
  Dy  Dy1  1  0.614130  0.810668  0.250000  1
  Dy  Dy2  1  0.805304  0.194696  0.750000  1
  Dy  Dy3  1  0.810633  0.613855  0.750000  1
  Dy  Dy4  1  0.386145  0.189367  0.750000  1
  Lu  Lu5  1  0.195945  0.804055  0.250000  1
  Al  Al6  1  0.560990  0.439010  0.250000  1
  Al  Al7  1  0.559107  0.122057  0.250000  1
  Al  Al8  1  0.877943  0.440893  0.250000  1
  Al  Al9  1  0.439147  0.560853  0.750000  1
  Al  Al10  1  0.439214  0.876583  0.750000  1
  Al  Al11  1  0.123417  0.560786  0.750000  1
  Al  Al12  1  0.323281  0.160514  0.421084  1
  Al  Al13  1  0.836876  0.163124  0.421560  1
  Al  Al14  1  0.839486  0.676719  0.421084  1
  Al  Al15  1  0.676073  0.838439  0.577933  1
  Al  Al16  1  0.162996  0.837004  0.576608  1
  Al  Al17  1  0.161561  0.323927  0.577933  1
  Al  Al18  1  0.676073  0.838439  0.922067  1
  Al  Al19  1  0.162996  0.837004  0.923392  1
  Al  Al20  1  0.161561  0.323927  0.922067  1
  Al  Al21  1  0.323281  0.160514  0.078916  1
  Al  Al22  1  0.836876  0.163124  0.078440  1
  Al  Al23  1  0.839486  0.676719  0.078916  1
  Al  Al24  1  0.667593  0.332407  0.518908  1
  Al  Al25  1  0.331914  0.668086  0.480699  1
  Al  Al26  1  0.331914  0.668086  0.019301  1
  Al  Al27  1  0.667593  0.332407  0.981092  1
  Al  Al28  1  0.000814  0.999186  0.250000  1
  Al  Al29  1  0.000641  0.999359  0.750000  1
  Ru  Ru30  1  0.999748  0.000252  0.499762  1
  Ru  Ru31  1  0.999748  0.000252  0.000238  1
  Ru  Ru32  1  0.499336  0.999671  0.499467  1
  Ru  Ru33  1  0.000329  0.500664  0.499467  1
  Ru  Ru34  1  0.499336  0.999671  0.000533  1
  Ru  Ru35  1  0.000329  0.500664  0.000533  1
  Rh  Rh36  1  0.499425  0.500575  0.499802  1
  Rh  Rh37  1  0.499425  0.500575  0.000198  1
