# generated using pymatgen
data_Tb3Dy9Y8(CoBi2)4
_symmetry_space_group_name_H-M   'P 1'
_cell_length_a   8.05001636
_cell_length_b   8.87073300
_cell_length_c   12.44611715
_cell_angle_alpha   90.00000000
_cell_angle_beta   90.02596422
_cell_angle_gamma   90.00000000
_symmetry_Int_Tables_number   1
_chemical_formula_structural   Tb3Dy9Y8(CoBi2)4
_chemical_formula_sum   'Tb3 Dy9 Y8 Co4 Bi8'
_cell_volume   888.77148097
_cell_formula_units_Z   1
loop_
 _symmetry_equiv_pos_site_id
 _symmetry_equiv_pos_as_xyz
  1  'x, y, z'
loop_
 _atom_site_type_symbol
 _atom_site_label
 _atom_site_symmetry_multiplicity
 _atom_site_fract_x
 _atom_site_fract_y
 _atom_site_fract_z
 _atom_site_occupancy
  Tb  Tb0  1  0.847208  0.750000  0.801671  1
  Tb  Tb1  1  0.652582  0.750000  0.301571  1
  Tb  Tb2  1  0.379052  0.750000  0.689316  1
  Dy  Dy3  1  0.548067  0.750000  0.002308  1
  Dy  Dy4  1  0.674915  0.035709  0.563319  1
  Dy  Dy5  1  0.324753  0.965685  0.436732  1
  Dy  Dy6  1  0.175584  0.964839  0.936898  1
  Dy  Dy7  1  0.324753  0.534315  0.436732  1
  Dy  Dy8  1  0.824816  0.034982  0.063250  1
  Dy  Dy9  1  0.674915  0.464291  0.563319  1
  Dy  Dy10  1  0.824816  0.465018  0.063250  1
  Dy  Dy11  1  0.175584  0.535161  0.936898  1
  Y  Y12  1  0.153252  0.250000  0.199349  1
  Y  Y13  1  0.346660  0.250000  0.699407  1
  Y  Y14  1  0.621278  0.250000  0.309944  1
  Y  Y15  1  0.878684  0.250000  0.809774  1
  Y  Y16  1  0.121355  0.750000  0.189749  1
  Y  Y17  1  0.953269  0.750000  0.502384  1
  Y  Y18  1  0.046724  0.250000  0.497731  1
  Y  Y19  1  0.453048  0.250000  0.997656  1
  Co  Co20  1  0.560017  0.750000  0.507839  1
  Co  Co21  1  0.439987  0.250000  0.491863  1
  Co  Co22  1  0.060103  0.250000  0.991821  1
  Co  Co23  1  0.938295  0.750000  0.007851  1
  Bi  Bi24  1  0.569768  0.491960  0.826097  1
  Bi  Bi25  1  0.429989  0.507670  0.173800  1
  Bi  Bi26  1  0.069870  0.507588  0.673817  1
  Bi  Bi27  1  0.429989  0.992330  0.173800  1
  Bi  Bi28  1  0.930513  0.492141  0.325970  1
  Bi  Bi29  1  0.569768  0.008040  0.826097  1
  Bi  Bi30  1  0.930513  0.007859  0.325970  1
  Bi  Bi31  1  0.069870  0.992412  0.673817  1
