# generated using pymatgen
data_Pr2Lu3Si4
_symmetry_space_group_name_H-M   'P 1'
_cell_length_a   7.42737100
_cell_length_b   7.72135200
_cell_length_c   14.64936600
_cell_angle_alpha   90.00000000
_cell_angle_beta   90.00000000
_cell_angle_gamma   90.00000000
_symmetry_Int_Tables_number   1
_chemical_formula_structural   Pr2Lu3Si4
_chemical_formula_sum   'Pr8 Lu12 Si16'
_cell_volume   840.13155832
_cell_formula_units_Z   4
loop_
 _symmetry_equiv_pos_site_id
 _symmetry_equiv_pos_as_xyz
  1  'x, y, z'
loop_
 _atom_site_type_symbol
 _atom_site_label
 _atom_site_symmetry_multiplicity
 _atom_site_fract_x
 _atom_site_fract_y
 _atom_site_fract_z
 _atom_site_occupancy
  Pr  Pr0  1  0.013245  0.173692  0.401522  1
  Pr  Pr1  1  0.513245  0.326308  0.401522  1
  Pr  Pr2  1  0.486755  0.673692  0.901522  1
  Pr  Pr3  1  0.486755  0.673692  0.598478  1
  Pr  Pr4  1  0.986755  0.826308  0.598478  1
  Pr  Pr5  1  0.986755  0.826308  0.901522  1
  Pr  Pr6  1  0.513245  0.326308  0.098478  1
  Pr  Pr7  1  0.013245  0.173692  0.098478  1
  Lu  Lu8  1  0.328411  0.175592  0.623795  1
  Lu  Lu9  1  0.671589  0.824408  0.376205  1
  Lu  Lu10  1  0.662076  0.994727  0.750000  1
  Lu  Lu11  1  0.171589  0.675592  0.376205  1
  Lu  Lu12  1  0.828411  0.324408  0.876205  1
  Lu  Lu13  1  0.828411  0.324408  0.623795  1
  Lu  Lu14  1  0.837924  0.494727  0.250000  1
  Lu  Lu15  1  0.337924  0.005273  0.250000  1
  Lu  Lu16  1  0.328411  0.175592  0.876205  1
  Lu  Lu17  1  0.171589  0.675592  0.123795  1
  Lu  Lu18  1  0.671589  0.824408  0.123795  1
  Lu  Lu19  1  0.162076  0.505273  0.750000  1
  Si  Si20  1  0.285378  0.878740  0.750000  1
  Si  Si21  1  0.465466  0.621144  0.250000  1
  Si  Si22  1  0.034534  0.121144  0.750000  1
  Si  Si23  1  0.534534  0.378856  0.750000  1
  Si  Si24  1  0.152593  0.464892  0.539199  1
  Si  Si25  1  0.965466  0.878856  0.250000  1
  Si  Si26  1  0.714622  0.121260  0.250000  1
  Si  Si27  1  0.847407  0.535108  0.039199  1
  Si  Si28  1  0.347407  0.964892  0.039199  1
  Si  Si29  1  0.152593  0.464892  0.960801  1
  Si  Si30  1  0.652593  0.035108  0.539199  1
  Si  Si31  1  0.347407  0.964892  0.460801  1
  Si  Si32  1  0.847407  0.535108  0.460801  1
  Si  Si33  1  0.785378  0.621260  0.750000  1
  Si  Si34  1  0.214622  0.378740  0.250000  1
  Si  Si35  1  0.652593  0.035108  0.960801  1
