# generated using pymatgen
data_Sc5In4RhAu
_symmetry_space_group_name_H-M   'P 1'
_cell_length_a   3.39002500
_cell_length_b   7.79736818
_cell_length_c   17.73660800
_cell_angle_alpha   89.77357518
_cell_angle_beta   90.00000000
_cell_angle_gamma   90.00000000
_symmetry_Int_Tables_number   1
_chemical_formula_structural   Sc5In4RhAu
_chemical_formula_sum   'Sc10 In8 Rh2 Au2'
_cell_volume   468.83294140
_cell_formula_units_Z   2
loop_
 _symmetry_equiv_pos_site_id
 _symmetry_equiv_pos_as_xyz
  1  'x, y, z'
loop_
 _atom_site_type_symbol
 _atom_site_label
 _atom_site_symmetry_multiplicity
 _atom_site_fract_x
 _atom_site_fract_y
 _atom_site_fract_z
 _atom_site_occupancy
  Sc  Sc0  1  0.000000  0.000000  0.000000  1
  Sc  Sc1  1  0.000000  0.500000  0.500000  1
  Sc  Sc2  1  0.000000  0.731621  0.781582  1
  Sc  Sc3  1  0.000000  0.268379  0.218418  1
  Sc  Sc4  1  0.000000  0.262733  0.721860  1
  Sc  Sc5  1  0.000000  0.737267  0.278140  1
  Sc  Sc6  1  0.000000  0.872099  0.578868  1
  Sc  Sc7  1  0.000000  0.127901  0.421132  1
  Sc  Sc8  1  0.000000  0.374760  0.915332  1
  Sc  Sc9  1  0.000000  0.625240  0.084668  1
  In  In10  1  0.500000  0.794596  0.434340  1
  In  In11  1  0.500000  0.205404  0.565660  1
  In  In12  1  0.500000  0.297196  0.066475  1
  In  In13  1  0.500000  0.702804  0.933525  1
  In  In14  1  0.500000  0.926832  0.147857  1
  In  In15  1  0.500000  0.073168  0.852143  1
  In  In16  1  0.500000  0.430408  0.352120  1
  In  In17  1  0.500000  0.569592  0.647880  1
  Rh  Rh18  1  0.500000  0.460963  0.805326  1
  Rh  Rh19  1  0.500000  0.539037  0.194674  1
  Au  Au20  1  0.500000  0.962363  0.696168  1
  Au  Au21  1  0.500000  0.037637  0.303832  1
