# generated using pymatgen
data_PrY7(Si3Ni)4
_symmetry_space_group_name_H-M   'P 1'
_cell_length_a   7.97118400
_cell_length_b   7.97118364
_cell_length_c   8.17953200
_cell_angle_alpha   90.00000000
_cell_angle_beta   90.00000000
_cell_angle_gamma   119.99999321
_symmetry_Int_Tables_number   1
_chemical_formula_structural   PrY7(Si3Ni)4
_chemical_formula_sum   'Pr1 Y7 Si12 Ni4'
_cell_volume   450.09559818
_cell_formula_units_Z   1
loop_
 _symmetry_equiv_pos_site_id
 _symmetry_equiv_pos_as_xyz
  1  'x, y, z'
loop_
 _atom_site_type_symbol
 _atom_site_label
 _atom_site_symmetry_multiplicity
 _atom_site_fract_x
 _atom_site_fract_y
 _atom_site_fract_z
 _atom_site_occupancy
  Pr  Pr0  1  0.000000  0.000000  0.250000  1
  Y  Y1  1  0.499528  0.500472  0.750000  1
  Y  Y2  1  0.500487  0.499513  0.250000  1
  Y  Y3  1  0.000945  0.500472  0.750000  1
  Y  Y4  1  0.999026  0.499513  0.250000  1
  Y  Y5  1  0.499528  0.999055  0.750000  1
  Y  Y6  1  0.500487  0.000974  0.250000  1
  Y  Y7  1  0.000000  0.000000  0.750000  1
  Si  Si8  1  0.828379  0.171621  0.997261  1
  Si  Si9  1  0.171627  0.828373  0.998201  1
  Si  Si10  1  0.343242  0.171621  0.997261  1
  Si  Si11  1  0.171627  0.828373  0.501799  1
  Si  Si12  1  0.656745  0.828373  0.998201  1
  Si  Si13  1  0.828379  0.171621  0.502739  1
  Si  Si14  1  0.828379  0.656758  0.997261  1
  Si  Si15  1  0.656745  0.828373  0.501799  1
  Si  Si16  1  0.171627  0.343255  0.998201  1
  Si  Si17  1  0.343242  0.171621  0.502739  1
  Si  Si18  1  0.171627  0.343255  0.501799  1
  Si  Si19  1  0.828379  0.656758  0.502739  1
  Ni  Ni20  1  0.666667  0.333333  0.998554  1
  Ni  Ni21  1  0.333333  0.666667  0.001387  1
  Ni  Ni22  1  0.333333  0.666667  0.498613  1
  Ni  Ni23  1  0.666667  0.333333  0.501446  1
