# generated using pymatgen
data_Nb12Ga8Ni3IrC4
_symmetry_space_group_name_H-M   'P 1'
_cell_length_a   8.28975925
_cell_length_b   8.28979317
_cell_length_c   8.28959935
_cell_angle_alpha   59.84549338
_cell_angle_beta   59.84577756
_cell_angle_gamma   59.84553212
_symmetry_Int_Tables_number   1
_chemical_formula_structural   Nb12Ga8Ni3IrC4
_chemical_formula_sum   'Nb12 Ga8 Ni3 Ir1 C4'
_cell_volume   401.40217131
_cell_formula_units_Z   1
loop_
 _symmetry_equiv_pos_site_id
 _symmetry_equiv_pos_as_xyz
  1  'x, y, z'
loop_
 _atom_site_type_symbol
 _atom_site_label
 _atom_site_symmetry_multiplicity
 _atom_site_fract_x
 _atom_site_fract_y
 _atom_site_fract_z
 _atom_site_occupancy
  Nb  Nb0  1  0.811224  0.811227  0.193637  1
  Nb  Nb1  1  0.185516  0.185521  0.813303  1
  Nb  Nb2  1  0.811227  0.193635  0.811223  1
  Nb  Nb3  1  0.185511  0.813308  0.185519  1
  Nb  Nb4  1  0.193636  0.811226  0.811220  1
  Nb  Nb5  1  0.813307  0.185513  0.185515  1
  Nb  Nb6  1  0.438776  0.438773  0.056363  1
  Nb  Nb7  1  0.064484  0.064479  0.436697  1
  Nb  Nb8  1  0.438773  0.056365  0.438777  1
  Nb  Nb9  1  0.064489  0.436692  0.064481  1
  Nb  Nb10  1  0.056364  0.438774  0.438780  1
  Nb  Nb11  1  0.436693  0.064487  0.064485  1
  Ga  Ga12  1  0.750297  0.411489  0.411459  1
  Ga  Ga13  1  0.411488  0.750293  0.411461  1
  Ga  Ga14  1  0.411477  0.411480  0.750298  1
  Ga  Ga15  1  0.413812  0.413812  0.413789  1
  Ga  Ga16  1  0.499703  0.838511  0.838541  1
  Ga  Ga17  1  0.838512  0.499707  0.838539  1
  Ga  Ga18  1  0.838523  0.838520  0.499702  1
  Ga  Ga19  1  0.836188  0.836188  0.836211  1
  Ni  Ni20  1  0.125000  0.625000  0.625000  1
  Ni  Ni21  1  0.625000  0.125000  0.625000  1
  Ni  Ni22  1  0.625000  0.625000  0.125000  1
  Ir  Ir23  1  0.625000  0.625000  0.625000  1
  C  C24  1  0.625000  0.125000  0.125000  1
  C  C25  1  0.125000  0.625000  0.125000  1
  C  C26  1  0.125000  0.125000  0.625000  1
  C  C27  1  0.125000  0.125000  0.125000  1
