# generated using pymatgen
data_Pr3Th(ScSb5)4
_symmetry_space_group_name_H-M   'P 1'
_cell_length_a   4.22245800
_cell_length_b   13.05841463
_cell_length_c   14.27337100
_cell_angle_alpha   78.52242331
_cell_angle_beta   90.00000000
_cell_angle_gamma   90.00000000
_symmetry_Int_Tables_number   1
_chemical_formula_structural   Pr3Th(ScSb5)4
_chemical_formula_sum   'Pr3 Th1 Sc4 Sb20'
_cell_volume   771.27561182
_cell_formula_units_Z   1
loop_
 _symmetry_equiv_pos_site_id
 _symmetry_equiv_pos_as_xyz
  1  'x, y, z'
loop_
 _atom_site_type_symbol
 _atom_site_label
 _atom_site_symmetry_multiplicity
 _atom_site_fract_x
 _atom_site_fract_y
 _atom_site_fract_z
 _atom_site_occupancy
  Pr  Pr0  1  0.750000  0.328132  0.424179  1
  Pr  Pr1  1  0.250000  0.950793  0.348293  1
  Pr  Pr2  1  0.750000  0.048675  0.649632  1
  Th  Th3  1  0.250000  0.671876  0.574526  1
  Sc  Sc4  1  0.250000  0.397652  0.776708  1
  Sc  Sc5  1  0.750000  0.600521  0.223583  1
  Sc  Sc6  1  0.250000  0.656115  0.861766  1
  Sc  Sc7  1  0.750000  0.344703  0.138828  1
  Sb  Sb8  1  0.250000  0.155098  0.786633  1
  Sb  Sb9  1  0.750000  0.843983  0.212922  1
  Sb  Sb10  1  0.250000  0.136810  0.478716  1
  Sb  Sb11  1  0.750000  0.859608  0.519761  1
  Sb  Sb12  1  0.250000  0.166273  0.150945  1
  Sb  Sb13  1  0.750000  0.835463  0.850058  1
  Sb  Sb14  1  0.250000  0.422904  0.976390  1
  Sb  Sb15  1  0.750000  0.578241  0.022653  1
  Sb  Sb16  1  0.750000  0.033583  0.915974  1
  Sb  Sb17  1  0.250000  0.968675  0.086180  1
  Sb  Sb18  1  0.750000  0.146040  0.303913  1
  Sb  Sb19  1  0.250000  0.853770  0.699009  1
  Sb  Sb20  1  0.750000  0.281526  0.938103  1
  Sb  Sb21  1  0.250000  0.719265  0.061642  1
  Sb  Sb22  1  0.750000  0.293008  0.665182  1
  Sb  Sb23  1  0.250000  0.706030  0.336114  1
  Sb  Sb24  1  0.750000  0.573915  0.743802  1
  Sb  Sb25  1  0.250000  0.429072  0.252780  1
  Sb  Sb26  1  0.750000  0.569136  0.441539  1
  Sb  Sb27  1  0.250000  0.429132  0.560163  1
