# generated using pymatgen
data_Eu4CdAg3Au4
_symmetry_space_group_name_H-M   'P 1'
_cell_length_a   4.53752700
_cell_length_b   7.50144221
_cell_length_c   8.84372851
_cell_angle_alpha   89.82190158
_cell_angle_beta   90.00000000
_cell_angle_gamma   90.00000000
_symmetry_Int_Tables_number   1
_chemical_formula_structural   Eu4CdAg3Au4
_chemical_formula_sum   'Eu4 Cd1 Ag3 Au4'
_cell_volume   301.02134625
_cell_formula_units_Z   1
loop_
 _symmetry_equiv_pos_site_id
 _symmetry_equiv_pos_as_xyz
  1  'x, y, z'
loop_
 _atom_site_type_symbol
 _atom_site_label
 _atom_site_symmetry_multiplicity
 _atom_site_fract_x
 _atom_site_fract_y
 _atom_site_fract_z
 _atom_site_occupancy
  Eu  Eu0  1  0.750000  0.457326  0.810138  1
  Eu  Eu1  1  0.250000  0.043832  0.315779  1
  Eu  Eu2  1  0.750000  0.959654  0.685046  1
  Eu  Eu3  1  0.250000  0.535851  0.192021  1
  Cd  Cd4  1  0.750000  0.859300  0.058892  1
  Ag  Ag5  1  0.250000  0.644167  0.561793  1
  Ag  Ag6  1  0.250000  0.142503  0.938901  1
  Ag  Ag7  1  0.750000  0.358757  0.438745  1
  Au  Au8  1  0.250000  0.750786  0.877181  1
  Au  Au9  1  0.250000  0.253488  0.623288  1
  Au  Au10  1  0.750000  0.747224  0.375018  1
  Au  Au11  1  0.750000  0.247112  0.123199  1
