# generated using pymatgen
data_Hf8In4Cu5Pt3
_symmetry_space_group_name_H-M   'P 1'
_cell_length_a   7.31916400
_cell_length_b   7.31210429
_cell_length_c   6.86831267
_cell_angle_alpha   89.93121275
_cell_angle_beta   89.95963144
_cell_angle_gamma   90.02904871
_symmetry_Int_Tables_number   1
_chemical_formula_structural   Hf8In4Cu5Pt3
_chemical_formula_sum   'Hf8 In4 Cu5 Pt3'
_cell_volume   367.58132269
_cell_formula_units_Z   1
loop_
 _symmetry_equiv_pos_site_id
 _symmetry_equiv_pos_as_xyz
  1  'x, y, z'
loop_
 _atom_site_type_symbol
 _atom_site_label
 _atom_site_symmetry_multiplicity
 _atom_site_fract_x
 _atom_site_fract_y
 _atom_site_fract_z
 _atom_site_occupancy
  Hf  Hf0  1  0.152913  0.147403  0.998805  1
  Hf  Hf1  1  0.853521  0.848308  0.001804  1
  Hf  Hf2  1  0.646819  0.351066  0.500613  1
  Hf  Hf3  1  0.349460  0.648215  0.502138  1
  Hf  Hf4  1  0.690313  0.309619  0.998222  1
  Hf  Hf5  1  0.307398  0.691063  0.999279  1
  Hf  Hf6  1  0.809025  0.808121  0.499465  1
  Hf  Hf7  1  0.193267  0.190058  0.501142  1
  In  In8  1  0.506454  0.001637  0.249829  1
  In  In9  1  0.508843  0.996283  0.751253  1
  In  In10  1  0.997103  0.492969  0.251524  1
  In  In11  1  0.991816  0.495744  0.749910  1
  Cu  Cu12  1  0.377522  0.376409  0.204893  1
  Cu  Cu13  1  0.630090  0.630675  0.796939  1
  Cu  Cu14  1  0.623198  0.622872  0.206792  1
  Cu  Cu15  1  0.869676  0.130296  0.704440  1
  Cu  Cu16  1  0.870045  0.130406  0.294689  1
  Pt  Pt17  1  0.376758  0.376603  0.789118  1
  Pt  Pt18  1  0.123248  0.875960  0.287254  1
  Pt  Pt19  1  0.122527  0.876291  0.711891  1
