# generated using pymatgen
data_Tb2Y6Cd2IrPd
_symmetry_space_group_name_H-M   'P 1'
_cell_length_a   9.70474686
_cell_length_b   9.70474723
_cell_length_c   9.67675500
_cell_angle_alpha   60.09536553
_cell_angle_beta   60.09536426
_cell_angle_gamma   60.37895601
_symmetry_Int_Tables_number   1
_chemical_formula_structural   Tb2Y6Cd2IrPd
_chemical_formula_sum   'Tb4 Y12 Cd4 Ir2 Pd2'
_cell_volume   647.20174316
_cell_formula_units_Z   2
loop_
 _symmetry_equiv_pos_site_id
 _symmetry_equiv_pos_as_xyz
  1  'x, y, z'
loop_
 _atom_site_type_symbol
 _atom_site_label
 _atom_site_symmetry_multiplicity
 _atom_site_fract_x
 _atom_site_fract_y
 _atom_site_fract_z
 _atom_site_occupancy
  Tb  Tb0  1  0.351804  0.351804  0.345380  1
  Tb  Tb1  1  0.351804  0.351804  0.951014  1
  Tb  Tb2  1  0.359186  0.939905  0.350454  1
  Tb  Tb3  1  0.939905  0.359186  0.350454  1
  Y  Y4  1  0.805849  0.190402  0.189683  1
  Y  Y5  1  0.190402  0.805849  0.814066  1
  Y  Y6  1  0.190402  0.805849  0.189683  1
  Y  Y7  1  0.805849  0.190402  0.814066  1
  Y  Y8  1  0.191315  0.191315  0.808685  1
  Y  Y9  1  0.811465  0.811465  0.188535  1
  Y  Y10  1  0.937746  0.565708  0.561227  1
  Y  Y11  1  0.565708  0.937746  0.935320  1
  Y  Y12  1  0.565708  0.937746  0.561227  1
  Y  Y13  1  0.937746  0.565708  0.935320  1
  Y  Y14  1  0.563774  0.563774  0.936226  1
  Y  Y15  1  0.936798  0.936798  0.563202  1
  Cd  Cd16  1  0.581097  0.581097  0.582607  1
  Cd  Cd17  1  0.581097  0.581097  0.255199  1
  Cd  Cd18  1  0.580279  0.255599  0.582062  1
  Cd  Cd19  1  0.255599  0.580279  0.582062  1
  Ir  Ir20  1  0.140709  0.570751  0.144271  1
  Ir  Ir21  1  0.570751  0.140709  0.144271  1
  Pd  Pd22  1  0.142504  0.142504  0.146978  1
  Pd  Pd23  1  0.142504  0.142504  0.568013  1
