# generated using pymatgen
data_Mg3TiGa2(B2Rh5)2
_symmetry_space_group_name_H-M   'P 1'
_cell_length_a   9.40979301
_cell_length_b   2.94767800
_cell_length_c   9.40979301
_cell_angle_alpha   90.00000000
_cell_angle_beta   89.92503282
_cell_angle_gamma   90.00000000
_symmetry_Int_Tables_number   1
_chemical_formula_structural   Mg3TiGa2(B2Rh5)2
_chemical_formula_sum   'Mg3 Ti1 Ga2 B4 Rh10'
_cell_volume   260.99958040
_cell_formula_units_Z   1
loop_
 _symmetry_equiv_pos_site_id
 _symmetry_equiv_pos_as_xyz
  1  'x, y, z'
loop_
 _atom_site_type_symbol
 _atom_site_label
 _atom_site_symmetry_multiplicity
 _atom_site_fract_x
 _atom_site_fract_y
 _atom_site_fract_z
 _atom_site_occupancy
  Mg  Mg0  1  0.677448  0.000000  0.177448  1
  Mg  Mg1  1  0.174490  0.000000  0.322676  1
  Mg  Mg2  1  0.822675  0.000000  0.674490  1
  Ti  Ti3  1  0.325168  0.000000  0.825167  1
  Ga  Ga4  1  0.997540  0.000000  0.000752  1
  Ga  Ga5  1  0.500752  0.000000  0.497540  1
  B  B6  1  0.372151  0.000000  0.126296  1
  B  B7  1  0.874843  0.000000  0.374843  1
  B  B8  1  0.125510  0.000000  0.625510  1
  B  B9  1  0.626296  0.000000  0.872151  1
  Rh  Rh10  1  0.497315  0.500001  0.997315  1
  Rh  Rh11  1  0.217238  0.500001  0.062318  1
  Rh  Rh12  1  0.930279  0.500001  0.216144  1
  Rh  Rh13  1  0.427865  0.500001  0.283126  1
  Rh  Rh14  1  0.716143  0.500001  0.430278  1
  Rh  Rh15  1  0.002018  0.500001  0.502018  1
  Rh  Rh16  1  0.287400  0.500001  0.579423  1
  Rh  Rh17  1  0.562318  0.500001  0.717237  1
  Rh  Rh18  1  0.079423  0.500001  0.787399  1
  Rh  Rh19  1  0.783125  0.500001  0.927866  1
