# generated using pymatgen
data_PH4
_symmetry_space_group_name_H-M   'P 1'
_cell_length_a   4.42808300
_cell_length_b   11.09188469
_cell_length_c   9.52392079
_cell_angle_alpha   58.83345981
_cell_angle_beta   90.00000000
_cell_angle_gamma   90.00000000
_symmetry_Int_Tables_number   1
_chemical_formula_structural   PH4
_chemical_formula_sum   'P4 H16'
_cell_volume   400.25933620
_cell_formula_units_Z   4
loop_
 _symmetry_equiv_pos_site_id
 _symmetry_equiv_pos_as_xyz
  1  'x, y, z'
loop_
 _atom_site_type_symbol
 _atom_site_label
 _atom_site_symmetry_multiplicity
 _atom_site_fract_x
 _atom_site_fract_y
 _atom_site_fract_z
 _atom_site_occupancy
  P  P0  1  0.964030  0.746216  0.139345  1
  P  P1  1  0.964030  0.253784  0.360655  1
  P  P2  1  0.035970  0.253784  0.860655  1
  P  P3  1  0.035970  0.746216  0.639345  1
  H  H4  1  0.654569  0.783554  0.095981  1
  H  H5  1  0.654569  0.216446  0.404019  1
  H  H6  1  0.345431  0.216446  0.904019  1
  H  H7  1  0.345431  0.783554  0.595981  1
  H  H8  1  0.981528  0.673598  0.052279  1
  H  H9  1  0.981528  0.326402  0.447721  1
  H  H10  1  0.018472  0.326402  0.947721  1
  H  H11  1  0.018472  0.673598  0.552279  1
  H  H12  1  0.889666  0.620437  0.290086  1
  H  H13  1  0.889666  0.379563  0.209914  1
  H  H14  1  0.110334  0.379563  0.709914  1
  H  H15  1  0.110334  0.620437  0.790086  1
  H  H16  1  0.101000  0.979415  0.228688  1
  H  H17  1  0.101000  0.020585  0.271312  1
  H  H18  1  0.899000  0.020585  0.771312  1
  H  H19  1  0.899000  0.979415  0.728688  1
