# generated using pymatgen
data_Dy5Er6Th5(MgRu)4
_symmetry_space_group_name_H-M   'P 1'
_cell_length_a   9.70508586
_cell_length_b   9.75774349
_cell_length_c   9.75774271
_cell_angle_alpha   59.86100066
_cell_angle_beta   60.17834672
_cell_angle_gamma   60.17835258
_symmetry_Int_Tables_number   1
_chemical_formula_structural   Dy5Er6Th5(MgRu)4
_chemical_formula_sum   'Dy5 Er6 Th5 Mg4 Ru4'
_cell_volume   654.46724551
_cell_formula_units_Z   1
loop_
 _symmetry_equiv_pos_site_id
 _symmetry_equiv_pos_as_xyz
  1  'x, y, z'
loop_
 _atom_site_type_symbol
 _atom_site_label
 _atom_site_symmetry_multiplicity
 _atom_site_fract_x
 _atom_site_fract_y
 _atom_site_fract_z
 _atom_site_occupancy
  Dy  Dy0  1  0.564554  0.935446  0.935446  1
  Dy  Dy1  1  0.563065  0.935861  0.564065  1
  Dy  Dy2  1  0.937009  0.564065  0.935861  1
  Dy  Dy3  1  0.563065  0.564065  0.935861  1
  Dy  Dy4  1  0.937009  0.935861  0.564065  1
  Er  Er5  1  0.186082  0.813918  0.813918  1
  Er  Er6  1  0.190821  0.810063  0.184857  1
  Er  Er7  1  0.814260  0.184857  0.810063  1
  Er  Er8  1  0.190821  0.184857  0.810063  1
  Er  Er9  1  0.814260  0.810063  0.184857  1
  Er  Er10  1  0.932955  0.567045  0.567045  1
  Th  Th11  1  0.341782  0.349088  0.349088  1
  Th  Th12  1  0.346463  0.347270  0.959804  1
  Th  Th13  1  0.346463  0.959804  0.347270  1
  Th  Th14  1  0.960042  0.349088  0.349088  1
  Th  Th15  1  0.816537  0.183463  0.183463  1
  Mg  Mg16  1  0.581175  0.579608  0.579608  1
  Mg  Mg17  1  0.579485  0.582169  0.258858  1
  Mg  Mg18  1  0.579485  0.258858  0.582169  1
  Mg  Mg19  1  0.259608  0.579608  0.579608  1
  Ru  Ru20  1  0.128371  0.147387  0.147387  1
  Ru  Ru21  1  0.144917  0.141882  0.568284  1
  Ru  Ru22  1  0.144917  0.568284  0.141882  1
  Ru  Ru23  1  0.576857  0.147387  0.147387  1
