# generated using pymatgen
data_Dy5Y2Hf3(Si5Ir2)4
_symmetry_space_group_name_H-M   'P 1'
_cell_length_a   12.56495306
_cell_length_b   12.56495176
_cell_length_c   4.20209000
_cell_angle_alpha   90.00000000
_cell_angle_beta   90.00000000
_cell_angle_gamma   90.04346106
_symmetry_Int_Tables_number   1
_chemical_formula_structural   Dy5Y2Hf3(Si5Ir2)4
_chemical_formula_sum   'Dy5 Y2 Hf3 Si20 Ir8'
_cell_volume   663.41749631
_cell_formula_units_Z   1
loop_
 _symmetry_equiv_pos_site_id
 _symmetry_equiv_pos_as_xyz
  1  'x, y, z'
loop_
 _atom_site_type_symbol
 _atom_site_label
 _atom_site_symmetry_multiplicity
 _atom_site_fract_x
 _atom_site_fract_y
 _atom_site_fract_z
 _atom_site_occupancy
  Dy  Dy0  1  0.499601  0.501350  0.000000  1
  Dy  Dy1  1  0.998650  0.000399  0.000000  1
  Dy  Dy2  1  0.824479  0.675521  0.500000  1
  Dy  Dy3  1  0.384256  0.115744  0.500000  1
  Dy  Dy4  1  0.611308  0.888692  0.500000  1
  Y  Y5  1  0.884462  0.381855  0.500000  1
  Y  Y6  1  0.118145  0.615538  0.500000  1
  Hf  Hf7  1  0.673883  0.174297  0.500000  1
  Hf  Hf8  1  0.325703  0.826117  0.500000  1
  Hf  Hf9  1  0.174709  0.325291  0.500000  1
  Si  Si10  1  0.565847  0.067840  0.000000  1
  Si  Si11  1  0.432160  0.934153  0.000000  1
  Si  Si12  1  0.067792  0.432208  0.000000  1
  Si  Si13  1  0.934607  0.565393  0.000000  1
  Si  Si14  1  0.661685  0.701990  0.000000  1
  Si  Si15  1  0.334773  0.299708  0.000000  1
  Si  Si16  1  0.166509  0.800725  0.000000  1
  Si  Si17  1  0.834999  0.200215  0.000000  1
  Si  Si18  1  0.299785  0.665001  0.000000  1
  Si  Si19  1  0.699275  0.333491  0.000000  1
  Si  Si20  1  0.200292  0.165227  0.000000  1
  Si  Si21  1  0.798010  0.838315  0.000000  1
  Si  Si22  1  0.656775  0.498031  0.500000  1
  Si  Si23  1  0.343189  0.490112  0.500000  1
  Si  Si24  1  0.156697  0.991406  0.500000  1
  Si  Si25  1  0.840341  0.004584  0.500000  1
  Si  Si26  1  0.495416  0.659659  0.500000  1
  Si  Si27  1  0.508594  0.343303  0.500000  1
  Si  Si28  1  0.009888  0.156811  0.500000  1
  Si  Si29  1  0.001969  0.843225  0.500000  1
  Ir  Ir30  1  0.743929  0.518866  0.000000  1
  Ir  Ir31  1  0.254410  0.478099  0.000000  1
  Ir  Ir32  1  0.245612  0.979724  0.000000  1
  Ir  Ir33  1  0.752877  0.023940  0.000000  1
  Ir  Ir34  1  0.476060  0.747123  0.000000  1
  Ir  Ir35  1  0.520276  0.254388  0.000000  1
  Ir  Ir36  1  0.021901  0.245590  0.000000  1
  Ir  Ir37  1  0.981134  0.756071  0.000000  1
