# generated using pymatgen
data_Dy4HoEr9Tm6(CoSb2)4
_symmetry_space_group_name_H-M   'P 1'
_cell_length_a   7.81324080
_cell_length_b   8.74446514
_cell_length_c   12.11013911
_cell_angle_alpha   89.99575452
_cell_angle_beta   89.95115980
_cell_angle_gamma   89.96219165
_symmetry_Int_Tables_number   1
_chemical_formula_structural   Dy4HoEr9Tm6(CoSb2)4
_chemical_formula_sum   'Dy4 Ho1 Er9 Tm6 Co4 Sb8'
_cell_volume   827.39585006
_cell_formula_units_Z   1
loop_
 _symmetry_equiv_pos_site_id
 _symmetry_equiv_pos_as_xyz
  1  'x, y, z'
loop_
 _atom_site_type_symbol
 _atom_site_label
 _atom_site_symmetry_multiplicity
 _atom_site_fract_x
 _atom_site_fract_y
 _atom_site_fract_z
 _atom_site_occupancy
  Dy  Dy0  1  0.622319  0.749698  0.307738  1
  Dy  Dy1  1  0.877765  0.750302  0.807600  1
  Dy  Dy2  1  0.377956  0.250200  0.691631  1
  Dy  Dy3  1  0.122617  0.249788  0.192273  1
  Ho  Ho4  1  0.155552  0.750110  0.203632  1
  Er  Er5  1  0.344657  0.749882  0.703329  1
  Er  Er6  1  0.844575  0.249977  0.796699  1
  Er  Er7  1  0.654859  0.250022  0.297470  1
  Er  Er8  1  0.450647  0.750129  0.998039  1
  Er  Er9  1  0.049583  0.749917  0.498082  1
  Er  Er10  1  0.548895  0.249728  0.001709  1
  Er  Er11  1  0.950585  0.250249  0.502092  1
  Er  Er12  1  0.823196  0.535458  0.065103  1
  Er  Er13  1  0.676481  0.965048  0.565144  1
  Tm  Tm14  1  0.175707  0.036103  0.934652  1
  Tm  Tm15  1  0.324783  0.463484  0.434919  1
  Tm  Tm16  1  0.175783  0.463975  0.934641  1
  Tm  Tm17  1  0.324697  0.036364  0.434933  1
  Tm  Tm18  1  0.824181  0.964513  0.065006  1
  Tm  Tm19  1  0.675492  0.535091  0.565057  1
  Co  Co20  1  0.433775  0.749713  0.491458  1
  Co  Co21  1  0.066181  0.750284  0.991369  1
  Co  Co22  1  0.565139  0.250187  0.508520  1
  Co  Co23  1  0.934689  0.249806  0.008377  1
  Sb  Sb24  1  0.930217  0.507855  0.328119  1
  Sb  Sb25  1  0.569482  0.992087  0.827904  1
  Sb  Sb26  1  0.070035  0.008218  0.672139  1
  Sb  Sb27  1  0.430180  0.491745  0.172050  1
  Sb  Sb28  1  0.069462  0.492007  0.672195  1
  Sb  Sb29  1  0.430782  0.008037  0.172034  1
  Sb  Sb30  1  0.929989  0.992073  0.328186  1
  Sb  Sb31  1  0.569739  0.507950  0.827899  1
