# generated using pymatgen
data_Hf18ZnRe8Pd
_symmetry_space_group_name_H-M   'P 1'
_cell_length_a   8.65845900
_cell_length_b   8.65845886
_cell_length_c   8.57378400
_cell_angle_alpha   90.00000000
_cell_angle_beta   90.00000000
_cell_angle_gamma   120.00000436
_symmetry_Int_Tables_number   1
_chemical_formula_structural   Hf18ZnRe8Pd
_chemical_formula_sum   'Hf18 Zn1 Re8 Pd1'
_cell_volume   556.65274269
_cell_formula_units_Z   1
loop_
 _symmetry_equiv_pos_site_id
 _symmetry_equiv_pos_as_xyz
  1  'x, y, z'
loop_
 _atom_site_type_symbol
 _atom_site_label
 _atom_site_symmetry_multiplicity
 _atom_site_fract_x
 _atom_site_fract_y
 _atom_site_fract_z
 _atom_site_occupancy
  Hf  Hf0  1  0.194441  0.805559  0.448173  1
  Hf  Hf1  1  0.194441  0.388882  0.448173  1
  Hf  Hf2  1  0.611118  0.805559  0.448173  1
  Hf  Hf3  1  0.806821  0.193179  0.550158  1
  Hf  Hf4  1  0.806821  0.613641  0.550158  1
  Hf  Hf5  1  0.386359  0.193179  0.550158  1
  Hf  Hf6  1  0.806821  0.193179  0.949842  1
  Hf  Hf7  1  0.806821  0.613641  0.949842  1
  Hf  Hf8  1  0.386359  0.193179  0.949842  1
  Hf  Hf9  1  0.194441  0.805559  0.051827  1
  Hf  Hf10  1  0.194441  0.388882  0.051827  1
  Hf  Hf11  1  0.611118  0.805559  0.051827  1
  Hf  Hf12  1  0.542237  0.457763  0.250000  1
  Hf  Hf13  1  0.542237  0.084476  0.250000  1
  Hf  Hf14  1  0.915524  0.457763  0.250000  1
  Hf  Hf15  1  0.459052  0.540948  0.750000  1
  Hf  Hf16  1  0.459052  0.918103  0.750000  1
  Hf  Hf17  1  0.081897  0.540948  0.750000  1
  Zn  Zn18  1  0.666667  0.333333  0.750000  1
  Re  Re19  1  0.889283  0.110717  0.250000  1
  Re  Re20  1  0.889283  0.778566  0.250000  1
  Re  Re21  1  0.221434  0.110717  0.250000  1
  Re  Re22  1  0.110269  0.889731  0.750000  1
  Re  Re23  1  0.110269  0.220537  0.750000  1
  Re  Re24  1  0.779463  0.889731  0.750000  1
  Re  Re25  1  0.000000  0.000000  0.499323  1
  Re  Re26  1  0.000000  0.000000  0.000677  1
  Pd  Pd27  1  0.333333  0.666667  0.250000  1
