# generated using pymatgen
data_CeNdSi2(PdRh)2
_symmetry_space_group_name_H-M   'P 1'
_cell_length_a   9.42691389
_cell_length_b   9.42691426
_cell_length_c   4.12230100
_cell_angle_alpha   90.00000000
_cell_angle_beta   90.00000000
_cell_angle_gamma   155.26061022
_symmetry_Int_Tables_number   1
_chemical_formula_structural   CeNdSi2(PdRh)2
_chemical_formula_sum   'Ce1 Nd1 Si2 Pd2 Rh2'
_cell_volume   153.30823990
_cell_formula_units_Z   1
loop_
 _symmetry_equiv_pos_site_id
 _symmetry_equiv_pos_as_xyz
  1  'x, y, z'
loop_
 _atom_site_type_symbol
 _atom_site_label
 _atom_site_symmetry_multiplicity
 _atom_site_fract_x
 _atom_site_fract_y
 _atom_site_fract_z
 _atom_site_occupancy
  Ce  Ce0  1  0.894664  0.105336  0.250000  1
  Nd  Nd1  1  0.106412  0.893588  0.750000  1
  Si  Si2  1  0.318938  0.681062  0.750000  1
  Si  Si3  1  0.680583  0.319417  0.250000  1
  Pd  Pd4  1  0.547830  0.452170  0.250000  1
  Pd  Pd5  1  0.450686  0.549314  0.750000  1
  Rh  Rh6  1  0.250985  0.749015  0.250000  1
  Rh  Rh7  1  0.749903  0.250097  0.750000  1
