# generated using pymatgen
data_La3(Cd2Sn)2
_symmetry_space_group_name_H-M   'P 1'
_cell_length_a   7.84650600
_cell_length_b   7.84650691
_cell_length_c   4.74400000
_cell_angle_alpha   90.00000000
_cell_angle_beta   90.00000000
_cell_angle_gamma   120.00000460
_symmetry_Int_Tables_number   1
_chemical_formula_structural   La3(Cd2Sn)2
_chemical_formula_sum   'La3 Cd4 Sn2'
_cell_volume   252.94608656
_cell_formula_units_Z   1
loop_
 _symmetry_equiv_pos_site_id
 _symmetry_equiv_pos_as_xyz
  1  'x, y, z'
loop_
 _atom_site_type_symbol
 _atom_site_label
 _atom_site_symmetry_multiplicity
 _atom_site_fract_x
 _atom_site_fract_y
 _atom_site_fract_z
 _atom_site_occupancy
  La  La0  1  0.419192  0.419192  0.500000  1
  La  La1  1  0.580808  0.000000  0.500000  1
  La  La2  1  0.000000  0.580808  0.500000  1
  Cd  Cd3  1  0.759747  0.759747  0.000000  1
  Cd  Cd4  1  0.240253  0.000000  0.000000  1
  Cd  Cd5  1  0.000000  0.240253  0.000000  1
  Cd  Cd6  1  0.000000  0.000000  0.500000  1
  Sn  Sn7  1  0.666667  0.333333  0.000000  1
  Sn  Sn8  1  0.333333  0.666667  0.000000  1
