# generated using pymatgen
data_Y4Lu4Tc3OsC8
_symmetry_space_group_name_H-M   'P 1'
_cell_length_a   5.04432700
_cell_length_b   6.53642014
_cell_length_c   9.72426300
_cell_angle_alpha   89.83384176
_cell_angle_beta   90.00000000
_cell_angle_gamma   90.00000000
_symmetry_Int_Tables_number   1
_chemical_formula_structural   Y4Lu4Tc3OsC8
_chemical_formula_sum   'Y4 Lu4 Tc3 Os1 C8'
_cell_volume   320.62550135
_cell_formula_units_Z   1
loop_
 _symmetry_equiv_pos_site_id
 _symmetry_equiv_pos_as_xyz
  1  'x, y, z'
loop_
 _atom_site_type_symbol
 _atom_site_label
 _atom_site_symmetry_multiplicity
 _atom_site_fract_x
 _atom_site_fract_y
 _atom_site_fract_z
 _atom_site_occupancy
  Y  Y0  1  0.250000  0.532823  0.214158  1
  Y  Y1  1  0.750000  0.465004  0.786236  1
  Y  Y2  1  0.750000  0.967236  0.711979  1
  Y  Y3  1  0.250000  0.032629  0.286017  1
  Lu  Lu4  1  0.250000  0.672067  0.558386  1
  Lu  Lu5  1  0.750000  0.326442  0.441432  1
  Lu  Lu6  1  0.750000  0.827443  0.058916  1
  Lu  Lu7  1  0.250000  0.172073  0.941421  1
  Tc  Tc8  1  0.250000  0.720567  0.866715  1
  Tc  Tc9  1  0.750000  0.280057  0.132567  1
  Tc  Tc10  1  0.750000  0.779129  0.367449  1
  Os  Os11  1  0.250000  0.220733  0.633375  1
  C  C12  1  0.250000  0.452122  0.759689  1
  C  C13  1  0.750000  0.548789  0.240020  1
  C  C14  1  0.750000  0.048705  0.260591  1
  C  C15  1  0.250000  0.953202  0.740143  1
  C  C16  1  0.250000  0.828885  0.050619  1
  C  C17  1  0.750000  0.171330  0.948611  1
  C  C18  1  0.750000  0.670989  0.552141  1
  C  C19  1  0.250000  0.329774  0.449536  1
