# generated using pymatgen
data_LiPr2(CdIr6)3
_symmetry_space_group_name_H-M   'P 1'
_cell_length_a   8.93931722
_cell_length_b   8.93931722
_cell_length_c   5.11268500
_cell_angle_alpha   90.00000000
_cell_angle_beta   90.00000000
_cell_angle_gamma   90.16455534
_symmetry_Int_Tables_number   1
_chemical_formula_structural   LiPr2(CdIr6)3
_chemical_formula_sum   'Li1 Pr2 Cd3 Ir18'
_cell_volume   408.56009176
_cell_formula_units_Z   1
loop_
 _symmetry_equiv_pos_site_id
 _symmetry_equiv_pos_as_xyz
  1  'x, y, z'
loop_
 _atom_site_type_symbol
 _atom_site_label
 _atom_site_symmetry_multiplicity
 _atom_site_fract_x
 _atom_site_fract_y
 _atom_site_fract_z
 _atom_site_occupancy
  Li  Li0  1  0.115840  0.615840  0.000000  1
  Pr  Pr1  1  0.498639  0.500589  0.000000  1
  Pr  Pr2  1  0.000589  0.998639  0.000000  1
  Cd  Cd3  1  0.888262  0.388262  0.000000  1
  Cd  Cd4  1  0.382273  0.116356  0.000000  1
  Cd  Cd5  1  0.616356  0.882273  0.000000  1
  Ir  Ir6  1  0.314646  0.814646  0.760386  1
  Ir  Ir7  1  0.682413  0.182413  0.759340  1
  Ir  Ir8  1  0.182160  0.319831  0.759513  1
  Ir  Ir9  1  0.819831  0.682160  0.759513  1
  Ir  Ir10  1  0.682413  0.182413  0.240660  1
  Ir  Ir11  1  0.314646  0.814646  0.239614  1
  Ir  Ir12  1  0.819831  0.682160  0.240487  1
  Ir  Ir13  1  0.182160  0.319831  0.240487  1
  Ir  Ir14  1  0.555435  0.703700  0.500000  1
  Ir  Ir15  1  0.443462  0.296849  0.500000  1
  Ir  Ir16  1  0.943981  0.204610  0.500000  1
  Ir  Ir17  1  0.056474  0.794300  0.500000  1
  Ir  Ir18  1  0.704610  0.443981  0.500000  1
  Ir  Ir19  1  0.294300  0.556474  0.500000  1
  Ir  Ir20  1  0.203700  0.055435  0.500000  1
  Ir  Ir21  1  0.796849  0.943462  0.500000  1
  Ir  Ir22  1  0.001417  0.501417  0.500000  1
  Ir  Ir23  1  0.499713  0.999713  0.500000  1
