# generated using pymatgen
data_K2Sn(AuSe2)2
_symmetry_space_group_name_H-M   'P 1'
_cell_length_a   7.71654643
_cell_length_b   8.85182132
_cell_length_c   9.78149444
_cell_angle_alpha   71.93261995
_cell_angle_beta   82.86882539
_cell_angle_gamma   68.20527083
_symmetry_Int_Tables_number   1
_chemical_formula_structural   K2Sn(AuSe2)2
_chemical_formula_sum   'K4 Sn2 Au4 Se8'
_cell_volume   589.75222257
_cell_formula_units_Z   2
loop_
 _symmetry_equiv_pos_site_id
 _symmetry_equiv_pos_as_xyz
  1  'x, y, z'
loop_
 _atom_site_type_symbol
 _atom_site_label
 _atom_site_symmetry_multiplicity
 _atom_site_fract_x
 _atom_site_fract_y
 _atom_site_fract_z
 _atom_site_occupancy
  K  K0  1  0.781069  0.810580  0.422276  1
  K  K1  1  0.218931  0.189420  0.577724  1
  K  K2  1  0.024607  0.253546  0.077186  1
  K  K3  1  0.975393  0.746454  0.922814  1
  Sn  Sn4  1  0.623261  0.282555  0.803787  1
  Sn  Sn5  1  0.376739  0.717445  0.196213  1
  Au  Au6  1  0.534320  0.712901  0.832929  1
  Au  Au7  1  0.257204  0.668134  0.576457  1
  Au  Au8  1  0.465680  0.287099  0.167071  1
  Au  Au9  1  0.742796  0.331866  0.423543  1
  Se  Se10  1  0.733832  0.581218  0.222225  1
  Se  Se11  1  0.764207  0.088949  0.634510  1
  Se  Se12  1  0.290285  0.916686  0.937748  1
  Se  Se13  1  0.210013  0.498093  0.256059  1
  Se  Se14  1  0.266168  0.418782  0.777775  1
  Se  Se15  1  0.709715  0.083314  0.062252  1
  Se  Se16  1  0.235793  0.911051  0.365490  1
  Se  Se17  1  0.789987  0.501907  0.743941  1
