# generated using pymatgen
data_HoEr19Ni2(Bi4Ru)2
_symmetry_space_group_name_H-M   'P 1'
_cell_length_a   7.92979861
_cell_length_b   8.90170800
_cell_length_c   12.32192713
_cell_angle_alpha   90.00000000
_cell_angle_beta   90.56614735
_cell_angle_gamma   90.00000000
_symmetry_Int_Tables_number   1
_chemical_formula_structural   HoEr19Ni2(Bi4Ru)2
_chemical_formula_sum   'Ho1 Er19 Ni2 Bi8 Ru2'
_cell_volume   869.74699407
_cell_formula_units_Z   1
loop_
 _symmetry_equiv_pos_site_id
 _symmetry_equiv_pos_as_xyz
  1  'x, y, z'
loop_
 _atom_site_type_symbol
 _atom_site_label
 _atom_site_symmetry_multiplicity
 _atom_site_fract_x
 _atom_site_fract_y
 _atom_site_fract_z
 _atom_site_occupancy
  Ho  Ho0  1  0.549342  0.750000  0.000841  1
  Er  Er1  1  0.836490  0.750000  0.790868  1
  Er  Er2  1  0.163534  0.250000  0.209094  1
  Er  Er3  1  0.344170  0.250000  0.703580  1
  Er  Er4  1  0.655833  0.750000  0.296457  1
  Er  Er5  1  0.377256  0.750000  0.694536  1
  Er  Er6  1  0.622744  0.250000  0.305446  1
  Er  Er7  1  0.879048  0.250000  0.813354  1
  Er  Er8  1  0.120960  0.750000  0.186679  1
  Er  Er9  1  0.947556  0.750000  0.503604  1
  Er  Er10  1  0.052427  0.250000  0.496399  1
  Er  Er11  1  0.450671  0.250000  0.999156  1
  Er  Er12  1  0.675710  0.041504  0.564699  1
  Er  Er13  1  0.324298  0.958485  0.435300  1
  Er  Er14  1  0.175761  0.959655  0.935366  1
  Er  Er15  1  0.324298  0.541515  0.435300  1
  Er  Er16  1  0.824218  0.040432  0.064630  1
  Er  Er17  1  0.675710  0.458496  0.564699  1
  Er  Er18  1  0.824218  0.459568  0.064630  1
  Er  Er19  1  0.175761  0.540345  0.935366  1
  Ni  Ni20  1  0.069501  0.250000  0.994423  1
  Ni  Ni21  1  0.930567  0.750000  0.005584  1
  Bi  Bi22  1  0.570069  0.489732  0.828661  1
  Bi  Bi23  1  0.429903  0.510186  0.171335  1
  Bi  Bi24  1  0.066773  0.507225  0.675239  1
  Bi  Bi25  1  0.429903  0.989814  0.171335  1
  Bi  Bi26  1  0.933222  0.492775  0.324762  1
  Bi  Bi27  1  0.570069  0.010268  0.828661  1
  Bi  Bi28  1  0.933222  0.007225  0.324762  1
  Bi  Bi29  1  0.066773  0.992775  0.675239  1
  Ru  Ru30  1  0.574839  0.750000  0.513154  1
  Ru  Ru31  1  0.425153  0.250000  0.486839  1
