# generated using pymatgen
data_MnCr2CoP2
_symmetry_space_group_name_H-M   'P 1'
_cell_length_a   3.54731000
_cell_length_b   5.77696500
_cell_length_c   6.60120700
_cell_angle_alpha   90.00000000
_cell_angle_beta   90.00000000
_cell_angle_gamma   90.00000000
_symmetry_Int_Tables_number   1
_chemical_formula_structural   MnCr2CoP2
_chemical_formula_sum   'Mn2 Cr4 Co2 P4'
_cell_volume   135.27646039
_cell_formula_units_Z   2
loop_
 _symmetry_equiv_pos_site_id
 _symmetry_equiv_pos_as_xyz
  1  'x, y, z'
loop_
 _atom_site_type_symbol
 _atom_site_label
 _atom_site_symmetry_multiplicity
 _atom_site_fract_x
 _atom_site_fract_y
 _atom_site_fract_z
 _atom_site_occupancy
  Mn  Mn0  1  0.000000  0.358336  0.307588  1
  Mn  Mn1  1  0.000000  0.858336  0.692412  1
  Cr  Cr2  1  0.500000  0.523231  0.579229  1
  Cr  Cr3  1  0.500000  0.023231  0.420771  1
  Cr  Cr4  1  0.000000  0.472986  0.920776  1
  Cr  Cr5  1  0.000000  0.972986  0.079224  1
  Co  Co6  1  0.500000  0.646559  0.184746  1
  Co  Co7  1  0.500000  0.146559  0.815254  1
  P  P8  1  0.500000  0.263371  0.126791  1
  P  P9  1  0.500000  0.763371  0.873209  1
  P  P10  1  0.000000  0.735517  0.374656  1
  P  P11  1  0.000000  0.235517  0.625344  1
