# generated using pymatgen
data_K4InAuO5
_symmetry_space_group_name_H-M   'P 1'
_cell_length_a   6.31633500
_cell_length_b   6.31633524
_cell_length_c   10.91143200
_cell_angle_alpha   90.00000000
_cell_angle_beta   90.00000000
_cell_angle_gamma   114.73029160
_symmetry_Int_Tables_number   1
_chemical_formula_structural   K4InAuO5
_chemical_formula_sum   'K8 In2 Au2 O10'
_cell_volume   395.39870104
_cell_formula_units_Z   2
loop_
 _symmetry_equiv_pos_site_id
 _symmetry_equiv_pos_as_xyz
  1  'x, y, z'
loop_
 _atom_site_type_symbol
 _atom_site_label
 _atom_site_symmetry_multiplicity
 _atom_site_fract_x
 _atom_site_fract_y
 _atom_site_fract_z
 _atom_site_occupancy
  K  K0  1  0.380549  0.024978  0.250000  1
  K  K1  1  0.024978  0.380549  0.250000  1
  K  K2  1  0.657728  0.342272  0.000000  1
  K  K3  1  0.657728  0.342272  0.500000  1
  K  K4  1  0.342272  0.657728  0.000000  1
  K  K5  1  0.619451  0.975022  0.750000  1
  K  K6  1  0.342272  0.657728  0.500000  1
  K  K7  1  0.975022  0.619451  0.750000  1
  In  In8  1  0.759970  0.759970  0.250000  1
  In  In9  1  0.240030  0.240030  0.750000  1
  Au  Au10  1  0.000000  0.000000  0.000000  1
  Au  Au11  1  0.000000  0.000000  0.500000  1
  O  O12  1  0.998551  0.261270  0.609788  1
  O  O13  1  0.261270  0.998551  0.890212  1
  O  O14  1  0.738730  0.001449  0.390212  1
  O  O15  1  0.738730  0.001449  0.109788  1
  O  O16  1  0.459743  0.459743  0.250000  1
  O  O17  1  0.540257  0.540257  0.750000  1
  O  O18  1  0.001449  0.738730  0.390212  1
  O  O19  1  0.261270  0.998551  0.609788  1
  O  O20  1  0.001449  0.738730  0.109788  1
  O  O21  1  0.998551  0.261270  0.890212  1
