# generated using pymatgen
data_Sm6Mn(SiS7)2
_symmetry_space_group_name_H-M   'P 1'
_cell_length_a   10.10506500
_cell_length_b   10.10506439
_cell_length_c   5.68518300
_cell_angle_alpha   90.00000000
_cell_angle_beta   90.00000000
_cell_angle_gamma   120.00000528
_symmetry_Int_Tables_number   1
_chemical_formula_structural   Sm6Mn(SiS7)2
_chemical_formula_sum   'Sm6 Mn1 Si2 S14'
_cell_volume   502.75135967
_cell_formula_units_Z   1
loop_
 _symmetry_equiv_pos_site_id
 _symmetry_equiv_pos_as_xyz
  1  'x, y, z'
loop_
 _atom_site_type_symbol
 _atom_site_label
 _atom_site_symmetry_multiplicity
 _atom_site_fract_x
 _atom_site_fract_y
 _atom_site_fract_z
 _atom_site_occupancy
  Sm  Sm0  1  0.876752  0.233395  0.249201  1
  Sm  Sm1  1  0.766605  0.643358  0.249201  1
  Sm  Sm2  1  0.356642  0.123248  0.249201  1
  Sm  Sm3  1  0.123287  0.767178  0.752081  1
  Sm  Sm4  1  0.232822  0.356108  0.752081  1
  Sm  Sm5  1  0.643892  0.876713  0.752081  1
  Mn  Mn6  1  0.000000  0.000000  0.487908  1
  Si  Si7  1  0.666667  0.333333  0.834590  1
  Si  Si8  1  0.333333  0.666667  0.339275  1
  S  S9  1  0.666667  0.333333  0.464988  1
  S  S10  1  0.333333  0.666667  0.969283  1
  S  S11  1  0.914054  0.160646  0.725247  1
  S  S12  1  0.839354  0.753408  0.725247  1
  S  S13  1  0.246592  0.085946  0.725247  1
  S  S14  1  0.083698  0.837204  0.245085  1
  S  S15  1  0.162796  0.246494  0.245085  1
  S  S16  1  0.753506  0.916302  0.245085  1
  S  S17  1  0.589955  0.110923  0.982267  1
  S  S18  1  0.889077  0.479033  0.982267  1
  S  S19  1  0.520967  0.410045  0.982267  1
  S  S20  1  0.410705  0.889247  0.485990  1
  S  S21  1  0.110753  0.521458  0.485990  1
  S  S22  1  0.478542  0.589295  0.485990  1
