# generated using pymatgen
data_SmU(TcB4)2
_symmetry_space_group_name_H-M   'P 1'
_cell_length_a   3.62781500
_cell_length_b   5.97794671
_cell_length_c   11.54209336
_cell_angle_alpha   90.08710773
_cell_angle_beta   90.00000000
_cell_angle_gamma   90.00000000
_symmetry_Int_Tables_number   1
_chemical_formula_structural   SmU(TcB4)2
_chemical_formula_sum   'Sm2 U2 Tc4 B16'
_cell_volume   250.31175929
_cell_formula_units_Z   2
loop_
 _symmetry_equiv_pos_site_id
 _symmetry_equiv_pos_as_xyz
  1  'x, y, z'
loop_
 _atom_site_type_symbol
 _atom_site_label
 _atom_site_symmetry_multiplicity
 _atom_site_fract_x
 _atom_site_fract_y
 _atom_site_fract_z
 _atom_site_occupancy
  Sm  Sm0  1  0.000000  0.626655  0.649396  1
  Sm  Sm1  1  0.000000  0.373345  0.350604  1
  U  U2  1  0.000000  0.127297  0.849791  1
  U  U3  1  0.000000  0.872703  0.150209  1
  Tc  Tc4  1  0.000000  0.642110  0.910124  1
  Tc  Tc5  1  0.000000  0.357890  0.089876  1
  Tc  Tc6  1  0.000000  0.133321  0.592335  1
  Tc  Tc7  1  0.000000  0.866679  0.407665  1
  B  B8  1  0.500000  0.979351  0.693402  1
  B  B9  1  0.500000  0.020649  0.306598  1
  B  B10  1  0.500000  0.470951  0.810233  1
  B  B11  1  0.500000  0.529049  0.189767  1
  B  B12  1  0.500000  0.867765  0.968797  1
  B  B13  1  0.500000  0.132235  0.031203  1
  B  B14  1  0.500000  0.361500  0.531963  1
  B  B15  1  0.500000  0.638500  0.468037  1
  B  B16  1  0.500000  0.792336  0.815830  1
  B  B17  1  0.500000  0.207664  0.184170  1
  B  B18  1  0.500000  0.284985  0.688108  1
  B  B19  1  0.500000  0.715015  0.311892  1
  B  B20  1  0.500000  0.888331  0.545883  1
  B  B21  1  0.500000  0.111669  0.454117  1
  B  B22  1  0.500000  0.385690  0.953440  1
  B  B23  1  0.500000  0.614310  0.046560  1
