# generated using pymatgen
data_Ho14Lu6AlBi11
_symmetry_space_group_name_H-M   'P 1'
_cell_length_a   8.12183952
_cell_length_b   9.40192588
_cell_length_c   11.86397400
_cell_angle_alpha   89.97788470
_cell_angle_beta   89.70245260
_cell_angle_gamma   89.98879414
_symmetry_Int_Tables_number   1
_chemical_formula_structural   Ho14Lu6AlBi11
_chemical_formula_sum   'Ho14 Lu6 Al1 Bi11'
_cell_volume   905.93182470
_cell_formula_units_Z   1
loop_
 _symmetry_equiv_pos_site_id
 _symmetry_equiv_pos_as_xyz
  1  'x, y, z'
loop_
 _atom_site_type_symbol
 _atom_site_label
 _atom_site_symmetry_multiplicity
 _atom_site_fract_x
 _atom_site_fract_y
 _atom_site_fract_z
 _atom_site_occupancy
  Ho  Ho0  1  0.525733  0.250302  0.988696  1
  Ho  Ho1  1  0.353444  0.249834  0.292838  1
  Ho  Ho2  1  0.648990  0.750516  0.716466  1
  Ho  Ho3  1  0.149208  0.750203  0.782833  1
  Ho  Ho4  1  0.852844  0.250937  0.215035  1
  Ho  Ho5  1  0.191597  0.249797  0.776574  1
  Ho  Ho6  1  0.810686  0.750073  0.218101  1
  Ho  Ho7  1  0.313222  0.750764  0.281177  1
  Ho  Ho8  1  0.678189  0.250248  0.713679  1
  Ho  Ho9  1  0.809123  0.563852  0.941377  1
  Ho  Ho10  1  0.686050  0.069452  0.445151  1
  Ho  Ho11  1  0.191113  0.436155  0.059458  1
  Ho  Ho12  1  0.684656  0.430234  0.445386  1
  Ho  Ho13  1  0.308203  0.551782  0.558120  1
  Lu  Lu14  1  0.035054  0.250000  0.510148  1
  Lu  Lu15  1  0.979488  0.749968  0.489757  1
  Lu  Lu16  1  0.476895  0.750013  0.010484  1
  Lu  Lu17  1  0.194252  0.066873  0.061068  1
  Lu  Lu18  1  0.805985  0.933374  0.940467  1
  Lu  Lu19  1  0.306966  0.946313  0.558311  1
  Al  Al20  1  0.405153  0.247142  0.541787  1
  Bi  Bi21  1  0.595243  0.750545  0.457771  1
  Bi  Bi22  1  0.096070  0.754274  0.042973  1
  Bi  Bi23  1  0.908593  0.245622  0.954498  1
  Bi  Bi24  1  0.061923  0.003061  0.325404  1
  Bi  Bi25  1  0.936100  0.997119  0.673929  1
  Bi  Bi26  1  0.435307  0.995439  0.825358  1
  Bi  Bi27  1  0.935069  0.503321  0.673766  1
  Bi  Bi28  1  0.563082  0.003704  0.173750  1
  Bi  Bi29  1  0.063213  0.497629  0.325988  1
  Bi  Bi30  1  0.563695  0.496603  0.173943  1
  Bi  Bi31  1  0.434856  0.504848  0.825704  1
