# generated using pymatgen
data_Tb16Tm4Si15As
_symmetry_space_group_name_H-M   'P 1'
_cell_length_a   7.44820186
_cell_length_b   7.60535173
_cell_length_c   14.53777400
_cell_angle_alpha   89.87679519
_cell_angle_beta   85.99356329
_cell_angle_gamma   89.98016415
_symmetry_Int_Tables_number   1
_chemical_formula_structural   Tb16Tm4Si15As
_chemical_formula_sum   'Tb16 Tm4 Si15 As1'
_cell_volume   821.49517777
_cell_formula_units_Z   1
loop_
 _symmetry_equiv_pos_site_id
 _symmetry_equiv_pos_as_xyz
  1  'x, y, z'
loop_
 _atom_site_type_symbol
 _atom_site_label
 _atom_site_symmetry_multiplicity
 _atom_site_fract_x
 _atom_site_fract_y
 _atom_site_fract_z
 _atom_site_occupancy
  Tb  Tb0  1  0.006690  0.823070  0.100976  1
  Tb  Tb1  1  0.474804  0.684528  0.398811  1
  Tb  Tb2  1  0.491350  0.317724  0.899358  1
  Tb  Tb3  1  0.025018  0.183724  0.601365  1
  Tb  Tb4  1  0.996022  0.178722  0.899719  1
  Tb  Tb5  1  0.524406  0.315390  0.601027  1
  Tb  Tb6  1  0.503313  0.683605  0.100919  1
  Tb  Tb7  1  0.974524  0.814823  0.399023  1
  Tb  Tb8  1  0.641788  0.836772  0.880273  1
  Tb  Tb9  1  0.175685  0.676266  0.622429  1
  Tb  Tb10  1  0.858552  0.335720  0.118149  1
  Tb  Tb11  1  0.324992  0.177078  0.378063  1
  Tb  Tb12  1  0.357564  0.164924  0.119579  1
  Tb  Tb13  1  0.824886  0.323351  0.378070  1
  Tb  Tb14  1  0.143398  0.664752  0.881733  1
  Tb  Tb15  1  0.675352  0.822954  0.622530  1
  Tm  Tm16  1  0.670994  0.994784  0.246174  1
  Tm  Tm17  1  0.170175  0.505684  0.245748  1
  Tm  Tm18  1  0.830027  0.493971  0.751244  1
  Tm  Tm19  1  0.328745  0.005149  0.753330  1
  Si  Si20  1  0.785190  0.630043  0.251276  1
  Si  Si21  1  0.284567  0.870218  0.251918  1
  Si  Si22  1  0.713782  0.131108  0.748641  1
  Si  Si23  1  0.213407  0.369190  0.748963  1
  Si  Si24  1  0.043070  0.107426  0.251686  1
  Si  Si25  1  0.544034  0.393649  0.250874  1
  Si  Si26  1  0.457058  0.606492  0.749688  1
  Si  Si27  1  0.957141  0.892191  0.749285  1
  Si  Si28  1  0.355966  0.971705  0.542538  1
  Si  Si29  1  0.705969  0.033774  0.042932  1
  Si  Si30  1  0.145018  0.471477  0.458268  1
  Si  Si31  1  0.210569  0.467606  0.044124  1
  Si  Si32  1  0.644727  0.027600  0.457764  1
  Si  Si33  1  0.295564  0.966116  0.956317  1
  Si  Si34  1  0.855614  0.527256  0.542640  1
  As  As35  1  0.790036  0.531154  0.954565  1
