# generated using pymatgen
data_Ba12SnRh3I8
_symmetry_space_group_name_H-M   'P 1'
_cell_length_a   16.18943878
_cell_length_b   15.44207413
_cell_length_c   8.63015952
_cell_angle_alpha   79.00393432
_cell_angle_beta   69.44312274
_cell_angle_gamma   32.40305561
_symmetry_Int_Tables_number   1
_chemical_formula_structural   Ba12SnRh3I8
_chemical_formula_sum   'Ba12 Sn1 Rh3 I8'
_cell_volume   1058.23427254
_cell_formula_units_Z   1
loop_
 _symmetry_equiv_pos_site_id
 _symmetry_equiv_pos_as_xyz
  1  'x, y, z'
loop_
 _atom_site_type_symbol
 _atom_site_label
 _atom_site_symmetry_multiplicity
 _atom_site_fract_x
 _atom_site_fract_y
 _atom_site_fract_z
 _atom_site_occupancy
  Ba  Ba0  1  0.039150  0.443655  0.461275  1
  Ba  Ba1  1  0.800675  0.204881  0.195952  1
  Ba  Ba2  1  0.079571  0.609529  0.938036  1
  Ba  Ba3  1  0.886470  0.296791  0.659856  1
  Ba  Ba4  1  0.609529  0.079571  0.372865  1
  Ba  Ba5  1  0.142722  0.682527  0.299359  1
  Ba  Ba6  1  0.296791  0.886470  0.156882  1
  Ba  Ba7  1  0.361412  0.950790  0.598666  1
  Ba  Ba8  1  0.204881  0.800675  0.798492  1
  Ba  Ba9  1  0.443655  0.039150  0.055919  1
  Ba  Ba10  1  0.950790  0.361412  0.089132  1
  Ba  Ba11  1  0.682527  0.142722  0.875392  1
  Sn  Sn12  1  0.334068  0.334068  0.165932  1
  Rh  Rh13  1  0.164517  0.164517  0.335483  1
  Rh  Rh14  1  0.084069  0.084069  0.915931  1
  Rh  Rh15  1  0.916954  0.916954  0.083046  1
  I  I16  1  0.578021  0.578021  0.421979  1
  I  I17  1  0.670477  0.670477  0.829523  1
  I  I18  1  0.255221  0.255221  0.744779  1
  I  I19  1  0.423595  0.423595  0.576405  1
  I  I20  1  0.996990  0.996990  0.503010  1
  I  I21  1  0.744983  0.744983  0.255017  1
  I  I22  1  0.827582  0.827582  0.672418  1
  I  I23  1  0.505349  0.505349  0.994651  1
