# generated using pymatgen
data_NdEu3PtRh3O14
_symmetry_space_group_name_H-M   'P 1'
_cell_length_a   7.40890530
_cell_length_b   7.41094869
_cell_length_c   7.40890500
_cell_angle_alpha   60.00911741
_cell_angle_beta   59.99999687
_cell_angle_gamma   60.00911587
_symmetry_Int_Tables_number   1
_chemical_formula_structural   NdEu3PtRh3O14
_chemical_formula_sum   'Nd1 Eu3 Pt1 Rh3 O14'
_cell_volume   287.69128054
_cell_formula_units_Z   1
loop_
 _symmetry_equiv_pos_site_id
 _symmetry_equiv_pos_as_xyz
  1  'x, y, z'
loop_
 _atom_site_type_symbol
 _atom_site_label
 _atom_site_symmetry_multiplicity
 _atom_site_fract_x
 _atom_site_fract_y
 _atom_site_fract_z
 _atom_site_occupancy
  Nd  Nd0  1  0.625000  0.125000  0.625000  1
  Eu  Eu1  1  0.625000  0.625000  0.125000  1
  Eu  Eu2  1  0.125000  0.625000  0.625000  1
  Eu  Eu3  1  0.625000  0.625000  0.625000  1
  Pt  Pt4  1  0.125000  0.625000  0.125000  1
  Rh  Rh5  1  0.125000  0.125000  0.625000  1
  Rh  Rh6  1  0.625000  0.125000  0.125000  1
  Rh  Rh7  1  0.125000  0.125000  0.125000  1
  O  O8  1  0.499361  0.501918  0.499361  1
  O  O9  1  0.750639  0.748082  0.750639  1
  O  O10  1  0.456012  0.044641  0.456012  1
  O  O11  1  0.208618  0.791271  0.208618  1
  O  O12  1  0.458508  0.458729  0.041382  1
  O  O13  1  0.041382  0.458729  0.458508  1
  O  O14  1  0.456012  0.044641  0.043333  1
  O  O15  1  0.043333  0.044641  0.456012  1
  O  O16  1  0.041382  0.458729  0.041382  1
  O  O17  1  0.793988  0.205359  0.206667  1
  O  O18  1  0.208618  0.791271  0.791492  1
  O  O19  1  0.793988  0.205359  0.793988  1
  O  O20  1  0.206667  0.205359  0.793988  1
  O  O21  1  0.791492  0.791271  0.208618  1
