# generated using pymatgen
data_Mg4As6Ir4Ru2Rh
_symmetry_space_group_name_H-M   'P 1'
_cell_length_a   7.06082158
_cell_length_b   7.05787095
_cell_length_c   7.05787289
_cell_angle_alpha   109.45469639
_cell_angle_beta   109.67551235
_cell_angle_gamma   109.26682874
_symmetry_Int_Tables_number   1
_chemical_formula_structural   Mg4As6Ir4Ru2Rh
_chemical_formula_sum   'Mg4 As6 Ir4 Ru2 Rh1'
_cell_volume   270.81069434
_cell_formula_units_Z   1
loop_
 _symmetry_equiv_pos_site_id
 _symmetry_equiv_pos_as_xyz
  1  'x, y, z'
loop_
 _atom_site_type_symbol
 _atom_site_label
 _atom_site_symmetry_multiplicity
 _atom_site_fract_x
 _atom_site_fract_y
 _atom_site_fract_z
 _atom_site_occupancy
  Mg  Mg0  1  0.999916  0.999709  0.499818  1
  Mg  Mg1  1  0.499961  0.999947  0.999912  1
  Mg  Mg2  1  0.999916  0.500098  0.000208  1
  Mg  Mg3  1  0.499961  0.500049  0.500014  1
  As  As4  1  0.684896  0.688901  0.995995  1
  As  As5  1  0.307114  0.311185  0.995929  1
  As  As6  1  0.004185  0.688714  0.692037  1
  As  As7  1  0.004185  0.312148  0.315471  1
  As  As8  1  0.688964  0.999361  0.689603  1
  As  As9  1  0.310063  0.999538  0.310525  1
  Ir  Ir10  1  0.748807  0.249681  0.499127  1
  Ir  Ir11  1  0.501752  0.249833  0.750443  1
  Ir  Ir12  1  0.501754  0.751311  0.251922  1
  Ir  Ir13  1  0.749684  0.499802  0.249884  1
  Ru  Ru14  1  0.999858  0.999889  0.999967  1
  Ru  Ru15  1  0.249643  0.499469  0.750173  1
  Rh  Rh16  1  0.249340  0.750364  0.498975  1
