# generated using pymatgen
data_Ho5Tm7(TcRu)2
_symmetry_space_group_name_H-M   'P 1'
_cell_length_a   6.24039890
_cell_length_b   7.32272431
_cell_length_c   9.01363506
_cell_angle_alpha   89.98573575
_cell_angle_beta   89.94645543
_cell_angle_gamma   89.96961294
_symmetry_Int_Tables_number   1
_chemical_formula_structural   Ho5Tm7(TcRu)2
_chemical_formula_sum   'Ho5 Tm7 Tc2 Ru2'
_cell_volume   411.89331357
_cell_formula_units_Z   1
loop_
 _symmetry_equiv_pos_site_id
 _symmetry_equiv_pos_as_xyz
  1  'x, y, z'
loop_
 _atom_site_type_symbol
 _atom_site_label
 _atom_site_symmetry_multiplicity
 _atom_site_fract_x
 _atom_site_fract_y
 _atom_site_fract_z
 _atom_site_occupancy
  Ho  Ho0  1  0.165631  0.176268  0.063462  1
  Ho  Ho1  1  0.875034  0.539508  0.250225  1
  Ho  Ho2  1  0.624901  0.039069  0.250282  1
  Ho  Ho3  1  0.131009  0.457399  0.749753  1
  Ho  Ho4  1  0.369047  0.956913  0.749707  1
  Tm  Tm5  1  0.334774  0.676066  0.063634  1
  Tm  Tm6  1  0.165588  0.176044  0.436836  1
  Tm  Tm7  1  0.663757  0.324488  0.562597  1
  Tm  Tm8  1  0.835836  0.824218  0.937200  1
  Tm  Tm9  1  0.663833  0.324656  0.937200  1
  Tm  Tm10  1  0.836222  0.824567  0.562610  1
  Tm  Tm11  1  0.334554  0.676150  0.436420  1
  Tc  Tc12  1  0.038335  0.885601  0.250217  1
  Tc  Tc13  1  0.461821  0.386319  0.250332  1
  Ru  Ru14  1  0.959572  0.116357  0.749438  1
  Ru  Ru15  1  0.540087  0.616377  0.750085  1
