# generated using pymatgen
data_Er4Ga20Pd11
_symmetry_space_group_name_H-M   'P 1'
_cell_length_a   4.15758841
_cell_length_b   10.98089988
_cell_length_c   13.69832093
_cell_angle_alpha   82.06293787
_cell_angle_beta   81.27133125
_cell_angle_gamma   79.08748103
_symmetry_Int_Tables_number   1
_chemical_formula_structural   Er4Ga20Pd11
_chemical_formula_sum   'Er4 Ga20 Pd11'
_cell_volume   603.09800926
_cell_formula_units_Z   1
loop_
 _symmetry_equiv_pos_site_id
 _symmetry_equiv_pos_as_xyz
  1  'x, y, z'
loop_
 _atom_site_type_symbol
 _atom_site_label
 _atom_site_symmetry_multiplicity
 _atom_site_fract_x
 _atom_site_fract_y
 _atom_site_fract_z
 _atom_site_occupancy
  Er  Er0  1  0.876316  0.913290  0.334076  1
  Er  Er1  1  0.123684  0.086710  0.665924  1
  Er  Er2  1  0.225977  0.368523  0.179522  1
  Er  Er3  1  0.774023  0.631477  0.820478  1
  Ga  Ga4  1  0.991893  0.928877  0.087336  1
  Ga  Ga5  1  0.008107  0.071123  0.912664  1
  Ga  Ga6  1  0.933779  0.326049  0.806394  1
  Ga  Ga7  1  0.066221  0.673951  0.193606  1
  Ga  Ga8  1  0.898321  0.658088  0.545269  1
  Ga  Ga9  1  0.101679  0.341912  0.454731  1
  Ga  Ga10  1  0.796699  0.398111  0.008492  1
  Ga  Ga11  1  0.203301  0.601889  0.991508  1
  Ga  Ga12  1  0.739887  0.219267  0.300958  1
  Ga  Ga13  1  0.260113  0.780733  0.699042  1
  Ga  Ga14  1  0.697495  0.100048  0.504961  1
  Ga  Ga15  1  0.302505  0.899952  0.495039  1
  Ga  Ga16  1  0.612195  0.475867  0.299743  1
  Ga  Ga17  1  0.387805  0.524133  0.700257  1
  Ga  Ga18  1  0.603654  0.795039  0.997652  1
  Ga  Ga19  1  0.396346  0.204961  0.002348  1
  Ga  Ga20  1  0.456451  0.716565  0.370534  1
  Ga  Ga21  1  0.543549  0.283435  0.629466  1
  Ga  Ga22  1  0.362316  0.067096  0.208272  1
  Ga  Ga23  1  0.637684  0.932904  0.791728  1
  Pd  Pd24  1  0.500000  0.500000  0.500000  1
  Pd  Pd25  1  0.972661  0.425553  0.629127  1
  Pd  Pd26  1  0.027339  0.574447  0.370873  1
  Pd  Pd27  1  0.860781  0.166151  0.112289  1
  Pd  Pd28  1  0.139219  0.833849  0.887711  1
  Pd  Pd29  1  0.760648  0.871727  0.606979  1
  Pd  Pd30  1  0.239352  0.128273  0.393021  1
  Pd  Pd31  1  0.653181  0.583973  0.109667  1
  Pd  Pd32  1  0.346819  0.416027  0.890333  1
  Pd  Pd33  1  0.494442  0.830051  0.181064  1
  Pd  Pd34  1  0.505558  0.169949  0.818936  1
