# generated using pymatgen
data_Dy9ErCd3Ru
_symmetry_space_group_name_H-M   'P 1'
_cell_length_a   9.57638100
_cell_length_b   9.57638192
_cell_length_c   9.85435100
_cell_angle_alpha   90.00000000
_cell_angle_beta   90.00000000
_cell_angle_gamma   120.00000026
_symmetry_Int_Tables_number   1
_chemical_formula_structural   Dy9ErCd3Ru
_chemical_formula_sum   'Dy18 Er2 Cd6 Ru2'
_cell_volume   782.63908415
_cell_formula_units_Z   2
loop_
 _symmetry_equiv_pos_site_id
 _symmetry_equiv_pos_as_xyz
  1  'x, y, z'
loop_
 _atom_site_type_symbol
 _atom_site_label
 _atom_site_symmetry_multiplicity
 _atom_site_fract_x
 _atom_site_fract_y
 _atom_site_fract_z
 _atom_site_occupancy
  Dy  Dy0  1  0.209740  0.790260  0.440566  1
  Dy  Dy1  1  0.209740  0.419481  0.440566  1
  Dy  Dy2  1  0.580519  0.790260  0.440566  1
  Dy  Dy3  1  0.790260  0.209740  0.559434  1
  Dy  Dy4  1  0.790260  0.580519  0.559434  1
  Dy  Dy5  1  0.419481  0.209740  0.559434  1
  Dy  Dy6  1  0.790260  0.209740  0.940566  1
  Dy  Dy7  1  0.790260  0.580519  0.940566  1
  Dy  Dy8  1  0.419481  0.209740  0.940566  1
  Dy  Dy9  1  0.209740  0.790260  0.059434  1
  Dy  Dy10  1  0.209740  0.419481  0.059434  1
  Dy  Dy11  1  0.580519  0.790260  0.059434  1
  Dy  Dy12  1  0.541138  0.458862  0.250000  1
  Dy  Dy13  1  0.541138  0.082277  0.250000  1
  Dy  Dy14  1  0.917723  0.458862  0.250000  1
  Dy  Dy15  1  0.458862  0.541138  0.750000  1
  Dy  Dy16  1  0.458862  0.917723  0.750000  1
  Dy  Dy17  1  0.082277  0.541138  0.750000  1
  Er  Er18  1  0.000000  0.000000  0.500000  1
  Er  Er19  1  0.000000  0.000000  0.000000  1
  Cd  Cd20  1  0.885696  0.114304  0.250000  1
  Cd  Cd21  1  0.885696  0.771394  0.250000  1
  Cd  Cd22  1  0.228606  0.114304  0.250000  1
  Cd  Cd23  1  0.114304  0.885696  0.750000  1
  Cd  Cd24  1  0.114304  0.228606  0.750000  1
  Cd  Cd25  1  0.771394  0.885696  0.750000  1
  Ru  Ru26  1  0.333333  0.666667  0.250000  1
  Ru  Ru27  1  0.666667  0.333333  0.750000  1
