# generated using pymatgen
data_LiPrAgPt3
_symmetry_space_group_name_H-M   'P 1'
_cell_length_a   5.48912578
_cell_length_b   5.48912673
_cell_length_c   5.24362207
_cell_angle_alpha   58.43876895
_cell_angle_beta   58.43875615
_cell_angle_gamma   60.00000418
_symmetry_Int_Tables_number   1
_chemical_formula_structural   LiPrAgPt3
_chemical_formula_sum   'Li1 Pr1 Ag1 Pt3'
_cell_volume   109.00857598
_cell_formula_units_Z   1
loop_
 _symmetry_equiv_pos_site_id
 _symmetry_equiv_pos_as_xyz
  1  'x, y, z'
loop_
 _atom_site_type_symbol
 _atom_site_label
 _atom_site_symmetry_multiplicity
 _atom_site_fract_x
 _atom_site_fract_y
 _atom_site_fract_z
 _atom_site_occupancy
  Li  Li0  1  0.620862  0.620862  0.137415  1
  Pr  Pr1  1  0.005054  0.005054  0.984838  1
  Ag  Ag2  1  0.255279  0.255279  0.234165  1
  Pt  Pt3  1  0.622322  0.124163  0.631194  1
  Pt  Pt4  1  0.124163  0.622322  0.631194  1
  Pt  Pt5  1  0.622322  0.622322  0.631194  1
