# generated using pymatgen
data_Nd2B4IrOsRu2
_symmetry_space_group_name_H-M   'P 1'
_cell_length_a   6.86617046
_cell_length_b   6.03943495
_cell_length_c   5.61745949
_cell_angle_alpha   72.07212023
_cell_angle_beta   56.81254522
_cell_angle_gamma   51.22888646
_symmetry_Int_Tables_number   1
_chemical_formula_structural   Nd2B4IrOsRu2
_chemical_formula_sum   'Nd2 B4 Ir1 Os1 Ru2'
_cell_volume   151.77276650
_cell_formula_units_Z   1
loop_
 _symmetry_equiv_pos_site_id
 _symmetry_equiv_pos_as_xyz
  1  'x, y, z'
loop_
 _atom_site_type_symbol
 _atom_site_label
 _atom_site_symmetry_multiplicity
 _atom_site_fract_x
 _atom_site_fract_y
 _atom_site_fract_z
 _atom_site_occupancy
  Nd  Nd0  1  0.499591  0.499591  0.500409  1
  Nd  Nd1  1  0.746743  0.746743  0.753257  1
  B  B2  1  0.171773  0.823383  0.186289  1
  B  B3  1  0.070384  0.435082  0.060596  1
  B  B4  1  0.823383  0.171773  0.818555  1
  B  B5  1  0.435082  0.070384  0.433937  1
  Ir  Ir6  1  0.116250  0.116250  0.383750  1
  Os  Os7  1  0.864484  0.864484  0.135516  1
  Ru  Ru8  1  0.136091  0.136091  0.863909  1
  Ru  Ru9  1  0.386219  0.386219  0.113781  1
