# generated using pymatgen
data_TbNp3Al10Ga2Pd
_symmetry_space_group_name_H-M   'P 1'
_cell_length_a   7.48017529
_cell_length_b   7.51036183
_cell_length_c   7.48017658
_cell_angle_alpha   109.38237183
_cell_angle_beta   109.73990152
_cell_angle_gamma   109.38237963
_symmetry_Int_Tables_number   1
_chemical_formula_structural   TbNp3Al10Ga2Pd
_chemical_formula_sum   'Tb1 Np3 Al10 Ga2 Pd1'
_cell_volume   323.12436964
_cell_formula_units_Z   1
loop_
 _symmetry_equiv_pos_site_id
 _symmetry_equiv_pos_as_xyz
  1  'x, y, z'
loop_
 _atom_site_type_symbol
 _atom_site_label
 _atom_site_symmetry_multiplicity
 _atom_site_fract_x
 _atom_site_fract_y
 _atom_site_fract_z
 _atom_site_occupancy
  Tb  Tb0  1  0.001538  0.493481  0.001538  1
  Np  Np1  1  0.501020  0.002719  0.001233  1
  Np  Np2  1  0.001233  0.002719  0.501020  1
  Np  Np3  1  0.494171  0.495113  0.494171  1
  Al  Al4  1  0.291870  0.998812  0.291870  1
  Al  Al5  1  0.499173  0.249931  0.747979  1
  Al  Al6  1  0.997717  0.710254  0.709349  1
  Al  Al7  1  0.702831  0.990316  0.702831  1
  Al  Al8  1  0.750900  0.503824  0.252791  1
  Al  Al9  1  0.249760  0.751682  0.504332  1
  Al  Al10  1  0.747979  0.249931  0.499173  1
  Al  Al11  1  0.709349  0.710254  0.997717  1
  Al  Al12  1  0.252791  0.503824  0.750900  1
  Al  Al13  1  0.504332  0.751682  0.249760  1
  Ga  Ga14  1  0.298197  0.292856  0.997355  1
  Ga  Ga15  1  0.997355  0.292856  0.298197  1
  Pd  Pd16  1  0.999783  0.999747  0.999783  1
