# generated using pymatgen
data_Ac2Pa(GaIr)3
_symmetry_space_group_name_H-M   'P 1'
_cell_length_a   7.67238197
_cell_length_b   7.67238326
_cell_length_c   4.01832200
_cell_angle_alpha   90.00000000
_cell_angle_beta   90.00000000
_cell_angle_gamma   122.07498169
_symmetry_Int_Tables_number   1
_chemical_formula_structural   Ac2Pa(GaIr)3
_chemical_formula_sum   'Ac2 Pa1 Ga3 Ir3'
_cell_volume   200.43338486
_cell_formula_units_Z   1
loop_
 _symmetry_equiv_pos_site_id
 _symmetry_equiv_pos_as_xyz
  1  'x, y, z'
loop_
 _atom_site_type_symbol
 _atom_site_label
 _atom_site_symmetry_multiplicity
 _atom_site_fract_x
 _atom_site_fract_y
 _atom_site_fract_z
 _atom_site_occupancy
  Ac  Ac0  1  0.417378  0.000719  0.000000  1
  Ac  Ac1  1  0.000719  0.417378  0.000000  1
  Pa  Pa2  1  0.582157  0.582157  0.000000  1
  Ga  Ga3  1  0.982306  0.765496  0.500000  1
  Ga  Ga4  1  0.233987  0.233987  0.500000  1
  Ga  Ga5  1  0.765496  0.982306  0.500000  1
  Ir  Ir6  1  0.982503  0.982503  0.000000  1
  Ir  Ir7  1  0.654831  0.380623  0.500000  1
  Ir  Ir8  1  0.380623  0.654831  0.500000  1
