# generated using pymatgen
data_La3PrSm2Ta2O14
_symmetry_space_group_name_H-M   'P 1'
_cell_length_a   6.70380749
_cell_length_b   6.71838507
_cell_length_c   7.76214500
_cell_angle_alpha   90.00000000
_cell_angle_beta   90.00000000
_cell_angle_gamma   108.79176724
_symmetry_Int_Tables_number   1
_chemical_formula_structural   La3PrSm2Ta2O14
_chemical_formula_sum   'La3 Pr1 Sm2 Ta2 O14'
_cell_volume   330.96229302
_cell_formula_units_Z   1
loop_
 _symmetry_equiv_pos_site_id
 _symmetry_equiv_pos_as_xyz
  1  'x, y, z'
loop_
 _atom_site_type_symbol
 _atom_site_label
 _atom_site_symmetry_multiplicity
 _atom_site_fract_x
 _atom_site_fract_y
 _atom_site_fract_z
 _atom_site_occupancy
  La  La0  1  0.474650  0.474470  0.500724  1
  La  La1  1  0.474650  0.474470  0.999276  1
  La  La2  1  0.994579  0.533304  0.250000  1
  Pr  Pr3  1  0.537144  0.995046  0.750000  1
  Sm  Sm4  1  0.466887  0.996390  0.250000  1
  Sm  Sm5  1  0.996743  0.466941  0.750000  1
  Ta  Ta6  1  0.999539  0.998930  0.500316  1
  Ta  Ta7  1  0.999539  0.998930  0.999684  1
  O  O8  1  0.696643  0.947429  0.463599  1
  O  O9  1  0.947051  0.697950  0.537819  1
  O  O10  1  0.696643  0.947429  0.036401  1
  O  O11  1  0.947051  0.697950  0.962181  1
  O  O12  1  0.318334  0.072099  0.524383  1
  O  O13  1  0.074101  0.318561  0.477884  1
  O  O14  1  0.318334  0.072099  0.975617  1
  O  O15  1  0.074101  0.318561  0.022116  1
  O  O16  1  0.943120  0.058013  0.750000  1
  O  O17  1  0.057815  0.947252  0.250000  1
  O  O18  1  0.361732  0.624895  0.750000  1
  O  O19  1  0.622768  0.360491  0.250000  1
  O  O20  1  0.637880  0.361411  0.750000  1
  O  O21  1  0.360697  0.637377  0.250000  1
