# generated using pymatgen
data_Er10Tm10CoBi8Ir3
_symmetry_space_group_name_H-M   'P 1'
_cell_length_a   7.89660025
_cell_length_b   8.94892300
_cell_length_c   12.39932417
_cell_angle_alpha   90.00000000
_cell_angle_beta   90.20572691
_cell_angle_gamma   90.00000000
_symmetry_Int_Tables_number   1
_chemical_formula_structural   Er10Tm10CoBi8Ir3
_chemical_formula_sum   'Er10 Tm10 Co1 Bi8 Ir3'
_cell_volume   876.20583224
_cell_formula_units_Z   1
loop_
 _symmetry_equiv_pos_site_id
 _symmetry_equiv_pos_as_xyz
  1  'x, y, z'
loop_
 _atom_site_type_symbol
 _atom_site_label
 _atom_site_symmetry_multiplicity
 _atom_site_fract_x
 _atom_site_fract_y
 _atom_site_fract_z
 _atom_site_occupancy
  Er  Er0  1  0.657146  0.750000  0.699876  1
  Er  Er1  1  0.839334  0.750000  0.206948  1
  Er  Er2  1  0.122959  0.750000  0.808249  1
  Er  Er3  1  0.875393  0.250000  0.191335  1
  Er  Er4  1  0.624139  0.250000  0.691361  1
  Er  Er5  1  0.380971  0.750000  0.314697  1
  Er  Er6  1  0.556565  0.750000  0.997491  1
  Er  Er7  1  0.446070  0.250000  0.001216  1
  Er  Er8  1  0.055805  0.250000  0.501410  1
  Er  Er9  1  0.946191  0.750000  0.498422  1
  Tm  Tm10  1  0.339095  0.250000  0.293083  1
  Tm  Tm11  1  0.160676  0.250000  0.793301  1
  Tm  Tm12  1  0.826676  0.456966  0.933207  1
  Tm  Tm13  1  0.174744  0.542077  0.066627  1
  Tm  Tm14  1  0.326294  0.544022  0.565394  1
  Tm  Tm15  1  0.174744  0.957923  0.066627  1
  Tm  Tm16  1  0.671883  0.464215  0.435852  1
  Tm  Tm17  1  0.826676  0.043034  0.933207  1
  Tm  Tm18  1  0.671883  0.035785  0.435852  1
  Tm  Tm19  1  0.326294  0.955978  0.565394  1
  Co  Co20  1  0.567500  0.750000  0.492356  1
  Bi  Bi21  1  0.932943  0.009136  0.672137  1
  Bi  Bi22  1  0.066390  0.990975  0.327685  1
  Bi  Bi23  1  0.433944  0.990667  0.826556  1
  Bi  Bi24  1  0.066390  0.509025  0.327685  1
  Bi  Bi25  1  0.565347  0.008363  0.173617  1
  Bi  Bi26  1  0.932943  0.490864  0.672137  1
  Bi  Bi27  1  0.565347  0.491637  0.173617  1
  Bi  Bi28  1  0.433944  0.509333  0.826556  1
  Ir  Ir29  1  0.929269  0.750000  0.991816  1
  Ir  Ir30  1  0.072568  0.250000  0.008600  1
  Ir  Ir31  1  0.429877  0.250000  0.507684  1
