# generated using pymatgen
data_Ca3Tb(TcB4)4
_symmetry_space_group_name_H-M   'P 1'
_cell_length_a   3.57728700
_cell_length_b   6.00477107
_cell_length_c   11.60907910
_cell_angle_alpha   89.99852475
_cell_angle_beta   90.00000000
_cell_angle_gamma   90.00000000
_symmetry_Int_Tables_number   1
_chemical_formula_structural   Ca3Tb(TcB4)4
_chemical_formula_sum   'Ca3 Tb1 Tc4 B16'
_cell_volume   249.37218423
_cell_formula_units_Z   1
loop_
 _symmetry_equiv_pos_site_id
 _symmetry_equiv_pos_as_xyz
  1  'x, y, z'
loop_
 _atom_site_type_symbol
 _atom_site_label
 _atom_site_symmetry_multiplicity
 _atom_site_fract_x
 _atom_site_fract_y
 _atom_site_fract_z
 _atom_site_occupancy
  Ca  Ca0  1  0.000000  0.627396  0.349796  1
  Ca  Ca1  1  0.000000  0.373210  0.649261  1
  Ca  Ca2  1  0.000000  0.127589  0.151592  1
  Tb  Tb3  1  0.000000  0.871775  0.849077  1
  Tc  Tc4  1  0.000000  0.630684  0.082476  1
  Tc  Tc5  1  0.000000  0.371060  0.915799  1
  Tc  Tc6  1  0.000000  0.130016  0.417282  1
  Tc  Tc7  1  0.000000  0.871254  0.583554  1
  B  B8  1  0.500000  0.783908  0.185092  1
  B  B9  1  0.500000  0.215317  0.815377  1
  B  B10  1  0.500000  0.284740  0.315370  1
  B  B11  1  0.500000  0.715057  0.684565  1
  B  B12  1  0.500000  0.864130  0.031915  1
  B  B13  1  0.500000  0.135661  0.968152  1
  B  B14  1  0.500000  0.364991  0.467791  1
  B  B15  1  0.500000  0.634734  0.532118  1
  B  B16  1  0.500000  0.886045  0.453105  1
  B  B17  1  0.500000  0.113326  0.547502  1
  B  B18  1  0.500000  0.385870  0.047445  1
  B  B19  1  0.500000  0.611757  0.952742  1
  B  B20  1  0.500000  0.977157  0.307582  1
  B  B21  1  0.500000  0.023347  0.692355  1
  B  B22  1  0.500000  0.477318  0.192483  1
  B  B23  1  0.500000  0.523659  0.807567  1
