# generated using pymatgen
data_CaTmNiRh3
_symmetry_space_group_name_H-M   'P 1'
_cell_length_a   5.35325803
_cell_length_b   5.35325846
_cell_length_c   5.17174510
_cell_angle_alpha   58.83204221
_cell_angle_beta   58.83203515
_cell_angle_gamma   60.00000345
_symmetry_Int_Tables_number   1
_chemical_formula_structural   CaTmNiRh3
_chemical_formula_sum   'Ca1 Tm1 Ni1 Rh3'
_cell_volume   102.91096102
_cell_formula_units_Z   1
loop_
 _symmetry_equiv_pos_site_id
 _symmetry_equiv_pos_as_xyz
  1  'x, y, z'
loop_
 _atom_site_type_symbol
 _atom_site_label
 _atom_site_symmetry_multiplicity
 _atom_site_fract_x
 _atom_site_fract_y
 _atom_site_fract_z
 _atom_site_occupancy
  Ca  Ca0  1  0.751236  0.751236  0.746293  1
  Tm  Tm1  1  0.498627  0.498627  0.504117  1
  Ni  Ni2  1  0.125110  0.125110  0.624671  1
  Rh  Rh3  1  0.125150  0.624727  0.124973  1
  Rh  Rh4  1  0.125150  0.125150  0.124973  1
  Rh  Rh5  1  0.624727  0.125150  0.124973  1
