# generated using pymatgen
data_K4Ba2TiBi4
_symmetry_space_group_name_H-M   'P 1'
_cell_length_a   11.26885314
_cell_length_b   11.26885359
_cell_length_c   8.73554649
_cell_angle_alpha   89.06707289
_cell_angle_beta   89.06707029
_cell_angle_gamma   119.63733106
_symmetry_Int_Tables_number   1
_chemical_formula_structural   K4Ba2TiBi4
_chemical_formula_sum   'K8 Ba4 Ti2 Bi8'
_cell_volume   963.66888717
_cell_formula_units_Z   2
loop_
 _symmetry_equiv_pos_site_id
 _symmetry_equiv_pos_as_xyz
  1  'x, y, z'
loop_
 _atom_site_type_symbol
 _atom_site_label
 _atom_site_symmetry_multiplicity
 _atom_site_fract_x
 _atom_site_fract_y
 _atom_site_fract_z
 _atom_site_occupancy
  K  K0  1  0.051164  0.524425  0.620668  1
  K  K1  1  0.524425  0.051164  0.120668  1
  K  K2  1  0.277782  0.136201  0.822818  1
  K  K3  1  0.868565  0.724918  0.785487  1
  K  K4  1  0.860447  0.145385  0.804770  1
  K  K5  1  0.724918  0.868565  0.285487  1
  K  K6  1  0.136201  0.277782  0.322818  1
  K  K7  1  0.145385  0.860447  0.304770  1
  Ba  Ba8  1  0.471228  0.945978  0.617873  1
  Ba  Ba9  1  0.470495  0.522082  0.623845  1
  Ba  Ba10  1  0.945978  0.471228  0.117873  1
  Ba  Ba11  1  0.522082  0.470495  0.123845  1
  Ti  Ti12  1  0.667445  0.335896  0.512829  1
  Ti  Ti13  1  0.335896  0.667445  0.012829  1
  Bi  Bi14  1  0.603095  0.796537  0.893127  1
  Bi  Bi15  1  0.199138  0.394134  0.921818  1
  Bi  Bi16  1  0.197110  0.797008  0.909701  1
  Bi  Bi17  1  0.394134  0.199138  0.421818  1
  Bi  Bi18  1  0.796537  0.603095  0.393127  1
  Bi  Bi19  1  0.797008  0.197110  0.409701  1
  Bi  Bi20  1  0.666728  0.343800  0.832699  1
  Bi  Bi21  1  0.343800  0.666728  0.332699  1
