# generated using pymatgen
data_KTa(MoS3)2
_symmetry_space_group_name_H-M   'P 1'
_cell_length_a   5.59549300
_cell_length_b   5.59549404
_cell_length_c   16.64341400
_cell_angle_alpha   90.00000000
_cell_angle_beta   90.00000000
_cell_angle_gamma   119.99999975
_symmetry_Int_Tables_number   1
_chemical_formula_structural   KTa(MoS3)2
_chemical_formula_sum   'K2 Ta2 Mo4 S12'
_cell_volume   451.28390376
_cell_formula_units_Z   2
loop_
 _symmetry_equiv_pos_site_id
 _symmetry_equiv_pos_as_xyz
  1  'x, y, z'
loop_
 _atom_site_type_symbol
 _atom_site_label
 _atom_site_symmetry_multiplicity
 _atom_site_fract_x
 _atom_site_fract_y
 _atom_site_fract_z
 _atom_site_occupancy
  K  K0  1  0.000000  0.000000  0.000000  1
  K  K1  1  0.000000  0.000000  0.500000  1
  Ta  Ta2  1  0.666667  0.333333  0.250000  1
  Ta  Ta3  1  0.333333  0.666667  0.750000  1
  Mo  Mo4  1  0.000000  0.000000  0.750000  1
  Mo  Mo5  1  0.000000  0.000000  0.250000  1
  Mo  Mo6  1  0.333333  0.666667  0.250000  1
  Mo  Mo7  1  0.666667  0.333333  0.750000  1
  S  S8  1  0.329931  0.994891  0.155899  1
  S  S9  1  0.005109  0.335038  0.155899  1
  S  S10  1  0.664962  0.670069  0.155899  1
  S  S11  1  0.335038  0.329931  0.655899  1
  S  S12  1  0.664962  0.670069  0.344101  1
  S  S13  1  0.670069  0.005109  0.655899  1
  S  S14  1  0.994891  0.664962  0.655899  1
  S  S15  1  0.994891  0.664962  0.844101  1
  S  S16  1  0.335038  0.329931  0.844101  1
  S  S17  1  0.005109  0.335038  0.344101  1
  S  S18  1  0.329931  0.994891  0.344101  1
  S  S19  1  0.670069  0.005109  0.844101  1
