# generated using pymatgen
data_Ba14Na17CeN6
_symmetry_space_group_name_H-M   'P 1'
_cell_length_a   11.07226327
_cell_length_b   12.11940478
_cell_length_c   13.41776482
_cell_angle_alpha   66.94129293
_cell_angle_beta   67.79562592
_cell_angle_gamma   78.98857647
_symmetry_Int_Tables_number   1
_chemical_formula_structural   Ba14Na17CeN6
_chemical_formula_sum   'Ba14 Na17 Ce1 N6'
_cell_volume   1531.85589545
_cell_formula_units_Z   1
loop_
 _symmetry_equiv_pos_site_id
 _symmetry_equiv_pos_as_xyz
  1  'x, y, z'
loop_
 _atom_site_type_symbol
 _atom_site_label
 _atom_site_symmetry_multiplicity
 _atom_site_fract_x
 _atom_site_fract_y
 _atom_site_fract_z
 _atom_site_occupancy
  Ba  Ba0  1  0.364296  0.786907  0.444178  1
  Ba  Ba1  1  0.635704  0.213093  0.555822  1
  Ba  Ba2  1  0.265979  0.304371  0.705017  1
  Ba  Ba3  1  0.734021  0.695629  0.294983  1
  Ba  Ba4  1  0.254847  0.521729  0.398416  1
  Ba  Ba5  1  0.745153  0.478271  0.601584  1
  Ba  Ba6  1  0.377854  0.570430  0.747000  1
  Ba  Ba7  1  0.622146  0.429570  0.253000  1
  Ba  Ba8  1  0.345333  0.165053  0.455956  1
  Ba  Ba9  1  0.654667  0.834947  0.544044  1
  Ba  Ba10  1  0.476846  0.789713  0.117935  1
  Ba  Ba11  1  0.523154  0.210287  0.882065  1
  Ba  Ba12  1  0.033025  0.620531  0.676695  1
  Ba  Ba13  1  0.966975  0.379469  0.323305  1
  Na  Na14  1  0.000000  0.000000  0.500000  1
  Na  Na15  1  0.239314  0.097121  0.206185  1
  Na  Na16  1  0.760686  0.902879  0.793815  1
  Na  Na17  1  0.631591  0.599886  0.894778  1
  Na  Na18  1  0.368409  0.400114  0.105222  1
  Na  Na19  1  0.041845  0.815648  0.311020  1
  Na  Na20  1  0.958155  0.184352  0.688980  1
  Na  Na21  1  0.135549  0.891590  0.755768  1
  Na  Na22  1  0.864451  0.108410  0.244232  1
  Na  Na23  1  0.586512  0.083458  0.187042  1
  Na  Na24  1  0.413488  0.916542  0.812958  1
  Na  Na25  1  0.906262  0.643737  0.984794  1
  Na  Na26  1  0.093738  0.356263  0.015206  1
  Na  Na27  1  0.851168  0.973241  0.990555  1
  Na  Na28  1  0.148832  0.026759  0.009445  1
  Na  Na29  1  0.168338  0.688161  0.058172  1
  Na  Na30  1  0.831662  0.311839  0.941828  1
  Ce  Ce31  1  0.500000  0.500000  0.500000  1
  N  N32  1  0.487042  0.634304  0.312417  1
  N  N33  1  0.512958  0.365696  0.687583  1
  N  N34  1  0.429949  0.334088  0.476136  1
  N  N35  1  0.570051  0.665912  0.523864  1
  N  N36  1  0.727743  0.445019  0.408993  1
  N  N37  1  0.272257  0.554981  0.591007  1
