# generated using pymatgen
data_Li6TiIn5Pd12
_symmetry_space_group_name_H-M   'P 1'
_cell_length_a   4.22932629
_cell_length_b   7.03581075
_cell_length_c   12.74704906
_cell_angle_alpha   90.01557123
_cell_angle_beta   90.00357703
_cell_angle_gamma   89.95418871
_symmetry_Int_Tables_number   1
_chemical_formula_structural   Li6TiIn5Pd12
_chemical_formula_sum   'Li6 Ti1 In5 Pd12'
_cell_volume   379.31048136
_cell_formula_units_Z   1
loop_
 _symmetry_equiv_pos_site_id
 _symmetry_equiv_pos_as_xyz
  1  'x, y, z'
loop_
 _atom_site_type_symbol
 _atom_site_label
 _atom_site_symmetry_multiplicity
 _atom_site_fract_x
 _atom_site_fract_y
 _atom_site_fract_z
 _atom_site_occupancy
  Li  Li0  1  0.000535  0.500120  0.001776  1
  Li  Li1  1  0.500140  0.000304  0.164667  1
  Li  Li2  1  0.999827  0.499669  0.333464  1
  Li  Li3  1  0.499396  0.999957  0.502082  1
  Li  Li4  1  0.999792  0.499408  0.664778  1
  Li  Li5  1  0.500143  0.000623  0.833161  1
  Ti  Ti6  1  0.499729  0.500003  0.832959  1
  In  In7  1  0.000900  0.000253  0.994167  1
  In  In8  1  0.500645  0.500095  0.167338  1
  In  In9  1  0.999686  0.999779  0.333709  1
  In  In10  1  0.498500  0.500058  0.499473  1
  In  In11  1  0.000420  0.000084  0.672440  1
  Pd  Pd12  1  0.501017  0.263131  0.994026  1
  Pd  Pd13  1  0.500646  0.736957  0.993591  1
  Pd  Pd14  1  0.000523  0.247306  0.164318  1
  Pd  Pd15  1  0.000385  0.752876  0.163855  1
  Pd  Pd16  1  0.499475  0.250004  0.333585  1
  Pd  Pd17  1  0.499927  0.749642  0.333375  1
  Pd  Pd18  1  0.999215  0.247661  0.502827  1
  Pd  Pd19  1  0.998722  0.752132  0.502983  1
  Pd  Pd20  1  0.500317  0.262585  0.672507  1
  Pd  Pd21  1  0.499946  0.736950  0.672614  1
  Pd  Pd22  1  0.000239  0.273431  0.833258  1
  Pd  Pd23  1  0.999876  0.726977  0.833045  1
