# generated using pymatgen
data_Ho10Tm10Si15Pd
_symmetry_space_group_name_H-M   'P 1'
_cell_length_a   7.40065648
_cell_length_b   7.63194130
_cell_length_c   14.48859000
_cell_angle_alpha   90.24462828
_cell_angle_beta   90.49793985
_cell_angle_gamma   90.20471713
_symmetry_Int_Tables_number   1
_chemical_formula_structural   Ho10Tm10Si15Pd
_chemical_formula_sum   'Ho10 Tm10 Si15 Pd1'
_cell_volume   818.29180187
_cell_formula_units_Z   1
loop_
 _symmetry_equiv_pos_site_id
 _symmetry_equiv_pos_as_xyz
  1  'x, y, z'
loop_
 _atom_site_type_symbol
 _atom_site_label
 _atom_site_symmetry_multiplicity
 _atom_site_fract_x
 _atom_site_fract_y
 _atom_site_fract_z
 _atom_site_occupancy
  Ho  Ho0  1  0.026086  0.817768  0.600202  1
  Ho  Ho1  1  0.524827  0.679826  0.599037  1
  Ho  Ho2  1  0.319087  0.820515  0.121878  1
  Ho  Ho3  1  0.816890  0.679425  0.122755  1
  Ho  Ho4  1  0.852545  0.505836  0.749311  1
  Ho  Ho5  1  0.470400  0.317400  0.099384  1
  Ho  Ho6  1  0.029008  0.817347  0.901147  1
  Ho  Ho7  1  0.471383  0.320613  0.400872  1
  Ho  Ho8  1  0.652159  0.011396  0.254820  1
  Ho  Ho9  1  0.530621  0.682704  0.899797  1
  Tm  Tm10  1  0.681430  0.178676  0.877016  1
  Tm  Tm11  1  0.178376  0.321173  0.623711  1
  Tm  Tm12  1  0.184082  0.322719  0.876256  1
  Tm  Tm13  1  0.820486  0.682813  0.379678  1
  Tm  Tm14  1  0.320087  0.825401  0.377598  1
  Tm  Tm15  1  0.351405  0.990337  0.747459  1
  Tm  Tm16  1  0.682051  0.168609  0.620770  1
  Tm  Tm17  1  0.148079  0.490427  0.251118  1
  Tm  Tm18  1  0.970055  0.182944  0.098893  1
  Tm  Tm19  1  0.974204  0.180446  0.400186  1
  Si  Si20  1  0.233711  0.628202  0.750880  1
  Si  Si21  1  0.342617  0.029164  0.541569  1
  Si  Si22  1  0.025186  0.894233  0.247916  1
  Si  Si23  1  0.733384  0.870087  0.751947  1
  Si  Si24  1  0.267022  0.129143  0.247105  1
  Si  Si25  1  0.850500  0.469897  0.541277  1
  Si  Si26  1  0.480511  0.391083  0.749416  1
  Si  Si27  1  0.147611  0.530206  0.460441  1
  Si  Si28  1  0.145606  0.526705  0.040689  1
  Si  Si29  1  0.978539  0.105399  0.752179  1
  Si  Si30  1  0.768577  0.375183  0.249606  1
  Si  Si31  1  0.353104  0.030614  0.958788  1
  Si  Si32  1  0.855437  0.469479  0.958807  1
  Si  Si33  1  0.646032  0.972375  0.039276  1
  Si  Si34  1  0.521041  0.606730  0.249246  1
  Pd  Pd35  1  0.647861  0.975124  0.458967  1
