# generated using pymatgen
data_Er20Bi7Rh4Pb
_symmetry_space_group_name_H-M   'P 1'
_cell_length_a   7.94709805
_cell_length_b   8.97392316
_cell_length_c   12.36295328
_cell_angle_alpha   90.02122706
_cell_angle_beta   89.98804961
_cell_angle_gamma   89.99734651
_symmetry_Int_Tables_number   1
_chemical_formula_structural   Er20Bi7Rh4Pb
_chemical_formula_sum   'Er20 Bi7 Rh4 Pb1'
_cell_volume   881.68429643
_cell_formula_units_Z   1
loop_
 _symmetry_equiv_pos_site_id
 _symmetry_equiv_pos_as_xyz
  1  'x, y, z'
loop_
 _atom_site_type_symbol
 _atom_site_label
 _atom_site_symmetry_multiplicity
 _atom_site_fract_x
 _atom_site_fract_y
 _atom_site_fract_z
 _atom_site_occupancy
  Er  Er0  1  0.664936  0.751428  0.708142  1
  Er  Er1  1  0.337009  0.249971  0.292429  1
  Er  Er2  1  0.161432  0.248426  0.791548  1
  Er  Er3  1  0.837301  0.749791  0.207288  1
  Er  Er4  1  0.123250  0.751391  0.807896  1
  Er  Er5  1  0.874918  0.250054  0.191380  1
  Er  Er6  1  0.627526  0.248859  0.691334  1
  Er  Er7  1  0.374603  0.750094  0.308310  1
  Er  Er8  1  0.548849  0.749770  0.998652  1
  Er  Er9  1  0.450162  0.250095  0.001651  1
  Er  Er10  1  0.048282  0.248144  0.502850  1
  Er  Er11  1  0.950053  0.751686  0.499444  1
  Er  Er12  1  0.823708  0.455983  0.933563  1
  Er  Er13  1  0.175953  0.544090  0.066430  1
  Er  Er14  1  0.324300  0.543886  0.566760  1
  Er  Er15  1  0.175960  0.956061  0.066494  1
  Er  Er16  1  0.675775  0.456133  0.433421  1
  Er  Er17  1  0.825413  0.043598  0.931877  1
  Er  Er18  1  0.676570  0.044011  0.434400  1
  Er  Er19  1  0.322055  0.956819  0.566929  1
  Bi  Bi20  1  0.067027  0.991064  0.326482  1
  Bi  Bi21  1  0.433195  0.991175  0.827331  1
  Bi  Bi22  1  0.066804  0.508747  0.327008  1
  Bi  Bi23  1  0.566282  0.008789  0.172842  1
  Bi  Bi24  1  0.933855  0.491554  0.673132  1
  Bi  Bi25  1  0.566241  0.491232  0.173261  1
  Bi  Bi26  1  0.433976  0.508622  0.826741  1
  Rh  Rh27  1  0.925023  0.749965  0.990362  1
  Rh  Rh28  1  0.075095  0.250328  0.010178  1
  Rh  Rh29  1  0.426116  0.250502  0.509584  1
  Rh  Rh30  1  0.574876  0.749809  0.489781  1
  Pb  Pb31  1  0.933457  0.007924  0.672502  1
