# generated using pymatgen
data_Zn22NiRuPt
_symmetry_space_group_name_H-M   'P 1'
_cell_length_a   7.76545812
_cell_length_b   7.76545898
_cell_length_c   7.77571957
_cell_angle_alpha   72.09527871
_cell_angle_beta   72.09527941
_cell_angle_gamma   58.30053174
_symmetry_Int_Tables_number   1
_chemical_formula_structural   Zn22NiRuPt
_chemical_formula_sum   'Zn22 Ni1 Ru1 Pt1'
_cell_volume   373.40729095
_cell_formula_units_Z   1
loop_
 _symmetry_equiv_pos_site_id
 _symmetry_equiv_pos_as_xyz
  1  'x, y, z'
loop_
 _atom_site_type_symbol
 _atom_site_label
 _atom_site_symmetry_multiplicity
 _atom_site_fract_x
 _atom_site_fract_y
 _atom_site_fract_z
 _atom_site_occupancy
  Zn  Zn0  1  0.340572  0.740171  0.319081  1
  Zn  Zn1  1  0.650851  0.259519  0.691952  1
  Zn  Zn2  1  0.259519  0.650851  0.691952  1
  Zn  Zn3  1  0.740171  0.340572  0.319081  1
  Zn  Zn4  1  0.678988  0.318723  0.997774  1
  Zn  Zn5  1  0.318723  0.678988  0.997774  1
  Zn  Zn6  1  0.832089  0.832089  0.781813  1
  Zn  Zn7  1  0.171359  0.171359  0.212264  1
  Zn  Zn8  1  0.976256  0.976256  0.173500  1
  Zn  Zn9  1  0.023646  0.023646  0.827212  1
  Zn  Zn10  1  0.353035  0.353035  0.271102  1
  Zn  Zn11  1  0.643748  0.643748  0.721991  1
  Zn  Zn12  1  0.691016  0.691016  0.375736  1
  Zn  Zn13  1  0.315517  0.315517  0.620390  1
  Zn  Zn14  1  0.658736  0.025047  0.459863  1
  Zn  Zn15  1  0.339407  0.975431  0.541247  1
  Zn  Zn16  1  0.975431  0.339407  0.541247  1
  Zn  Zn17  1  0.025047  0.658736  0.459863  1
  Zn  Zn18  1  0.608355  0.009794  0.103184  1
  Zn  Zn19  1  0.376863  0.010027  0.894504  1
  Zn  Zn20  1  0.010027  0.376863  0.894504  1
  Zn  Zn21  1  0.009794  0.608355  0.103184  1
  Ni  Ni22  1  0.342795  0.342795  0.945273  1
  Ru  Ru23  1  0.000160  0.000160  0.499972  1
  Pt  Pt24  1  0.657895  0.657895  0.055537  1
