# generated using pymatgen
data_Lu8SiPd17Pt7
_symmetry_space_group_name_H-M   'P 1'
_cell_length_a   8.21217400
_cell_length_b   8.20718700
_cell_length_c   8.23715000
_cell_angle_alpha   90.00000000
_cell_angle_beta   90.00000000
_cell_angle_gamma   90.00000000
_symmetry_Int_Tables_number   1
_chemical_formula_structural   Lu8SiPd17Pt7
_chemical_formula_sum   'Lu8 Si1 Pd17 Pt7'
_cell_volume   555.17441829
_cell_formula_units_Z   1
loop_
 _symmetry_equiv_pos_site_id
 _symmetry_equiv_pos_as_xyz
  1  'x, y, z'
loop_
 _atom_site_type_symbol
 _atom_site_label
 _atom_site_symmetry_multiplicity
 _atom_site_fract_x
 _atom_site_fract_y
 _atom_site_fract_z
 _atom_site_occupancy
  Lu  Lu0  1  0.253140  0.253101  0.253560  1
  Lu  Lu1  1  0.747157  0.746842  0.746627  1
  Lu  Lu2  1  0.747157  0.746842  0.253373  1
  Lu  Lu3  1  0.746860  0.253101  0.746440  1
  Lu  Lu4  1  0.253140  0.253101  0.746440  1
  Lu  Lu5  1  0.252843  0.746842  0.253373  1
  Lu  Lu6  1  0.252843  0.746842  0.746627  1
  Lu  Lu7  1  0.746860  0.253101  0.253560  1
  Si  Si8  1  0.000000  0.000077  0.000000  1
  Pd  Pd9  1  0.257584  0.500115  0.000000  1
  Pd  Pd10  1  0.742416  0.500115  0.000000  1
  Pd  Pd11  1  0.000000  0.257773  0.500000  1
  Pd  Pd12  1  0.500000  0.257503  0.000000  1
  Pd  Pd13  1  0.000000  0.742063  0.500000  1
  Pd  Pd14  1  0.500000  0.742483  0.000000  1
  Pd  Pd15  1  0.500000  0.999996  0.257824  1
  Pd  Pd16  1  0.257877  0.000065  0.500000  1
  Pd  Pd17  1  0.500000  0.999996  0.742176  1
  Pd  Pd18  1  0.742123  0.000065  0.500000  1
  Pd  Pd19  1  0.000000  0.500122  0.257846  1
  Pd  Pd20  1  0.000000  0.500122  0.742154  1
  Pd  Pd21  1  0.500000  0.747741  0.500000  1
  Pd  Pd22  1  0.500000  0.500137  0.252251  1
  Pd  Pd23  1  0.500000  0.500137  0.747749  1
  Pd  Pd24  1  0.000000  0.999881  0.282006  1
  Pd  Pd25  1  0.000000  0.999881  0.717994  1
  Pt  Pt26  1  0.252138  0.499975  0.500000  1
  Pt  Pt27  1  0.747862  0.499975  0.500000  1
  Pt  Pt28  1  0.500000  0.252086  0.500000  1
  Pt  Pt29  1  0.280801  0.999885  0.000000  1
  Pt  Pt30  1  0.719199  0.999885  0.000000  1
  Pt  Pt31  1  0.000000  0.280766  0.000000  1
  Pt  Pt32  1  0.000000  0.719379  0.000000  1
