# generated using pymatgen
data_K3H6Ir
_symmetry_space_group_name_H-M   'P 1'
_cell_length_a   5.93016788
_cell_length_b   5.93016725
_cell_length_c   5.93016800
_cell_angle_alpha   59.99999584
_cell_angle_beta   59.99999934
_cell_angle_gamma   59.99999606
_symmetry_Int_Tables_number   1
_chemical_formula_structural   K3H6Ir
_chemical_formula_sum   'K3 H6 Ir1'
_cell_volume   147.46396301
_cell_formula_units_Z   1
loop_
 _symmetry_equiv_pos_site_id
 _symmetry_equiv_pos_as_xyz
  1  'x, y, z'
loop_
 _atom_site_type_symbol
 _atom_site_label
 _atom_site_symmetry_multiplicity
 _atom_site_fract_x
 _atom_site_fract_y
 _atom_site_fract_z
 _atom_site_occupancy
  K  K0  1  0.750000  0.750000  0.750000  1
  K  K1  1  0.250000  0.250000  0.250000  1
  K  K2  1  0.500000  0.500000  0.500000  1
  H  H3  1  0.799177  0.799177  0.200823  1
  H  H4  1  0.200823  0.799177  0.200823  1
  H  H5  1  0.799177  0.200823  0.200823  1
  H  H6  1  0.200823  0.200823  0.799177  1
  H  H7  1  0.799177  0.200823  0.799177  1
  H  H8  1  0.200823  0.799177  0.799177  1
  Ir  Ir9  1  0.000000  0.000000  0.000000  1
