# generated using pymatgen
data_Dy6Al24FeCuRu6
_symmetry_space_group_name_H-M   'P 1'
_cell_length_a   8.80033900
_cell_length_b   8.79537269
_cell_length_c   9.50749301
_cell_angle_alpha   89.82614587
_cell_angle_beta   90.00000000
_cell_angle_gamma   120.01867648
_symmetry_Int_Tables_number   1
_chemical_formula_structural   Dy6Al24FeCuRu6
_chemical_formula_sum   'Dy6 Al24 Fe1 Cu1 Ru6'
_cell_volume   637.18547143
_cell_formula_units_Z   1
loop_
 _symmetry_equiv_pos_site_id
 _symmetry_equiv_pos_as_xyz
  1  'x, y, z'
loop_
 _atom_site_type_symbol
 _atom_site_label
 _atom_site_symmetry_multiplicity
 _atom_site_fract_x
 _atom_site_fract_y
 _atom_site_fract_z
 _atom_site_occupancy
  Dy  Dy0  1  0.191521  0.807042  0.250728  1
  Dy  Dy1  1  0.194293  0.388585  0.248355  1
  Dy  Dy2  1  0.615520  0.807042  0.250728  1
  Dy  Dy3  1  0.808479  0.192958  0.749272  1
  Dy  Dy4  1  0.805707  0.611415  0.751645  1
  Dy  Dy5  1  0.384480  0.192958  0.749272  1
  Al  Al6  1  0.561799  0.439166  0.250586  1
  Al  Al7  1  0.561546  0.123093  0.249436  1
  Al  Al8  1  0.877367  0.439166  0.250586  1
  Al  Al9  1  0.438201  0.560834  0.749414  1
  Al  Al10  1  0.438454  0.876907  0.750564  1
  Al  Al11  1  0.122633  0.560834  0.749414  1
  Al  Al12  1  0.323596  0.166912  0.420872  1
  Al  Al13  1  0.843316  0.166912  0.420872  1
  Al  Al14  1  0.837176  0.674352  0.422416  1
  Al  Al15  1  0.676404  0.833088  0.579128  1
  Al  Al16  1  0.156684  0.833088  0.579128  1
  Al  Al17  1  0.162824  0.325648  0.577584  1
  Al  Al18  1  0.680027  0.840515  0.924431  1
  Al  Al19  1  0.160488  0.840515  0.924431  1
  Al  Al20  1  0.160084  0.320169  0.923342  1
  Al  Al21  1  0.319973  0.159485  0.075569  1
  Al  Al22  1  0.839512  0.159485  0.075569  1
  Al  Al23  1  0.839916  0.679831  0.076658  1
  Al  Al24  1  0.667885  0.335768  0.518973  1
  Al  Al25  1  0.332115  0.664232  0.481027  1
  Al  Al26  1  0.333613  0.667227  0.016450  1
  Al  Al27  1  0.666387  0.332773  0.983550  1
  Al  Al28  1  0.999443  0.998887  0.243867  1
  Al  Al29  1  0.000557  0.001113  0.756133  1
  Fe  Fe30  1  0.000000  0.000000  0.000000  1
  Cu  Cu31  1  0.500000  0.000000  0.500000  1
  Ru  Ru32  1  0.000000  0.000000  0.500000  1
  Ru  Ru33  1  0.500000  0.500000  0.500000  1
  Ru  Ru34  1  0.000000  0.500000  0.500000  1
  Ru  Ru35  1  0.500000  0.500000  0.000000  1
  Ru  Ru36  1  0.500000  0.000000  0.000000  1
  Ru  Ru37  1  0.000000  0.500000  0.000000  1
