# generated using pymatgen
data_Li4CaPr3Sb4
_symmetry_space_group_name_H-M   'P 1'
_cell_length_a   4.63605600
_cell_length_b   7.65683048
_cell_length_c   8.46107370
_cell_angle_alpha   89.41060546
_cell_angle_beta   90.00000000
_cell_angle_gamma   90.00000000
_symmetry_Int_Tables_number   1
_chemical_formula_structural   Li4CaPr3Sb4
_chemical_formula_sum   'Li4 Ca1 Pr3 Sb4'
_cell_volume   300.33102915
_cell_formula_units_Z   1
loop_
 _symmetry_equiv_pos_site_id
 _symmetry_equiv_pos_as_xyz
  1  'x, y, z'
loop_
 _atom_site_type_symbol
 _atom_site_label
 _atom_site_symmetry_multiplicity
 _atom_site_fract_x
 _atom_site_fract_y
 _atom_site_fract_z
 _atom_site_occupancy
  Li  Li0  1  0.750000  0.835905  0.421408  1
  Li  Li1  1  0.250000  0.165091  0.569251  1
  Li  Li2  1  0.250000  0.656021  0.931998  1
  Li  Li3  1  0.750000  0.341323  0.073731  1
  Ca  Ca4  1  0.250000  0.009584  0.203561  1
  Pr  Pr5  1  0.750000  0.491712  0.699450  1
  Pr  Pr6  1  0.750000  0.990411  0.790718  1
  Pr  Pr7  1  0.250000  0.509226  0.305461  1
  Sb  Sb8  1  0.750000  0.729880  0.097090  1
  Sb  Sb9  1  0.250000  0.272244  0.905624  1
  Sb  Sb10  1  0.750000  0.222537  0.403938  1
  Sb  Sb11  1  0.250000  0.776066  0.597771  1
