# generated using pymatgen
data_La4ErOs2
_symmetry_space_group_name_H-M   'P 1'
_cell_length_a   6.71693316
_cell_length_b   7.34430954
_cell_length_c   8.98014698
_cell_angle_alpha   94.81941827
_cell_angle_beta   111.96176828
_cell_angle_gamma   89.99999570
_symmetry_Int_Tables_number   1
_chemical_formula_structural   La4ErOs2
_chemical_formula_sum   'La8 Er2 Os4'
_cell_volume   409.16542015
_cell_formula_units_Z   2
loop_
 _symmetry_equiv_pos_site_id
 _symmetry_equiv_pos_as_xyz
  1  'x, y, z'
loop_
 _atom_site_type_symbol
 _atom_site_label
 _atom_site_symmetry_multiplicity
 _atom_site_fract_x
 _atom_site_fract_y
 _atom_site_fract_z
 _atom_site_occupancy
  La  La0  1  0.796126  0.589873  0.819173  1
  La  La1  1  0.976953  0.910127  0.180827  1
  La  La2  1  0.203874  0.410127  0.180827  1
  La  La3  1  0.023047  0.089873  0.819173  1
  La  La4  1  0.208191  0.681956  0.573574  1
  La  La5  1  0.634618  0.818044  0.426426  1
  La  La6  1  0.791809  0.318044  0.426426  1
  La  La7  1  0.365382  0.181956  0.573574  1
  Er  Er8  1  0.435289  0.750000  0.000000  1
  Er  Er9  1  0.564711  0.250000  0.000000  1
  Os  Os10  1  0.603205  0.927586  0.786512  1
  Os  Os11  1  0.816691  0.572414  0.213488  1
  Os  Os12  1  0.396795  0.072414  0.213488  1
  Os  Os13  1  0.183309  0.427586  0.786512  1
