# generated using pymatgen
data_Dy4Ga3Os4W
_symmetry_space_group_name_H-M   'P 1'
_cell_length_a   5.31436611
_cell_length_b   5.31436744
_cell_length_c   8.97617500
_cell_angle_alpha   90.00000000
_cell_angle_beta   90.00000000
_cell_angle_gamma   117.92574071
_symmetry_Int_Tables_number   1
_chemical_formula_structural   Dy4Ga3Os4W
_chemical_formula_sum   'Dy4 Ga3 Os4 W1'
_cell_volume   223.98972967
_cell_formula_units_Z   1
loop_
 _symmetry_equiv_pos_site_id
 _symmetry_equiv_pos_as_xyz
  1  'x, y, z'
loop_
 _atom_site_type_symbol
 _atom_site_label
 _atom_site_symmetry_multiplicity
 _atom_site_fract_x
 _atom_site_fract_y
 _atom_site_fract_z
 _atom_site_occupancy
  Dy  Dy0  1  0.330604  0.669396  0.438399  1
  Dy  Dy1  1  0.665984  0.334016  0.557813  1
  Dy  Dy2  1  0.665984  0.334016  0.942187  1
  Dy  Dy3  1  0.330604  0.669396  0.061601  1
  Ga  Ga4  1  0.166999  0.833001  0.750000  1
  Ga  Ga5  1  0.167160  0.329414  0.750000  1
  Ga  Ga6  1  0.670586  0.832840  0.750000  1
  Os  Os7  1  0.994505  0.005495  0.500345  1
  Os  Os8  1  0.994505  0.005495  0.999655  1
  Os  Os9  1  0.826731  0.651743  0.250000  1
  Os  Os10  1  0.348257  0.173269  0.250000  1
  W  W11  1  0.838081  0.161919  0.250000  1
