# generated using pymatgen
data_Yb5Eu5P6
_symmetry_space_group_name_H-M   'P 1'
_cell_length_a   8.43858830
_cell_length_b   8.43858811
_cell_length_c   6.57342900
_cell_angle_alpha   90.00000000
_cell_angle_beta   90.00000000
_cell_angle_gamma   119.74851361
_symmetry_Int_Tables_number   1
_chemical_formula_structural   Yb5Eu5P6
_chemical_formula_sum   'Yb5 Eu5 P6'
_cell_volume   406.40326918
_cell_formula_units_Z   1
loop_
 _symmetry_equiv_pos_site_id
 _symmetry_equiv_pos_as_xyz
  1  'x, y, z'
loop_
 _atom_site_type_symbol
 _atom_site_label
 _atom_site_symmetry_multiplicity
 _atom_site_fract_x
 _atom_site_fract_y
 _atom_site_fract_z
 _atom_site_occupancy
  Yb  Yb0  1  0.666973  0.334694  0.999914  1
  Yb  Yb1  1  0.334694  0.666973  0.999914  1
  Yb  Yb2  1  0.334694  0.666973  0.500086  1
  Yb  Yb3  1  0.666973  0.334694  0.500086  1
  Yb  Yb4  1  0.737781  0.737781  0.750000  1
  Eu  Eu5  1  0.258261  0.000172  0.750000  1
  Eu  Eu6  1  0.000172  0.258261  0.750000  1
  Eu  Eu7  1  0.258352  0.258352  0.250000  1
  Eu  Eu8  1  0.742689  0.999408  0.250000  1
  Eu  Eu9  1  0.999408  0.742689  0.250000  1
  P  P10  1  0.394143  0.394143  0.750000  1
  P  P11  1  0.610497  0.995884  0.750000  1
  P  P12  1  0.995884  0.610497  0.750000  1
  P  P13  1  0.608252  0.608252  0.250000  1
  P  P14  1  0.391571  0.999655  0.250000  1
  P  P15  1  0.999655  0.391571  0.250000  1
