# generated using pymatgen
data_La2Tc2Cl
_symmetry_space_group_name_H-M   'P 1'
_cell_length_a   4.15324300
_cell_length_b   4.15324280
_cell_length_c   17.51496300
_cell_angle_alpha   90.00000000
_cell_angle_beta   90.00000000
_cell_angle_gamma   119.99999365
_symmetry_Int_Tables_number   1
_chemical_formula_structural   La2Tc2Cl
_chemical_formula_sum   'La4 Tc4 Cl2'
_cell_volume   261.64626885
_cell_formula_units_Z   2
loop_
 _symmetry_equiv_pos_site_id
 _symmetry_equiv_pos_as_xyz
  1  'x, y, z'
loop_
 _atom_site_type_symbol
 _atom_site_label
 _atom_site_symmetry_multiplicity
 _atom_site_fract_x
 _atom_site_fract_y
 _atom_site_fract_z
 _atom_site_occupancy
  La  La0  1  0.000000  0.000000  0.121296  1
  La  La1  1  0.000000  0.000000  0.378704  1
  La  La2  1  0.000000  0.000000  0.621296  1
  La  La3  1  0.000000  0.000000  0.878704  1
  Tc  Tc4  1  0.333334  0.666668  0.017365  1
  Tc  Tc5  1  0.333334  0.666668  0.482635  1
  Tc  Tc6  1  0.666667  0.333332  0.517365  1
  Tc  Tc7  1  0.666667  0.333332  0.982635  1
  Cl  Cl8  1  0.666667  0.333332  0.250000  1
  Cl  Cl9  1  0.333334  0.666668  0.750000  1
