# generated using pymatgen
data_Ce2MnBe2Rh5
_symmetry_space_group_name_H-M   'P 1'
_cell_length_a   9.59411800
_cell_length_b   9.59411800
_cell_length_c   3.36986300
_cell_angle_alpha   90.00000000
_cell_angle_beta   90.00000000
_cell_angle_gamma   90.00000000
_symmetry_Int_Tables_number   1
_chemical_formula_structural   Ce2MnBe2Rh5
_chemical_formula_sum   'Ce4 Mn2 Be4 Rh10'
_cell_volume   310.18611721
_cell_formula_units_Z   2
loop_
 _symmetry_equiv_pos_site_id
 _symmetry_equiv_pos_as_xyz
  1  'x, y, z'
loop_
 _atom_site_type_symbol
 _atom_site_label
 _atom_site_symmetry_multiplicity
 _atom_site_fract_x
 _atom_site_fract_y
 _atom_site_fract_z
 _atom_site_occupancy
  Ce  Ce0  1  0.823018  0.323018  0.000000  1
  Ce  Ce1  1  0.323018  0.176982  0.000000  1
  Ce  Ce2  1  0.676982  0.823018  0.000000  1
  Ce  Ce3  1  0.176982  0.676982  0.000000  1
  Mn  Mn4  1  0.000000  0.000000  0.000000  1
  Mn  Mn5  1  0.500000  0.500000  0.000000  1
  Be  Be6  1  0.620111  0.120111  0.000000  1
  Be  Be7  1  0.120111  0.379889  0.000000  1
  Be  Be8  1  0.879889  0.620111  0.000000  1
  Be  Be9  1  0.379889  0.879889  0.000000  1
  Rh  Rh10  1  0.071130  0.214238  0.500000  1
  Rh  Rh11  1  0.214238  0.928870  0.500000  1
  Rh  Rh12  1  0.785762  0.071130  0.500000  1
  Rh  Rh13  1  0.928870  0.785762  0.500000  1
  Rh  Rh14  1  0.428870  0.714238  0.500000  1
  Rh  Rh15  1  0.571130  0.285762  0.500000  1
  Rh  Rh16  1  0.714238  0.571130  0.500000  1
  Rh  Rh17  1  0.285762  0.428870  0.500000  1
  Rh  Rh18  1  0.500000  0.000000  0.500000  1
  Rh  Rh19  1  0.000000  0.500000  0.500000  1
