# generated using pymatgen
data_Dy3Ni2Sn3Ir
_symmetry_space_group_name_H-M   'P 1'
_cell_length_a   7.46327900
_cell_length_b   7.46327720
_cell_length_c   3.82201700
_cell_angle_alpha   90.00000000
_cell_angle_beta   90.00000000
_cell_angle_gamma   119.99999467
_symmetry_Int_Tables_number   1
_chemical_formula_structural   Dy3Ni2Sn3Ir
_chemical_formula_sum   'Dy3 Ni2 Sn3 Ir1'
_cell_volume   184.36671567
_cell_formula_units_Z   1
loop_
 _symmetry_equiv_pos_site_id
 _symmetry_equiv_pos_as_xyz
  1  'x, y, z'
loop_
 _atom_site_type_symbol
 _atom_site_label
 _atom_site_symmetry_multiplicity
 _atom_site_fract_x
 _atom_site_fract_y
 _atom_site_fract_z
 _atom_site_occupancy
  Dy  Dy0  1  0.407473  0.404377  0.500000  1
  Dy  Dy1  1  0.595623  0.003096  0.500000  1
  Dy  Dy2  1  0.996904  0.592527  0.500000  1
  Ni  Ni3  1  0.000000  0.000000  0.500000  1
  Ni  Ni4  1  0.333333  0.666667  0.000000  1
  Sn  Sn5  1  0.740702  0.746817  0.000000  1
  Sn  Sn6  1  0.253183  0.993885  0.000000  1
  Sn  Sn7  1  0.006115  0.259298  0.000000  1
  Ir  Ir8  1  0.666667  0.333333  0.000000  1
