# generated using pymatgen
data_CdCo(Se2O7)2
_symmetry_space_group_name_H-M   'P 1'
_cell_length_a   5.27928641
_cell_length_b   7.36258427
_cell_length_c   9.10101726
_cell_angle_alpha   92.54691989
_cell_angle_beta   94.33278804
_cell_angle_gamma   106.10836533
_symmetry_Int_Tables_number   1
_chemical_formula_structural   CdCo(Se2O7)2
_chemical_formula_sum   'Cd1 Co1 Se4 O14'
_cell_volume   338.09861810
_cell_formula_units_Z   1
loop_
 _symmetry_equiv_pos_site_id
 _symmetry_equiv_pos_as_xyz
  1  'x, y, z'
loop_
 _atom_site_type_symbol
 _atom_site_label
 _atom_site_symmetry_multiplicity
 _atom_site_fract_x
 _atom_site_fract_y
 _atom_site_fract_z
 _atom_site_occupancy
  Cd  Cd0  1  0.000000  0.500000  0.000000  1
  Co  Co1  1  0.500000  0.000000  0.500000  1
  Se  Se2  1  0.511454  0.653833  0.761000  1
  Se  Se3  1  0.488546  0.346167  0.239000  1
  Se  Se4  1  0.123416  0.238132  0.680434  1
  Se  Se5  1  0.876584  0.761868  0.319566  1
  O  O6  1  0.743217  0.548985  0.801946  1
  O  O7  1  0.256783  0.451015  0.198054  1
  O  O8  1  0.355824  0.703510  0.901468  1
  O  O9  1  0.644176  0.296490  0.098532  1
  O  O10  1  0.618884  0.829412  0.654953  1
  O  O11  1  0.381116  0.170588  0.345047  1
  O  O12  1  0.268064  0.483032  0.632696  1
  O  O13  1  0.731936  0.516968  0.367304  1
  O  O14  1  0.881559  0.183371  0.546163  1
  O  O15  1  0.118441  0.816629  0.453837  1
  O  O16  1  0.356817  0.128869  0.670077  1
  O  O17  1  0.643183  0.871131  0.329923  1
  O  O18  1  0.045440  0.247741  0.852326  1
  O  O19  1  0.954560  0.752259  0.147674  1
