# generated using pymatgen
data_CrGa3Rh4
_symmetry_space_group_name_H-M   'P 1'
_cell_length_a   5.28151057
_cell_length_b   5.28151101
_cell_length_c   4.29078600
_cell_angle_alpha   90.00000000
_cell_angle_beta   90.00000000
_cell_angle_gamma   109.70956580
_symmetry_Int_Tables_number   1
_chemical_formula_structural   CrGa3Rh4
_chemical_formula_sum   'Cr1 Ga3 Rh4'
_cell_volume   112.67666042
_cell_formula_units_Z   1
loop_
 _symmetry_equiv_pos_site_id
 _symmetry_equiv_pos_as_xyz
  1  'x, y, z'
loop_
 _atom_site_type_symbol
 _atom_site_label
 _atom_site_symmetry_multiplicity
 _atom_site_fract_x
 _atom_site_fract_y
 _atom_site_fract_z
 _atom_site_occupancy
  Cr  Cr0  1  0.500000  0.500000  0.000000  1
  Ga  Ga1  1  0.000000  0.000000  0.000000  1
  Ga  Ga2  1  0.738715  0.261285  0.500000  1
  Ga  Ga3  1  0.261285  0.738715  0.500000  1
  Rh  Rh4  1  0.500000  0.000000  0.000000  1
  Rh  Rh5  1  0.000000  0.500000  0.000000  1
  Rh  Rh6  1  0.758389  0.758389  0.500000  1
  Rh  Rh7  1  0.241611  0.241611  0.500000  1
