# generated using pymatgen
data_Cs3Sn2F11
_symmetry_space_group_name_H-M   'P 1'
_cell_length_a   6.49722735
_cell_length_b   6.49722673
_cell_length_c   10.03771600
_cell_angle_alpha   108.88324247
_cell_angle_beta   108.88324062
_cell_angle_gamma   89.99999202
_symmetry_Int_Tables_number   1
_chemical_formula_structural   Cs3Sn2F11
_chemical_formula_sum   'Cs3 Sn2 F11'
_cell_volume   376.74337163
_cell_formula_units_Z   1
loop_
 _symmetry_equiv_pos_site_id
 _symmetry_equiv_pos_as_xyz
  1  'x, y, z'
loop_
 _atom_site_type_symbol
 _atom_site_label
 _atom_site_symmetry_multiplicity
 _atom_site_fract_x
 _atom_site_fract_y
 _atom_site_fract_z
 _atom_site_occupancy
  Cs  Cs0  1  0.749980  0.250020  0.500000  1
  Cs  Cs1  1  0.250021  0.749980  0.500000  1
  Cs  Cs2  1  0.000000  0.000000  0.000000  1
  Sn  Sn3  1  0.616711  0.616713  0.233266  1
  Sn  Sn4  1  0.383289  0.383288  0.766734  1
  F  F5  1  0.500000  0.500000  0.000000  1
  F  F6  1  0.399244  0.399245  0.231903  1
  F  F7  1  0.832856  0.399291  0.232003  1
  F  F8  1  0.399291  0.832857  0.232002  1
  F  F9  1  0.832917  0.832918  0.232123  1
  F  F10  1  0.270442  0.270442  0.540899  1
  F  F11  1  0.729560  0.729559  0.459101  1
  F  F12  1  0.167083  0.167083  0.767878  1
  F  F13  1  0.600710  0.167144  0.767998  1
  F  F14  1  0.167144  0.600710  0.767998  1
  F  F15  1  0.600756  0.600756  0.768098  1
