# generated using pymatgen
data_Ba4NbCrO8
_symmetry_space_group_name_H-M   'P 1'
_cell_length_a   7.37598575
_cell_length_b   7.37598561
_cell_length_c   5.78112500
_cell_angle_alpha   90.00000000
_cell_angle_beta   90.00000000
_cell_angle_gamma   133.79595934
_symmetry_Int_Tables_number   1
_chemical_formula_structural   Ba4NbCrO8
_chemical_formula_sum   'Ba4 Nb1 Cr1 O8'
_cell_volume   227.02558621
_cell_formula_units_Z   1
loop_
 _symmetry_equiv_pos_site_id
 _symmetry_equiv_pos_as_xyz
  1  'x, y, z'
loop_
 _atom_site_type_symbol
 _atom_site_label
 _atom_site_symmetry_multiplicity
 _atom_site_fract_x
 _atom_site_fract_y
 _atom_site_fract_z
 _atom_site_occupancy
  Ba  Ba0  1  0.647374  0.352626  0.000000  1
  Ba  Ba1  1  0.144096  0.855904  0.500000  1
  Ba  Ba2  1  0.855904  0.144096  0.500000  1
  Ba  Ba3  1  0.352626  0.647374  0.000000  1
  Nb  Nb4  1  0.500000  0.500000  0.500000  1
  Cr  Cr5  1  0.000000  0.000000  0.000000  1
  O  O6  1  0.847421  0.152579  0.000000  1
  O  O7  1  0.348628  0.651372  0.500000  1
  O  O8  1  0.651372  0.348628  0.500000  1
  O  O9  1  0.152579  0.847421  0.000000  1
  O  O10  1  0.747648  0.747648  0.746545  1
  O  O11  1  0.252352  0.252352  0.253455  1
  O  O12  1  0.252352  0.252352  0.746545  1
  O  O13  1  0.747648  0.747648  0.253455  1
