# generated using pymatgen
data_Ho7Tm3(RuRh)2
_symmetry_space_group_name_H-M   'P 1'
_cell_length_a   6.33554669
_cell_length_b   7.22379550
_cell_length_c   8.43532914
_cell_angle_alpha   96.74820422
_cell_angle_beta   111.94960574
_cell_angle_gamma   89.97055202
_symmetry_Int_Tables_number   1
_chemical_formula_structural   Ho7Tm3(RuRh)2
_chemical_formula_sum   'Ho7 Tm3 Ru2 Rh2'
_cell_volume   355.19720478
_cell_formula_units_Z   1
loop_
 _symmetry_equiv_pos_site_id
 _symmetry_equiv_pos_as_xyz
  1  'x, y, z'
loop_
 _atom_site_type_symbol
 _atom_site_label
 _atom_site_symmetry_multiplicity
 _atom_site_fract_x
 _atom_site_fract_y
 _atom_site_fract_z
 _atom_site_occupancy
  Ho  Ho0  1  0.792077  0.081811  0.812578  1
  Ho  Ho1  1  0.979920  0.418194  0.187811  1
  Ho  Ho2  1  0.209755  0.914555  0.184778  1
  Ho  Ho3  1  0.025428  0.585345  0.815138  1
  Ho  Ho4  1  0.207903  0.183702  0.565508  1
  Ho  Ho5  1  0.642238  0.316886  0.434651  1
  Ho  Ho6  1  0.792044  0.812556  0.436906  1
  Tm  Tm7  1  0.355541  0.686693  0.563692  1
  Tm  Tm8  1  0.420039  0.249818  0.999858  1
  Tm  Tm9  1  0.576930  0.749944  0.999511  1
  Ru  Ru10  1  0.396741  0.574910  0.219791  1
  Ru  Ru11  1  0.178225  0.925036  0.780038  1
  Rh  Rh12  1  0.601448  0.424640  0.779798  1
  Rh  Rh13  1  0.821707  0.075911  0.219941  1
