# generated using pymatgen
data_ZrSc(NiP)3
_symmetry_space_group_name_H-M   'P 1'
_cell_length_a   3.63979500
_cell_length_b   10.01882000
_cell_length_c   12.32899600
_cell_angle_alpha   90.00000000
_cell_angle_beta   90.00000000
_cell_angle_gamma   90.00000000
_symmetry_Int_Tables_number   1
_chemical_formula_structural   ZrSc(NiP)3
_chemical_formula_sum   'Zr4 Sc4 Ni12 P12'
_cell_volume   449.59472780
_cell_formula_units_Z   4
loop_
 _symmetry_equiv_pos_site_id
 _symmetry_equiv_pos_as_xyz
  1  'x, y, z'
loop_
 _atom_site_type_symbol
 _atom_site_label
 _atom_site_symmetry_multiplicity
 _atom_site_fract_x
 _atom_site_fract_y
 _atom_site_fract_z
 _atom_site_occupancy
  Zr  Zr0  1  0.250000  0.160459  0.496271  1
  Zr  Zr1  1  0.750000  0.839541  0.503729  1
  Zr  Zr2  1  0.750000  0.660459  0.003729  1
  Zr  Zr3  1  0.250000  0.339541  0.996271  1
  Sc  Sc4  1  0.250000  0.073467  0.209845  1
  Sc  Sc5  1  0.750000  0.926533  0.790155  1
  Sc  Sc6  1  0.750000  0.573467  0.290155  1
  Sc  Sc7  1  0.250000  0.426533  0.709845  1
  Ni  Ni8  1  0.250000  0.726717  0.665357  1
  Ni  Ni9  1  0.750000  0.273283  0.334643  1
  Ni  Ni10  1  0.750000  0.226717  0.834643  1
  Ni  Ni11  1  0.250000  0.773283  0.165357  1
  Ni  Ni12  1  0.250000  0.365435  0.219173  1
  Ni  Ni13  1  0.750000  0.634565  0.780827  1
  Ni  Ni14  1  0.750000  0.865435  0.280827  1
  Ni  Ni15  1  0.250000  0.134565  0.719173  1
  Ni  Ni16  1  0.250000  0.594938  0.481829  1
  Ni  Ni17  1  0.750000  0.405062  0.518171  1
  Ni  Ni18  1  0.750000  0.094938  0.018171  1
  Ni  Ni19  1  0.250000  0.905062  0.981829  1
  P  P20  1  0.250000  0.945854  0.628235  1
  P  P21  1  0.750000  0.054146  0.371765  1
  P  P22  1  0.750000  0.445854  0.871765  1
  P  P23  1  0.250000  0.554146  0.128235  1
  P  P24  1  0.250000  0.397318  0.397842  1
  P  P25  1  0.750000  0.602682  0.602158  1
  P  P26  1  0.750000  0.897318  0.102158  1
  P  P27  1  0.250000  0.102682  0.897842  1
  P  P28  1  0.250000  0.763997  0.354389  1
  P  P29  1  0.750000  0.236003  0.645611  1
  P  P30  1  0.750000  0.263997  0.145611  1
  P  P31  1  0.250000  0.736003  0.854389  1
