# generated using pymatgen
data_Hf4Sc4Co7Si14Ni
_symmetry_space_group_name_H-M   'P 1'
_cell_length_a   9.49203317
_cell_length_b   9.47919969
_cell_length_c   9.47825836
_cell_angle_alpha   94.02469638
_cell_angle_beta   94.09658188
_cell_angle_gamma   149.12615612
_symmetry_Int_Tables_number   1
_chemical_formula_structural   Hf4Sc4Co7Si14Ni
_chemical_formula_sum   'Hf4 Sc4 Co7 Si14 Ni1'
_cell_volume   421.85570550
_cell_formula_units_Z   1
loop_
 _symmetry_equiv_pos_site_id
 _symmetry_equiv_pos_as_xyz
  1  'x, y, z'
loop_
 _atom_site_type_symbol
 _atom_site_label
 _atom_site_symmetry_multiplicity
 _atom_site_fract_x
 _atom_site_fract_y
 _atom_site_fract_z
 _atom_site_occupancy
  Hf  Hf0  1  0.304260  0.500893  0.802859  1
  Hf  Hf1  1  0.696883  0.500331  0.196606  1
  Hf  Hf2  1  0.499814  0.696374  0.196630  1
  Hf  Hf3  1  0.498920  0.302280  0.802763  1
  Sc  Sc4  1  0.138705  0.138680  0.277126  1
  Sc  Sc5  1  0.861423  0.861355  0.722374  1
  Sc  Sc6  1  0.136896  0.860151  0.999655  1
  Sc  Sc7  1  0.863101  0.139777  0.999663  1
  Co  Co8  1  0.396115  0.896022  0.792092  1
  Co  Co9  1  0.901186  0.104069  0.501537  1
  Co  Co10  1  0.600759  0.397760  0.501539  1
  Co  Co11  1  0.602260  0.102131  0.206125  1
  Co  Co12  1  0.898918  0.398830  0.797502  1
  Co  Co13  1  0.101699  0.895291  0.498757  1
  Co  Co14  1  0.397280  0.603704  0.498618  1
  Si  Si15  1  0.289913  0.289894  0.579431  1
  Si  Si16  1  0.710485  0.710462  0.420659  1
  Si  Si17  1  0.295676  0.715807  0.998481  1
  Si  Si18  1  0.702241  0.282171  0.998311  1
  Si  Si19  1  0.090360  0.498680  0.591094  1
  Si  Si20  1  0.896125  0.490114  0.411186  1
  Si  Si21  1  0.514733  0.920794  0.411053  1
  Si  Si22  1  0.500817  0.092329  0.591057  1
  Si  Si23  1  0.252413  0.252331  0.999738  1
  Si  Si24  1  0.747717  0.747717  0.999751  1
  Si  Si25  1  0.302569  0.004820  0.300436  1
  Si  Si26  1  0.701880  0.001681  0.700299  1
  Si  Si27  1  0.998871  0.698901  0.700322  1
  Si  Si28  1  0.997925  0.295767  0.300370  1
  Ni  Ni29  1  0.100060  0.600884  0.203965  1
