# generated using pymatgen
data_Y3Lu13(ScSb3)4
_symmetry_space_group_name_H-M   'P 1'
_cell_length_a   7.89288334
_cell_length_b   9.08847000
_cell_length_c   11.61583551
_cell_angle_alpha   90.00000000
_cell_angle_beta   90.03383952
_cell_angle_gamma   90.00000000
_symmetry_Int_Tables_number   1
_chemical_formula_structural   Y3Lu13(ScSb3)4
_chemical_formula_sum   'Y3 Lu13 Sc4 Sb12'
_cell_volume   833.25291104
_cell_formula_units_Z   1
loop_
 _symmetry_equiv_pos_site_id
 _symmetry_equiv_pos_as_xyz
  1  'x, y, z'
loop_
 _atom_site_type_symbol
 _atom_site_label
 _atom_site_symmetry_multiplicity
 _atom_site_fract_x
 _atom_site_fract_y
 _atom_site_fract_z
 _atom_site_occupancy
  Y  Y0  1  0.184026  0.750000  0.721060  1
  Y  Y1  1  0.684038  0.750000  0.778867  1
  Y  Y2  1  0.815759  0.250000  0.279020  1
  Lu  Lu3  1  0.196673  0.562849  0.438974  1
  Lu  Lu4  1  0.697177  0.937101  0.060676  1
  Lu  Lu5  1  0.803430  0.062989  0.560606  1
  Lu  Lu6  1  0.303112  0.437068  0.939713  1
  Lu  Lu7  1  0.803430  0.437011  0.560606  1
  Lu  Lu8  1  0.303112  0.062932  0.939713  1
  Lu  Lu9  1  0.196673  0.937151  0.438974  1
  Lu  Lu10  1  0.697177  0.562899  0.060676  1
  Lu  Lu11  1  0.315180  0.250000  0.220321  1
  Lu  Lu12  1  0.855432  0.750000  0.284033  1
  Lu  Lu13  1  0.355332  0.750000  0.215754  1
  Lu  Lu14  1  0.144979  0.250000  0.715628  1
  Lu  Lu15  1  0.644481  0.250000  0.784523  1
  Sc  Sc16  1  0.028166  0.750000  0.989622  1
  Sc  Sc17  1  0.527668  0.750000  0.510417  1
  Sc  Sc18  1  0.972437  0.250000  0.011121  1
  Sc  Sc19  1  0.471499  0.250000  0.488692  1
  Sb  Sb20  1  0.933323  0.494042  0.831859  1
  Sb  Sb21  1  0.433484  0.005928  0.668409  1
  Sb  Sb22  1  0.068249  0.995596  0.168755  1
  Sb  Sb23  1  0.565437  0.504941  0.331045  1
  Sb  Sb24  1  0.068249  0.504404  0.168755  1
  Sb  Sb25  1  0.565437  0.995059  0.331045  1
  Sb  Sb26  1  0.933323  0.005958  0.831859  1
  Sb  Sb27  1  0.433484  0.494072  0.668409  1
  Sb  Sb28  1  0.906102  0.750000  0.538679  1
  Sb  Sb29  1  0.406292  0.750000  0.961369  1
  Sb  Sb30  1  0.094689  0.250000  0.460550  1
  Sb  Sb31  1  0.592150  0.250000  0.040271  1
