# generated using pymatgen
data_Li3ZnGe3Pt2
_symmetry_space_group_name_H-M   'P 1'
_cell_length_a   4.33154400
_cell_length_b   4.33154301
_cell_length_c   8.72853800
_cell_angle_alpha   90.00000000
_cell_angle_beta   90.00000000
_cell_angle_gamma   120.00000755
_symmetry_Int_Tables_number   1
_chemical_formula_structural   Li3ZnGe3Pt2
_chemical_formula_sum   'Li3 Zn1 Ge3 Pt2'
_cell_volume   141.82652667
_cell_formula_units_Z   1
loop_
 _symmetry_equiv_pos_site_id
 _symmetry_equiv_pos_as_xyz
  1  'x, y, z'
loop_
 _atom_site_type_symbol
 _atom_site_label
 _atom_site_symmetry_multiplicity
 _atom_site_fract_x
 _atom_site_fract_y
 _atom_site_fract_z
 _atom_site_occupancy
  Li  Li0  1  0.000000  0.000000  0.155744  1
  Li  Li1  1  0.000000  0.000000  0.510922  1
  Li  Li2  1  0.000000  0.000000  0.834007  1
  Zn  Zn3  1  0.666667  0.333333  0.366923  1
  Ge  Ge4  1  0.333333  0.666667  0.297186  1
  Ge  Ge5  1  0.333333  0.666667  0.685359  1
  Ge  Ge6  1  0.666667  0.333333  0.976983  1
  Pt  Pt7  1  0.666667  0.333333  0.671858  1
  Pt  Pt8  1  0.333333  0.666667  0.001019  1
