# generated using pymatgen
data_Ac2Tb6Se11
_symmetry_space_group_name_H-M   'P 1'
_cell_length_a   7.10033700
_cell_length_b   7.10033727
_cell_length_c   37.85389100
_cell_angle_alpha   90.00000000
_cell_angle_beta   90.00000000
_cell_angle_gamma   146.26437226
_symmetry_Int_Tables_number   1
_chemical_formula_structural   Ac2Tb6Se11
_chemical_formula_sum   'Ac4 Tb12 Se22'
_cell_volume   1059.84987234
_cell_formula_units_Z   2
loop_
 _symmetry_equiv_pos_site_id
 _symmetry_equiv_pos_as_xyz
  1  'x, y, z'
loop_
 _atom_site_type_symbol
 _atom_site_label
 _atom_site_symmetry_multiplicity
 _atom_site_fract_x
 _atom_site_fract_y
 _atom_site_fract_z
 _atom_site_occupancy
  Ac  Ac0  1  0.503281  0.496719  0.246982  1
  Ac  Ac1  1  0.496719  0.503281  0.746982  1
  Ac  Ac2  1  0.741345  0.258655  0.940423  1
  Ac  Ac3  1  0.258655  0.741345  0.440423  1
  Tb  Tb4  1  0.757193  0.242807  0.317984  1
  Tb  Tb5  1  0.239708  0.760292  0.678885  1
  Tb  Tb6  1  0.760292  0.239708  0.178885  1
  Tb  Tb7  1  0.242807  0.757193  0.817984  1
  Tb  Tb8  1  0.983403  0.016597  0.865384  1
  Tb  Tb9  1  0.022331  0.977669  0.132636  1
  Tb  Tb10  1  0.977669  0.022331  0.632636  1
  Tb  Tb11  1  0.016597  0.983403  0.365384  1
  Tb  Tb12  1  0.998830  0.001170  0.504413  1
  Tb  Tb13  1  0.001170  0.998830  0.004413  1
  Tb  Tb14  1  0.255886  0.744114  0.057921  1
  Tb  Tb15  1  0.744114  0.255886  0.557921  1
  Se  Se16  1  0.883331  0.116669  0.797650  1
  Se  Se17  1  0.121845  0.878155  0.200181  1
  Se  Se18  1  0.878155  0.121845  0.700181  1
  Se  Se19  1  0.116669  0.883331  0.297650  1
  Se  Se20  1  0.928785  0.071215  0.433076  1
  Se  Se21  1  0.096358  0.903642  0.570811  1
  Se  Se22  1  0.903642  0.096358  0.070811  1
  Se  Se23  1  0.071215  0.928785  0.933076  1
  Se  Se24  1  0.834502  0.165498  0.249079  1
  Se  Se25  1  0.165498  0.834502  0.749079  1
  Se  Se26  1  0.391609  0.608391  0.338209  1
  Se  Se27  1  0.599135  0.400865  0.663182  1
  Se  Se28  1  0.400865  0.599135  0.163182  1
  Se  Se29  1  0.608391  0.391609  0.838209  1
  Se  Se30  1  0.642388  0.357612  0.487775  1
  Se  Se31  1  0.355598  0.644402  0.518571  1
  Se  Se32  1  0.644402  0.355598  0.018571  1
  Se  Se33  1  0.357612  0.642388  0.987775  1
  Se  Se34  1  0.657504  0.342496  0.386346  1
  Se  Se35  1  0.338502  0.661498  0.610492  1
  Se  Se36  1  0.661498  0.338502  0.110492  1
  Se  Se37  1  0.342496  0.657504  0.886346  1
