# generated using pymatgen
data_La8Pr11TmSi16
_symmetry_space_group_name_H-M   'P 1'
_cell_length_a   7.95449033
_cell_length_b   7.95449033
_cell_length_c   15.38437322
_cell_angle_alpha   90.03254592
_cell_angle_beta   89.96745408
_cell_angle_gamma   90.00202152
_symmetry_Int_Tables_number   1
_chemical_formula_structural   La8Pr11TmSi16
_chemical_formula_sum   'La8 Pr11 Tm1 Si16'
_cell_volume   973.42922985
_cell_formula_units_Z   1
loop_
 _symmetry_equiv_pos_site_id
 _symmetry_equiv_pos_as_xyz
  1  'x, y, z'
loop_
 _atom_site_type_symbol
 _atom_site_label
 _atom_site_symmetry_multiplicity
 _atom_site_fract_x
 _atom_site_fract_y
 _atom_site_fract_z
 _atom_site_occupancy
  La  La0  1  0.376446  0.011496  0.448145  1
  La  La1  1  0.488136  0.876815  0.699022  1
  La  La2  1  0.511600  0.123581  0.197467  1
  La  La3  1  0.876815  0.488136  0.300978  1
  La  La4  1  0.123581  0.511600  0.802533  1
  La  La5  1  0.623781  0.987126  0.948592  1
  La  La6  1  0.011496  0.376446  0.551855  1
  La  La7  1  0.987126  0.623781  0.051408  1
  Pr  Pr8  1  0.190846  0.809423  0.249551  1
  Pr  Pr9  1  0.809423  0.190846  0.750449  1
  Pr  Pr10  1  0.691104  0.691104  0.500000  1
  Pr  Pr11  1  0.127097  0.981038  0.877591  1
  Pr  Pr12  1  0.518288  0.627902  0.125885  1
  Pr  Pr13  1  0.480970  0.373186  0.627711  1
  Pr  Pr14  1  0.627902  0.518288  0.874115  1
  Pr  Pr15  1  0.373186  0.480970  0.372289  1
  Pr  Pr16  1  0.873078  0.018477  0.376302  1
  Pr  Pr17  1  0.981038  0.127097  0.122409  1
  Pr  Pr18  1  0.018477  0.873078  0.623698  1
  Tm  Tm19  1  0.311884  0.311884  0.000000  1
  Si  Si20  1  0.196124  0.168296  0.704682  1
  Si  Si21  1  0.330137  0.692217  0.954214  1
  Si  Si22  1  0.667330  0.303889  0.452776  1
  Si  Si23  1  0.692217  0.330137  0.045786  1
  Si  Si24  1  0.303889  0.667330  0.547224  1
  Si  Si25  1  0.803740  0.831572  0.202688  1
  Si  Si26  1  0.168296  0.196124  0.295318  1
  Si  Si27  1  0.831572  0.803740  0.797312  1
  Si  Si28  1  0.289070  0.925694  0.059298  1
  Si  Si29  1  0.578628  0.787385  0.309625  1
  Si  Si30  1  0.417915  0.214581  0.814631  1
  Si  Si31  1  0.787385  0.578628  0.690375  1
  Si  Si32  1  0.214581  0.417915  0.185369  1
  Si  Si33  1  0.711990  0.079156  0.560232  1
  Si  Si34  1  0.925694  0.289070  0.940702  1
  Si  Si35  1  0.079156  0.711990  0.439768  1
