# generated using pymatgen
data_Ta3GaC
_symmetry_space_group_name_H-M   'P 1'
_cell_length_a   5.68043235
_cell_length_b   5.68043253
_cell_length_c   8.44185400
_cell_angle_alpha   90.00000000
_cell_angle_beta   90.00000000
_cell_angle_gamma   146.90655738
_symmetry_Int_Tables_number   1
_chemical_formula_structural   Ta3GaC
_chemical_formula_sum   'Ta6 Ga2 C2'
_cell_volume   148.72984165
_cell_formula_units_Z   2
loop_
 _symmetry_equiv_pos_site_id
 _symmetry_equiv_pos_as_xyz
  1  'x, y, z'
loop_
 _atom_site_type_symbol
 _atom_site_label
 _atom_site_symmetry_multiplicity
 _atom_site_fract_x
 _atom_site_fract_y
 _atom_site_fract_z
 _atom_site_occupancy
  Ta  Ta0  1  0.368179  0.631822  0.048886  1
  Ta  Ta1  1  0.048256  0.951745  0.250000  1
  Ta  Ta2  1  0.368179  0.631822  0.451113  1
  Ta  Ta3  1  0.631822  0.368179  0.548886  1
  Ta  Ta4  1  0.951745  0.048256  0.750000  1
  Ta  Ta5  1  0.631822  0.368179  0.951114  1
  Ga  Ga6  1  0.743772  0.256229  0.250000  1
  Ga  Ga7  1  0.256229  0.743772  0.750000  1
  C  C8  1  0.000000  0.000000  0.000000  1
  C  C9  1  0.000000  0.000000  0.499999  1
