# generated using pymatgen
data_Dy8Co2AgHg
_symmetry_space_group_name_H-M   'P 1'
_cell_length_a   9.44396320
_cell_length_b   9.44396189
_cell_length_c   9.44855500
_cell_angle_alpha   59.98391373
_cell_angle_beta   59.98391833
_cell_angle_gamma   59.95505955
_symmetry_Int_Tables_number   1
_chemical_formula_structural   Dy8Co2AgHg
_chemical_formula_sum   'Dy16 Co4 Ag2 Hg2'
_cell_volume   595.53273396
_cell_formula_units_Z   2
loop_
 _symmetry_equiv_pos_site_id
 _symmetry_equiv_pos_as_xyz
  1  'x, y, z'
loop_
 _atom_site_type_symbol
 _atom_site_label
 _atom_site_symmetry_multiplicity
 _atom_site_fract_x
 _atom_site_fract_y
 _atom_site_fract_z
 _atom_site_occupancy
  Dy  Dy0  1  0.597085  0.597085  0.596862  1
  Dy  Dy1  1  0.597085  0.597085  0.208971  1
  Dy  Dy2  1  0.597892  0.207224  0.597443  1
  Dy  Dy3  1  0.207224  0.597892  0.597443  1
  Dy  Dy4  1  0.061383  0.437377  0.439054  1
  Dy  Dy5  1  0.437377  0.061383  0.062185  1
  Dy  Dy6  1  0.437377  0.061383  0.439054  1
  Dy  Dy7  1  0.061383  0.437377  0.062185  1
  Dy  Dy8  1  0.438724  0.438724  0.061276  1
  Dy  Dy9  1  0.061550  0.061550  0.438450  1
  Dy  Dy10  1  0.186725  0.811724  0.812429  1
  Dy  Dy11  1  0.811724  0.186725  0.189121  1
  Dy  Dy12  1  0.811724  0.186725  0.812429  1
  Dy  Dy13  1  0.186725  0.811724  0.189121  1
  Dy  Dy14  1  0.810993  0.810993  0.189007  1
  Dy  Dy15  1  0.187332  0.187332  0.812668  1
  Co  Co16  1  0.391843  0.391843  0.389522  1
  Co  Co17  1  0.391843  0.391843  0.826792  1
  Co  Co18  1  0.391992  0.827848  0.390080  1
  Co  Co19  1  0.827848  0.391992  0.390080  1
  Ag  Ag20  1  0.833335  0.833335  0.830366  1
  Ag  Ag21  1  0.833335  0.833335  0.502965  1
  Hg  Hg22  1  0.835985  0.501515  0.831250  1
  Hg  Hg23  1  0.501515  0.835985  0.831250  1
