# generated using pymatgen
data_TbYb(NiB4)2
_symmetry_space_group_name_H-M   'P 1'
_cell_length_a   6.82055513
_cell_length_b   6.82055481
_cell_length_c   6.82055392
_cell_angle_alpha   112.83466046
_cell_angle_beta   112.83465752
_cell_angle_gamma   102.93547991
_symmetry_Int_Tables_number   1
_chemical_formula_structural   TbYb(NiB4)2
_chemical_formula_sum   'Tb2 Yb2 Ni4 B16'
_cell_volume   241.90529305
_cell_formula_units_Z   2
loop_
 _symmetry_equiv_pos_site_id
 _symmetry_equiv_pos_as_xyz
  1  'x, y, z'
loop_
 _atom_site_type_symbol
 _atom_site_label
 _atom_site_symmetry_multiplicity
 _atom_site_fract_x
 _atom_site_fract_y
 _atom_site_fract_z
 _atom_site_occupancy
  Tb  Tb0  1  0.750000  0.250000  0.500000  1
  Tb  Tb1  1  0.250000  0.750000  0.500000  1
  Yb  Yb2  1  0.204009  0.204009  0.000000  1
  Yb  Yb3  1  0.795991  0.795991  0.000000  1
  Ni  Ni4  1  0.500000  0.273392  0.773392  1
  Ni  Ni5  1  0.500000  0.726608  0.226608  1
  Ni  Ni6  1  0.726608  0.500000  0.226608  1
  Ni  Ni7  1  0.273392  0.500000  0.773392  1
  B  B8  1  0.112160  0.276218  0.388378  1
  B  B9  1  0.887840  0.723782  0.611622  1
  B  B10  1  0.887840  0.276218  0.164059  1
  B  B11  1  0.112160  0.723782  0.835941  1
  B  B12  1  0.723782  0.887840  0.611622  1
  B  B13  1  0.276218  0.112160  0.388378  1
  B  B14  1  0.723782  0.112160  0.835941  1
  B  B15  1  0.276218  0.887840  0.164059  1
  B  B16  1  0.417163  0.417163  0.530507  1
  B  B17  1  0.886657  0.886657  0.469493  1
  B  B18  1  0.582837  0.113343  0.000000  1
  B  B19  1  0.113343  0.582837  0.000000  1
  B  B20  1  0.582837  0.582837  0.469493  1
  B  B21  1  0.113343  0.113343  0.530507  1
  B  B22  1  0.886657  0.417163  0.000000  1
  B  B23  1  0.417163  0.886657  0.000000  1
