# generated using pymatgen
data_Th7Sn23Ru6
_symmetry_space_group_name_H-M   'P 1'
_cell_length_a   9.96759900
_cell_length_b   9.96759929
_cell_length_c   10.29452700
_cell_angle_alpha   90.00000000
_cell_angle_beta   90.00000000
_cell_angle_gamma   120.00000234
_symmetry_Int_Tables_number   1
_chemical_formula_structural   Th7Sn23Ru6
_chemical_formula_sum   'Th7 Sn23 Ru6'
_cell_volume   885.76424808
_cell_formula_units_Z   1
loop_
 _symmetry_equiv_pos_site_id
 _symmetry_equiv_pos_as_xyz
  1  'x, y, z'
loop_
 _atom_site_type_symbol
 _atom_site_label
 _atom_site_symmetry_multiplicity
 _atom_site_fract_x
 _atom_site_fract_y
 _atom_site_fract_z
 _atom_site_occupancy
  Th  Th0  1  0.000000  0.000000  0.000000  1
  Th  Th1  1  0.035623  0.517811  0.301745  1
  Th  Th2  1  0.482189  0.964377  0.301745  1
  Th  Th3  1  0.482189  0.517811  0.301745  1
  Th  Th4  1  0.964377  0.482189  0.698255  1
  Th  Th5  1  0.517811  0.035623  0.698255  1
  Th  Th6  1  0.517811  0.482189  0.698255  1
  Sn  Sn7  1  0.000000  0.000000  0.500000  1
  Sn  Sn8  1  0.114832  0.885168  0.278348  1
  Sn  Sn9  1  0.770335  0.885168  0.278348  1
  Sn  Sn10  1  0.114832  0.229665  0.278348  1
  Sn  Sn11  1  0.885168  0.114832  0.721652  1
  Sn  Sn12  1  0.229665  0.114832  0.721652  1
  Sn  Sn13  1  0.885168  0.770335  0.721652  1
  Sn  Sn14  1  0.348378  0.000000  0.000000  1
  Sn  Sn15  1  0.651622  0.651622  0.000000  1
  Sn  Sn16  1  0.000000  0.348378  0.000000  1
  Sn  Sn17  1  0.348378  0.348378  0.000000  1
  Sn  Sn18  1  0.000000  0.651622  0.000000  1
  Sn  Sn19  1  0.651622  0.000000  0.000000  1
  Sn  Sn20  1  0.782419  0.564840  0.461123  1
  Sn  Sn21  1  0.782419  0.217581  0.461123  1
  Sn  Sn22  1  0.435160  0.217581  0.461123  1
  Sn  Sn23  1  0.217581  0.435160  0.538877  1
  Sn  Sn24  1  0.217581  0.782419  0.538877  1
  Sn  Sn25  1  0.564840  0.782419  0.538877  1
  Sn  Sn26  1  0.666667  0.333333  0.175301  1
  Sn  Sn27  1  0.333333  0.666667  0.824699  1
  Sn  Sn28  1  0.666667  0.333333  0.885827  1
  Sn  Sn29  1  0.333333  0.666667  0.114173  1
  Ru  Ru30  1  0.169447  0.830553  0.798667  1
  Ru  Ru31  1  0.661104  0.830553  0.798667  1
  Ru  Ru32  1  0.169447  0.338896  0.798667  1
  Ru  Ru33  1  0.830553  0.169447  0.201333  1
  Ru  Ru34  1  0.338896  0.169447  0.201333  1
  Ru  Ru35  1  0.830553  0.661104  0.201333  1
