# generated using pymatgen
data_Tb4Pr5Sm(Sn5Rh2)4
_symmetry_space_group_name_H-M   'P 1'
_cell_length_a   14.19490300
_cell_length_b   14.19490300
_cell_length_c   4.59020000
_cell_angle_alpha   90.00000000
_cell_angle_beta   90.00000000
_cell_angle_gamma   90.00000000
_symmetry_Int_Tables_number   1
_chemical_formula_structural   Tb4Pr5Sm(Sn5Rh2)4
_chemical_formula_sum   'Tb4 Pr5 Sm1 Sn20 Rh8'
_cell_volume   924.90359377
_cell_formula_units_Z   1
loop_
 _symmetry_equiv_pos_site_id
 _symmetry_equiv_pos_as_xyz
  1  'x, y, z'
loop_
 _atom_site_type_symbol
 _atom_site_label
 _atom_site_symmetry_multiplicity
 _atom_site_fract_x
 _atom_site_fract_y
 _atom_site_fract_z
 _atom_site_occupancy
  Tb  Tb0  1  0.677192  0.177461  0.500000  1
  Tb  Tb1  1  0.322808  0.822539  0.500000  1
  Tb  Tb2  1  0.177461  0.322808  0.500000  1
  Tb  Tb3  1  0.822539  0.677192  0.500000  1
  Pr  Pr4  1  0.000000  0.000000  0.000000  1
  Pr  Pr5  1  0.887994  0.388197  0.500000  1
  Pr  Pr6  1  0.112006  0.611803  0.500000  1
  Pr  Pr7  1  0.388197  0.112006  0.500000  1
  Pr  Pr8  1  0.611803  0.887994  0.500000  1
  Sm  Sm9  1  0.500000  0.500000  0.000000  1
  Sn  Sn10  1  0.570072  0.070362  0.000000  1
  Sn  Sn11  1  0.429928  0.929638  0.000000  1
  Sn  Sn12  1  0.070362  0.429928  0.000000  1
  Sn  Sn13  1  0.929638  0.570072  0.000000  1
  Sn  Sn14  1  0.654317  0.697934  0.000000  1
  Sn  Sn15  1  0.345683  0.302066  0.000000  1
  Sn  Sn16  1  0.154472  0.801855  0.000000  1
  Sn  Sn17  1  0.845528  0.198145  0.000000  1
  Sn  Sn18  1  0.302066  0.654317  0.000000  1
  Sn  Sn19  1  0.697934  0.345683  0.000000  1
  Sn  Sn20  1  0.198145  0.154472  0.000000  1
  Sn  Sn21  1  0.801855  0.845528  0.000000  1
  Sn  Sn22  1  0.662421  0.505441  0.500000  1
  Sn  Sn23  1  0.337579  0.494559  0.500000  1
  Sn  Sn24  1  0.163949  0.994588  0.500000  1
  Sn  Sn25  1  0.836051  0.005412  0.500000  1
  Sn  Sn26  1  0.494559  0.662421  0.500000  1
  Sn  Sn27  1  0.505441  0.337579  0.500000  1
  Sn  Sn28  1  0.005412  0.163949  0.500000  1
  Sn  Sn29  1  0.994588  0.836051  0.500000  1
  Rh  Rh30  1  0.746135  0.529082  0.000000  1
  Rh  Rh31  1  0.253865  0.470918  0.000000  1
  Rh  Rh32  1  0.247147  0.970769  0.000000  1
  Rh  Rh33  1  0.752853  0.029231  0.000000  1
  Rh  Rh34  1  0.470918  0.746135  0.000000  1
  Rh  Rh35  1  0.529082  0.253865  0.000000  1
  Rh  Rh36  1  0.029231  0.247147  0.000000  1
  Rh  Rh37  1  0.970769  0.752853  0.000000  1
