# generated using pymatgen
data_CaYb3(Si3Pd5)4
_symmetry_space_group_name_H-M   'P 1'
_cell_length_a   19.75020826
_cell_length_b   4.02906800
_cell_length_c   7.30401021
_cell_angle_alpha   90.00000000
_cell_angle_beta   90.01916629
_cell_angle_gamma   90.00000000
_symmetry_Int_Tables_number   1
_chemical_formula_structural   CaYb3(Si3Pd5)4
_chemical_formula_sum   'Ca1 Yb3 Si12 Pd20'
_cell_volume   581.21608416
_cell_formula_units_Z   1
loop_
 _symmetry_equiv_pos_site_id
 _symmetry_equiv_pos_as_xyz
  1  'x, y, z'
loop_
 _atom_site_type_symbol
 _atom_site_label
 _atom_site_symmetry_multiplicity
 _atom_site_fract_x
 _atom_site_fract_y
 _atom_site_fract_z
 _atom_site_occupancy
  Ca  Ca0  1  0.642768  0.250000  0.622388  1
  Yb  Yb1  1  0.142888  0.250000  0.878498  1
  Yb  Yb2  1  0.356865  0.750000  0.378595  1
  Yb  Yb3  1  0.857365  0.750000  0.121449  1
  Si  Si4  1  0.915993  0.250000  0.407717  1
  Si  Si5  1  0.415463  0.250000  0.092410  1
  Si  Si6  1  0.084316  0.750000  0.592154  1
  Si  Si7  1  0.584029  0.750000  0.910115  1
  Si  Si8  1  0.740145  0.250000  0.128044  1
  Si  Si9  1  0.239872  0.250000  0.371739  1
  Si  Si10  1  0.259926  0.750000  0.871739  1
  Si  Si11  1  0.760507  0.750000  0.627757  1
  Si  Si12  1  0.923929  0.250000  0.848757  1
  Si  Si13  1  0.423694  0.250000  0.650958  1
  Si  Si14  1  0.076264  0.750000  0.151006  1
  Si  Si15  1  0.576121  0.750000  0.348003  1
  Pd  Pd16  1  0.800627  0.250000  0.828646  1
  Pd  Pd17  1  0.300212  0.250000  0.671300  1
  Pd  Pd18  1  0.199688  0.750000  0.171450  1
  Pd  Pd19  1  0.700217  0.750000  0.326831  1
  Pd  Pd20  1  0.993369  0.250000  0.126050  1
  Pd  Pd21  1  0.493145  0.250000  0.373714  1
  Pd  Pd22  1  0.006785  0.750000  0.873774  1
  Pd  Pd23  1  0.505945  0.750000  0.626204  1
  Pd  Pd24  1  0.512661  0.250000  0.878206  1
  Pd  Pd25  1  0.013370  0.250000  0.622738  1
  Pd  Pd26  1  0.486276  0.750000  0.123224  1
  Pd  Pd27  1  0.986995  0.750000  0.377217  1
  Pd  Pd28  1  0.617191  0.250000  0.142701  1
  Pd  Pd29  1  0.117123  0.250000  0.356570  1
  Pd  Pd30  1  0.382597  0.750000  0.857012  1
  Pd  Pd31  1  0.883172  0.750000  0.642958  1
  Pd  Pd32  1  0.796364  0.250000  0.431030  1
  Pd  Pd33  1  0.295710  0.250000  0.068471  1
  Pd  Pd34  1  0.204014  0.750000  0.568567  1
  Pd  Pd35  1  0.704393  0.750000  0.932008  1
