# generated using pymatgen
data_TbSc2Ga5Ni
_symmetry_space_group_name_H-M   'P 1'
_cell_length_a   6.77379638
_cell_length_b   6.77379556
_cell_length_c   4.10704200
_cell_angle_alpha   90.00000000
_cell_angle_beta   90.00000000
_cell_angle_gamma   121.16364501
_symmetry_Int_Tables_number   1
_chemical_formula_structural   TbSc2Ga5Ni
_chemical_formula_sum   'Tb1 Sc2 Ga5 Ni1'
_cell_volume   161.25427481
_cell_formula_units_Z   1
loop_
 _symmetry_equiv_pos_site_id
 _symmetry_equiv_pos_as_xyz
  1  'x, y, z'
loop_
 _atom_site_type_symbol
 _atom_site_label
 _atom_site_symmetry_multiplicity
 _atom_site_fract_x
 _atom_site_fract_y
 _atom_site_fract_z
 _atom_site_occupancy
  Tb  Tb0  1  0.411762  0.411762  0.000000  1
  Sc  Sc1  1  0.598730  0.003503  0.000000  1
  Sc  Sc2  1  0.003503  0.598730  0.000000  1
  Ga  Ga3  1  0.235871  0.997080  0.500000  1
  Ga  Ga4  1  0.997080  0.235871  0.500000  1
  Ga  Ga5  1  0.762760  0.762760  0.500000  1
  Ga  Ga6  1  0.329374  0.674333  0.500000  1
  Ga  Ga7  1  0.674333  0.329374  0.500000  1
  Ni  Ni8  1  0.986587  0.986587  0.000000  1
