# generated using pymatgen
data_CsCeYSe6
_symmetry_space_group_name_H-M   'P 1'
_cell_length_a   12.15349729
_cell_length_b   12.15349686
_cell_length_c   12.15349700
_cell_angle_alpha   159.70535149
_cell_angle_beta   152.86913633
_cell_angle_gamma   34.11754693
_symmetry_Int_Tables_number   1
_chemical_formula_structural   CsCeYSe6
_chemical_formula_sum   'Cs1 Ce1 Y1 Se6'
_cell_volume   283.67805334
_cell_formula_units_Z   1
loop_
 _symmetry_equiv_pos_site_id
 _symmetry_equiv_pos_as_xyz
  1  'x, y, z'
loop_
 _atom_site_type_symbol
 _atom_site_label
 _atom_site_symmetry_multiplicity
 _atom_site_fract_x
 _atom_site_fract_y
 _atom_site_fract_z
 _atom_site_occupancy
  Cs  Cs0  1  0.997915  0.997915  0.000000  1
  Ce  Ce1  1  0.690301  0.190301  0.500000  1
  Y  Y2  1  0.313002  0.813002  0.500000  1
  Se  Se3  1  0.175014  0.386906  0.788109  1
  Se  Se4  1  0.224896  0.224896  0.000000  1
  Se  Se5  1  0.404387  0.613519  0.790868  1
  Se  Se6  1  0.598798  0.386906  0.211891  1
  Se  Se7  1  0.822651  0.613519  0.209132  1
  Se  Se8  1  0.773038  0.773038  0.000000  1
