# generated using pymatgen
data_NdHSeO
_symmetry_space_group_name_H-M   'P 1'
_cell_length_a   4.17656100
_cell_length_b   5.90657088
_cell_length_c   6.67797300
_cell_angle_alpha   66.24534481
_cell_angle_beta   90.00000000
_cell_angle_gamma   90.00000000
_symmetry_Int_Tables_number   1
_chemical_formula_structural   NdHSeO
_chemical_formula_sum   'Nd2 H2 Se2 O2'
_cell_volume   150.78296833
_cell_formula_units_Z   2
loop_
 _symmetry_equiv_pos_site_id
 _symmetry_equiv_pos_as_xyz
  1  'x, y, z'
loop_
 _atom_site_type_symbol
 _atom_site_label
 _atom_site_symmetry_multiplicity
 _atom_site_fract_x
 _atom_site_fract_y
 _atom_site_fract_z
 _atom_site_occupancy
  Nd  Nd0  1  0.205313  0.347574  0.281764  1
  Nd  Nd1  1  0.705313  0.652426  0.718236  1
  H  H2  1  0.705357  0.160542  0.087500  1
  H  H3  1  0.205357  0.839458  0.912500  1
  Se  Se4  1  0.704616  0.189689  0.642067  1
  Se  Se5  1  0.204616  0.810311  0.357933  1
  O  O6  1  0.705326  0.326126  0.088999  1
  O  O7  1  0.205326  0.673874  0.911001  1
