# generated using pymatgen
data_Th8VS17
_symmetry_space_group_name_H-M   'P 1'
_cell_length_a   8.09115456
_cell_length_b   8.09115453
_cell_length_c   10.70248366
_cell_angle_alpha   80.71616064
_cell_angle_beta   80.71616081
_cell_angle_gamma   64.77936244
_symmetry_Int_Tables_number   1
_chemical_formula_structural   Th8VS17
_chemical_formula_sum   'Th8 V1 S17'
_cell_volume   622.19070721
_cell_formula_units_Z   1
loop_
 _symmetry_equiv_pos_site_id
 _symmetry_equiv_pos_as_xyz
  1  'x, y, z'
loop_
 _atom_site_type_symbol
 _atom_site_label
 _atom_site_symmetry_multiplicity
 _atom_site_fract_x
 _atom_site_fract_y
 _atom_site_fract_z
 _atom_site_occupancy
  Th  Th0  1  0.813833  0.299853  0.293093  1
  Th  Th1  1  0.299853  0.813833  0.293093  1
  Th  Th2  1  0.186167  0.700147  0.706907  1
  Th  Th3  1  0.700147  0.186167  0.706907  1
  Th  Th4  1  0.204864  0.204864  0.545876  1
  Th  Th5  1  0.795136  0.795136  0.454124  1
  Th  Th6  1  0.684568  0.684568  0.977438  1
  Th  Th7  1  0.315432  0.315432  0.022562  1
  V  V8  1  0.000000  0.000000  0.000000  1
  S  S9  1  0.824291  0.429770  0.529576  1
  S  S10  1  0.429770  0.824291  0.529576  1
  S  S11  1  0.175709  0.570230  0.470424  1
  S  S12  1  0.570230  0.175709  0.470424  1
  S  S13  1  0.943057  0.323342  0.029320  1
  S  S14  1  0.323342  0.943057  0.029320  1
  S  S15  1  0.056943  0.676658  0.970680  1
  S  S16  1  0.676658  0.056943  0.970680  1
  S  S17  1  0.207513  0.207513  0.279604  1
  S  S18  1  0.792487  0.792487  0.720396  1
  S  S19  1  0.059164  0.059164  0.773437  1
  S  S20  1  0.940836  0.940836  0.226563  1
  S  S21  1  0.304143  0.304143  0.755547  1
  S  S22  1  0.695857  0.695857  0.244453  1
  S  S23  1  0.519917  0.519917  0.833100  1
  S  S24  1  0.480083  0.480083  0.166900  1
  S  S25  1  0.000000  0.000000  0.500000  1
