# generated using pymatgen
data_Np3(Sn2Ru)2
_symmetry_space_group_name_H-M   'P 1'
_cell_length_a   7.48515300
_cell_length_b   7.48515302
_cell_length_c   4.24031300
_cell_angle_alpha   90.00000000
_cell_angle_beta   90.00000000
_cell_angle_gamma   119.99999490
_symmetry_Int_Tables_number   1
_chemical_formula_structural   Np3(Sn2Ru)2
_chemical_formula_sum   'Np3 Sn4 Ru2'
_cell_volume   205.74530543
_cell_formula_units_Z   1
loop_
 _symmetry_equiv_pos_site_id
 _symmetry_equiv_pos_as_xyz
  1  'x, y, z'
loop_
 _atom_site_type_symbol
 _atom_site_label
 _atom_site_symmetry_multiplicity
 _atom_site_fract_x
 _atom_site_fract_y
 _atom_site_fract_z
 _atom_site_occupancy
  Np  Np0  1  0.426425  0.390615  0.500000  1
  Np  Np1  1  0.609385  0.035810  0.500000  1
  Np  Np2  1  0.964190  0.573575  0.500000  1
  Sn  Sn3  1  0.760165  0.748589  0.000000  1
  Sn  Sn4  1  0.251411  0.011577  0.000000  1
  Sn  Sn5  1  0.988423  0.239835  0.000000  1
  Sn  Sn6  1  0.333333  0.666667  0.000000  1
  Ru  Ru7  1  0.666667  0.333333  0.000000  1
  Ru  Ru8  1  0.000000  0.000000  0.500000  1
