# generated using pymatgen
data_Y2Re8Si3Ge
_symmetry_space_group_name_H-M   'P 1'
_cell_length_a   7.44247675
_cell_length_b   7.44247675
_cell_length_c   4.15824600
_cell_angle_alpha   90.00000000
_cell_angle_beta   90.00000000
_cell_angle_gamma   89.92144467
_symmetry_Int_Tables_number   1
_chemical_formula_structural   Y2Re8Si3Ge
_chemical_formula_sum   'Y2 Re8 Si3 Ge1'
_cell_volume   230.32694290
_cell_formula_units_Z   1
loop_
 _symmetry_equiv_pos_site_id
 _symmetry_equiv_pos_as_xyz
  1  'x, y, z'
loop_
 _atom_site_type_symbol
 _atom_site_label
 _atom_site_symmetry_multiplicity
 _atom_site_fract_x
 _atom_site_fract_y
 _atom_site_fract_z
 _atom_site_occupancy
  Y  Y0  1  0.499205  0.500795  0.000000  1
  Y  Y1  1  0.998530  0.001470  0.500000  1
  Re  Re2  1  0.659012  0.905174  0.000000  1
  Re  Re3  1  0.156834  0.588200  0.500000  1
  Re  Re4  1  0.094826  0.340988  0.000000  1
  Re  Re5  1  0.901016  0.653725  0.000000  1
  Re  Re6  1  0.411800  0.843166  0.500000  1
  Re  Re7  1  0.593660  0.159441  0.500000  1
  Re  Re8  1  0.346275  0.098984  0.000000  1
  Re  Re9  1  0.840559  0.406340  0.500000  1
  Si  Si10  1  0.790335  0.209665  0.000000  1
  Si  Si11  1  0.708598  0.707180  0.500000  1
  Si  Si12  1  0.292820  0.291402  0.500000  1
  Ge  Ge13  1  0.206529  0.793471  0.000000  1
