# generated using pymatgen
data_Tb3Dy5Cd2NiIr
_symmetry_space_group_name_H-M   'P 1'
_cell_length_a   9.59929620
_cell_length_b   9.59929628
_cell_length_c   9.64448500
_cell_angle_alpha   59.84414412
_cell_angle_beta   59.84414384
_cell_angle_gamma   59.63930492
_symmetry_Int_Tables_number   1
_chemical_formula_structural   Tb3Dy5Cd2NiIr
_chemical_formula_sum   'Tb6 Dy10 Cd4 Ni2 Ir2'
_cell_volume   625.20640311
_cell_formula_units_Z   2
loop_
 _symmetry_equiv_pos_site_id
 _symmetry_equiv_pos_as_xyz
  1  'x, y, z'
loop_
 _atom_site_type_symbol
 _atom_site_label
 _atom_site_symmetry_multiplicity
 _atom_site_fract_x
 _atom_site_fract_y
 _atom_site_fract_z
 _atom_site_occupancy
  Tb  Tb0  1  0.937526  0.561019  0.565743  1
  Tb  Tb1  1  0.561019  0.937526  0.935712  1
  Tb  Tb2  1  0.561019  0.937526  0.565743  1
  Tb  Tb3  1  0.937526  0.561019  0.935712  1
  Tb  Tb4  1  0.565741  0.565741  0.934259  1
  Tb  Tb5  1  0.939029  0.939029  0.560971  1
  Dy  Dy6  1  0.350056  0.350056  0.344683  1
  Dy  Dy7  1  0.350056  0.350056  0.955205  1
  Dy  Dy8  1  0.352782  0.952573  0.347323  1
  Dy  Dy9  1  0.952573  0.352782  0.347323  1
  Dy  Dy10  1  0.809366  0.187519  0.190515  1
  Dy  Dy11  1  0.187519  0.809366  0.812601  1
  Dy  Dy12  1  0.187519  0.809366  0.190515  1
  Dy  Dy13  1  0.809366  0.187519  0.812601  1
  Dy  Dy14  1  0.189249  0.189249  0.810751  1
  Dy  Dy15  1  0.811310  0.811310  0.188690  1
  Cd  Cd16  1  0.579913  0.579913  0.582659  1
  Cd  Cd17  1  0.579913  0.579913  0.257514  1
  Cd  Cd18  1  0.580109  0.256117  0.581886  1
  Cd  Cd19  1  0.256117  0.580109  0.581886  1
  Ni  Ni20  1  0.141545  0.574905  0.141774  1
  Ni  Ni21  1  0.574905  0.141545  0.141774  1
  Ir  Ir22  1  0.142918  0.142918  0.141184  1
  Ir  Ir23  1  0.142918  0.142918  0.572979  1
