# generated using pymatgen
data_Hf18ReMo5(PW)2
_symmetry_space_group_name_H-M   'P 1'
_cell_length_a   8.64620421
_cell_length_b   8.65690196
_cell_length_c   8.61581800
_cell_angle_alpha   90.00000000
_cell_angle_beta   90.00000000
_cell_angle_gamma   120.04093991
_symmetry_Int_Tables_number   1
_chemical_formula_structural   Hf18ReMo5(PW)2
_chemical_formula_sum   'Hf18 Re1 Mo5 P2 W2'
_cell_volume   558.25911774
_cell_formula_units_Z   1
loop_
 _symmetry_equiv_pos_site_id
 _symmetry_equiv_pos_as_xyz
  1  'x, y, z'
loop_
 _atom_site_type_symbol
 _atom_site_label
 _atom_site_symmetry_multiplicity
 _atom_site_fract_x
 _atom_site_fract_y
 _atom_site_fract_z
 _atom_site_occupancy
  Hf  Hf0  1  0.197677  0.802353  0.453016  1
  Hf  Hf1  1  0.197677  0.395323  0.453016  1
  Hf  Hf2  1  0.605347  0.802673  0.453719  1
  Hf  Hf3  1  0.802627  0.196923  0.548930  1
  Hf  Hf4  1  0.802627  0.605706  0.548930  1
  Hf  Hf5  1  0.395211  0.197606  0.547978  1
  Hf  Hf6  1  0.802627  0.196923  0.951070  1
  Hf  Hf7  1  0.802627  0.605706  0.951070  1
  Hf  Hf8  1  0.395211  0.197606  0.952022  1
  Hf  Hf9  1  0.197677  0.802353  0.046984  1
  Hf  Hf10  1  0.197677  0.395323  0.046984  1
  Hf  Hf11  1  0.605347  0.802673  0.046281  1
  Hf  Hf12  1  0.538890  0.461753  0.250000  1
  Hf  Hf13  1  0.538890  0.077136  0.250000  1
  Hf  Hf14  1  0.922790  0.461394  0.250000  1
  Hf  Hf15  1  0.461956  0.539881  0.750000  1
  Hf  Hf16  1  0.461956  0.922076  0.750000  1
  Hf  Hf17  1  0.077466  0.538733  0.750000  1
  Re  Re18  1  0.776634  0.888317  0.750000  1
  Mo  Mo19  1  0.888805  0.110325  0.250000  1
  Mo  Mo20  1  0.888805  0.778480  0.250000  1
  Mo  Mo21  1  0.222176  0.111088  0.250000  1
  Mo  Mo22  1  0.110018  0.888958  0.750000  1
  Mo  Mo23  1  0.110018  0.221059  0.750000  1
  P  P24  1  0.333640  0.666821  0.250000  1
  P  P25  1  0.667081  0.333540  0.750000  1
  W  W26  1  0.999271  0.999635  0.500234  1
  W  W27  1  0.999271  0.999635  0.999766  1
