# generated using pymatgen
data_Nb16AlCr3Te16
_symmetry_space_group_name_H-M   'P 1'
_cell_length_a   4.88666000
_cell_length_b   10.96754883
_cell_length_c   19.23056900
_cell_angle_alpha   89.95886006
_cell_angle_beta   90.00000000
_cell_angle_gamma   90.00000000
_symmetry_Int_Tables_number   1
_chemical_formula_structural   Nb16AlCr3Te16
_chemical_formula_sum   'Nb16 Al1 Cr3 Te16'
_cell_volume   1030.65596747
_cell_formula_units_Z   1
loop_
 _symmetry_equiv_pos_site_id
 _symmetry_equiv_pos_as_xyz
  1  'x, y, z'
loop_
 _atom_site_type_symbol
 _atom_site_label
 _atom_site_symmetry_multiplicity
 _atom_site_fract_x
 _atom_site_fract_y
 _atom_site_fract_z
 _atom_site_occupancy
  Nb  Nb0  1  0.499958  0.564449  0.382994  1
  Nb  Nb1  1  0.499958  0.435551  0.617006  1
  Nb  Nb2  1  0.500006  0.065054  0.117787  1
  Nb  Nb3  1  0.500006  0.934946  0.882213  1
  Nb  Nb4  1  0.499169  0.705790  0.536656  1
  Nb  Nb5  1  0.499169  0.294210  0.463344  1
  Nb  Nb6  1  0.499894  0.207027  0.962720  1
  Nb  Nb7  1  0.499894  0.792973  0.037280  1
  Nb  Nb8  1  0.001107  0.691067  0.442872  1
  Nb  Nb9  1  0.001107  0.308933  0.557128  1
  Nb  Nb10  1  0.000005  0.192380  0.057320  1
  Nb  Nb11  1  0.000005  0.807620  0.942680  1
  Nb  Nb12  1  0.000332  0.400501  0.391340  1
  Nb  Nb13  1  0.000332  0.599499  0.608660  1
  Nb  Nb14  1  0.999885  0.899939  0.109605  1
  Nb  Nb15  1  0.999885  0.100061  0.890395  1
  Al  Al16  1  0.250205  0.500000  0.500000  1
  Cr  Cr17  1  0.749033  0.000000  0.000000  1
  Cr  Cr18  1  0.750273  0.500000  0.500000  1
  Cr  Cr19  1  0.249480  0.000000  0.000000  1
  Te  Te20  1  0.996854  0.846929  0.562117  1
  Te  Te21  1  0.996854  0.153071  0.437883  1
  Te  Te22  1  0.999850  0.346837  0.937568  1
  Te  Te23  1  0.999850  0.653163  0.062432  1
  Te  Te24  1  0.502524  0.332000  0.316415  1
  Te  Te25  1  0.502524  0.668000  0.683585  1
  Te  Te26  1  0.499810  0.832155  0.183774  1
  Te  Te27  1  0.499810  0.167845  0.816226  1
  Te  Te28  1  0.503369  0.822737  0.403786  1
  Te  Te29  1  0.503369  0.177263  0.596214  1
  Te  Te30  1  0.500007  0.322669  0.095689  1
  Te  Te31  1  0.500007  0.677331  0.904311  1
  Te  Te32  1  0.997700  0.608733  0.302063  1
  Te  Te33  1  0.997700  0.391267  0.697937  1
  Te  Te34  1  0.000030  0.109010  0.197808  1
  Te  Te35  1  0.000030  0.890990  0.802192  1
