# generated using pymatgen
data_TbCe2Er(CdNi2)2
_symmetry_space_group_name_H-M   'P 1'
_cell_length_a   7.45994865
_cell_length_b   7.45994802
_cell_length_c   3.62406600
_cell_angle_alpha   90.00000000
_cell_angle_beta   90.00000000
_cell_angle_gamma   92.97116994
_symmetry_Int_Tables_number   1
_chemical_formula_structural   TbCe2Er(CdNi2)2
_chemical_formula_sum   'Tb1 Ce2 Er1 Cd2 Ni4'
_cell_volume   201.41116491
_cell_formula_units_Z   1
loop_
 _symmetry_equiv_pos_site_id
 _symmetry_equiv_pos_as_xyz
  1  'x, y, z'
loop_
 _atom_site_type_symbol
 _atom_site_label
 _atom_site_symmetry_multiplicity
 _atom_site_fract_x
 _atom_site_fract_y
 _atom_site_fract_z
 _atom_site_occupancy
  Tb  Tb0  1  0.828351  0.671649  0.500000  1
  Ce  Ce1  1  0.673604  0.174196  0.500000  1
  Ce  Ce2  1  0.325804  0.826396  0.500000  1
  Er  Er3  1  0.171636  0.328364  0.500000  1
  Cd  Cd4  1  0.000759  0.001545  0.000000  1
  Cd  Cd5  1  0.498455  0.499241  0.000000  1
  Ni  Ni6  1  0.128647  0.624055  0.000000  1
  Ni  Ni7  1  0.875945  0.371353  0.000000  1
  Ni  Ni8  1  0.616700  0.883300  0.000000  1
  Ni  Ni9  1  0.380097  0.119903  0.000000  1
