# generated using pymatgen
data_Dy7Tm13(CoBi5)2
_symmetry_space_group_name_H-M   'P 1'
_cell_length_a   7.98658201
_cell_length_b   9.32369400
_cell_length_c   11.99798800
_cell_angle_alpha   90.00000000
_cell_angle_beta   90.00287678
_cell_angle_gamma   90.00000000
_symmetry_Int_Tables_number   1
_chemical_formula_structural   Dy7Tm13(CoBi5)2
_chemical_formula_sum   'Dy7 Tm13 Co2 Bi10'
_cell_volume   893.42353762
_cell_formula_units_Z   1
loop_
 _symmetry_equiv_pos_site_id
 _symmetry_equiv_pos_as_xyz
  1  'x, y, z'
loop_
 _atom_site_type_symbol
 _atom_site_label
 _atom_site_symmetry_multiplicity
 _atom_site_fract_x
 _atom_site_fract_y
 _atom_site_fract_z
 _atom_site_occupancy
  Dy  Dy0  1  0.572966  0.500000  0.772124  1
  Dy  Dy1  1  0.427186  0.500000  0.272139  1
  Dy  Dy2  1  0.259080  0.500000  0.993939  1
  Dy  Dy3  1  0.741097  0.500000  0.493820  1
  Dy  Dy4  1  0.089482  0.500000  0.718153  1
  Dy  Dy5  1  0.910622  0.500000  0.218289  1
  Dy  Dy6  1  0.627852  0.000000  0.808334  1
  Tm  Tm7  1  0.428836  0.175732  0.563032  1
  Tm  Tm8  1  0.570997  0.824195  0.063903  1
  Tm  Tm9  1  0.071578  0.730594  0.436424  1
  Tm  Tm10  1  0.928837  0.269809  0.936787  1
  Tm  Tm11  1  0.071578  0.269406  0.436424  1
  Tm  Tm12  1  0.928837  0.730191  0.936787  1
  Tm  Tm13  1  0.428836  0.824268  0.563032  1
  Tm  Tm14  1  0.570997  0.175805  0.063903  1
  Tm  Tm15  1  0.907454  0.000000  0.200574  1
  Tm  Tm16  1  0.092695  0.000000  0.700645  1
  Tm  Tm17  1  0.197226  0.000000  0.996244  1
  Tm  Tm18  1  0.802855  0.000000  0.496115  1
  Tm  Tm19  1  0.370986  0.000000  0.309169  1
  Co  Co20  1  0.172565  0.000000  0.488232  1
  Co  Co21  1  0.827873  0.000000  0.988931  1
  Bi  Bi22  1  0.813977  0.742950  0.671954  1
  Bi  Bi23  1  0.186499  0.256644  0.172148  1
  Bi  Bi24  1  0.680338  0.239900  0.325145  1
  Bi  Bi25  1  0.319026  0.759726  0.825097  1
  Bi  Bi26  1  0.680338  0.760100  0.325145  1
  Bi  Bi27  1  0.319026  0.240274  0.825097  1
  Bi  Bi28  1  0.813977  0.257050  0.671954  1
  Bi  Bi29  1  0.186499  0.743356  0.172148  1
  Bi  Bi30  1  0.346242  0.500000  0.527152  1
  Bi  Bi31  1  0.653643  0.500000  0.027164  1
