# generated using pymatgen
data_CsNa3(In2Se3)2
_symmetry_space_group_name_H-M   'P 1'
_cell_length_a   7.45425819
_cell_length_b   7.45425753
_cell_length_c   9.34804112
_cell_angle_alpha   82.33123313
_cell_angle_beta   82.33122832
_cell_angle_gamma   120.08447296
_symmetry_Int_Tables_number   1
_chemical_formula_structural   CsNa3(In2Se3)2
_chemical_formula_sum   'Cs1 Na3 In4 Se6'
_cell_volume   433.11270102
_cell_formula_units_Z   1
loop_
 _symmetry_equiv_pos_site_id
 _symmetry_equiv_pos_as_xyz
  1  'x, y, z'
loop_
 _atom_site_type_symbol
 _atom_site_label
 _atom_site_symmetry_multiplicity
 _atom_site_fract_x
 _atom_site_fract_y
 _atom_site_fract_z
 _atom_site_occupancy
  Cs  Cs0  1  0.500000  0.500000  0.500000  1
  Na  Na1  1  0.665535  0.334465  0.000000  1
  Na  Na2  1  0.334465  0.665535  0.000000  1
  Na  Na3  1  0.000000  0.000000  0.000000  1
  In  In4  1  0.885678  0.218517  0.342820  1
  In  In5  1  0.781483  0.114322  0.657180  1
  In  In6  1  0.218517  0.885678  0.342820  1
  In  In7  1  0.114322  0.781483  0.657180  1
  Se  Se8  1  0.404789  0.045949  0.788010  1
  Se  Se9  1  0.045949  0.404789  0.788010  1
  Se  Se10  1  0.954051  0.595211  0.211990  1
  Se  Se11  1  0.761508  0.761508  0.791777  1
  Se  Se12  1  0.595211  0.954051  0.211990  1
  Se  Se13  1  0.238492  0.238492  0.208223  1
