# generated using pymatgen
data_Yb6Hg2Rh
_symmetry_space_group_name_H-M   'P 1'
_cell_length_a   8.33004500
_cell_length_b   8.33004561
_cell_length_c   4.18830000
_cell_angle_alpha   90.00000000
_cell_angle_beta   90.00000000
_cell_angle_gamma   120.00000155
_symmetry_Int_Tables_number   1
_chemical_formula_structural   Yb6Hg2Rh
_chemical_formula_sum   'Yb6 Hg2 Rh1'
_cell_volume   251.68836154
_cell_formula_units_Z   1
loop_
 _symmetry_equiv_pos_site_id
 _symmetry_equiv_pos_as_xyz
  1  'x, y, z'
loop_
 _atom_site_type_symbol
 _atom_site_label
 _atom_site_symmetry_multiplicity
 _atom_site_fract_x
 _atom_site_fract_y
 _atom_site_fract_z
 _atom_site_occupancy
  Yb  Yb0  1  0.761489  0.000000  0.000000  1
  Yb  Yb1  1  0.238512  0.238511  0.000000  1
  Yb  Yb2  1  0.000000  0.761489  0.000000  1
  Yb  Yb3  1  0.398677  0.000000  0.500001  1
  Yb  Yb4  1  0.000000  0.398677  0.500001  1
  Yb  Yb5  1  0.601323  0.601323  0.500001  1
  Hg  Hg6  1  0.666667  0.333333  0.000000  1
  Hg  Hg7  1  0.333333  0.666666  0.000000  1
  Rh  Rh8  1  0.000000  0.000000  0.500001  1
