# generated using pymatgen
data_Ho20Si15As
_symmetry_space_group_name_H-M   'P 1'
_cell_length_a   7.47459835
_cell_length_b   7.63868919
_cell_length_c   14.56938642
_cell_angle_alpha   89.84993952
_cell_angle_beta   86.34561548
_cell_angle_gamma   90.05751260
_symmetry_Int_Tables_number   1
_chemical_formula_structural   Ho20Si15As
_chemical_formula_sum   'Ho20 Si15 As1'
_cell_volume   830.16078532
_cell_formula_units_Z   1
loop_
 _symmetry_equiv_pos_site_id
 _symmetry_equiv_pos_as_xyz
  1  'x, y, z'
loop_
 _atom_site_type_symbol
 _atom_site_label
 _atom_site_symmetry_multiplicity
 _atom_site_fract_x
 _atom_site_fract_y
 _atom_site_fract_z
 _atom_site_occupancy
  Ho  Ho0  1  0.663582  0.993244  0.245722  1
  Ho  Ho1  1  0.162895  0.505626  0.245038  1
  Ho  Ho2  1  0.837088  0.494241  0.751928  1
  Ho  Ho3  1  0.335838  0.006545  0.753825  1
  Ho  Ho4  1  0.997860  0.821975  0.099162  1
  Ho  Ho5  1  0.470120  0.685168  0.398132  1
  Ho  Ho6  1  0.498747  0.318105  0.901175  1
  Ho  Ho7  1  0.030235  0.185789  0.601968  1
  Ho  Ho8  1  0.005545  0.179851  0.901665  1
  Ho  Ho9  1  0.529406  0.314575  0.601467  1
  Ho  Ho10  1  0.494951  0.683841  0.099514  1
  Ho  Ho11  1  0.969360  0.813215  0.398165  1
  Ho  Ho12  1  0.651130  0.835378  0.878492  1
  Ho  Ho13  1  0.179274  0.676420  0.622275  1
  Ho  Ho14  1  0.849514  0.332807  0.119423  1
  Ho  Ho15  1  0.320960  0.176166  0.377971  1
  Ho  Ho16  1  0.348334  0.166575  0.121560  1
  Ho  Ho17  1  0.821747  0.322768  0.377937  1
  Ho  Ho18  1  0.152815  0.667129  0.880771  1
  Ho  Ho19  1  0.679180  0.823774  0.622351  1
  Si  Si20  1  0.779709  0.628606  0.250923  1
  Si  Si21  1  0.279009  0.869897  0.251902  1
  Si  Si22  1  0.719897  0.131144  0.748642  1
  Si  Si23  1  0.219443  0.370841  0.749203  1
  Si  Si24  1  0.036426  0.107854  0.252593  1
  Si  Si25  1  0.537920  0.391738  0.252164  1
  Si  Si26  1  0.462799  0.607661  0.748754  1
  Si  Si27  1  0.963168  0.891731  0.748164  1
  Si  Si28  1  0.357372  0.972256  0.542992  1
  Si  Si29  1  0.696484  0.035550  0.041750  1
  Si  Si30  1  0.144016  0.471477  0.457709  1
  Si  Si31  1  0.204474  0.464184  0.042657  1
  Si  Si32  1  0.643192  0.026899  0.456915  1
  Si  Si33  1  0.304795  0.964586  0.957884  1
  Si  Si34  1  0.856615  0.527623  0.542517  1
  As  As35  1  0.796101  0.534759  0.956689  1
