# generated using pymatgen
data_Nd3Sm2(ThSe4)3
_symmetry_space_group_name_H-M   'P 1'
_cell_length_a   4.14215300
_cell_length_b   11.20086791
_cell_length_c   11.40740193
_cell_angle_alpha   90.91754283
_cell_angle_beta   90.00000000
_cell_angle_gamma   90.00000000
_symmetry_Int_Tables_number   1
_chemical_formula_structural   Nd3Sm2(ThSe4)3
_chemical_formula_sum   'Nd3 Sm2 Th3 Se12'
_cell_volume   529.18663300
_cell_formula_units_Z   1
loop_
 _symmetry_equiv_pos_site_id
 _symmetry_equiv_pos_as_xyz
  1  'x, y, z'
loop_
 _atom_site_type_symbol
 _atom_site_label
 _atom_site_symmetry_multiplicity
 _atom_site_fract_x
 _atom_site_fract_y
 _atom_site_fract_z
 _atom_site_occupancy
  Nd  Nd0  1  0.250000  0.000833  0.695396  1
  Nd  Nd1  1  0.750000  0.001249  0.304632  1
  Nd  Nd2  1  0.750000  0.492331  0.806524  1
  Sm  Sm3  1  0.750000  0.814050  0.981834  1
  Sm  Sm4  1  0.250000  0.186870  0.016637  1
  Th  Th5  1  0.250000  0.508676  0.195183  1
  Th  Th6  1  0.250000  0.312999  0.514401  1
  Th  Th7  1  0.750000  0.686058  0.484494  1
  Se  Se8  1  0.750000  0.054524  0.882930  1
  Se  Se9  1  0.250000  0.945659  0.117147  1
  Se  Se10  1  0.250000  0.556438  0.622114  1
  Se  Se11  1  0.750000  0.442280  0.376413  1
  Se  Se12  1  0.250000  0.873187  0.451904  1
  Se  Se13  1  0.750000  0.126432  0.547201  1
  Se  Se14  1  0.750000  0.374015  0.051649  1
  Se  Se15  1  0.250000  0.625973  0.955209  1
  Se  Se16  1  0.250000  0.295297  0.774135  1
  Se  Se17  1  0.750000  0.702273  0.222856  1
  Se  Se18  1  0.750000  0.799165  0.723514  1
  Se  Se19  1  0.250000  0.201689  0.275828  1
