# generated using pymatgen
data_Sc4Ti4Ir3Pt
_symmetry_space_group_name_H-M   'P 1'
_cell_length_a   4.34657300
_cell_length_b   6.58513007
_cell_length_c   7.75404215
_cell_angle_alpha   89.84381725
_cell_angle_beta   90.00000000
_cell_angle_gamma   90.00000000
_symmetry_Int_Tables_number   1
_chemical_formula_structural   Sc4Ti4Ir3Pt
_chemical_formula_sum   'Sc4 Ti4 Ir3 Pt1'
_cell_volume   221.94117412
_cell_formula_units_Z   1
loop_
 _symmetry_equiv_pos_site_id
 _symmetry_equiv_pos_as_xyz
  1  'x, y, z'
loop_
 _atom_site_type_symbol
 _atom_site_label
 _atom_site_symmetry_multiplicity
 _atom_site_fract_x
 _atom_site_fract_y
 _atom_site_fract_z
 _atom_site_occupancy
  Sc  Sc0  1  0.250000  0.014099  0.320221  1
  Sc  Sc1  1  0.250000  0.519100  0.184724  1
  Sc  Sc2  1  0.750000  0.983791  0.679862  1
  Sc  Sc3  1  0.750000  0.484559  0.816116  1
  Ti  Ti4  1  0.250000  0.145336  0.924250  1
  Ti  Ti5  1  0.250000  0.646902  0.572023  1
  Ti  Ti6  1  0.750000  0.848031  0.070328  1
  Ti  Ti7  1  0.750000  0.353992  0.429281  1
  Ir  Ir8  1  0.250000  0.268443  0.598317  1
  Ir  Ir9  1  0.250000  0.768563  0.902928  1
  Ir  Ir10  1  0.750000  0.733166  0.401723  1
  Pt  Pt11  1  0.750000  0.234019  0.100228  1
