# generated using pymatgen
data_Tb9Sm8Lu3Sn16
_symmetry_space_group_name_H-M   'P 1'
_cell_length_a   8.06615831
_cell_length_b   8.23177732
_cell_length_c   15.57091200
_cell_angle_alpha   90.00000000
_cell_angle_beta   90.00000000
_cell_angle_gamma   89.96800176
_symmetry_Int_Tables_number   1
_chemical_formula_structural   Tb9Sm8Lu3Sn16
_chemical_formula_sum   'Tb9 Sm8 Lu3 Sn16'
_cell_volume   1033.89000757
_cell_formula_units_Z   1
loop_
 _symmetry_equiv_pos_site_id
 _symmetry_equiv_pos_as_xyz
  1  'x, y, z'
loop_
 _atom_site_type_symbol
 _atom_site_label
 _atom_site_symmetry_multiplicity
 _atom_site_fract_x
 _atom_site_fract_y
 _atom_site_fract_z
 _atom_site_occupancy
  Tb  Tb0  1  0.366225  0.835708  0.877986  1
  Tb  Tb1  1  0.866232  0.664345  0.621865  1
  Tb  Tb2  1  0.634228  0.164657  0.378214  1
  Tb  Tb3  1  0.133495  0.335897  0.121767  1
  Tb  Tb4  1  0.634228  0.164657  0.121786  1
  Tb  Tb5  1  0.133495  0.335897  0.378233  1
  Tb  Tb6  1  0.366225  0.835708  0.622014  1
  Tb  Tb7  1  0.866232  0.664345  0.878135  1
  Tb  Tb8  1  0.302073  0.002357  0.250000  1
  Sm  Sm9  1  0.518301  0.320537  0.902059  1
  Sm  Sm10  1  0.018389  0.179423  0.598006  1
  Sm  Sm11  1  0.481858  0.679242  0.402162  1
  Sm  Sm12  1  0.981434  0.820357  0.097816  1
  Sm  Sm13  1  0.481858  0.679242  0.097838  1
  Sm  Sm14  1  0.981434  0.820357  0.402184  1
  Sm  Sm15  1  0.518301  0.320537  0.597941  1
  Sm  Sm16  1  0.018389  0.179423  0.901994  1
  Lu  Lu17  1  0.198313  0.502434  0.750000  1
  Lu  Lu18  1  0.698342  0.997529  0.750000  1
  Lu  Lu19  1  0.801484  0.497374  0.250000  1
  Sn  Sn20  1  0.295787  0.037029  0.041722  1
  Sn  Sn21  1  0.795691  0.463023  0.457621  1
  Sn  Sn22  1  0.704373  0.963225  0.542523  1
  Sn  Sn23  1  0.204370  0.536935  0.957462  1
  Sn  Sn24  1  0.704373  0.963225  0.957477  1
  Sn  Sn25  1  0.204370  0.536935  0.542538  1
  Sn  Sn26  1  0.295787  0.037029  0.458278  1
  Sn  Sn27  1  0.795691  0.463023  0.042379  1
  Sn  Sn28  1  0.563761  0.620527  0.750000  1
  Sn  Sn29  1  0.063546  0.879391  0.750000  1
  Sn  Sn30  1  0.436544  0.380280  0.250000  1
  Sn  Sn31  1  0.934526  0.121021  0.250000  1
  Sn  Sn32  1  0.327131  0.145722  0.750000  1
  Sn  Sn33  1  0.826768  0.354652  0.750000  1
  Sn  Sn34  1  0.673684  0.854234  0.250000  1
  Sn  Sn35  1  0.173069  0.643723  0.250000  1
