# generated using pymatgen
data_La3Th(Ga5Pd3)2
_symmetry_space_group_name_H-M   'P 1'
_cell_length_a   8.78079823
_cell_length_b   8.78683635
_cell_length_c   8.78683700
_cell_angle_alpha   140.51778998
_cell_angle_beta   107.83267357
_cell_angle_gamma   85.53193615
_symmetry_Int_Tables_number   1
_chemical_formula_structural   La3Th(Ga5Pd3)2
_chemical_formula_sum   'La3 Th1 Ga10 Pd6'
_cell_volume   396.04637202
_cell_formula_units_Z   1
loop_
 _symmetry_equiv_pos_site_id
 _symmetry_equiv_pos_as_xyz
  1  'x, y, z'
loop_
 _atom_site_type_symbol
 _atom_site_label
 _atom_site_symmetry_multiplicity
 _atom_site_fract_x
 _atom_site_fract_y
 _atom_site_fract_z
 _atom_site_occupancy
  La  La0  1  0.637073  0.861754  0.775319  1
  La  La1  1  0.362639  0.137547  0.225091  1
  La  La2  1  0.087272  0.362138  0.725133  1
  Th  Th3  1  0.915902  0.639865  0.276035  1
  Ga  Ga4  1  0.287266  0.037929  0.748760  1
  Ga  Ga5  1  0.713072  0.960910  0.250783  1
  Ga  Ga6  1  0.713072  0.462289  0.752161  1
  Ga  Ga7  1  0.287266  0.538507  0.249336  1
  Ga  Ga8  1  0.437775  0.598839  0.838936  1
  Ga  Ga9  1  0.563841  0.402315  0.161527  1
  Ga  Ga10  1  0.759448  0.098392  0.661056  1
  Ga  Ga11  1  0.239973  0.900393  0.339580  1
  Ga  Ga12  1  0.998281  0.748883  0.747619  1
  Ga  Ga13  1  0.998281  0.250662  0.249398  1
  Pd  Pd14  1  0.240673  0.642917  0.597757  1
  Pd  Pd15  1  0.756810  0.356063  0.400745  1
  Pd  Pd16  1  0.042157  0.142850  0.899307  1
  Pd  Pd17  1  0.957360  0.857163  0.100197  1
  Pd  Pd18  1  0.500922  0.749943  0.250283  1
  Pd  Pd19  1  0.500922  0.250639  0.750979  1
