# generated using pymatgen
data_SrNdB5Os3
_symmetry_space_group_name_H-M   'P 1'
_cell_length_a   5.78606349
_cell_length_b   5.78783197
_cell_length_c   8.15540415
_cell_angle_alpha   122.97976327
_cell_angle_beta   123.21433312
_cell_angle_gamma   41.34498046
_symmetry_Int_Tables_number   1
_chemical_formula_structural   SrNdB5Os3
_chemical_formula_sum   'Sr1 Nd1 B5 Os3'
_cell_volume   146.49876752
_cell_formula_units_Z   1
loop_
 _symmetry_equiv_pos_site_id
 _symmetry_equiv_pos_as_xyz
  1  'x, y, z'
loop_
 _atom_site_type_symbol
 _atom_site_label
 _atom_site_symmetry_multiplicity
 _atom_site_fract_x
 _atom_site_fract_y
 _atom_site_fract_z
 _atom_site_occupancy
  Sr  Sr0  1  0.398698  0.941983  0.273216  1
  Nd  Nd1  1  0.068606  0.608387  0.749587  1
  B  B2  1  0.732336  0.263730  0.998181  1
  B  B3  1  0.084546  0.624546  0.183738  1
  B  B4  1  0.483292  0.466525  0.378764  1
  B  B5  1  0.527593  0.518756  0.616706  1
  B  B6  1  0.371916  0.914964  0.810114  1
  Os  Os7  1  0.608418  0.123745  0.092490  1
  Os  Os8  1  0.016580  0.987974  0.496963  1
  Os  Os9  1  0.874253  0.383150  0.900246  1
