# generated using pymatgen
data_YbLu(B3Mo)2
_symmetry_space_group_name_H-M   'P 1'
_cell_length_a   3.11580700
_cell_length_b   5.42411159
_cell_length_c   6.85437500
_cell_angle_alpha   78.38674023
_cell_angle_beta   90.00000000
_cell_angle_gamma   90.00000000
_symmetry_Int_Tables_number   1
_chemical_formula_structural   YbLu(B3Mo)2
_chemical_formula_sum   'Yb1 Lu1 B6 Mo2'
_cell_volume   113.47081790
_cell_formula_units_Z   1
loop_
 _symmetry_equiv_pos_site_id
 _symmetry_equiv_pos_as_xyz
  1  'x, y, z'
loop_
 _atom_site_type_symbol
 _atom_site_label
 _atom_site_symmetry_multiplicity
 _atom_site_fract_x
 _atom_site_fract_y
 _atom_site_fract_z
 _atom_site_occupancy
  Yb  Yb0  1  0.750000  0.670802  0.296296  1
  Lu  Lu1  1  0.250000  0.318377  0.718737  1
  B  B2  1  0.250000  0.934105  0.526277  1
  B  B3  1  0.750000  0.081940  0.471665  1
  B  B4  1  0.250000  0.909332  0.005897  1
  B  B5  1  0.750000  0.085677  0.992755  1
  B  B6  1  0.250000  0.584523  0.005919  1
  B  B7  1  0.750000  0.416474  0.990723  1
  Mo  Mo8  1  0.250000  0.189308  0.215902  1
  Mo  Mo9  1  0.750000  0.809462  0.775827  1
