# generated using pymatgen
data_Dy2TmAl12(RuRh)2
_symmetry_space_group_name_H-M   'P 1'
_cell_length_a   8.82981013
_cell_length_b   8.77751041
_cell_length_c   9.53381300
_cell_angle_alpha   90.00000000
_cell_angle_beta   90.00000000
_cell_angle_gamma   119.80425684
_symmetry_Int_Tables_number   1
_chemical_formula_structural   Dy2TmAl12(RuRh)2
_chemical_formula_sum   'Dy4 Tm2 Al24 Ru4 Rh4'
_cell_volume   641.17004362
_cell_formula_units_Z   2
loop_
 _symmetry_equiv_pos_site_id
 _symmetry_equiv_pos_as_xyz
  1  'x, y, z'
loop_
 _atom_site_type_symbol
 _atom_site_label
 _atom_site_symmetry_multiplicity
 _atom_site_fract_x
 _atom_site_fract_y
 _atom_site_fract_z
 _atom_site_occupancy
  Dy  Dy0  1  0.616360  0.808179  0.250000  1
  Dy  Dy1  1  0.810389  0.195981  0.750000  1
  Dy  Dy2  1  0.810389  0.614407  0.750000  1
  Dy  Dy3  1  0.383358  0.191679  0.750000  1
  Tm  Tm4  1  0.190321  0.802195  0.250000  1
  Tm  Tm5  1  0.190321  0.388126  0.250000  1
  Al  Al6  1  0.560137  0.437431  0.250000  1
  Al  Al7  1  0.560137  0.122707  0.250000  1
  Al  Al8  1  0.876591  0.438295  0.250000  1
  Al  Al9  1  0.438863  0.562207  0.750000  1
  Al  Al10  1  0.438863  0.876654  0.750000  1
  Al  Al11  1  0.124501  0.562251  0.750000  1
  Al  Al12  1  0.324411  0.162206  0.421496  1
  Al  Al13  1  0.838138  0.164471  0.421454  1
  Al  Al14  1  0.838138  0.673667  0.421454  1
  Al  Al15  1  0.674825  0.837412  0.577341  1
  Al  Al16  1  0.162426  0.835792  0.577091  1
  Al  Al17  1  0.162426  0.326634  0.577091  1
  Al  Al18  1  0.674825  0.837412  0.922659  1
  Al  Al19  1  0.162426  0.835792  0.922909  1
  Al  Al20  1  0.162426  0.326634  0.922909  1
  Al  Al21  1  0.324411  0.162206  0.078504  1
  Al  Al22  1  0.838138  0.164471  0.078546  1
  Al  Al23  1  0.838138  0.673667  0.078546  1
  Al  Al24  1  0.668768  0.334383  0.522893  1
  Al  Al25  1  0.330896  0.665448  0.475664  1
  Al  Al26  1  0.330896  0.665448  0.024336  1
  Al  Al27  1  0.668768  0.334383  0.977107  1
  Al  Al28  1  0.999071  0.999536  0.250000  1
  Al  Al29  1  0.002361  0.001180  0.750000  1
  Ru  Ru30  1  0.999852  0.999926  0.499940  1
  Ru  Ru31  1  0.999852  0.999926  0.000060  1
  Ru  Ru32  1  0.000597  0.500299  0.499213  1
  Ru  Ru33  1  0.000597  0.500299  0.000787  1
  Rh  Rh34  1  0.499347  0.499900  0.499594  1
  Rh  Rh35  1  0.499347  0.999446  0.499594  1
  Rh  Rh36  1  0.499347  0.499900  0.000406  1
  Rh  Rh37  1  0.499347  0.999446  0.000406  1
