# generated using pymatgen
data_CeSmRu2F14
_symmetry_space_group_name_H-M   'P 1'
_cell_length_a   5.61396332
_cell_length_b   9.01172961
_cell_length_c   12.02499100
_cell_angle_alpha   62.64339631
_cell_angle_beta   89.83486764
_cell_angle_gamma   90.16945561
_symmetry_Int_Tables_number   1
_chemical_formula_structural   CeSmRu2F14
_chemical_formula_sum   'Ce2 Sm2 Ru4 F28'
_cell_volume   540.31701758
_cell_formula_units_Z   2
loop_
 _symmetry_equiv_pos_site_id
 _symmetry_equiv_pos_as_xyz
  1  'x, y, z'
loop_
 _atom_site_type_symbol
 _atom_site_label
 _atom_site_symmetry_multiplicity
 _atom_site_fract_x
 _atom_site_fract_y
 _atom_site_fract_z
 _atom_site_occupancy
  Ce  Ce0  1  0.258815  0.807635  0.266408  1
  Ce  Ce1  1  0.741185  0.192365  0.733592  1
  Sm  Sm2  1  0.758931  0.192285  0.234187  1
  Sm  Sm3  1  0.241069  0.807715  0.765813  1
  Ru  Ru4  1  0.754370  0.726567  0.042650  1
  Ru  Ru5  1  0.245630  0.273433  0.957350  1
  Ru  Ru6  1  0.255617  0.271795  0.457138  1
  Ru  Ru7  1  0.744383  0.728205  0.542862  1
  F  F8  1  0.940972  0.706642  0.415763  1
  F  F9  1  0.059028  0.293358  0.584237  1
  F  F10  1  0.442715  0.291930  0.084649  1
  F  F11  1  0.557285  0.708070  0.915351  1
  F  F12  1  0.465628  0.729317  0.136243  1
  F  F13  1  0.534372  0.270683  0.863757  1
  F  F14  1  0.968402  0.271840  0.364315  1
  F  F15  1  0.031598  0.728160  0.635685  1
  F  F16  1  0.947941  0.744955  0.172825  1
  F  F17  1  0.052059  0.255045  0.827175  1
  F  F18  1  0.445388  0.253616  0.327168  1
  F  F19  1  0.554612  0.746384  0.672832  1
  F  F20  1  0.765232  0.486576  0.139832  1
  F  F21  1  0.234768  0.513424  0.860168  1
  F  F22  1  0.268889  0.514095  0.361204  1
  F  F23  1  0.731111  0.485905  0.638796  1
  F  F24  1  0.951317  0.281752  0.044994  1
  F  F25  1  0.048683  0.718248  0.955006  1
  F  F26  1  0.449136  0.720503  0.455994  1
  F  F27  1  0.550864  0.279497  0.544006  1
  F  F28  1  0.743481  0.969545  0.448672  1
  F  F29  1  0.256519  0.030455  0.551328  1
  F  F30  1  0.241632  0.032076  0.049499  1
  F  F31  1  0.758368  0.967924  0.950501  1
  F  F32  1  0.589475  0.965371  0.229934  1
  F  F33  1  0.410525  0.034629  0.770066  1
  F  F34  1  0.092882  0.028156  0.270144  1
  F  F35  1  0.907118  0.971844  0.729856  1
