# generated using pymatgen
data_Sr4RuRhO8
_symmetry_space_group_name_H-M   'P 1'
_cell_length_a   5.51744907
_cell_length_b   5.51991186
_cell_length_c   13.59122039
_cell_angle_alpha   101.49576051
_cell_angle_beta   101.48267815
_cell_angle_gamma   89.91274061
_symmetry_Int_Tables_number   1
_chemical_formula_structural   Sr4RuRhO8
_chemical_formula_sum   'Sr8 Ru2 Rh2 O16'
_cell_volume   397.19574615
_cell_formula_units_Z   2
loop_
 _symmetry_equiv_pos_site_id
 _symmetry_equiv_pos_as_xyz
  1  'x, y, z'
loop_
 _atom_site_type_symbol
 _atom_site_label
 _atom_site_symmetry_multiplicity
 _atom_site_fract_x
 _atom_site_fract_y
 _atom_site_fract_z
 _atom_site_occupancy
  Sr  Sr0  1  0.827404  0.830577  0.648501  1
  Sr  Sr1  1  0.080463  0.577665  0.148521  1
  Sr  Sr2  1  0.174228  0.173656  0.351512  1
  Sr  Sr3  1  0.423480  0.924230  0.851447  1
  Sr  Sr4  1  0.326512  0.325919  0.649465  1
  Sr  Sr5  1  0.576079  0.076532  0.149547  1
  Sr  Sr6  1  0.671675  0.670090  0.350501  1
  Sr  Sr7  1  0.920154  0.421396  0.850452  1
  Ru  Ru8  1  0.999533  0.000003  0.999993  1
  Ru  Ru9  1  0.250008  0.749732  0.499999  1
  Rh  Rh10  1  0.500213  0.500235  0.000009  1
  Rh  Rh11  1  0.750260  0.250233  0.500011  1
  O  O12  1  0.052735  0.455281  0.500202  1
  O  O13  1  0.915403  0.927764  0.841297  1
  O  O14  1  0.082955  0.070501  0.158738  1
  O  O15  1  0.177509  0.665245  0.341331  1
  O  O16  1  0.320839  0.833017  0.658705  1
  O  O17  1  0.195173  0.703376  0.994967  1
  O  O18  1  0.294167  0.197947  0.999960  1
  O  O19  1  0.448015  0.043834  0.499849  1
  O  O20  1  0.547025  0.554727  0.504908  1
  O  O21  1  0.426212  0.416874  0.837796  1
  O  O22  1  0.575145  0.584664  0.162181  1
  O  O23  1  0.667011  0.176432  0.337855  1
  O  O24  1  0.834573  0.324946  0.662134  1
  O  O25  1  0.704917  0.802769  0.000099  1
  O  O26  1  0.804926  0.296979  0.004969  1
  O  O27  1  0.953384  0.945376  0.495053  1
