# generated using pymatgen
data_Pr8ZnCdCo2
_symmetry_space_group_name_H-M   'P 1'
_cell_length_a   9.81328125
_cell_length_b   9.83078405
_cell_length_c   9.81328025
_cell_angle_alpha   59.94097835
_cell_angle_beta   60.10018839
_cell_angle_gamma   59.94098297
_symmetry_Int_Tables_number   1
_chemical_formula_structural   Pr8ZnCdCo2
_chemical_formula_sum   'Pr16 Zn2 Cd2 Co4'
_cell_volume   669.33074359
_cell_formula_units_Z   2
loop_
 _symmetry_equiv_pos_site_id
 _symmetry_equiv_pos_as_xyz
  1  'x, y, z'
loop_
 _atom_site_type_symbol
 _atom_site_label
 _atom_site_symmetry_multiplicity
 _atom_site_fract_x
 _atom_site_fract_y
 _atom_site_fract_z
 _atom_site_occupancy
  Pr  Pr0  1  0.943609  0.934087  0.561241  1
  Pr  Pr1  1  0.809095  0.191669  0.190192  1
  Pr  Pr2  1  0.943609  0.561063  0.561241  1
  Pr  Pr3  1  0.939867  0.560133  0.939867  1
  Pr  Pr4  1  0.809095  0.809046  0.190192  1
  Pr  Pr5  1  0.347352  0.348666  0.347352  1
  Pr  Pr6  1  0.561241  0.934087  0.943609  1
  Pr  Pr7  1  0.561682  0.938318  0.561682  1
  Pr  Pr8  1  0.190192  0.809046  0.809095  1
  Pr  Pr9  1  0.190192  0.191669  0.809095  1
  Pr  Pr10  1  0.347072  0.347974  0.956980  1
  Pr  Pr11  1  0.347352  0.956630  0.347352  1
  Pr  Pr12  1  0.808801  0.191199  0.808801  1
  Pr  Pr13  1  0.561241  0.561063  0.943609  1
  Pr  Pr14  1  0.191705  0.808295  0.191705  1
  Pr  Pr15  1  0.956980  0.347974  0.347072  1
  Zn  Zn16  1  0.577829  0.581432  0.259310  1
  Zn  Zn17  1  0.259310  0.581432  0.577829  1
  Cd  Cd18  1  0.575433  0.580019  0.575433  1
  Cd  Cd19  1  0.575433  0.269114  0.575433  1
  Co  Co20  1  0.577824  0.139985  0.142205  1
  Co  Co21  1  0.141442  0.139389  0.141442  1
  Co  Co22  1  0.141442  0.577730  0.141442  1
  Co  Co23  1  0.142205  0.139985  0.577824  1
