# generated using pymatgen
data_Tb3Zr7Sn6
_symmetry_space_group_name_H-M   'P 1'
_cell_length_a   8.63122321
_cell_length_b   8.77784148
_cell_length_c   5.97124800
_cell_angle_alpha   90.00000000
_cell_angle_beta   90.00000000
_cell_angle_gamma   119.97526063
_symmetry_Int_Tables_number   1
_chemical_formula_structural   Tb3Zr7Sn6
_chemical_formula_sum   'Tb3 Zr7 Sn6'
_cell_volume   391.88986648
_cell_formula_units_Z   1
loop_
 _symmetry_equiv_pos_site_id
 _symmetry_equiv_pos_as_xyz
  1  'x, y, z'
loop_
 _atom_site_type_symbol
 _atom_site_label
 _atom_site_symmetry_multiplicity
 _atom_site_fract_x
 _atom_site_fract_y
 _atom_site_fract_z
 _atom_site_occupancy
  Tb  Tb0  1  0.764328  0.998987  0.750000  1
  Tb  Tb1  1  0.241770  0.241560  0.750000  1
  Tb  Tb2  1  0.232910  0.999153  0.250000  1
  Zr  Zr3  1  0.998421  0.746292  0.750000  1
  Zr  Zr4  1  0.998580  0.255400  0.250000  1
  Zr  Zr5  1  0.752530  0.751823  0.250000  1
  Zr  Zr6  1  0.335316  0.668112  0.499206  1
  Zr  Zr7  1  0.667587  0.333488  0.000822  1
  Zr  Zr8  1  0.667587  0.333488  0.499178  1
  Zr  Zr9  1  0.335316  0.668112  0.000794  1
  Sn  Sn10  1  0.393218  0.994504  0.750000  1
  Sn  Sn11  1  0.395188  0.399603  0.250000  1
  Sn  Sn12  1  0.997388  0.604282  0.250000  1
  Sn  Sn13  1  0.001035  0.401606  0.750000  1
  Sn  Sn14  1  0.608440  0.603626  0.750000  1
  Sn  Sn15  1  0.610387  0.999963  0.250000  1
