# generated using pymatgen
data_Er3Zr(BiRh5)2
_symmetry_space_group_name_H-M   'P 1'
_cell_length_a   5.77654691
_cell_length_b   5.77654545
_cell_length_c   8.47633201
_cell_angle_alpha   89.99676951
_cell_angle_beta   89.99677489
_cell_angle_gamma   97.31773257
_symmetry_Int_Tables_number   1
_chemical_formula_structural   Er3Zr(BiRh5)2
_chemical_formula_sum   'Er3 Zr1 Bi2 Rh10'
_cell_volume   280.53863178
_cell_formula_units_Z   1
loop_
 _symmetry_equiv_pos_site_id
 _symmetry_equiv_pos_as_xyz
  1  'x, y, z'
loop_
 _atom_site_type_symbol
 _atom_site_label
 _atom_site_symmetry_multiplicity
 _atom_site_fract_x
 _atom_site_fract_y
 _atom_site_fract_z
 _atom_site_occupancy
  Er  Er0  1  0.783539  0.216461  0.500000  1
  Er  Er1  1  0.216939  0.783061  0.000000  1
  Er  Er2  1  0.216860  0.783140  0.500000  1
  Zr  Zr3  1  0.789186  0.210814  0.000000  1
  Bi  Bi4  1  0.501797  0.500364  0.750964  1
  Bi  Bi5  1  0.499636  0.498203  0.249036  1
  Rh  Rh6  1  0.730177  0.733580  0.000556  1
  Rh  Rh7  1  0.730761  0.730575  0.499367  1
  Rh  Rh8  1  0.266420  0.269823  0.999444  1
  Rh  Rh9  1  0.269425  0.269239  0.500633  1
  Rh  Rh10  1  0.503639  0.003579  0.754472  1
  Rh  Rh11  1  0.503742  0.002994  0.245564  1
  Rh  Rh12  1  0.997381  0.002928  0.245611  1
  Rh  Rh13  1  0.997072  0.002619  0.754389  1
  Rh  Rh14  1  0.997006  0.496258  0.754436  1
  Rh  Rh15  1  0.996421  0.496361  0.245528  1
