# generated using pymatgen
data_Er12Tc3Pd
_symmetry_space_group_name_H-M   'P 1'
_cell_length_a   6.24784804
_cell_length_b   7.37786508
_cell_length_c   9.08800700
_cell_angle_alpha   90.00000000
_cell_angle_beta   90.00000000
_cell_angle_gamma   89.80018966
_symmetry_Int_Tables_number   1
_chemical_formula_structural   Er12Tc3Pd
_chemical_formula_sum   'Er12 Tc3 Pd1'
_cell_volume   418.91622287
_cell_formula_units_Z   1
loop_
 _symmetry_equiv_pos_site_id
 _symmetry_equiv_pos_as_xyz
  1  'x, y, z'
loop_
 _atom_site_type_symbol
 _atom_site_label
 _atom_site_symmetry_multiplicity
 _atom_site_fract_x
 _atom_site_fract_y
 _atom_site_fract_z
 _atom_site_occupancy
  Er  Er0  1  0.330548  0.676121  0.067834  1
  Er  Er1  1  0.163960  0.177851  0.436016  1
  Er  Er2  1  0.664514  0.315537  0.557834  1
  Er  Er3  1  0.841607  0.829904  0.941612  1
  Er  Er4  1  0.664514  0.315537  0.942166  1
  Er  Er5  1  0.841607  0.829904  0.558388  1
  Er  Er6  1  0.330548  0.676121  0.432166  1
  Er  Er7  1  0.163960  0.177851  0.063984  1
  Er  Er8  1  0.872155  0.542225  0.250000  1
  Er  Er9  1  0.622721  0.037150  0.250000  1
  Er  Er10  1  0.126684  0.455729  0.750000  1
  Er  Er11  1  0.369868  0.966089  0.750000  1
  Tc  Tc12  1  0.037311  0.884099  0.250000  1
  Tc  Tc13  1  0.464376  0.385297  0.250000  1
  Tc  Tc14  1  0.957767  0.116591  0.750000  1
  Pd  Pd15  1  0.547860  0.613994  0.750000  1
