# generated using pymatgen
data_LaSm2(H6Os)2
_symmetry_space_group_name_H-M   'P 1'
_cell_length_a   4.96672700
_cell_length_b   4.96672833
_cell_length_c   8.39076300
_cell_angle_alpha   90.00000000
_cell_angle_beta   90.00000000
_cell_angle_gamma   119.99999782
_symmetry_Int_Tables_number   1
_chemical_formula_structural   LaSm2(H6Os)2
_chemical_formula_sum   'La1 Sm2 H12 Os2'
_cell_volume   179.25562410
_cell_formula_units_Z   1
loop_
 _symmetry_equiv_pos_site_id
 _symmetry_equiv_pos_as_xyz
  1  'x, y, z'
loop_
 _atom_site_type_symbol
 _atom_site_label
 _atom_site_symmetry_multiplicity
 _atom_site_fract_x
 _atom_site_fract_y
 _atom_site_fract_z
 _atom_site_occupancy
  La  La0  1  0.000000  0.000000  0.000000  1
  Sm  Sm1  1  0.666667  0.333333  0.361936  1
  Sm  Sm2  1  0.333333  0.666667  0.638064  1
  H  H3  1  0.170137  0.829863  0.371195  1
  H  H4  1  0.659727  0.829863  0.371195  1
  H  H5  1  0.170137  0.340273  0.371195  1
  H  H6  1  0.829863  0.170137  0.628805  1
  H  H7  1  0.340273  0.170137  0.628805  1
  H  H8  1  0.829863  0.659727  0.628805  1
  H  H9  1  0.504136  0.008274  0.870996  1
  H  H10  1  0.504136  0.495864  0.870996  1
  H  H11  1  0.991726  0.495864  0.870996  1
  H  H12  1  0.495864  0.991726  0.129004  1
  H  H13  1  0.495864  0.504136  0.129004  1
  H  H14  1  0.008274  0.504136  0.129004  1
  Os  Os15  1  0.666667  0.333333  0.749901  1
  Os  Os16  1  0.333333  0.666667  0.250099  1
