# generated using pymatgen
data_Pr2Sm3HoOsI10
_symmetry_space_group_name_H-M   'P 1'
_cell_length_a   7.93669277
_cell_length_b   9.99281224
_cell_length_c   9.92711135
_cell_angle_alpha   106.86553328
_cell_angle_beta   96.44763465
_cell_angle_gamma   105.39745244
_symmetry_Int_Tables_number   1
_chemical_formula_structural   Pr2Sm3HoOsI10
_chemical_formula_sum   'Pr2 Sm3 Ho1 Os1 I10'
_cell_volume   710.95225406
_cell_formula_units_Z   1
loop_
 _symmetry_equiv_pos_site_id
 _symmetry_equiv_pos_as_xyz
  1  'x, y, z'
loop_
 _atom_site_type_symbol
 _atom_site_label
 _atom_site_symmetry_multiplicity
 _atom_site_fract_x
 _atom_site_fract_y
 _atom_site_fract_z
 _atom_site_occupancy
  Pr  Pr0  1  0.613596  0.542143  0.267289  1
  Pr  Pr1  1  0.385238  0.457282  0.731996  1
  Sm  Sm2  1  0.470215  0.791917  0.587327  1
  Sm  Sm3  1  0.144347  0.369124  0.329399  1
  Sm  Sm4  1  0.855571  0.628354  0.670175  1
  Ho  Ho5  1  0.529183  0.214985  0.414304  1
  Os  Os6  1  0.499582  0.499779  0.499711  1
  I  I7  1  0.156518  0.048881  0.231277  1
  I  I8  1  0.853069  0.951231  0.771757  1
  I  I9  1  0.235415  0.410609  0.042630  1
  I  I10  1  0.763238  0.588195  0.957170  1
  I  I11  1  0.709589  0.235428  0.156944  1
  I  I12  1  0.285984  0.761276  0.847398  1
  I  I13  1  0.048139  0.680816  0.408879  1
  I  I14  1  0.948067  0.316460  0.588657  1
  I  I15  1  0.416623  0.127356  0.672534  1
  I  I16  1  0.585627  0.876164  0.322551  1
