# generated using pymatgen
data_DyEr5Ga7Co16
_symmetry_space_group_name_H-M   'P 1'
_cell_length_a   8.43779408
_cell_length_b   8.43711943
_cell_length_c   8.44367804
_cell_angle_alpha   59.97679958
_cell_angle_beta   59.97957211
_cell_angle_gamma   60.05282515
_symmetry_Int_Tables_number   1
_chemical_formula_structural   DyEr5Ga7Co16
_chemical_formula_sum   'Dy1 Er5 Ga7 Co16'
_cell_volume   425.07883183
_cell_formula_units_Z   1
loop_
 _symmetry_equiv_pos_site_id
 _symmetry_equiv_pos_as_xyz
  1  'x, y, z'
loop_
 _atom_site_type_symbol
 _atom_site_label
 _atom_site_symmetry_multiplicity
 _atom_site_fract_x
 _atom_site_fract_y
 _atom_site_fract_z
 _atom_site_occupancy
  Dy  Dy0  1  0.718237  0.718237  0.281749  1
  Er  Er1  1  0.280473  0.719323  0.280705  1
  Er  Er2  1  0.719333  0.280497  0.280684  1
  Er  Er3  1  0.280790  0.280802  0.719195  1
  Er  Er4  1  0.719353  0.280481  0.719491  1
  Er  Er5  1  0.280474  0.719332  0.719497  1
  Ga  Ga6  1  0.000121  0.000144  0.999847  1
  Ga  Ga7  1  0.999999  0.999991  0.500020  1
  Ga  Ga8  1  0.499509  0.000527  0.500509  1
  Ga  Ga9  1  0.000514  0.499514  0.500516  1
  Ga  Ga10  1  0.500037  0.500020  0.999978  1
  Ga  Ga11  1  0.000507  0.499533  0.999448  1
  Ga  Ga12  1  0.499527  0.000513  0.999451  1
  Co  Co13  1  0.874563  0.874553  0.377527  1
  Co  Co14  1  0.874185  0.377380  0.874223  1
  Co  Co15  1  0.377374  0.874181  0.874228  1
  Co  Co16  1  0.874546  0.874536  0.873350  1
  Co  Co17  1  0.125718  0.125726  0.622842  1
  Co  Co18  1  0.126689  0.622424  0.125435  1
  Co  Co19  1  0.622429  0.126693  0.125432  1
  Co  Co20  1  0.125744  0.125750  0.125724  1
  Co  Co21  1  0.678243  0.678244  0.964924  1
  Co  Co22  1  0.678286  0.965222  0.678243  1
  Co  Co23  1  0.965253  0.678279  0.678231  1
  Co  Co24  1  0.678245  0.678246  0.678580  1
  Co  Co25  1  0.321744  0.321732  0.034749  1
  Co  Co26  1  0.321388  0.035001  0.321810  1
  Co  Co27  1  0.034975  0.321387  0.321824  1
  Co  Co28  1  0.321743  0.321731  0.321790  1
