# generated using pymatgen
data_YbEu4Cd3Pt4
_symmetry_space_group_name_H-M   'P 1'
_cell_length_a   4.35319700
_cell_length_b   7.46764378
_cell_length_c   8.93020762
_cell_angle_alpha   89.64314796
_cell_angle_beta   90.00000000
_cell_angle_gamma   90.00000000
_symmetry_Int_Tables_number   1
_chemical_formula_structural   YbEu4Cd3Pt4
_chemical_formula_sum   'Yb1 Eu4 Cd3 Pt4'
_cell_volume   290.29867070
_cell_formula_units_Z   1
loop_
 _symmetry_equiv_pos_site_id
 _symmetry_equiv_pos_as_xyz
  1  'x, y, z'
loop_
 _atom_site_type_symbol
 _atom_site_label
 _atom_site_symmetry_multiplicity
 _atom_site_fract_x
 _atom_site_fract_y
 _atom_site_fract_z
 _atom_site_occupancy
  Yb  Yb0  1  0.250000  0.132016  0.939614  1
  Eu  Eu1  1  0.250000  0.034533  0.327228  1
  Eu  Eu2  1  0.250000  0.542465  0.183454  1
  Eu  Eu3  1  0.750000  0.957310  0.669611  1
  Eu  Eu4  1  0.750000  0.473178  0.814932  1
  Cd  Cd5  1  0.250000  0.641371  0.562328  1
  Cd  Cd6  1  0.750000  0.855800  0.066352  1
  Cd  Cd7  1  0.750000  0.359361  0.438731  1
  Pt  Pt8  1  0.250000  0.257234  0.630027  1
  Pt  Pt9  1  0.250000  0.757225  0.871138  1
  Pt  Pt10  1  0.750000  0.742763  0.372802  1
  Pt  Pt11  1  0.750000  0.246743  0.123782  1
