# generated using pymatgen
data_Y9Lu(InSb)4
_symmetry_space_group_name_H-M   'P 1'
_cell_length_a   8.82046193
_cell_length_b   8.82046232
_cell_length_c   8.10966603
_cell_angle_alpha   90.02659216
_cell_angle_beta   90.02659880
_cell_angle_gamma   125.17272468
_symmetry_Int_Tables_number   1
_chemical_formula_structural   Y9Lu(InSb)4
_chemical_formula_sum   'Y9 Lu1 In4 Sb4'
_cell_volume   515.73935062
_cell_formula_units_Z   1
loop_
 _symmetry_equiv_pos_site_id
 _symmetry_equiv_pos_as_xyz
  1  'x, y, z'
loop_
 _atom_site_type_symbol
 _atom_site_label
 _atom_site_symmetry_multiplicity
 _atom_site_fract_x
 _atom_site_fract_y
 _atom_site_fract_z
 _atom_site_occupancy
  Y  Y0  1  0.031748  0.306951  0.333745  1
  Y  Y1  1  0.968252  0.693049  0.666255  1
  Y  Y2  1  0.467765  0.192388  0.834322  1
  Y  Y3  1  0.807612  0.532235  0.165678  1
  Y  Y4  1  0.532235  0.807612  0.165678  1
  Y  Y5  1  0.192388  0.467765  0.834322  1
  Y  Y6  1  0.693049  0.968252  0.666255  1
  Y  Y7  1  0.306951  0.031748  0.333745  1
  Y  Y8  1  0.500000  0.500000  0.500000  1
  Lu  Lu9  1  0.000000  0.000000  0.000000  1
  In  In10  1  0.369615  0.369615  0.127939  1
  In  In11  1  0.630385  0.630385  0.872061  1
  In  In12  1  0.129100  0.129100  0.629103  1
  In  In13  1  0.870900  0.870900  0.370897  1
  Sb  Sb14  1  0.797877  0.202123  0.000000  1
  Sb  Sb15  1  0.202123  0.797877  0.000000  1
  Sb  Sb16  1  0.702772  0.297228  0.500000  1
  Sb  Sb17  1  0.297228  0.702772  0.500000  1
