# generated using pymatgen
data_Ca9Yb(Si2Sn)2
_symmetry_space_group_name_H-M   'P 1'
_cell_length_a   9.34908533
_cell_length_b   9.34912809
_cell_length_c   9.34926122
_cell_angle_alpha   130.92543169
_cell_angle_beta   130.92497022
_cell_angle_gamma   71.92926683
_symmetry_Int_Tables_number   1
_chemical_formula_structural   Ca9Yb(Si2Sn)2
_chemical_formula_sum   'Ca9 Yb1 Si4 Sn2'
_cell_volume   456.27507054
_cell_formula_units_Z   1
loop_
 _symmetry_equiv_pos_site_id
 _symmetry_equiv_pos_as_xyz
  1  'x, y, z'
loop_
 _atom_site_type_symbol
 _atom_site_label
 _atom_site_symmetry_multiplicity
 _atom_site_fract_x
 _atom_site_fract_y
 _atom_site_fract_z
 _atom_site_occupancy
  Ca  Ca0  1  0.813442  0.313236  0.855436  1
  Ca  Ca1  1  0.186558  0.686764  0.144564  1
  Ca  Ca2  1  0.457799  0.958005  0.144559  1
  Ca  Ca3  1  0.313228  0.457809  0.499797  1
  Ca  Ca4  1  0.041986  0.186567  0.499793  1
  Ca  Ca5  1  0.542201  0.041995  0.855441  1
  Ca  Ca6  1  0.686772  0.542191  0.500203  1
  Ca  Ca7  1  0.958014  0.813433  0.500207  1
  Ca  Ca8  1  0.500000  0.500000  0.000000  1
  Yb  Yb9  1  0.000000  0.000000  0.000000  1
  Si  Si10  1  0.112557  0.612570  0.725129  1
  Si  Si11  1  0.887443  0.387430  0.274871  1
  Si  Si12  1  0.612560  0.887457  0.500016  1
  Si  Si13  1  0.387440  0.112543  0.499984  1
  Sn  Sn14  1  0.249932  0.249926  0.000000  1
  Sn  Sn15  1  0.750068  0.750074  0.000000  1
