# generated using pymatgen
data_KPd2Cl9
_symmetry_space_group_name_H-M   'P 1'
_cell_length_a   6.54865300
_cell_length_b   9.96778026
_cell_length_c   11.43620976
_cell_angle_alpha   64.94663539
_cell_angle_beta   90.00000000
_cell_angle_gamma   90.00000000
_symmetry_Int_Tables_number   1
_chemical_formula_structural   KPd2Cl9
_chemical_formula_sum   'K2 Pd4 Cl18'
_cell_volume   676.26888909
_cell_formula_units_Z   2
loop_
 _symmetry_equiv_pos_site_id
 _symmetry_equiv_pos_as_xyz
  1  'x, y, z'
loop_
 _atom_site_type_symbol
 _atom_site_label
 _atom_site_symmetry_multiplicity
 _atom_site_fract_x
 _atom_site_fract_y
 _atom_site_fract_z
 _atom_site_occupancy
  K  K0  1  0.561063  0.500000  0.750000  1
  K  K1  1  0.438937  0.500000  0.250000  1
  Pd  Pd2  1  0.264261  0.835115  0.854184  1
  Pd  Pd3  1  0.735739  0.164885  0.145816  1
  Pd  Pd4  1  0.264261  0.164885  0.645816  1
  Pd  Pd5  1  0.735739  0.835115  0.354184  1
  Cl  Cl6  1  0.120816  0.750906  0.057853  1
  Cl  Cl7  1  0.879184  0.249094  0.942147  1
  Cl  Cl8  1  0.120816  0.249094  0.442147  1
  Cl  Cl9  1  0.879184  0.750906  0.557853  1
  Cl  Cl10  1  0.128460  0.637080  0.826145  1
  Cl  Cl11  1  0.871540  0.362920  0.173855  1
  Cl  Cl12  1  0.128460  0.362920  0.673855  1
  Cl  Cl13  1  0.871540  0.637080  0.326145  1
  Cl  Cl14  1  0.984624  0.000000  0.750000  1
  Cl  Cl15  1  0.015376  0.000000  0.250000  1
  Cl  Cl16  1  0.401579  0.054438  0.862000  1
  Cl  Cl17  1  0.598421  0.945562  0.138000  1
  Cl  Cl18  1  0.401579  0.945562  0.638000  1
  Cl  Cl19  1  0.598421  0.054438  0.362000  1
  Cl  Cl20  1  0.558229  0.701193  0.939066  1
  Cl  Cl21  1  0.441771  0.298807  0.060934  1
  Cl  Cl22  1  0.558229  0.298807  0.560934  1
  Cl  Cl23  1  0.441771  0.701193  0.439066  1
