# generated using pymatgen
data_GdDyS4
_symmetry_space_group_name_H-M   'P 1'
_cell_length_a   7.87545651
_cell_length_b   3.92422700
_cell_length_c   7.92268110
_cell_angle_alpha   90.00011629
_cell_angle_beta   89.83660245
_cell_angle_gamma   90.00047385
_symmetry_Int_Tables_number   1
_chemical_formula_structural   GdDyS4
_chemical_formula_sum   'Gd2 Dy2 S8'
_cell_volume   244.85009036
_cell_formula_units_Z   2
loop_
 _symmetry_equiv_pos_site_id
 _symmetry_equiv_pos_as_xyz
  1  'x, y, z'
loop_
 _atom_site_type_symbol
 _atom_site_label
 _atom_site_symmetry_multiplicity
 _atom_site_fract_x
 _atom_site_fract_y
 _atom_site_fract_z
 _atom_site_occupancy
  Gd  Gd0  1  0.129132  0.786418  0.724355  1
  Gd  Gd1  1  0.629129  0.713600  0.724349  1
  Dy  Dy2  1  0.370829  0.287879  0.275664  1
  Dy  Dy3  1  0.870830  0.212118  0.275664  1
  S  S4  1  0.888930  0.661260  0.004486  1
  S  S5  1  0.388929  0.838735  0.004484  1
  S  S6  1  0.125572  0.761382  0.366983  1
  S  S7  1  0.625571  0.738616  0.366984  1
  S  S8  1  0.874660  0.239075  0.630433  1
  S  S9  1  0.374660  0.260920  0.630433  1
  S  S10  1  0.110879  0.337719  0.998081  1
  S  S11  1  0.610879  0.162278  0.998082  1
