# generated using pymatgen
data_Tm6U(Ga3Co8)2
_symmetry_space_group_name_H-M   'P 1'
_cell_length_a   8.43019963
_cell_length_b   8.43066843
_cell_length_c   8.43056501
_cell_angle_alpha   60.00415023
_cell_angle_beta   60.00235093
_cell_angle_gamma   60.00283702
_symmetry_Int_Tables_number   1
_chemical_formula_structural   Tm6U(Ga3Co8)2
_chemical_formula_sum   'Tm6 U1 Ga6 Co16'
_cell_volume   423.71340087
_cell_formula_units_Z   1
loop_
 _symmetry_equiv_pos_site_id
 _symmetry_equiv_pos_as_xyz
  1  'x, y, z'
loop_
 _atom_site_type_symbol
 _atom_site_label
 _atom_site_symmetry_multiplicity
 _atom_site_fract_x
 _atom_site_fract_y
 _atom_site_fract_z
 _atom_site_occupancy
  Tm  Tm0  1  0.708771  0.291235  0.291239  1
  Tm  Tm1  1  0.291229  0.708765  0.708761  1
  Tm  Tm2  1  0.291236  0.708773  0.291237  1
  Tm  Tm3  1  0.291239  0.291235  0.708771  1
  Tm  Tm4  1  0.708764  0.291227  0.708763  1
  Tm  Tm5  1  0.708761  0.708765  0.291229  1
  U  U6  1  0.000000  0.000000  0.000000  1
  Ga  Ga7  1  0.500000  0.000000  0.000000  1
  Ga  Ga8  1  0.000000  0.500000  0.500000  1
  Ga  Ga9  1  0.000000  0.500000  0.000000  1
  Ga  Ga10  1  0.000000  0.000000  0.500000  1
  Ga  Ga11  1  0.500000  0.000000  0.500000  1
  Ga  Ga12  1  0.500000  0.500000  0.000000  1
  Co  Co13  1  0.322501  0.322520  0.322522  1
  Co  Co14  1  0.322487  0.322505  0.032463  1
  Co  Co15  1  0.032476  0.322493  0.322496  1
  Co  Co16  1  0.322485  0.032468  0.322506  1
  Co  Co17  1  0.677499  0.677480  0.677478  1
  Co  Co18  1  0.677513  0.677495  0.967537  1
  Co  Co19  1  0.677515  0.967532  0.677494  1
  Co  Co20  1  0.967524  0.677507  0.677504  1
  Co  Co21  1  0.122624  0.122639  0.122642  1
  Co  Co22  1  0.122610  0.122624  0.632115  1
  Co  Co23  1  0.632134  0.122612  0.122615  1
  Co  Co24  1  0.122607  0.632116  0.122626  1
  Co  Co25  1  0.877376  0.877361  0.877358  1
  Co  Co26  1  0.877390  0.877376  0.367885  1
  Co  Co27  1  0.877393  0.367884  0.877374  1
  Co  Co28  1  0.367866  0.877388  0.877385  1
