# generated using pymatgen
data_Rb2ScF5
_symmetry_space_group_name_H-M   'P 1'
_cell_length_a   6.03809000
_cell_length_b   7.86236000
_cell_length_c   12.37708600
_cell_angle_alpha   90.00000000
_cell_angle_beta   90.00000000
_cell_angle_gamma   90.00000000
_symmetry_Int_Tables_number   1
_chemical_formula_structural   Rb2ScF5
_chemical_formula_sum   'Rb8 Sc4 F20'
_cell_volume   587.58529150
_cell_formula_units_Z   4
loop_
 _symmetry_equiv_pos_site_id
 _symmetry_equiv_pos_as_xyz
  1  'x, y, z'
loop_
 _atom_site_type_symbol
 _atom_site_label
 _atom_site_symmetry_multiplicity
 _atom_site_fract_x
 _atom_site_fract_y
 _atom_site_fract_z
 _atom_site_occupancy
  Rb  Rb0  1  0.250000  0.157090  0.585848  1
  Rb  Rb1  1  0.250000  0.657090  0.914152  1
  Rb  Rb2  1  0.750000  0.842910  0.414152  1
  Rb  Rb3  1  0.750000  0.342910  0.085848  1
  Rb  Rb4  1  0.250000  0.488862  0.272100  1
  Rb  Rb5  1  0.250000  0.988862  0.227900  1
  Rb  Rb6  1  0.750000  0.511138  0.727900  1
  Rb  Rb7  1  0.750000  0.011138  0.772100  1
  Sc  Sc8  1  0.250000  0.668199  0.561857  1
  Sc  Sc9  1  0.250000  0.168199  0.938143  1
  Sc  Sc10  1  0.750000  0.331801  0.438143  1
  Sc  Sc11  1  0.750000  0.831801  0.061857  1
  F  F12  1  0.000000  0.500000  0.500000  1
  F  F13  1  0.500000  0.000000  0.000000  1
  F  F14  1  0.500000  0.500000  0.500000  1
  F  F15  1  0.000000  0.000000  0.000000  1
  F  F16  1  0.250000  0.525723  0.695163  1
  F  F17  1  0.250000  0.025723  0.804837  1
  F  F18  1  0.750000  0.474277  0.304837  1
  F  F19  1  0.750000  0.974277  0.195163  1
  F  F20  1  0.250000  0.775907  0.411083  1
  F  F21  1  0.250000  0.275907  0.088917  1
  F  F22  1  0.750000  0.224093  0.588917  1
  F  F23  1  0.750000  0.724093  0.911083  1
  F  F24  1  0.009844  0.821145  0.612322  1
  F  F25  1  0.490156  0.321145  0.887678  1
  F  F26  1  0.509844  0.178855  0.387678  1
  F  F27  1  0.990156  0.678855  0.112322  1
  F  F28  1  0.990156  0.178855  0.387678  1
  F  F29  1  0.509844  0.678855  0.112322  1
  F  F30  1  0.490156  0.821145  0.612322  1
  F  F31  1  0.009844  0.321145  0.887678  1
