# generated using pymatgen
data_La2Sm4Zn4Pd12Rh
_symmetry_space_group_name_H-M   'P 1'
_cell_length_a   8.36332173
_cell_length_b   8.36332371
_cell_length_c   8.36365690
_cell_angle_alpha   109.58387615
_cell_angle_beta   109.58388615
_cell_angle_gamma   109.24451451
_symmetry_Int_Tables_number   1
_chemical_formula_structural   La2Sm4Zn4Pd12Rh
_chemical_formula_sum   'La2 Sm4 Zn4 Pd12 Rh1'
_cell_volume   450.33494288
_cell_formula_units_Z   1
loop_
 _symmetry_equiv_pos_site_id
 _symmetry_equiv_pos_as_xyz
  1  'x, y, z'
loop_
 _atom_site_type_symbol
 _atom_site_label
 _atom_site_symmetry_multiplicity
 _atom_site_fract_x
 _atom_site_fract_y
 _atom_site_fract_z
 _atom_site_occupancy
  La  La0  1  0.703601  0.000604  0.704205  1
  La  La1  1  0.000604  0.703601  0.704205  1
  Sm  Sm2  1  0.700677  0.700677  0.001418  1
  Sm  Sm3  1  0.297955  0.000784  0.298739  1
  Sm  Sm4  1  0.000784  0.297955  0.298739  1
  Sm  Sm5  1  0.300742  0.300742  0.001418  1
  Zn  Zn6  1  0.000766  0.000766  0.496432  1
  Zn  Zn7  1  0.000695  0.500695  0.001390  1
  Zn  Zn8  1  0.500695  0.000695  0.001390  1
  Zn  Zn9  1  0.495666  0.495666  0.496432  1
  Pd  Pd10  1  0.332472  0.332472  0.664945  1
  Pd  Pd11  1  0.667967  0.000031  0.331073  1
  Pd  Pd12  1  0.000031  0.667967  0.331073  1
  Pd  Pd13  1  0.667258  0.333544  0.000802  1
  Pd  Pd14  1  0.331042  0.663107  0.331073  1
  Pd  Pd15  1  0.000765  0.332187  0.667631  1
  Pd  Pd16  1  0.333544  0.667258  0.000802  1
  Pd  Pd17  1  0.332187  0.000765  0.667631  1
  Pd  Pd18  1  0.663107  0.331042  0.331073  1
  Pd  Pd19  1  0.666168  0.666168  0.332336  1
  Pd  Pd20  1  0.666866  0.335443  0.667631  1
  Pd  Pd21  1  0.335443  0.666866  0.667631  1
  Rh  Rh22  1  0.000966  0.000966  0.001933  1
