# generated using pymatgen
data_Y2Ho6GaPd24
_symmetry_space_group_name_H-M   'P 1'
_cell_length_a   8.35597800
_cell_length_b   8.35505203
_cell_length_c   8.35505203
_cell_angle_alpha   89.99027589
_cell_angle_beta   90.00000000
_cell_angle_gamma   90.00000000
_symmetry_Int_Tables_number   1
_chemical_formula_structural   Y2Ho6GaPd24
_chemical_formula_sum   'Y2 Ho6 Ga1 Pd24'
_cell_volume   583.30486567
_cell_formula_units_Z   1
loop_
 _symmetry_equiv_pos_site_id
 _symmetry_equiv_pos_as_xyz
  1  'x, y, z'
loop_
 _atom_site_type_symbol
 _atom_site_label
 _atom_site_symmetry_multiplicity
 _atom_site_fract_x
 _atom_site_fract_y
 _atom_site_fract_z
 _atom_site_occupancy
  Y  Y0  1  0.251322  0.251313  0.748687  1
  Y  Y1  1  0.251322  0.748687  0.251313  1
  Ho  Ho2  1  0.748680  0.251343  0.251343  1
  Ho  Ho3  1  0.748680  0.748657  0.748657  1
  Ho  Ho4  1  0.748599  0.748619  0.251381  1
  Ho  Ho5  1  0.748599  0.251381  0.748619  1
  Ho  Ho6  1  0.251365  0.748619  0.748619  1
  Ho  Ho7  1  0.251365  0.251381  0.251381  1
  Ga  Ga8  1  0.999874  0.000000  0.000000  1
  Pd  Pd9  1  0.500463  0.500465  0.746999  1
  Pd  Pd10  1  0.500463  0.253001  0.499535  1
  Pd  Pd11  1  0.253006  0.500000  0.500000  1
  Pd  Pd12  1  0.500463  0.499535  0.253001  1
  Pd  Pd13  1  0.500463  0.746999  0.500465  1
  Pd  Pd14  1  0.746988  0.500000  0.500000  1
  Pd  Pd15  1  0.999608  0.999591  0.708326  1
  Pd  Pd16  1  0.999608  0.291674  0.000409  1
  Pd  Pd17  1  0.291730  0.000000  0.000000  1
  Pd  Pd18  1  0.999608  0.000409  0.291674  1
  Pd  Pd19  1  0.999608  0.708326  0.999591  1
  Pd  Pd20  1  0.708336  0.000000  0.000000  1
  Pd  Pd21  1  0.999554  0.500496  0.739668  1
  Pd  Pd22  1  0.500446  0.260336  0.000462  1
  Pd  Pd23  1  0.260299  0.000000  0.500000  1
  Pd  Pd24  1  0.999554  0.260332  0.499504  1
  Pd  Pd25  1  0.500446  0.999538  0.739664  1
  Pd  Pd26  1  0.260299  0.500000  0.000000  1
  Pd  Pd27  1  0.999554  0.499504  0.260332  1
  Pd  Pd28  1  0.500446  0.739664  0.999538  1
  Pd  Pd29  1  0.999554  0.739668  0.500496  1
  Pd  Pd30  1  0.500446  0.000462  0.260336  1
  Pd  Pd31  1  0.739626  0.000000  0.500000  1
  Pd  Pd32  1  0.739626  0.500000  0.000000  1
