# generated using pymatgen
data_Tb3Dy5(B6Os)4
_symmetry_space_group_name_H-M   'P 1'
_cell_length_a   3.66341900
_cell_length_b   9.17097556
_cell_length_c   11.55459628
_cell_angle_alpha   90.00035238
_cell_angle_beta   90.00000000
_cell_angle_gamma   90.00000000
_symmetry_Int_Tables_number   1
_chemical_formula_structural   Tb3Dy5(B6Os)4
_chemical_formula_sum   'Tb3 Dy5 B24 Os4'
_cell_volume   388.20122860
_cell_formula_units_Z   1
loop_
 _symmetry_equiv_pos_site_id
 _symmetry_equiv_pos_as_xyz
  1  'x, y, z'
loop_
 _atom_site_type_symbol
 _atom_site_label
 _atom_site_symmetry_multiplicity
 _atom_site_fract_x
 _atom_site_fract_y
 _atom_site_fract_z
 _atom_site_occupancy
  Tb  Tb0  1  0.000000  0.322045  0.414057  1
  Tb  Tb1  1  0.000000  0.677890  0.586054  1
  Tb  Tb2  1  0.000000  0.822141  0.085898  1
  Dy  Dy3  1  0.000000  0.178070  0.914068  1
  Dy  Dy4  1  0.000000  0.943529  0.372557  1
  Dy  Dy5  1  0.000000  0.056471  0.627333  1
  Dy  Dy6  1  0.000000  0.443499  0.127235  1
  Dy  Dy7  1  0.000000  0.556457  0.872771  1
  B  B8  1  0.500000  0.553933  0.432903  1
  B  B9  1  0.500000  0.445914  0.567342  1
  B  B10  1  0.500000  0.054145  0.066833  1
  B  B11  1  0.500000  0.946334  0.932814  1
  B  B12  1  0.500000  0.747637  0.419402  1
  B  B13  1  0.500000  0.252307  0.580744  1
  B  B14  1  0.500000  0.247654  0.080271  1
  B  B15  1  0.500000  0.752542  0.919400  1
  B  B16  1  0.500000  0.790145  0.266333  1
  B  B17  1  0.500000  0.209617  0.733899  1
  B  B18  1  0.500000  0.290155  0.233459  1
  B  B19  1  0.500000  0.709877  0.766456  1
  B  B20  1  0.500000  0.631231  0.185528  1
  B  B21  1  0.500000  0.368461  0.814725  1
  B  B22  1  0.500000  0.131289  0.314326  1
  B  B23  1  0.500000  0.868788  0.685576  1
  B  B24  1  0.500000  0.983391  0.212649  1
  B  B25  1  0.500000  0.016969  0.787243  1
  B  B26  1  0.500000  0.483273  0.287154  1
  B  B27  1  0.500000  0.516512  0.713029  1
  B  B28  1  0.500000  0.607492  0.029821  1
  B  B29  1  0.500000  0.392199  0.970133  1
  B  B30  1  0.500000  0.107276  0.470196  1
  B  B31  1  0.500000  0.892727  0.529732  1
  Os  Os32  1  0.000000  0.637134  0.321340  1
  Os  Os33  1  0.000000  0.362624  0.678913  1
  Os  Os34  1  0.000000  0.137201  0.178409  1
  Os  Os35  1  0.000000  0.863073  0.821400  1
