# generated using pymatgen
data_LaSmYTaO7
_symmetry_space_group_name_H-M   'P 1'
_cell_length_a   6.59135901
_cell_length_b   6.59135689
_cell_length_c   7.68131400
_cell_angle_alpha   90.00000000
_cell_angle_beta   90.00000000
_cell_angle_gamma   109.02324350
_symmetry_Int_Tables_number   1
_chemical_formula_structural   LaSmYTaO7
_chemical_formula_sum   'La2 Sm2 Y2 Ta2 O14'
_cell_volume   315.49659283
_cell_formula_units_Z   2
loop_
 _symmetry_equiv_pos_site_id
 _symmetry_equiv_pos_as_xyz
  1  'x, y, z'
loop_
 _atom_site_type_symbol
 _atom_site_label
 _atom_site_symmetry_multiplicity
 _atom_site_fract_x
 _atom_site_fract_y
 _atom_site_fract_z
 _atom_site_occupancy
  La  La0  1  0.496174  0.496174  0.500000  1
  La  La1  1  0.496174  0.496174  0.000000  1
  Sm  Sm2  1  0.535060  0.999634  0.750000  1
  Sm  Sm3  1  0.999634  0.535060  0.250000  1
  Y  Y4  1  0.467975  0.998974  0.250000  1
  Y  Y5  1  0.998974  0.467975  0.750000  1
  Ta  Ta6  1  0.999784  0.999784  0.500000  1
  Ta  Ta7  1  0.999784  0.999784  0.000000  1
  O  O8  1  0.685681  0.935670  0.464971  1
  O  O9  1  0.935670  0.685681  0.535029  1
  O  O10  1  0.685681  0.935670  0.035029  1
  O  O11  1  0.935670  0.685681  0.964971  1
  O  O12  1  0.317691  0.067232  0.527733  1
  O  O13  1  0.067232  0.317691  0.472267  1
  O  O14  1  0.317691  0.067232  0.972267  1
  O  O15  1  0.067232  0.317691  0.027733  1
  O  O16  1  0.939018  0.060097  0.750000  1
  O  O17  1  0.060097  0.939018  0.250000  1
  O  O18  1  0.359553  0.629816  0.750000  1
  O  O19  1  0.629816  0.359553  0.250000  1
  O  O20  1  0.644289  0.361119  0.750000  1
  O  O21  1  0.361119  0.644289  0.250000  1
