# generated using pymatgen
data_Dy5Si12Ir17Os2
_symmetry_space_group_name_H-M   'P 1'
_cell_length_a   12.77596700
_cell_length_b   12.83295872
_cell_length_c   3.99273600
_cell_angle_alpha   90.00000000
_cell_angle_beta   90.00000000
_cell_angle_gamma   119.85319732
_symmetry_Int_Tables_number   1
_chemical_formula_structural   Dy5Si12Ir17Os2
_chemical_formula_sum   'Dy5 Si12 Ir17 Os2'
_cell_volume   567.75680817
_cell_formula_units_Z   1
loop_
 _symmetry_equiv_pos_site_id
 _symmetry_equiv_pos_as_xyz
  1  'x, y, z'
loop_
 _atom_site_type_symbol
 _atom_site_label
 _atom_site_symmetry_multiplicity
 _atom_site_fract_x
 _atom_site_fract_y
 _atom_site_fract_z
 _atom_site_occupancy
  Dy  Dy0  1  0.332469  0.664781  0.500000  1
  Dy  Dy1  1  0.667689  0.335219  0.500000  1
  Dy  Dy2  1  0.999079  0.813146  0.000000  1
  Dy  Dy3  1  0.185933  0.186854  0.000000  1
  Dy  Dy4  1  0.814550  0.000000  0.000000  1
  Si  Si5  1  0.000308  0.629174  0.500000  1
  Si  Si6  1  0.371134  0.370826  0.500000  1
  Si  Si7  1  0.632011  0.000000  0.500000  1
  Si  Si8  1  0.519056  0.685539  0.000000  1
  Si  Si9  1  0.311086  0.830777  0.000000  1
  Si  Si10  1  0.165129  0.478768  0.000000  1
  Si  Si11  1  0.480309  0.169223  0.000000  1
  Si  Si12  1  0.686361  0.521232  0.000000  1
  Si  Si13  1  0.833517  0.314461  0.000000  1
  Si  Si14  1  0.999915  0.180704  0.500000  1
  Si  Si15  1  0.819211  0.819296  0.500000  1
  Si  Si16  1  0.182315  0.000000  0.500000  1
  Ir  Ir17  1  0.511260  0.872296  0.000000  1
  Ir  Ir18  1  0.126140  0.638220  0.000000  1
  Ir  Ir19  1  0.360338  0.487687  0.000000  1
  Ir  Ir20  1  0.487920  0.361780  0.000000  1
  Ir  Ir21  1  0.872651  0.512313  0.000000  1
  Ir  Ir22  1  0.638964  0.127704  0.000000  1
  Ir  Ir23  1  0.447079  0.000000  0.500000  1
  Ir  Ir24  1  0.999253  0.280490  0.000000  1
  Ir  Ir25  1  0.718763  0.719510  0.000000  1
  Ir  Ir26  1  0.282311  0.000000  0.000000  1
  Ir  Ir27  1  0.622446  0.805332  0.500000  1
  Ir  Ir28  1  0.194245  0.817254  0.500000  1
  Ir  Ir29  1  0.182008  0.375860  0.500000  1
  Ir  Ir30  1  0.376990  0.182746  0.500000  1
  Ir  Ir31  1  0.806147  0.624140  0.500000  1
  Ir  Ir32  1  0.817113  0.194668  0.500000  1
  Ir  Ir33  1  0.000552  0.000000  0.500000  1
  Os  Os34  1  0.999883  0.444018  0.500000  1
  Os  Os35  1  0.555866  0.555982  0.500000  1
