# generated using pymatgen
data_Ho4Tm6Si5P
_symmetry_space_group_name_H-M   'P 1'
_cell_length_a   8.32241800
_cell_length_b   8.33409179
_cell_length_c   6.21511800
_cell_angle_alpha   90.00000000
_cell_angle_beta   90.00000000
_cell_angle_gamma   119.95367510
_symmetry_Int_Tables_number   1
_chemical_formula_structural   Ho4Tm6Si5P
_chemical_formula_sum   'Ho4 Tm6 Si5 P1'
_cell_volume   373.49978337
_cell_formula_units_Z   1
loop_
 _symmetry_equiv_pos_site_id
 _symmetry_equiv_pos_as_xyz
  1  'x, y, z'
loop_
 _atom_site_type_symbol
 _atom_site_label
 _atom_site_symmetry_multiplicity
 _atom_site_fract_x
 _atom_site_fract_y
 _atom_site_fract_z
 _atom_site_occupancy
  Ho  Ho0  1  0.000682  0.756499  0.750000  1
  Ho  Ho1  1  0.755070  0.000000  0.750000  1
  Ho  Ho2  1  0.244183  0.243501  0.750000  1
  Ho  Ho3  1  0.243735  0.000000  0.250000  1
  Tm  Tm4  1  0.000878  0.244322  0.250000  1
  Tm  Tm5  1  0.756556  0.755678  0.250000  1
  Tm  Tm6  1  0.333792  0.667389  0.500207  1
  Tm  Tm7  1  0.666404  0.332611  0.999793  1
  Tm  Tm8  1  0.666404  0.332611  0.500207  1
  Tm  Tm9  1  0.333792  0.667389  0.999793  1
  Si  Si10  1  0.394686  0.394394  0.250000  1
  Si  Si11  1  0.000291  0.605606  0.250000  1
  Si  Si12  1  0.000041  0.394150  0.750000  1
  Si  Si13  1  0.605891  0.605850  0.750000  1
  Si  Si14  1  0.607476  0.000000  0.250000  1
  P  P15  1  0.390118  0.000000  0.750000  1
