# generated using pymatgen
data_Pr8Pu3WO24
_symmetry_space_group_name_H-M   'P 1'
_cell_length_a   5.62625807
_cell_length_b   9.72647473
_cell_length_c   10.51730500
_cell_angle_alpha   89.88110784
_cell_angle_beta   89.99065142
_cell_angle_gamma   89.86302750
_symmetry_Int_Tables_number   1
_chemical_formula_structural   Pr8Pu3WO24
_chemical_formula_sum   'Pr8 Pu3 W1 O24'
_cell_volume   575.54250011
_cell_formula_units_Z   1
loop_
 _symmetry_equiv_pos_site_id
 _symmetry_equiv_pos_as_xyz
  1  'x, y, z'
loop_
 _atom_site_type_symbol
 _atom_site_label
 _atom_site_symmetry_multiplicity
 _atom_site_fract_x
 _atom_site_fract_y
 _atom_site_fract_z
 _atom_site_occupancy
  Pr  Pr0  1  0.041438  0.218824  0.130410  1
  Pr  Pr1  1  0.460644  0.777079  0.633005  1
  Pr  Pr2  1  0.965387  0.714584  0.370230  1
  Pr  Pr3  1  0.535559  0.285229  0.864991  1
  Pr  Pr4  1  0.023852  0.105686  0.535018  1
  Pr  Pr5  1  0.468532  0.898452  0.036923  1
  Pr  Pr6  1  0.976763  0.601985  0.957739  1
  Pr  Pr7  1  0.529365  0.401828  0.468399  1
  Pu  Pu8  1  0.542148  0.004277  0.354979  1
  Pu  Pu9  1  0.956974  0.996145  0.852095  1
  Pu  Pu10  1  0.461014  0.505547  0.147119  1
  W  W11  1  0.039441  0.495502  0.647230  1
  O  O12  1  0.420357  0.156672  0.471215  1
  O  O13  1  0.085100  0.841285  0.971316  1
  O  O14  1  0.585168  0.655426  0.031844  1
  O  O15  1  0.923547  0.348962  0.534131  1
  O  O16  1  0.733956  0.383718  0.056655  1
  O  O17  1  0.778540  0.609017  0.568321  1
  O  O18  1  0.269510  0.883390  0.439799  1
  O  O19  1  0.237265  0.115923  0.936952  1
  O  O20  1  0.249799  0.414064  0.002273  1
  O  O21  1  0.241198  0.583779  0.509602  1
  O  O22  1  0.750749  0.912438  0.497313  1
  O  O23  1  0.754798  0.084097  0.993395  1
  O  O24  1  0.166347  0.635009  0.178421  1
  O  O25  1  0.308000  0.371889  0.679940  1
  O  O26  1  0.834772  0.134119  0.320519  1
  O  O27  1  0.666008  0.861126  0.821058  1
  O  O28  1  0.333409  0.053581  0.201755  1
  O  O29  1  0.163482  0.948443  0.703434  1
  O  O30  1  0.671441  0.550851  0.302953  1
  O  O31  1  0.835503  0.450768  0.786026  1
  O  O32  1  0.325400  0.361658  0.259939  1
  O  O33  1  0.175165  0.635748  0.755432  1
  O  O34  1  0.674036  0.858822  0.242349  1
  O  O35  1  0.815337  0.144076  0.737226  1
