# generated using pymatgen
data_Y2HoEr3(Co3P2)6
_symmetry_space_group_name_H-M   'P 1'
_cell_length_a   3.68917400
_cell_length_b   10.48622102
_cell_length_c   12.16610658
_cell_angle_alpha   89.94551645
_cell_angle_beta   90.00000000
_cell_angle_gamma   90.00000000
_symmetry_Int_Tables_number   1
_chemical_formula_structural   Y2HoEr3(Co3P2)6
_chemical_formula_sum   'Y2 Ho1 Er3 Co18 P12'
_cell_volume   470.65162971
_cell_formula_units_Z   1
loop_
 _symmetry_equiv_pos_site_id
 _symmetry_equiv_pos_as_xyz
  1  'x, y, z'
loop_
 _atom_site_type_symbol
 _atom_site_label
 _atom_site_symmetry_multiplicity
 _atom_site_fract_x
 _atom_site_fract_y
 _atom_site_fract_z
 _atom_site_occupancy
  Y  Y0  1  0.750000  0.250311  0.478193  1
  Y  Y1  1  0.250000  0.749698  0.521698  1
  Ho  Ho2  1  0.250000  0.932005  0.794223  1
  Er  Er3  1  0.250000  0.567436  0.794370  1
  Er  Er4  1  0.750000  0.067978  0.205863  1
  Er  Er5  1  0.750000  0.432359  0.205802  1
  Co  Co6  1  0.250000  0.249913  0.841242  1
  Co  Co7  1  0.750000  0.750034  0.158574  1
  Co  Co8  1  0.250000  0.250329  0.295645  1
  Co  Co9  1  0.750000  0.749404  0.704297  1
  Co  Co10  1  0.750000  0.250081  0.013920  1
  Co  Co11  1  0.250000  0.749928  0.986543  1
  Co  Co12  1  0.250000  0.416735  0.005261  1
  Co  Co13  1  0.250000  0.083503  0.005365  1
  Co  Co14  1  0.750000  0.583022  0.994814  1
  Co  Co15  1  0.750000  0.916790  0.994922  1
  Co  Co16  1  0.250000  0.452661  0.569742  1
  Co  Co17  1  0.250000  0.047092  0.569448  1
  Co  Co18  1  0.750000  0.547224  0.430342  1
  Co  Co19  1  0.750000  0.952995  0.430107  1
  Co  Co20  1  0.250000  0.871382  0.289654  1
  Co  Co21  1  0.250000  0.629050  0.289705  1
  Co  Co22  1  0.750000  0.128943  0.709992  1
  Co  Co23  1  0.750000  0.370982  0.710367  1
  P  P24  1  0.250000  0.250175  0.117388  1
  P  P25  1  0.750000  0.749604  0.882941  1
  P  P26  1  0.250000  0.249852  0.656592  1
  P  P27  1  0.750000  0.750155  0.343291  1
  P  P28  1  0.250000  0.439633  0.383298  1
  P  P29  1  0.250000  0.060924  0.383193  1
  P  P30  1  0.750000  0.560313  0.616766  1
  P  P31  1  0.750000  0.939146  0.616307  1
  P  P32  1  0.250000  0.903504  0.107038  1
  P  P33  1  0.250000  0.596836  0.107166  1
  P  P34  1  0.750000  0.097100  0.893009  1
  P  P35  1  0.750000  0.402902  0.892920  1
