# generated using pymatgen
data_ErLuMn6P7Ir6
_symmetry_space_group_name_H-M   'P 1'
_cell_length_a   9.41913525
_cell_length_b   9.41808522
_cell_length_c   3.81241500
_cell_angle_alpha   90.00000000
_cell_angle_beta   90.00000000
_cell_angle_gamma   120.01063367
_symmetry_Int_Tables_number   1
_chemical_formula_structural   ErLuMn6P7Ir6
_chemical_formula_sum   'Er1 Lu1 Mn6 P7 Ir6'
_cell_volume   292.85854794
_cell_formula_units_Z   1
loop_
 _symmetry_equiv_pos_site_id
 _symmetry_equiv_pos_as_xyz
  1  'x, y, z'
loop_
 _atom_site_type_symbol
 _atom_site_label
 _atom_site_symmetry_multiplicity
 _atom_site_fract_x
 _atom_site_fract_y
 _atom_site_fract_z
 _atom_site_occupancy
  Er  Er0  1  0.666663  0.333283  0.000000  1
  Lu  Lu1  1  0.999933  0.999872  0.500000  1
  Mn  Mn2  1  0.492100  0.938164  0.000000  1
  Mn  Mn3  1  0.062639  0.554432  0.000000  1
  Mn  Mn4  1  0.445327  0.508068  0.000000  1
  Mn  Mn5  1  0.549845  0.764705  0.500000  1
  Mn  Mn6  1  0.235496  0.785063  0.500000  1
  Mn  Mn7  1  0.214703  0.449736  0.500000  1
  P  P8  1  0.453528  0.064275  0.500000  1
  P  P9  1  0.935888  0.389229  0.500000  1
  P  P10  1  0.610660  0.546661  0.500000  1
  P  P11  1  0.744145  0.966768  0.000000  1
  P  P12  1  0.033002  0.777299  0.000000  1
  P  P13  1  0.222523  0.255605  0.000000  1
  P  P14  1  0.333688  0.667235  0.000000  1
  Ir  Ir15  1  0.761939  0.734430  0.000000  1
  Ir  Ir16  1  0.265195  0.027432  0.000000  1
  Ir  Ir17  1  0.972571  0.237833  0.000000  1
  Ir  Ir18  1  0.721051  0.111095  0.500000  1
  Ir  Ir19  1  0.888891  0.609754  0.500000  1
  Ir  Ir20  1  0.390211  0.279063  0.500000  1
