# generated using pymatgen
data_Dy4MgPbAu4
_symmetry_space_group_name_H-M   'P 1'
_cell_length_a   8.07431300
_cell_length_b   8.07431300
_cell_length_c   7.38767600
_cell_angle_alpha   90.00000000
_cell_angle_beta   90.00000000
_cell_angle_gamma   90.00000000
_symmetry_Int_Tables_number   1
_chemical_formula_structural   Dy4MgPbAu4
_chemical_formula_sum   'Dy8 Mg2 Pb2 Au8'
_cell_volume   481.63606773
_cell_formula_units_Z   2
loop_
 _symmetry_equiv_pos_site_id
 _symmetry_equiv_pos_as_xyz
  1  'x, y, z'
loop_
 _atom_site_type_symbol
 _atom_site_label
 _atom_site_symmetry_multiplicity
 _atom_site_fract_x
 _atom_site_fract_y
 _atom_site_fract_z
 _atom_site_occupancy
  Dy  Dy0  1  0.840949  0.159051  0.500000  1
  Dy  Dy1  1  0.159051  0.840949  0.500000  1
  Dy  Dy2  1  0.340949  0.340949  0.000000  1
  Dy  Dy3  1  0.659051  0.659051  0.000000  1
  Dy  Dy4  1  0.679408  0.679408  0.500000  1
  Dy  Dy5  1  0.320592  0.320592  0.500000  1
  Dy  Dy6  1  0.179408  0.820592  0.000000  1
  Dy  Dy7  1  0.820592  0.179408  0.000000  1
  Mg  Mg8  1  0.500000  0.000000  0.250000  1
  Mg  Mg9  1  0.000000  0.500000  0.750000  1
  Pb  Pb10  1  0.500000  0.000000  0.750000  1
  Pb  Pb11  1  0.000000  0.500000  0.250000  1
  Au  Au12  1  0.619243  0.361440  0.270210  1
  Au  Au13  1  0.380757  0.638560  0.270210  1
  Au  Au14  1  0.119243  0.138560  0.770210  1
  Au  Au15  1  0.880757  0.861440  0.770210  1
  Au  Au16  1  0.361440  0.619243  0.729790  1
  Au  Au17  1  0.638560  0.380757  0.729790  1
  Au  Au18  1  0.861440  0.880757  0.229790  1
  Au  Au19  1  0.138560  0.119243  0.229790  1
