# generated using pymatgen
data_Pr5Nd(ScBi5)2
_symmetry_space_group_name_H-M   'P 1'
_cell_length_a   9.78526910
_cell_length_b   9.77910077
_cell_length_c   6.59033500
_cell_angle_alpha   90.00000000
_cell_angle_beta   90.00000000
_cell_angle_gamma   119.97915779
_symmetry_Int_Tables_number   1
_chemical_formula_structural   Pr5Nd(ScBi5)2
_chemical_formula_sum   'Pr5 Nd1 Sc2 Bi10'
_cell_volume   546.26199907
_cell_formula_units_Z   1
loop_
 _symmetry_equiv_pos_site_id
 _symmetry_equiv_pos_as_xyz
  1  'x, y, z'
loop_
 _atom_site_type_symbol
 _atom_site_label
 _atom_site_symmetry_multiplicity
 _atom_site_fract_x
 _atom_site_fract_y
 _atom_site_fract_z
 _atom_site_occupancy
  Pr  Pr0  1  0.000000  0.618517  0.250000  1
  Pr  Pr1  1  0.381223  0.381191  0.250000  1
  Pr  Pr2  1  0.381138  0.000173  0.750000  1
  Pr  Pr3  1  0.618862  0.619035  0.750000  1
  Pr  Pr4  1  0.618777  0.999968  0.250000  1
  Nd  Nd5  1  0.000000  0.380712  0.750000  1
  Sc  Sc6  1  0.000000  0.000042  0.999586  1
  Sc  Sc7  1  0.000000  0.000042  0.500414  1
  Bi  Bi8  1  0.000000  0.262340  0.250000  1
  Bi  Bi9  1  0.332858  0.666308  0.500700  1
  Bi  Bi10  1  0.667142  0.333449  0.999300  1
  Bi  Bi11  1  0.332858  0.666308  0.999300  1
  Bi  Bi12  1  0.261778  0.262561  0.750000  1
  Bi  Bi13  1  0.738222  0.000783  0.750000  1
  Bi  Bi14  1  0.000000  0.737320  0.750000  1
  Bi  Bi15  1  0.737828  0.737813  0.250000  1
  Bi  Bi16  1  0.262172  0.999986  0.250000  1
  Bi  Bi17  1  0.667142  0.333449  0.500700  1
