# generated using pymatgen
data_Ho5Th3(Ta3Si4)4
_symmetry_space_group_name_H-M   'P 1'
_cell_length_a   7.08322051
_cell_length_b   7.08655016
_cell_length_c   13.14692739
_cell_angle_alpha   89.86587437
_cell_angle_beta   90.02495544
_cell_angle_gamma   90.09325811
_symmetry_Int_Tables_number   1
_chemical_formula_structural   Ho5Th3(Ta3Si4)4
_chemical_formula_sum   'Ho5 Th3 Ta12 Si16'
_cell_volume   659.91513112
_cell_formula_units_Z   1
loop_
 _symmetry_equiv_pos_site_id
 _symmetry_equiv_pos_as_xyz
  1  'x, y, z'
loop_
 _atom_site_type_symbol
 _atom_site_label
 _atom_site_symmetry_multiplicity
 _atom_site_fract_x
 _atom_site_fract_y
 _atom_site_fract_z
 _atom_site_occupancy
  Ho  Ho0  1  0.999599  0.340311  0.216779  1
  Ho  Ho1  1  0.999357  0.660525  0.719015  1
  Ho  Ho2  1  0.160269  0.500442  0.467796  1
  Ho  Ho3  1  0.499946  0.838709  0.031595  1
  Ho  Ho4  1  0.839001  0.500151  0.968560  1
  Th  Th5  1  0.497492  0.162951  0.531895  1
  Th  Th6  1  0.337438  0.996502  0.782431  1
  Th  Th7  1  0.662947  0.003571  0.281422  1
  Ta  Ta8  1  0.168059  0.169138  0.999271  1
  Ta  Ta9  1  0.830382  0.832214  0.499442  1
  Ta  Ta10  1  0.331716  0.669975  0.248849  1
  Ta  Ta11  1  0.667430  0.330528  0.750885  1
  Ta  Ta12  1  0.157389  0.991109  0.373667  1
  Ta  Ta13  1  0.844536  0.006962  0.875745  1
  Ta  Ta14  1  0.508709  0.656769  0.625793  1
  Ta  Ta15  1  0.343830  0.494001  0.876148  1
  Ta  Ta16  1  0.492221  0.344330  0.124878  1
  Ta  Ta17  1  0.657150  0.503856  0.374263  1
  Ta  Ta18  1  0.996440  0.157707  0.625655  1
  Ta  Ta19  1  0.004680  0.843110  0.125110  1
  Si  Si20  1  0.289238  0.042626  0.183047  1
  Si  Si21  1  0.714201  0.954991  0.687016  1
  Si  Si22  1  0.455002  0.785825  0.436111  1
  Si  Si23  1  0.204057  0.541280  0.064002  1
  Si  Si24  1  0.544520  0.207502  0.938508  1
  Si  Si25  1  0.799082  0.462473  0.564565  1
  Si  Si26  1  0.036908  0.299705  0.814997  1
  Si  Si27  1  0.960909  0.700500  0.313723  1
  Si  Si28  1  0.363950  0.300834  0.315211  1
  Si  Si29  1  0.635034  0.699942  0.818253  1
  Si  Si30  1  0.198566  0.864466  0.565772  1
  Si  Si31  1  0.126503  0.791794  0.935636  1
  Si  Si32  1  0.798173  0.132572  0.065686  1
  Si  Si33  1  0.879422  0.207973  0.433713  1
  Si  Si34  1  0.291229  0.378621  0.684265  1
  Si  Si35  1  0.704615  0.626037  0.180298  1
