# generated using pymatgen
data_SrMn7CoO16
_symmetry_space_group_name_H-M   'P 1'
_cell_length_a   5.84422244
_cell_length_b   7.07894158
_cell_length_c   7.15749698
_cell_angle_alpha   89.38536110
_cell_angle_beta   78.35520460
_cell_angle_gamma   78.52155874
_symmetry_Int_Tables_number   1
_chemical_formula_structural   SrMn7CoO16
_chemical_formula_sum   'Sr1 Mn7 Co1 O16'
_cell_volume   284.08333067
_cell_formula_units_Z   1
loop_
 _symmetry_equiv_pos_site_id
 _symmetry_equiv_pos_as_xyz
  1  'x, y, z'
loop_
 _atom_site_type_symbol
 _atom_site_label
 _atom_site_symmetry_multiplicity
 _atom_site_fract_x
 _atom_site_fract_y
 _atom_site_fract_z
 _atom_site_occupancy
  Sr  Sr0  1  0.003707  0.996618  0.994892  1
  Mn  Mn1  1  0.085065  0.507518  0.184045  1
  Mn  Mn2  1  0.173813  0.816542  0.515517  1
  Mn  Mn3  1  0.668604  0.815270  0.523155  1
  Mn  Mn4  1  0.338202  0.185636  0.474070  1
  Mn  Mn5  1  0.835024  0.185874  0.479155  1
  Mn  Mn6  1  0.429730  0.481796  0.824309  1
  Mn  Mn7  1  0.925455  0.489752  0.823270  1
  Co  Co8  1  0.583003  0.514519  0.181437  1
  O  O9  1  0.836022  0.647311  0.055527  1
  O  O10  1  0.329513  0.642912  0.053917  1
  O  O11  1  0.990473  0.699497  0.379557  1
  O  O12  1  0.483043  0.699593  0.387366  1
  O  O13  1  0.857170  0.959744  0.646221  1
  O  O14  1  0.333930  0.968989  0.647979  1
  O  O15  1  0.346019  0.368938  0.279828  1
  O  O16  1  0.842507  0.365299  0.278695  1
  O  O17  1  0.165759  0.639665  0.726206  1
  O  O18  1  0.666421  0.624561  0.722646  1
  O  O19  1  0.150052  0.041911  0.347716  1
  O  O20  1  0.656438  0.049475  0.348319  1
  O  O21  1  0.025364  0.303355  0.612603  1
  O  O22  1  0.523982  0.298223  0.614506  1
  O  O23  1  0.172866  0.345726  0.947859  1
  O  O24  1  0.684936  0.351274  0.951199  1
