# generated using pymatgen
data_Sm8Be3Si13
_symmetry_space_group_name_H-M   'P 1'
_cell_length_a   7.95367200
_cell_length_b   7.95367286
_cell_length_c   8.32642900
_cell_angle_alpha   90.00000000
_cell_angle_beta   90.00000000
_cell_angle_gamma   119.99999642
_symmetry_Int_Tables_number   1
_chemical_formula_structural   Sm8Be3Si13
_chemical_formula_sum   'Sm8 Be3 Si13'
_cell_volume   456.16801637
_cell_formula_units_Z   1
loop_
 _symmetry_equiv_pos_site_id
 _symmetry_equiv_pos_as_xyz
  1  'x, y, z'
loop_
 _atom_site_type_symbol
 _atom_site_label
 _atom_site_symmetry_multiplicity
 _atom_site_fract_x
 _atom_site_fract_y
 _atom_site_fract_z
 _atom_site_occupancy
  Sm  Sm0  1  0.000000  0.000000  0.250500  1
  Sm  Sm1  1  0.000000  0.000000  0.749449  1
  Sm  Sm2  1  0.499493  0.500507  0.248212  1
  Sm  Sm3  1  0.499493  0.998986  0.248212  1
  Sm  Sm4  1  0.001014  0.500507  0.248212  1
  Sm  Sm5  1  0.499460  0.500540  0.751835  1
  Sm  Sm6  1  0.499460  0.998920  0.751835  1
  Sm  Sm7  1  0.001080  0.500540  0.751835  1
  Be  Be8  1  0.333333  0.666667  0.499286  1
  Be  Be9  1  0.666667  0.333333  0.500205  1
  Be  Be10  1  0.666667  0.333333  0.000077  1
  Si  Si11  1  0.172630  0.827370  0.499969  1
  Si  Si12  1  0.172630  0.345260  0.499969  1
  Si  Si13  1  0.654740  0.827370  0.499969  1
  Si  Si14  1  0.827230  0.172770  0.500070  1
  Si  Si15  1  0.827230  0.654457  0.500070  1
  Si  Si16  1  0.345543  0.172770  0.500070  1
  Si  Si17  1  0.825102  0.174898  0.000083  1
  Si  Si18  1  0.825102  0.650202  0.000083  1
  Si  Si19  1  0.349798  0.174898  0.000083  1
  Si  Si20  1  0.163519  0.836481  0.999888  1
  Si  Si21  1  0.163519  0.327038  0.999888  1
  Si  Si22  1  0.672962  0.836481  0.999888  1
  Si  Si23  1  0.333333  0.666667  0.000312  1
