# generated using pymatgen
data_TbDy3Y4(OsC2)4
_symmetry_space_group_name_H-M   'P 1'
_cell_length_a   5.15364500
_cell_length_b   6.44329849
_cell_length_c   9.83039274
_cell_angle_alpha   90.04446623
_cell_angle_beta   90.00000000
_cell_angle_gamma   90.00000000
_symmetry_Int_Tables_number   1
_chemical_formula_structural   TbDy3Y4(OsC2)4
_chemical_formula_sum   'Tb1 Dy3 Y4 Os4 C8'
_cell_volume   326.43257301
_cell_formula_units_Z   1
loop_
 _symmetry_equiv_pos_site_id
 _symmetry_equiv_pos_as_xyz
  1  'x, y, z'
loop_
 _atom_site_type_symbol
 _atom_site_label
 _atom_site_symmetry_multiplicity
 _atom_site_fract_x
 _atom_site_fract_y
 _atom_site_fract_z
 _atom_site_occupancy
  Tb  Tb0  1  0.250000  0.523305  0.220258  1
  Dy  Dy1  1  0.750000  0.476607  0.779492  1
  Dy  Dy2  1  0.750000  0.976573  0.720569  1
  Dy  Dy3  1  0.250000  0.023341  0.279432  1
  Y  Y4  1  0.250000  0.686241  0.551785  1
  Y  Y5  1  0.750000  0.313639  0.448387  1
  Y  Y6  1  0.750000  0.813816  0.051604  1
  Y  Y7  1  0.250000  0.186289  0.948213  1
  Os  Os8  1  0.250000  0.727265  0.864584  1
  Os  Os9  1  0.750000  0.272635  0.135326  1
  Os  Os10  1  0.750000  0.772893  0.364718  1
  Os  Os11  1  0.250000  0.227097  0.635501  1
  C  C12  1  0.250000  0.463564  0.757884  1
  C  C13  1  0.750000  0.536385  0.242237  1
  C  C14  1  0.750000  0.036349  0.257886  1
  C  C15  1  0.250000  0.963571  0.742093  1
  C  C16  1  0.250000  0.822950  0.051903  1
  C  C17  1  0.750000  0.177794  0.947793  1
  C  C18  1  0.750000  0.677909  0.552149  1
  C  C19  1  0.250000  0.321776  0.448185  1
