# generated using pymatgen
data_Tb5Dy11(AlCo)4
_symmetry_space_group_name_H-M   'P 1'
_cell_length_a   9.39616277
_cell_length_b   9.39615901
_cell_length_c   9.39485000
_cell_angle_alpha   60.00463190
_cell_angle_beta   60.00460842
_cell_angle_gamma   60.00633234
_symmetry_Int_Tables_number   1
_chemical_formula_structural   Tb5Dy11(AlCo)4
_chemical_formula_sum   'Tb5 Dy11 Al4 Co4'
_cell_volume   586.57945685
_cell_formula_units_Z   1
loop_
 _symmetry_equiv_pos_site_id
 _symmetry_equiv_pos_as_xyz
  1  'x, y, z'
loop_
 _atom_site_type_symbol
 _atom_site_label
 _atom_site_symmetry_multiplicity
 _atom_site_fract_x
 _atom_site_fract_y
 _atom_site_fract_z
 _atom_site_occupancy
  Tb  Tb0  1  0.937709  0.937709  0.562291  1
  Tb  Tb1  1  0.349348  0.349350  0.349562  1
  Tb  Tb2  1  0.349350  0.349348  0.951737  1
  Tb  Tb3  1  0.349721  0.951696  0.349290  1
  Tb  Tb4  1  0.951696  0.349721  0.349291  1
  Dy  Dy5  1  0.807618  0.192482  0.192090  1
  Dy  Dy6  1  0.192482  0.807618  0.807810  1
  Dy  Dy7  1  0.192480  0.807619  0.192090  1
  Dy  Dy8  1  0.807619  0.192480  0.807810  1
  Dy  Dy9  1  0.192266  0.192266  0.807734  1
  Dy  Dy10  1  0.807752  0.807752  0.192248  1
  Dy  Dy11  1  0.937667  0.562134  0.562290  1
  Dy  Dy12  1  0.562134  0.937667  0.937908  1
  Dy  Dy13  1  0.562138  0.937666  0.562294  1
  Dy  Dy14  1  0.937666  0.562137  0.937904  1
  Dy  Dy15  1  0.562174  0.562173  0.937827  1
  Al  Al16  1  0.576938  0.576940  0.576834  1
  Al  Al17  1  0.576940  0.576938  0.269288  1
  Al  Al18  1  0.576791  0.269437  0.576882  1
  Al  Al19  1  0.269437  0.576791  0.576891  1
  Co  Co20  1  0.140443  0.140447  0.140452  1
  Co  Co21  1  0.140447  0.140443  0.578659  1
  Co  Co22  1  0.140548  0.578634  0.140410  1
  Co  Co23  1  0.578634  0.140548  0.140409  1
