# generated using pymatgen
data_Y2ErTm2Re2C7
_symmetry_space_group_name_H-M   'P 1'
_cell_length_a   8.26860210
_cell_length_b   8.30945775
_cell_length_c   3.39712100
_cell_angle_alpha   90.00000000
_cell_angle_beta   90.00000000
_cell_angle_gamma   122.32180085
_symmetry_Int_Tables_number   1
_chemical_formula_structural   Y2ErTm2Re2C7
_chemical_formula_sum   'Y2 Er1 Tm2 Re2 C7'
_cell_volume   197.24342885
_cell_formula_units_Z   1
loop_
 _symmetry_equiv_pos_site_id
 _symmetry_equiv_pos_as_xyz
  1  'x, y, z'
loop_
 _atom_site_type_symbol
 _atom_site_label
 _atom_site_symmetry_multiplicity
 _atom_site_fract_x
 _atom_site_fract_y
 _atom_site_fract_z
 _atom_site_occupancy
  Y  Y0  1  0.499599  0.499876  0.000000  1
  Y  Y1  1  0.668167  0.924736  0.500000  1
  Er  Er2  1  0.333717  0.077183  0.500000  1
  Tm  Tm3  1  0.077719  0.339191  0.500000  1
  Tm  Tm4  1  0.922627  0.660658  0.500000  1
  Re  Re5  1  0.714697  0.284066  0.000000  1
  Re  Re6  1  0.284149  0.716500  0.000000  1
  C  C7  1  0.625735  0.371956  0.500000  1
  C  C8  1  0.372292  0.627316  0.500000  1
  C  C9  1  0.001147  0.999385  0.000000  1
  C  C10  1  0.168010  0.171912  0.000000  1
  C  C11  1  0.834684  0.827148  0.000000  1
  C  C12  1  0.999518  0.499585  0.000000  1
  C  C13  1  0.497940  0.000489  0.000000  1
