# generated using pymatgen
data_Er4Lu6Sn5Sb
_symmetry_space_group_name_H-M   'P 1'
_cell_length_a   8.81457664
_cell_length_b   8.81457718
_cell_length_c   6.36466700
_cell_angle_alpha   90.00000000
_cell_angle_beta   90.00000000
_cell_angle_gamma   120.02173068
_symmetry_Int_Tables_number   1
_chemical_formula_structural   Er4Lu6Sn5Sb
_chemical_formula_sum   'Er4 Lu6 Sn5 Sb1'
_cell_volume   428.16791522
_cell_formula_units_Z   1
loop_
 _symmetry_equiv_pos_site_id
 _symmetry_equiv_pos_as_xyz
  1  'x, y, z'
loop_
 _atom_site_type_symbol
 _atom_site_label
 _atom_site_symmetry_multiplicity
 _atom_site_fract_x
 _atom_site_fract_y
 _atom_site_fract_z
 _atom_site_occupancy
  Er  Er0  1  0.762314  0.762314  0.750000  1
  Er  Er1  1  0.238180  0.997846  0.750000  1
  Er  Er2  1  0.997846  0.238180  0.750000  1
  Er  Er3  1  0.238704  0.238704  0.250000  1
  Lu  Lu4  1  0.667483  0.333226  0.000225  1
  Lu  Lu5  1  0.333226  0.667483  0.000225  1
  Lu  Lu6  1  0.333226  0.667483  0.499775  1
  Lu  Lu7  1  0.667483  0.333226  0.499775  1
  Lu  Lu8  1  0.761537  0.000558  0.250000  1
  Lu  Lu9  1  0.000558  0.761537  0.250000  1
  Sn  Sn10  1  0.602845  0.999428  0.750000  1
  Sn  Sn11  1  0.999428  0.602845  0.750000  1
  Sn  Sn12  1  0.606350  0.606350  0.250000  1
  Sn  Sn13  1  0.396042  0.000398  0.250000  1
  Sn  Sn14  1  0.000398  0.396042  0.250000  1
  Sb  Sb15  1  0.394376  0.394376  0.750000  1
