# generated using pymatgen
data_LiTa2Nb7B20
_symmetry_space_group_name_H-M   'P 1'
_cell_length_a   6.20200818
_cell_length_b   7.04577776
_cell_length_c   7.34484194
_cell_angle_alpha   93.51534420
_cell_angle_beta   102.09582958
_cell_angle_gamma   116.17115859
_symmetry_Int_Tables_number   1
_chemical_formula_structural   LiTa2Nb7B20
_chemical_formula_sum   'Li1 Ta2 Nb7 B20'
_cell_volume   277.29959219
_cell_formula_units_Z   1
loop_
 _symmetry_equiv_pos_site_id
 _symmetry_equiv_pos_as_xyz
  1  'x, y, z'
loop_
 _atom_site_type_symbol
 _atom_site_label
 _atom_site_symmetry_multiplicity
 _atom_site_fract_x
 _atom_site_fract_y
 _atom_site_fract_z
 _atom_site_occupancy
  Li  Li0  1  0.000093  0.000270  0.000175  1
  Ta  Ta1  1  0.500080  0.000272  0.999903  1
  Ta  Ta2  1  0.000137  0.602398  0.800343  1
  Nb  Nb3  1  0.499457  0.799600  0.400097  1
  Nb  Nb4  1  0.999631  0.397070  0.200320  1
  Nb  Nb5  1  0.500714  0.199891  0.599857  1
  Nb  Nb6  1  0.999449  0.796791  0.398670  1
  Nb  Nb7  1  0.502168  0.600733  0.801100  1
  Nb  Nb8  1  0.497911  0.399523  0.199051  1
  Nb  Nb9  1  0.000385  0.203406  0.600766  1
  B  B10  1  0.329077  0.228840  0.869752  1
  B  B11  1  0.333190  0.633966  0.065722  1
  B  B12  1  0.164744  0.362665  0.935785  1
  B  B13  1  0.329035  0.032934  0.261206  1
  B  B14  1  0.165019  0.770595  0.128932  1
  B  B15  1  0.834743  0.230233  0.869534  1
  B  B16  1  0.164702  0.164237  0.328481  1
  B  B17  1  0.835820  0.638263  0.063044  1
  B  B18  1  0.332811  0.432059  0.465500  1
  B  B19  1  0.666794  0.366511  0.933262  1
  B  B20  1  0.834174  0.032965  0.261300  1
  B  B21  1  0.670762  0.771085  0.129921  1
  B  B22  1  0.334336  0.834445  0.668753  1
  B  B23  1  0.167388  0.567675  0.534179  1
  B  B24  1  0.665020  0.164985  0.331724  1
  B  B25  1  0.832611  0.432666  0.467328  1
  B  B26  1  0.165313  0.966034  0.739285  1
  B  B27  1  0.835678  0.835036  0.672098  1
  B  B28  1  0.667764  0.567946  0.535185  1
  B  B29  1  0.670992  0.966907  0.738725  1
