# generated using pymatgen
data_CaEr3Lu4(B6Os)4
_symmetry_space_group_name_H-M   'P 1'
_cell_length_a   3.61049300
_cell_length_b   9.06879814
_cell_length_c   11.45852114
_cell_angle_alpha   90.07445170
_cell_angle_beta   90.00000000
_cell_angle_gamma   90.00000000
_symmetry_Int_Tables_number   1
_chemical_formula_structural   CaEr3Lu4(B6Os)4
_chemical_formula_sum   'Ca1 Er3 Lu4 B24 Os4'
_cell_volume   375.18411854
_cell_formula_units_Z   1
loop_
 _symmetry_equiv_pos_site_id
 _symmetry_equiv_pos_as_xyz
  1  'x, y, z'
loop_
 _atom_site_type_symbol
 _atom_site_label
 _atom_site_symmetry_multiplicity
 _atom_site_fract_x
 _atom_site_fract_y
 _atom_site_fract_z
 _atom_site_occupancy
  Ca  Ca0  1  0.000000  0.178486  0.913790  1
  Er  Er1  1  0.000000  0.320789  0.414472  1
  Er  Er2  1  0.000000  0.678538  0.586457  1
  Er  Er3  1  0.000000  0.822748  0.085122  1
  Lu  Lu4  1  0.000000  0.944169  0.372994  1
  Lu  Lu5  1  0.000000  0.056485  0.628371  1
  Lu  Lu6  1  0.000000  0.442805  0.127338  1
  Lu  Lu7  1  0.000000  0.555762  0.871933  1
  B  B8  1  0.500000  0.554219  0.432766  1
  B  B9  1  0.500000  0.446730  0.566167  1
  B  B10  1  0.500000  0.053560  0.067833  1
  B  B11  1  0.500000  0.945292  0.932851  1
  B  B12  1  0.500000  0.749667  0.419617  1
  B  B13  1  0.500000  0.250958  0.580265  1
  B  B14  1  0.500000  0.249352  0.081720  1
  B  B15  1  0.500000  0.750101  0.919194  1
  B  B16  1  0.500000  0.791730  0.265983  1
  B  B17  1  0.500000  0.209092  0.733388  1
  B  B18  1  0.500000  0.291517  0.234951  1
  B  B19  1  0.500000  0.707449  0.765599  1
  B  B20  1  0.500000  0.630739  0.184466  1
  B  B21  1  0.500000  0.370105  0.814282  1
  B  B22  1  0.500000  0.130562  0.316114  1
  B  B23  1  0.500000  0.868674  0.684930  1
  B  B24  1  0.500000  0.982254  0.213581  1
  B  B25  1  0.500000  0.016950  0.786687  1
  B  B26  1  0.500000  0.482354  0.286723  1
  B  B27  1  0.500000  0.517937  0.712237  1
  B  B28  1  0.500000  0.603062  0.028409  1
  B  B29  1  0.500000  0.398932  0.972041  1
  B  B30  1  0.500000  0.104184  0.471615  1
  B  B31  1  0.500000  0.895425  0.528948  1
  Os  Os32  1  0.000000  0.638144  0.320553  1
  Os  Os33  1  0.000000  0.363271  0.677575  1
  Os  Os34  1  0.000000  0.138290  0.181295  1
  Os  Os35  1  0.000000  0.859666  0.819729  1
