# generated using pymatgen
data_CsU2F12
_symmetry_space_group_name_H-M   'P 1'
_cell_length_a   6.54883756
_cell_length_b   6.61130185
_cell_length_c   10.88478000
_cell_angle_alpha   98.15742313
_cell_angle_beta   94.75492073
_cell_angle_gamma   118.55943964
_symmetry_Int_Tables_number   1
_chemical_formula_structural   CsU2F12
_chemical_formula_sum   'Cs1 U2 F12'
_cell_volume   403.53514741
_cell_formula_units_Z   1
loop_
 _symmetry_equiv_pos_site_id
 _symmetry_equiv_pos_as_xyz
  1  'x, y, z'
loop_
 _atom_site_type_symbol
 _atom_site_label
 _atom_site_symmetry_multiplicity
 _atom_site_fract_x
 _atom_site_fract_y
 _atom_site_fract_z
 _atom_site_occupancy
  Cs  Cs0  1  0.985785  0.963195  0.921852  1
  U  U1  1  0.218832  0.499125  0.591801  1
  U  U2  1  0.376882  0.694496  0.134399  1
  F  F3  1  0.241868  0.876996  0.230247  1
  F  F4  1  0.531527  0.651829  0.720494  1
  F  F5  1  0.066386  0.526046  0.003097  1
  F  F6  1  0.231071  0.415627  0.221907  1
  F  F7  1  0.497134  0.510361  0.020094  1
  F  F8  1  0.317147  0.285134  0.493440  1
  F  F9  1  0.693505  0.860888  0.251956  1
  F  F10  1  0.125350  0.716784  0.700095  1
  F  F11  1  0.909062  0.354982  0.469869  1
  F  F12  1  0.063984  0.253381  0.702696  1
  F  F13  1  0.380612  0.750313  0.489307  1
  F  F14  1  0.508857  0.950843  0.026741  1
