# generated using pymatgen
data_Np3ScH12
_symmetry_space_group_name_H-M   'P 1'
_cell_length_a   6.47990000
_cell_length_b   6.47990000
_cell_length_c   6.47990000
_cell_angle_alpha   90.00000000
_cell_angle_beta   90.00000000
_cell_angle_gamma   90.00000000
_symmetry_Int_Tables_number   1
_chemical_formula_structural   Np3ScH12
_chemical_formula_sum   'Np6 Sc2 H24'
_cell_volume   272.08519507
_cell_formula_units_Z   2
loop_
 _symmetry_equiv_pos_site_id
 _symmetry_equiv_pos_as_xyz
  1  'x, y, z'
loop_
 _atom_site_type_symbol
 _atom_site_label
 _atom_site_symmetry_multiplicity
 _atom_site_fract_x
 _atom_site_fract_y
 _atom_site_fract_z
 _atom_site_occupancy
  Np  Np0  1  0.250000  0.000000  0.500000  1
  Np  Np1  1  0.750000  0.000000  0.500000  1
  Np  Np2  1  0.000000  0.500000  0.250000  1
  Np  Np3  1  0.000000  0.500000  0.750000  1
  Np  Np4  1  0.500000  0.750000  0.000000  1
  Np  Np5  1  0.500000  0.250000  0.000000  1
  Sc  Sc6  1  0.000000  0.000000  0.000000  1
  Sc  Sc7  1  0.500000  0.500000  0.500000  1
  H  H8  1  0.000000  0.152687  0.297245  1
  H  H9  1  0.500000  0.202755  0.652687  1
  H  H10  1  0.500000  0.797245  0.347313  1
  H  H11  1  0.797245  0.652687  0.500000  1
  H  H12  1  0.202755  0.652687  0.500000  1
  H  H13  1  0.347313  0.500000  0.797245  1
  H  H14  1  0.652687  0.500000  0.797245  1
  H  H15  1  0.297245  0.000000  0.152687  1
  H  H16  1  0.152687  0.297245  0.000000  1
  H  H17  1  0.847313  0.702755  0.000000  1
  H  H18  1  0.297245  0.000000  0.847313  1
  H  H19  1  0.847313  0.297245  0.000000  1
  H  H20  1  0.702755  0.000000  0.152687  1
  H  H21  1  0.702755  0.000000  0.847313  1
  H  H22  1  0.152687  0.702755  0.000000  1
  H  H23  1  0.000000  0.847313  0.702755  1
  H  H24  1  0.000000  0.152687  0.702755  1
  H  H25  1  0.000000  0.847313  0.297245  1
  H  H26  1  0.652687  0.500000  0.202755  1
  H  H27  1  0.347313  0.500000  0.202755  1
  H  H28  1  0.797245  0.347313  0.500000  1
  H  H29  1  0.202755  0.347313  0.500000  1
  H  H30  1  0.500000  0.797245  0.652687  1
  H  H31  1  0.500000  0.202755  0.347313  1
