# generated using pymatgen
data_BaHo2Si3O10
_symmetry_space_group_name_H-M   'P 1'
_cell_length_a   12.31415300
_cell_length_b   5.44352267
_cell_length_c   6.89842177
_cell_angle_alpha   73.53358228
_cell_angle_beta   90.00000000
_cell_angle_gamma   90.00000000
_symmetry_Int_Tables_number   1
_chemical_formula_structural   BaHo2Si3O10
_chemical_formula_sum   'Ba2 Ho4 Si6 O20'
_cell_volume   443.45199145
_cell_formula_units_Z   2
loop_
 _symmetry_equiv_pos_site_id
 _symmetry_equiv_pos_as_xyz
  1  'x, y, z'
loop_
 _atom_site_type_symbol
 _atom_site_label
 _atom_site_symmetry_multiplicity
 _atom_site_fract_x
 _atom_site_fract_y
 _atom_site_fract_z
 _atom_site_occupancy
  Ba  Ba0  1  0.750000  0.761227  0.983788  1
  Ba  Ba1  1  0.250000  0.238773  0.016212  1
  Ho  Ho2  1  0.599214  0.157532  0.316334  1
  Ho  Ho3  1  0.900786  0.157532  0.316334  1
  Ho  Ho4  1  0.099214  0.842468  0.683666  1
  Ho  Ho5  1  0.400786  0.842468  0.683666  1
  Si  Si6  1  0.060685  0.695632  0.213784  1
  Si  Si7  1  0.250000  0.418949  0.488130  1
  Si  Si8  1  0.750000  0.581051  0.511870  1
  Si  Si9  1  0.439315  0.695632  0.213784  1
  Si  Si10  1  0.560685  0.304368  0.786216  1
  Si  Si11  1  0.939315  0.304368  0.786216  1
  O  O12  1  0.450758  0.897400  0.352651  1
  O  O13  1  0.143117  0.453380  0.337630  1
  O  O14  1  0.856883  0.546620  0.662370  1
  O  O15  1  0.356883  0.453380  0.337630  1
  O  O16  1  0.378727  0.838029  0.001559  1
  O  O17  1  0.878727  0.161971  0.998441  1
  O  O18  1  0.054639  0.437452  0.807711  1
  O  O19  1  0.950758  0.102600  0.647349  1
  O  O20  1  0.549242  0.102600  0.647349  1
  O  O21  1  0.250000  0.629217  0.615912  1
  O  O22  1  0.121273  0.838029  0.001559  1
  O  O23  1  0.554639  0.562548  0.192289  1
  O  O24  1  0.250000  0.123450  0.633716  1
  O  O25  1  0.643117  0.546620  0.662370  1
  O  O26  1  0.750000  0.876550  0.366284  1
  O  O27  1  0.945361  0.562548  0.192289  1
  O  O28  1  0.750000  0.370783  0.384088  1
  O  O29  1  0.445361  0.437452  0.807711  1
  O  O30  1  0.621273  0.161971  0.998441  1
  O  O31  1  0.049242  0.897400  0.352651  1
