# generated using pymatgen
data_Li3Ho3SiHgGe
_symmetry_space_group_name_H-M   'P 1'
_cell_length_a   7.18554500
_cell_length_b   7.18554467
_cell_length_c   4.19249700
_cell_angle_alpha   90.00000000
_cell_angle_beta   90.00000000
_cell_angle_gamma   119.99998769
_symmetry_Int_Tables_number   1
_chemical_formula_structural   Li3Ho3SiHgGe
_chemical_formula_sum   'Li3 Ho3 Si1 Hg1 Ge1'
_cell_volume   187.46614703
_cell_formula_units_Z   1
loop_
 _symmetry_equiv_pos_site_id
 _symmetry_equiv_pos_as_xyz
  1  'x, y, z'
loop_
 _atom_site_type_symbol
 _atom_site_label
 _atom_site_symmetry_multiplicity
 _atom_site_fract_x
 _atom_site_fract_y
 _atom_site_fract_z
 _atom_site_occupancy
  Li  Li0  1  0.246480  0.999544  0.500000  1
  Li  Li1  1  0.753065  0.753520  0.500000  1
  Li  Li2  1  0.000456  0.246935  0.500000  1
  Ho  Ho3  1  0.001418  0.568538  0.000000  1
  Ho  Ho4  1  0.567120  0.998582  0.000000  1
  Ho  Ho5  1  0.431462  0.432880  0.000000  1
  Si  Si6  1  0.333333  0.666667  0.500000  1
  Hg  Hg7  1  0.000000  0.000000  0.000000  1
  Ge  Ge8  1  0.666667  0.333333  0.500000  1
