# generated using pymatgen
data_Yb(Ga3Ni)3
_symmetry_space_group_name_H-M   'P 1'
_cell_length_a   10.16282290
_cell_length_b   10.16282265
_cell_length_c   10.16282025
_cell_angle_alpha   41.83165323
_cell_angle_beta   41.83165089
_cell_angle_gamma   41.83165755
_symmetry_Int_Tables_number   1
_chemical_formula_structural   Yb(Ga3Ni)3
_chemical_formula_sum   'Yb2 Ga18 Ni6'
_cell_volume   422.19997025
_cell_formula_units_Z   2
loop_
 _symmetry_equiv_pos_site_id
 _symmetry_equiv_pos_as_xyz
  1  'x, y, z'
loop_
 _atom_site_type_symbol
 _atom_site_label
 _atom_site_symmetry_multiplicity
 _atom_site_fract_x
 _atom_site_fract_y
 _atom_site_fract_z
 _atom_site_occupancy
  Yb  Yb0  1  0.166845  0.166845  0.166845  1
  Yb  Yb1  1  0.833155  0.833155  0.833155  1
  Ga  Ga2  1  0.051205  0.051205  0.051205  1
  Ga  Ga3  1  0.710839  0.500000  0.289161  1
  Ga  Ga4  1  0.666672  0.333328  0.000000  1
  Ga  Ga5  1  0.104504  0.433817  0.763881  1
  Ga  Ga6  1  0.433817  0.763881  0.104504  1
  Ga  Ga7  1  0.385383  0.385383  0.385383  1
  Ga  Ga8  1  0.333328  0.000000  0.666672  1
  Ga  Ga9  1  0.614617  0.614617  0.614617  1
  Ga  Ga10  1  0.236119  0.566183  0.895496  1
  Ga  Ga11  1  0.566183  0.895496  0.236119  1
  Ga  Ga12  1  0.500000  0.289161  0.710839  1
  Ga  Ga13  1  0.763881  0.104504  0.433817  1
  Ga  Ga14  1  0.948795  0.948795  0.948795  1
  Ga  Ga15  1  0.289161  0.710839  0.500000  1
  Ga  Ga16  1  0.000000  0.666672  0.333328  1
  Ga  Ga17  1  0.717635  0.717635  0.717635  1
  Ga  Ga18  1  0.282365  0.282365  0.282365  1
  Ga  Ga19  1  0.895496  0.236119  0.566183  1
  Ni  Ni20  1  0.242739  0.921874  0.582714  1
  Ni  Ni21  1  0.921874  0.582714  0.242739  1
  Ni  Ni22  1  0.757261  0.417286  0.078126  1
  Ni  Ni23  1  0.078126  0.757261  0.417286  1
  Ni  Ni24  1  0.417286  0.078126  0.757261  1
  Ni  Ni25  1  0.582714  0.242739  0.921874  1
