# generated using pymatgen
data_Zr6Ga7Ni16H3
_symmetry_space_group_name_H-M   'P 1'
_cell_length_a   8.30053405
_cell_length_b   8.30053424
_cell_length_c   8.30053419
_cell_angle_alpha   119.87412213
_cell_angle_beta   120.15741331
_cell_angle_gamma   89.97286200
_symmetry_Int_Tables_number   1
_chemical_formula_structural   Zr6Ga7Ni16H3
_chemical_formula_sum   'Zr6 Ga7 Ni16 H3'
_cell_volume   404.29303058
_cell_formula_units_Z   1
loop_
 _symmetry_equiv_pos_site_id
 _symmetry_equiv_pos_as_xyz
  1  'x, y, z'
loop_
 _atom_site_type_symbol
 _atom_site_label
 _atom_site_symmetry_multiplicity
 _atom_site_fract_x
 _atom_site_fract_y
 _atom_site_fract_z
 _atom_site_occupancy
  Zr  Zr0  1  0.795790  0.213739  0.004093  1
  Zr  Zr1  1  0.795790  0.791698  0.582050  1
  Zr  Zr2  1  0.778982  0.778982  0.000000  1
  Zr  Zr3  1  0.209647  0.791698  0.995907  1
  Zr  Zr4  1  0.209647  0.213739  0.417950  1
  Zr  Zr5  1  0.212443  0.212443  0.000000  1
  Ga  Ga6  1  0.498565  0.496688  0.496049  1
  Ga  Ga7  1  0.498565  0.002517  0.001877  1
  Ga  Ga8  1  0.499820  0.999820  0.500000  1
  Ga  Ga9  1  0.000639  0.002517  0.503951  1
  Ga  Ga10  1  0.000639  0.496688  0.998123  1
  Ga  Ga11  1  0.998105  0.498105  0.500000  1
  Ga  Ga12  1  0.499486  0.499486  0.000000  1
  Ni  Ni13  1  0.483527  0.826924  0.656604  1
  Ni  Ni14  1  0.170321  0.826924  0.343396  1
  Ni  Ni15  1  0.168802  0.830518  0.661716  1
  Ni  Ni16  1  0.168802  0.507085  0.338284  1
  Ni  Ni17  1  0.509420  0.169158  0.340263  1
  Ni  Ni18  1  0.828895  0.169158  0.659737  1
  Ni  Ni19  1  0.830498  0.166008  0.335510  1
  Ni  Ni20  1  0.830498  0.494989  0.664490  1
  Ni  Ni21  1  0.860108  0.618008  0.242100  1
  Ni  Ni22  1  0.375908  0.618008  0.757900  1
  Ni  Ni23  1  0.380579  0.619768  0.239189  1
  Ni  Ni24  1  0.380579  0.141391  0.760811  1
  Ni  Ni25  1  0.140049  0.381085  0.758964  1
  Ni  Ni26  1  0.622121  0.381085  0.241036  1
  Ni  Ni27  1  0.618118  0.377771  0.759654  1
  Ni  Ni28  1  0.618118  0.858463  0.240346  1
  H  H29  1  0.027637  0.027637  0.000000  1
  H  H30  1  0.718455  0.903850  0.814606  1
  H  H31  1  0.089244  0.903850  0.185394  1
