# generated using pymatgen
data_LiEu(B3O5)3
_symmetry_space_group_name_H-M   'P 1'
_cell_length_a   8.60894774
_cell_length_b   8.60894778
_cell_length_c   8.60894800
_cell_angle_alpha   77.76499275
_cell_angle_beta   77.76498589
_cell_angle_gamma   77.76499409
_symmetry_Int_Tables_number   1
_chemical_formula_structural   LiEu(B3O5)3
_chemical_formula_sum   'Li2 Eu2 B18 O30'
_cell_volume   599.99916050
_cell_formula_units_Z   2
loop_
 _symmetry_equiv_pos_site_id
 _symmetry_equiv_pos_as_xyz
  1  'x, y, z'
loop_
 _atom_site_type_symbol
 _atom_site_label
 _atom_site_symmetry_multiplicity
 _atom_site_fract_x
 _atom_site_fract_y
 _atom_site_fract_z
 _atom_site_occupancy
  Li  Li0  1  0.233722  0.233722  0.233722  1
  Li  Li1  1  0.733722  0.733722  0.733722  1
  Eu  Eu2  1  0.492162  0.492162  0.492162  1
  Eu  Eu3  1  0.992162  0.992162  0.992162  1
  B  B4  1  0.768873  0.625306  0.103630  1
  B  B5  1  0.275396  0.711269  0.833590  1
  B  B6  1  0.775396  0.333590  0.211269  1
  B  B7  1  0.333590  0.211269  0.775396  1
  B  B8  1  0.125306  0.268873  0.603630  1
  B  B9  1  0.268873  0.603630  0.125306  1
  B  B10  1  0.603630  0.125306  0.268873  1
  B  B11  1  0.833590  0.275396  0.711269  1
  B  B12  1  0.103630  0.768873  0.625306  1
  B  B13  1  0.625306  0.103630  0.768873  1
  B  B14  1  0.939893  0.280493  0.422523  1
  B  B15  1  0.280493  0.422523  0.939893  1
  B  B16  1  0.422523  0.939893  0.280493  1
  B  B17  1  0.922523  0.780493  0.439893  1
  B  B18  1  0.780493  0.439893  0.922523  1
  B  B19  1  0.439893  0.922523  0.780493  1
  B  B20  1  0.711269  0.833590  0.275396  1
  B  B21  1  0.211269  0.775396  0.333590  1
  O  O22  1  0.795561  0.769279  0.125056  1
  O  O23  1  0.769279  0.125056  0.795561  1
  O  O24  1  0.505145  0.231084  0.735062  1
  O  O25  1  0.735062  0.505145  0.231084  1
  O  O26  1  0.125056  0.795561  0.769279  1
  O  O27  1  0.731084  0.005145  0.235062  1
  O  O28  1  0.235062  0.731084  0.005145  1
  O  O29  1  0.005145  0.235062  0.731084  1
  O  O30  1  0.259545  0.274616  0.925627  1
  O  O31  1  0.925627  0.259545  0.274616  1
  O  O32  1  0.274616  0.925627  0.259545  1
  O  O33  1  0.774616  0.759545  0.425627  1
  O  O34  1  0.425627  0.774616  0.759545  1
  O  O35  1  0.759545  0.425627  0.774616  1
  O  O36  1  0.625056  0.269279  0.295561  1
  O  O37  1  0.269279  0.295561  0.625056  1
  O  O38  1  0.811231  0.307540  0.542403  1
  O  O39  1  0.307540  0.542403  0.811231  1
  O  O40  1  0.542403  0.811231  0.307540  1
  O  O41  1  0.042403  0.807540  0.311231  1
  O  O42  1  0.807540  0.311231  0.042403  1
  O  O43  1  0.311231  0.042403  0.807540  1
  O  O44  1  0.098802  0.274824  0.446467  1
  O  O45  1  0.274824  0.446467  0.098802  1
  O  O46  1  0.446467  0.098802  0.274824  1
  O  O47  1  0.946467  0.774824  0.598802  1
  O  O48  1  0.774824  0.598802  0.946467  1
  O  O49  1  0.598802  0.946467  0.774824  1
  O  O50  1  0.231084  0.735062  0.505145  1
  O  O51  1  0.295561  0.625056  0.269279  1
