# generated using pymatgen
data_Nd6YScAu10
_symmetry_space_group_name_H-M   'P 1'
_cell_length_a   8.18258518
_cell_length_b   8.18258512
_cell_length_c   8.18258518
_cell_angle_alpha   65.88390334
_cell_angle_beta   65.88390150
_cell_angle_gamma   65.88388150
_symmetry_Int_Tables_number   1
_chemical_formula_structural   Nd6YScAu10
_chemical_formula_sum   'Nd6 Y1 Sc1 Au10'
_cell_volume   436.77795964
_cell_formula_units_Z   1
loop_
 _symmetry_equiv_pos_site_id
 _symmetry_equiv_pos_as_xyz
  1  'x, y, z'
loop_
 _atom_site_type_symbol
 _atom_site_label
 _atom_site_symmetry_multiplicity
 _atom_site_fract_x
 _atom_site_fract_y
 _atom_site_fract_z
 _atom_site_occupancy
  Nd  Nd0  1  0.893763  0.184657  0.621027  1
  Nd  Nd1  1  0.621027  0.893763  0.184657  1
  Nd  Nd2  1  0.184657  0.621027  0.893763  1
  Nd  Nd3  1  0.110009  0.812619  0.378124  1
  Nd  Nd4  1  0.378124  0.110009  0.812619  1
  Nd  Nd5  1  0.812619  0.378124  0.110009  1
  Y  Y6  1  0.657019  0.657019  0.657019  1
  Sc  Sc7  1  0.342410  0.342410  0.342410  1
  Au  Au8  1  0.000606  0.000606  0.000606  1
  Au  Au9  1  0.496171  0.496171  0.496171  1
  Au  Au10  1  0.805171  0.805171  0.805171  1
  Au  Au11  1  0.197888  0.197888  0.197888  1
  Au  Au12  1  0.945476  0.545089  0.318845  1
  Au  Au13  1  0.318845  0.945476  0.545089  1
  Au  Au14  1  0.545089  0.318845  0.945476  1
  Au  Au15  1  0.066208  0.450708  0.674210  1
  Au  Au16  1  0.674210  0.066208  0.450708  1
  Au  Au17  1  0.450708  0.674210  0.066208  1
