# generated using pymatgen
data_Sc20N19
_symmetry_space_group_name_H-M   'P 1'
_cell_length_a   8.46377710
_cell_length_b   8.46377639
_cell_length_c   8.46377700
_cell_angle_alpha   106.58944428
_cell_angle_beta   106.58943739
_cell_angle_gamma   115.40262365
_symmetry_Int_Tables_number   1
_chemical_formula_structural   Sc20N19
_chemical_formula_sum   'Sc20 N19'
_cell_volume   462.94531190
_cell_formula_units_Z   1
loop_
 _symmetry_equiv_pos_site_id
 _symmetry_equiv_pos_as_xyz
  1  'x, y, z'
loop_
 _atom_site_type_symbol
 _atom_site_label
 _atom_site_symmetry_multiplicity
 _atom_site_fract_x
 _atom_site_fract_y
 _atom_site_fract_z
 _atom_site_occupancy
  Sc  Sc0  1  0.047315  0.649799  0.200423  1
  Sc  Sc1  1  0.395822  0.707752  0.103575  1
  Sc  Sc2  1  0.100253  0.798566  0.898819  1
  Sc  Sc3  1  0.758715  0.758715  0.000000  1
  Sc  Sc4  1  0.798566  0.899747  0.698313  1
  Sc  Sc5  1  0.449377  0.846891  0.799577  1
  Sc  Sc6  1  0.500000  0.000000  0.500000  1
  Sc  Sc7  1  0.153109  0.952685  0.602484  1
  Sc  Sc8  1  0.201434  0.100253  0.301687  1
  Sc  Sc9  1  0.846891  0.047315  0.397516  1
  Sc  Sc10  1  0.899747  0.201434  0.101181  1
  Sc  Sc11  1  0.550623  0.153109  0.200423  1
  Sc  Sc12  1  0.604178  0.292248  0.896425  1
  Sc  Sc13  1  0.241285  0.241285  0.000000  1
  Sc  Sc14  1  0.292248  0.395822  0.688071  1
  Sc  Sc15  1  0.952685  0.350201  0.799577  1
  Sc  Sc16  1  0.000000  0.500000  0.500000  1
  Sc  Sc17  1  0.649799  0.449377  0.602484  1
  Sc  Sc18  1  0.707752  0.604178  0.311929  1
  Sc  Sc19  1  0.350201  0.550623  0.397516  1
  N  N20  1  0.898837  0.699763  0.598600  1
  N  N21  1  0.550165  0.650034  0.702145  1
  N  N22  1  0.600031  0.798929  0.398960  1
  N  N23  1  0.250000  0.750000  0.500000  1
  N  N24  1  0.300237  0.898837  0.199074  1
  N  N25  1  0.947889  0.848020  0.297855  1
  N  N26  1  0.000000  0.000000  0.000000  1
  N  N27  1  0.650034  0.947889  0.099869  1
  N  N28  1  0.699763  0.101163  0.800926  1
  N  N29  1  0.349966  0.052111  0.900131  1
  N  N30  1  0.052111  0.151980  0.702145  1
  N  N31  1  0.750000  0.250000  0.500000  1
  N  N32  1  0.399969  0.201071  0.601040  1
  N  N33  1  0.449835  0.349966  0.297855  1
  N  N34  1  0.101163  0.300237  0.401400  1
  N  N35  1  0.151980  0.449835  0.099869  1
  N  N36  1  0.201071  0.600031  0.801103  1
  N  N37  1  0.798929  0.399969  0.198897  1
  N  N38  1  0.848020  0.550165  0.900131  1
