# generated using pymatgen
data_LiDy4Er12In3Ir4
_symmetry_space_group_name_H-M   'P 1'
_cell_length_a   9.61113879
_cell_length_b   9.60573786
_cell_length_c   9.60573900
_cell_angle_alpha   59.82068000
_cell_angle_beta   59.79749796
_cell_angle_gamma   59.79749790
_symmetry_Int_Tables_number   1
_chemical_formula_structural   LiDy4Er12In3Ir4
_chemical_formula_sum   'Li1 Dy4 Er12 In3 Ir4'
_cell_volume   624.30507423
_cell_formula_units_Z   1
loop_
 _symmetry_equiv_pos_site_id
 _symmetry_equiv_pos_as_xyz
  1  'x, y, z'
loop_
 _atom_site_type_symbol
 _atom_site_label
 _atom_site_symmetry_multiplicity
 _atom_site_fract_x
 _atom_site_fract_y
 _atom_site_fract_z
 _atom_site_occupancy
  Li  Li0  1  0.821504  0.821299  0.821299  1
  Dy  Dy1  1  0.811167  0.188979  0.811130  1
  Dy  Dy2  1  0.189690  0.810040  0.189911  1
  Dy  Dy3  1  0.811167  0.811130  0.188979  1
  Dy  Dy4  1  0.189690  0.189911  0.810040  1
  Er  Er5  1  0.599434  0.599452  0.599452  1
  Er  Er6  1  0.598596  0.598524  0.205143  1
  Er  Er7  1  0.598596  0.205143  0.598524  1
  Er  Er8  1  0.204768  0.598747  0.598747  1
  Er  Er9  1  0.058584  0.441813  0.441813  1
  Er  Er10  1  0.436736  0.062081  0.062081  1
  Er  Er11  1  0.441874  0.058498  0.441837  1
  Er  Er12  1  0.061988  0.436915  0.061888  1
  Er  Er13  1  0.441874  0.441837  0.058498  1
  Er  Er14  1  0.061988  0.061888  0.436915  1
  Er  Er15  1  0.189940  0.810362  0.810362  1
  Er  Er16  1  0.809582  0.190371  0.190371  1
  In  In17  1  0.832816  0.833230  0.504141  1
  In  In18  1  0.832816  0.504141  0.833230  1
  In  In19  1  0.504255  0.832900  0.832900  1
  Ir  Ir20  1  0.392239  0.391933  0.391933  1
  Ir  Ir21  1  0.392096  0.392407  0.826394  1
  Ir  Ir22  1  0.392096  0.826394  0.392407  1
  Ir  Ir23  1  0.826507  0.392006  0.392006  1
