# generated using pymatgen
data_Cs6K2RbInBi4
_symmetry_space_group_name_H-M   'P 1'
_cell_length_a   11.46014800
_cell_length_b   11.52413659
_cell_length_c   12.07156700
_cell_angle_alpha   90.00000000
_cell_angle_beta   90.00000000
_cell_angle_gamma   120.18487020
_symmetry_Int_Tables_number   1
_chemical_formula_structural   Cs6K2RbInBi4
_chemical_formula_sum   'Cs12 K4 Rb2 In2 Bi8'
_cell_volume   1378.10037190
_cell_formula_units_Z   2
loop_
 _symmetry_equiv_pos_site_id
 _symmetry_equiv_pos_as_xyz
  1  'x, y, z'
loop_
 _atom_site_type_symbol
 _atom_site_label
 _atom_site_symmetry_multiplicity
 _atom_site_fract_x
 _atom_site_fract_y
 _atom_site_fract_z
 _atom_site_occupancy
  Cs  Cs0  1  0.208326  0.416255  0.541363  1
  Cs  Cs1  1  0.791674  0.207931  0.041363  1
  Cs  Cs2  1  0.416429  0.209098  0.040827  1
  Cs  Cs3  1  0.583571  0.792667  0.540827  1
  Cs  Cs4  1  0.210506  0.791343  0.543696  1
  Cs  Cs5  1  0.789494  0.580839  0.456304  1
  Cs  Cs6  1  0.791674  0.207931  0.458637  1
  Cs  Cs7  1  0.789494  0.580839  0.043696  1
  Cs  Cs8  1  0.416429  0.209098  0.459173  1
  Cs  Cs9  1  0.583571  0.792667  0.959173  1
  Cs  Cs10  1  0.208326  0.416255  0.958637  1
  Cs  Cs11  1  0.210506  0.791343  0.956304  1
  K  K12  1  0.119335  0.240019  0.250000  1
  K  K13  1  0.880665  0.120685  0.750000  1
  K  K14  1  0.236720  0.119534  0.750000  1
  K  K15  1  0.763280  0.882814  0.250000  1
  Rb  Rb16  1  0.120020  0.881491  0.250000  1
  Rb  Rb17  1  0.879980  0.761472  0.750000  1
  In  In18  1  0.331949  0.665610  0.250000  1
  In  In19  1  0.668051  0.333661  0.750000  1
  Bi  Bi20  1  0.481771  0.520996  0.250000  1
  Bi  Bi21  1  0.962690  0.477643  0.750000  1
  Bi  Bi22  1  0.518229  0.039224  0.750000  1
  Bi  Bi23  1  0.484828  0.960260  0.250000  1
  Bi  Bi24  1  0.037310  0.514952  0.250000  1
  Bi  Bi25  1  0.515172  0.475432  0.750000  1
  Bi  Bi26  1  0.000000  0.004969  0.000000  1
  Bi  Bi27  1  0.000000  0.004969  0.500000  1
