# generated using pymatgen
data_Er2Tm3Co2
_symmetry_space_group_name_H-M   'P 1'
_cell_length_a   6.25182864
_cell_length_b   6.86745636
_cell_length_c   8.42503054
_cell_angle_alpha   96.35212081
_cell_angle_beta   111.77897567
_cell_angle_gamma   89.99999890
_symmetry_Int_Tables_number   1
_chemical_formula_structural   Er2Tm3Co2
_chemical_formula_sum   'Er4 Tm6 Co4'
_cell_volume   333.51007663
_cell_formula_units_Z   2
loop_
 _symmetry_equiv_pos_site_id
 _symmetry_equiv_pos_as_xyz
  1  'x, y, z'
loop_
 _atom_site_type_symbol
 _atom_site_label
 _atom_site_symmetry_multiplicity
 _atom_site_fract_x
 _atom_site_fract_y
 _atom_site_fract_z
 _atom_site_occupancy
  Er  Er0  1  0.980551  0.913169  0.187703  1
  Er  Er1  1  0.792848  0.586831  0.812297  1
  Er  Er2  1  0.019449  0.086831  0.812297  1
  Er  Er3  1  0.207152  0.413169  0.187703  1
  Tm  Tm4  1  0.650656  0.816716  0.434446  1
  Tm  Tm5  1  0.216209  0.683284  0.565554  1
  Tm  Tm6  1  0.349344  0.183284  0.565554  1
  Tm  Tm7  1  0.783791  0.316716  0.434446  1
  Tm  Tm8  1  0.427520  0.750000  0.000000  1
  Tm  Tm9  1  0.572480  0.250000  0.000000  1
  Co  Co10  1  0.823698  0.570845  0.220829  1
  Co  Co11  1  0.602869  0.929155  0.779171  1
  Co  Co12  1  0.176303  0.429155  0.779171  1
  Co  Co13  1  0.397131  0.070845  0.220829  1
