# generated using pymatgen
data_Cs6Rb3AlBi4
_symmetry_space_group_name_H-M   'P 1'
_cell_length_a   11.56510600
_cell_length_b   11.56510585
_cell_length_c   12.07257900
_cell_angle_alpha   90.00000000
_cell_angle_beta   90.00000000
_cell_angle_gamma   119.99999470
_symmetry_Int_Tables_number   1
_chemical_formula_structural   Cs6Rb3AlBi4
_chemical_formula_sum   'Cs12 Rb6 Al2 Bi8'
_cell_volume   1398.39525168
_cell_formula_units_Z   2
loop_
 _symmetry_equiv_pos_site_id
 _symmetry_equiv_pos_as_xyz
  1  'x, y, z'
loop_
 _atom_site_type_symbol
 _atom_site_label
 _atom_site_symmetry_multiplicity
 _atom_site_fract_x
 _atom_site_fract_y
 _atom_site_fract_z
 _atom_site_occupancy
  Cs  Cs0  1  0.208889  0.791111  0.956563  1
  Cs  Cs1  1  0.208889  0.417778  0.956563  1
  Cs  Cs2  1  0.582222  0.791111  0.956563  1
  Cs  Cs3  1  0.417778  0.208889  0.456563  1
  Cs  Cs4  1  0.791111  0.582222  0.043437  1
  Cs  Cs5  1  0.791111  0.208889  0.456563  1
  Cs  Cs6  1  0.791111  0.582222  0.456563  1
  Cs  Cs7  1  0.208889  0.791111  0.543437  1
  Cs  Cs8  1  0.582222  0.791111  0.543437  1
  Cs  Cs9  1  0.417778  0.208889  0.043437  1
  Cs  Cs10  1  0.791111  0.208889  0.043437  1
  Cs  Cs11  1  0.208889  0.417778  0.543437  1
  Rb  Rb12  1  0.238914  0.119457  0.750000  1
  Rb  Rb13  1  0.880543  0.119457  0.750000  1
  Rb  Rb14  1  0.761086  0.880543  0.250000  1
  Rb  Rb15  1  0.119457  0.238914  0.250000  1
  Rb  Rb16  1  0.119457  0.880543  0.250000  1
  Rb  Rb17  1  0.880543  0.761086  0.750000  1
  Al  Al18  1  0.333333  0.666667  0.250000  1
  Al  Al19  1  0.666667  0.333333  0.750000  1
  Bi  Bi20  1  0.000000  0.000000  0.000000  1
  Bi  Bi21  1  0.054184  0.527092  0.250000  1
  Bi  Bi22  1  0.472908  0.945816  0.250000  1
  Bi  Bi23  1  0.527092  0.054184  0.750000  1
  Bi  Bi24  1  0.527092  0.472908  0.750000  1
  Bi  Bi25  1  0.000000  0.000000  0.500000  1
  Bi  Bi26  1  0.472908  0.527092  0.250000  1
  Bi  Bi27  1  0.945816  0.472908  0.750000  1
