# generated using pymatgen
data_HoEr7(B6Ir)4
_symmetry_space_group_name_H-M   'P 1'
_cell_length_a   3.62330500
_cell_length_b   9.15504700
_cell_length_c   11.48952900
_cell_angle_alpha   90.00265326
_cell_angle_beta   90.00000000
_cell_angle_gamma   90.00000000
_symmetry_Int_Tables_number   1
_chemical_formula_structural   HoEr7(B6Ir)4
_chemical_formula_sum   'Ho1 Er7 B24 Ir4'
_cell_volume   381.12522779
_cell_formula_units_Z   1
loop_
 _symmetry_equiv_pos_site_id
 _symmetry_equiv_pos_as_xyz
  1  'x, y, z'
loop_
 _atom_site_type_symbol
 _atom_site_label
 _atom_site_symmetry_multiplicity
 _atom_site_fract_x
 _atom_site_fract_y
 _atom_site_fract_z
 _atom_site_occupancy
  Ho  Ho0  1  0.000000  0.321845  0.413026  1
  Er  Er1  1  0.000000  0.678233  0.586954  1
  Er  Er2  1  0.000000  0.821794  0.086901  1
  Er  Er3  1  0.000000  0.178211  0.913069  1
  Er  Er4  1  0.000000  0.944359  0.374614  1
  Er  Er5  1  0.000000  0.055510  0.625506  1
  Er  Er6  1  0.000000  0.444412  0.125317  1
  Er  Er7  1  0.000000  0.555651  0.874582  1
  B  B8  1  0.500000  0.553336  0.433958  1
  B  B9  1  0.500000  0.446917  0.566168  1
  B  B10  1  0.500000  0.053158  0.066009  1
  B  B11  1  0.500000  0.946825  0.933967  1
  B  B12  1  0.500000  0.749680  0.420944  1
  B  B13  1  0.500000  0.250251  0.579243  1
  B  B14  1  0.500000  0.249668  0.079045  1
  B  B15  1  0.500000  0.750335  0.920931  1
  B  B16  1  0.500000  0.793649  0.265253  1
  B  B17  1  0.500000  0.206334  0.734775  1
  B  B18  1  0.500000  0.293559  0.234579  1
  B  B19  1  0.500000  0.706375  0.765262  1
  B  B20  1  0.500000  0.632436  0.184138  1
  B  B21  1  0.500000  0.367574  0.815857  1
  B  B22  1  0.500000  0.132287  0.315748  1
  B  B23  1  0.500000  0.867554  0.684174  1
  B  B24  1  0.500000  0.981837  0.212874  1
  B  B25  1  0.500000  0.018132  0.787128  1
  B  B26  1  0.500000  0.482035  0.287003  1
  B  B27  1  0.500000  0.518190  0.712892  1
  B  B28  1  0.500000  0.610608  0.030268  1
  B  B29  1  0.500000  0.389412  0.969709  1
  B  B30  1  0.500000  0.110305  0.469808  1
  B  B31  1  0.500000  0.889433  0.530270  1
  Ir  Ir32  1  0.000000  0.638772  0.321373  1
  Ir  Ir33  1  0.000000  0.361422  0.678699  1
  Ir  Ir34  1  0.000000  0.138467  0.178486  1
  Ir  Ir35  1  0.000000  0.861435  0.821471  1
