# generated using pymatgen
data_YbPr7Lu12Si15Hg
_symmetry_space_group_name_H-M   'P 1'
_cell_length_a   7.45022099
_cell_length_b   7.73852520
_cell_length_c   14.71320317
_cell_angle_alpha   90.13781114
_cell_angle_beta   89.83853482
_cell_angle_gamma   90.20750957
_symmetry_Int_Tables_number   1
_chemical_formula_structural   YbPr7Lu12Si15Hg
_chemical_formula_sum   'Yb1 Pr7 Lu12 Si15 Hg1'
_cell_volume   848.25957382
_cell_formula_units_Z   1
loop_
 _symmetry_equiv_pos_site_id
 _symmetry_equiv_pos_as_xyz
  1  'x, y, z'
loop_
 _atom_site_type_symbol
 _atom_site_label
 _atom_site_symmetry_multiplicity
 _atom_site_fract_x
 _atom_site_fract_y
 _atom_site_fract_z
 _atom_site_occupancy
  Yb  Yb0  1  0.012336  0.175472  0.401122  1
  Pr  Pr1  1  0.516464  0.322865  0.397733  1
  Pr  Pr2  1  0.482535  0.675762  0.902822  1
  Pr  Pr3  1  0.488651  0.679254  0.599926  1
  Pr  Pr4  1  0.981869  0.828170  0.599072  1
  Pr  Pr5  1  0.982777  0.824656  0.902493  1
  Pr  Pr6  1  0.519163  0.325107  0.097743  1
  Pr  Pr7  1  0.017964  0.176180  0.095657  1
  Lu  Lu8  1  0.332755  0.167577  0.628276  1
  Lu  Lu9  1  0.672960  0.826629  0.373844  1
  Lu  Lu10  1  0.659341  0.992885  0.752247  1
  Lu  Lu11  1  0.174497  0.677417  0.373393  1
  Lu  Lu12  1  0.824388  0.322314  0.877456  1
  Lu  Lu13  1  0.817881  0.324503  0.623723  1
  Lu  Lu14  1  0.844519  0.493225  0.251656  1
  Lu  Lu15  1  0.340839  0.009097  0.249765  1
  Lu  Lu16  1  0.321382  0.173776  0.876965  1
  Lu  Lu17  1  0.174923  0.678271  0.123450  1
  Lu  Lu18  1  0.678167  0.824241  0.123923  1
  Lu  Lu19  1  0.157722  0.503403  0.752505  1
  Si  Si20  1  0.279689  0.874325  0.751636  1
  Si  Si21  1  0.470560  0.619079  0.247834  1
  Si  Si22  1  0.027694  0.121647  0.750812  1
  Si  Si23  1  0.530127  0.381359  0.752398  1
  Si  Si24  1  0.971099  0.884231  0.248586  1
  Si  Si25  1  0.720388  0.122629  0.247948  1
  Si  Si26  1  0.851272  0.534528  0.039017  1
  Si  Si27  1  0.352665  0.966898  0.039785  1
  Si  Si28  1  0.148949  0.466174  0.961680  1
  Si  Si29  1  0.646895  0.033465  0.538098  1
  Si  Si30  1  0.351997  0.964560  0.460819  1
  Si  Si31  1  0.837099  0.540662  0.458225  1
  Si  Si32  1  0.782212  0.621207  0.752074  1
  Si  Si33  1  0.221146  0.380816  0.246981  1
  Si  Si34  1  0.648666  0.032884  0.961396  1
  Hg  Hg35  1  0.158409  0.454725  0.538941  1
