# generated using pymatgen
data_PmNdZnSi3
_symmetry_space_group_name_H-M   'P 1'
_cell_length_a   5.86477014
_cell_length_b   5.86387393
_cell_length_c   5.86387435
_cell_angle_alpha   138.67670903
_cell_angle_beta   105.89377702
_cell_angle_gamma   88.57384307
_symmetry_Int_Tables_number   1
_chemical_formula_structural   PmNdZnSi3
_chemical_formula_sum   'Pm1 Nd1 Zn1 Si3'
_cell_volume   122.76899446
_cell_formula_units_Z   1
loop_
 _symmetry_equiv_pos_site_id
 _symmetry_equiv_pos_as_xyz
  1  'x, y, z'
loop_
 _atom_site_type_symbol
 _atom_site_label
 _atom_site_symmetry_multiplicity
 _atom_site_fract_x
 _atom_site_fract_y
 _atom_site_fract_z
 _atom_site_occupancy
  Pm  Pm0  1  0.002095  0.002050  0.000045  1
  Nd  Nd1  1  0.497983  0.497977  0.000006  1
  Zn  Zn2  1  0.581855  0.250476  0.331380  1
  Si  Si3  1  0.083378  0.749597  0.333779  1
  Si  Si4  1  0.916537  0.250367  0.666170  1
  Si  Si5  1  0.418151  0.749530  0.668619  1
