# generated using pymatgen
data_HoTmCo3P7Ru9
_symmetry_space_group_name_H-M   'P 1'
_cell_length_a   9.31958500
_cell_length_b   9.31958444
_cell_length_c   3.82181200
_cell_angle_alpha   90.00000000
_cell_angle_beta   90.00000000
_cell_angle_gamma   119.99999845
_symmetry_Int_Tables_number   1
_chemical_formula_structural   HoTmCo3P7Ru9
_chemical_formula_sum   'Ho1 Tm1 Co3 P7 Ru9'
_cell_volume   287.47036428
_cell_formula_units_Z   1
loop_
 _symmetry_equiv_pos_site_id
 _symmetry_equiv_pos_as_xyz
  1  'x, y, z'
loop_
 _atom_site_type_symbol
 _atom_site_label
 _atom_site_symmetry_multiplicity
 _atom_site_fract_x
 _atom_site_fract_y
 _atom_site_fract_z
 _atom_site_occupancy
  Ho  Ho0  1  0.000000  0.000000  0.500000  1
  Tm  Tm1  1  0.666667  0.333333  0.000000  1
  Co  Co2  1  0.491230  0.936208  0.000000  1
  Co  Co3  1  0.063792  0.555022  0.000000  1
  Co  Co4  1  0.444978  0.508770  0.000000  1
  P  P5  1  0.333333  0.666667  0.000000  1
  P  P6  1  0.449397  0.068562  0.500000  1
  P  P7  1  0.931438  0.380835  0.500000  1
  P  P8  1  0.619165  0.550603  0.500000  1
  P  P9  1  0.744170  0.967365  0.000000  1
  P  P10  1  0.032635  0.776804  0.000000  1
  P  P11  1  0.223196  0.255830  0.000000  1
  Ru  Ru12  1  0.759657  0.728333  0.000000  1
  Ru  Ru13  1  0.271667  0.031322  0.000000  1
  Ru  Ru14  1  0.968678  0.240343  0.000000  1
  Ru  Ru15  1  0.715574  0.103062  0.500000  1
  Ru  Ru16  1  0.896938  0.612511  0.500000  1
  Ru  Ru17  1  0.387489  0.284426  0.500000  1
  Ru  Ru18  1  0.539558  0.752017  0.500000  1
  Ru  Ru19  1  0.247983  0.787541  0.500000  1
  Ru  Ru20  1  0.212459  0.460442  0.500000  1
