# generated using pymatgen
data_YbTm2Mg3AgPb2
_symmetry_space_group_name_H-M   'P 1'
_cell_length_a   7.54120700
_cell_length_b   7.60475192
_cell_length_c   4.55835700
_cell_angle_alpha   90.00000000
_cell_angle_beta   90.00000000
_cell_angle_gamma   119.72397459
_symmetry_Int_Tables_number   1
_chemical_formula_structural   YbTm2Mg3AgPb2
_chemical_formula_sum   'Yb1 Tm2 Mg3 Ag1 Pb2'
_cell_volume   227.02104891
_cell_formula_units_Z   1
loop_
 _symmetry_equiv_pos_site_id
 _symmetry_equiv_pos_as_xyz
  1  'x, y, z'
loop_
 _atom_site_type_symbol
 _atom_site_label
 _atom_site_symmetry_multiplicity
 _atom_site_fract_x
 _atom_site_fract_y
 _atom_site_fract_z
 _atom_site_occupancy
  Yb  Yb0  1  0.585418  0.000000  0.000000  1
  Tm  Tm1  1  0.997179  0.583865  0.000000  1
  Tm  Tm2  1  0.413314  0.416135  0.000000  1
  Mg  Mg3  1  0.232487  0.000000  0.500000  1
  Mg  Mg4  1  0.001057  0.234218  0.500000  1
  Mg  Mg5  1  0.766839  0.765782  0.500000  1
  Ag  Ag6  1  0.005832  0.000000  0.000000  1
  Pb  Pb7  1  0.329670  0.661465  0.500000  1
  Pb  Pb8  1  0.668205  0.338535  0.500000  1
