# generated using pymatgen
data_La15TbCd4Co3Ru
_symmetry_space_group_name_H-M   'P 1'
_cell_length_a   10.01134249
_cell_length_b   10.01833816
_cell_length_c   10.01134149
_cell_angle_alpha   59.22012969
_cell_angle_beta   60.13975666
_cell_angle_gamma   59.22013040
_symmetry_Int_Tables_number   1
_chemical_formula_structural   La15TbCd4Co3Ru
_chemical_formula_sum   'La15 Tb1 Cd4 Co3 Ru1'
_cell_volume   702.24633894
_cell_formula_units_Z   1
loop_
 _symmetry_equiv_pos_site_id
 _symmetry_equiv_pos_as_xyz
  1  'x, y, z'
loop_
 _atom_site_type_symbol
 _atom_site_label
 _atom_site_symmetry_multiplicity
 _atom_site_fract_x
 _atom_site_fract_y
 _atom_site_fract_z
 _atom_site_occupancy
  La  La0  1  0.434729  0.440015  0.056427  1
  La  La1  1  0.594578  0.596653  0.594578  1
  La  La2  1  0.188626  0.809085  0.812999  1
  La  La3  1  0.059970  0.065086  0.433484  1
  La  La4  1  0.433484  0.065086  0.059970  1
  La  La5  1  0.811329  0.189637  0.811329  1
  La  La6  1  0.439067  0.056434  0.439067  1
  La  La7  1  0.597598  0.211185  0.597598  1
  La  La8  1  0.812999  0.809085  0.188626  1
  La  La9  1  0.211139  0.594499  0.603680  1
  La  La10  1  0.805228  0.193911  0.190819  1
  La  La11  1  0.056427  0.440015  0.434729  1
  La  La12  1  0.193661  0.804646  0.193661  1
  La  La13  1  0.603680  0.594499  0.211139  1
  La  La14  1  0.190819  0.193911  0.805228  1
  Tb  Tb15  1  0.057575  0.441233  0.057575  1
  Cd  Cd16  1  0.828989  0.828698  0.512492  1
  Cd  Cd17  1  0.830183  0.825656  0.830183  1
  Cd  Cd18  1  0.512492  0.828698  0.828989  1
  Cd  Cd19  1  0.830064  0.512265  0.830064  1
  Co  Co20  1  0.833232  0.389506  0.394256  1
  Co  Co21  1  0.390593  0.832899  0.390593  1
  Co  Co22  1  0.394256  0.389506  0.833232  1
  Ru  Ru23  1  0.389285  0.387792  0.389285  1
