# generated using pymatgen
data_Pa3Ga3Fe2Pt
_symmetry_space_group_name_H-M   'P 1'
_cell_length_a   6.89914500
_cell_length_b   6.89914626
_cell_length_c   3.99340900
_cell_angle_alpha   90.00000000
_cell_angle_beta   90.00000000
_cell_angle_gamma   119.99999876
_symmetry_Int_Tables_number   1
_chemical_formula_structural   Pa3Ga3Fe2Pt
_chemical_formula_sum   'Pa3 Ga3 Fe2 Pt1'
_cell_volume   164.61335034
_cell_formula_units_Z   1
loop_
 _symmetry_equiv_pos_site_id
 _symmetry_equiv_pos_as_xyz
  1  'x, y, z'
loop_
 _atom_site_type_symbol
 _atom_site_label
 _atom_site_symmetry_multiplicity
 _atom_site_fract_x
 _atom_site_fract_y
 _atom_site_fract_z
 _atom_site_occupancy
  Pa  Pa0  1  0.399601  0.420697  0.500000  1
  Pa  Pa1  1  0.579303  0.978905  0.500000  1
  Pa  Pa2  1  0.021095  0.600399  0.500000  1
  Ga  Ga3  1  0.763629  0.767582  0.000000  1
  Ga  Ga4  1  0.232418  0.996047  0.000000  1
  Ga  Ga5  1  0.003953  0.236371  0.000000  1
  Fe  Fe6  1  0.333333  0.666667  0.000000  1
  Fe  Fe7  1  0.000000  0.000000  0.500000  1
  Pt  Pt8  1  0.666667  0.333333  0.000000  1
