# generated using pymatgen
data_DyTmSc3Si7Pt9
_symmetry_space_group_name_H-M   'P 1'
_cell_length_a   10.05183600
_cell_length_b   10.05183571
_cell_length_c   3.97085000
_cell_angle_alpha   90.00000000
_cell_angle_beta   90.00000000
_cell_angle_gamma   120.00000094
_symmetry_Int_Tables_number   1
_chemical_formula_structural   DyTmSc3Si7Pt9
_chemical_formula_sum   'Dy1 Tm1 Sc3 Si7 Pt9'
_cell_volume   347.46005617
_cell_formula_units_Z   1
loop_
 _symmetry_equiv_pos_site_id
 _symmetry_equiv_pos_as_xyz
  1  'x, y, z'
loop_
 _atom_site_type_symbol
 _atom_site_label
 _atom_site_symmetry_multiplicity
 _atom_site_fract_x
 _atom_site_fract_y
 _atom_site_fract_z
 _atom_site_occupancy
  Dy  Dy0  1  0.000000  0.000000  0.000000  1
  Tm  Tm1  1  0.333333  0.666667  0.500000  1
  Sc  Sc2  1  0.895500  0.456826  0.500000  1
  Sc  Sc3  1  0.561327  0.104500  0.500000  1
  Sc  Sc4  1  0.543174  0.438673  0.500000  1
  Si  Si5  1  0.245021  0.193958  0.500000  1
  Si  Si6  1  0.806042  0.051064  0.500000  1
  Si  Si7  1  0.948936  0.754979  0.500000  1
  Si  Si8  1  0.556224  0.647342  0.000000  1
  Si  Si9  1  0.352658  0.908880  0.000000  1
  Si  Si10  1  0.091120  0.443776  0.000000  1
  Si  Si11  1  0.666667  0.333333  0.000000  1
  Pt  Pt12  1  0.218792  0.935580  0.500000  1
  Pt  Pt13  1  0.064420  0.283214  0.500000  1
  Pt  Pt14  1  0.716786  0.781208  0.500000  1
  Pt  Pt15  1  0.314533  0.414606  0.000000  1
  Pt  Pt16  1  0.585394  0.899927  0.000000  1
  Pt  Pt17  1  0.100073  0.685467  0.000000  1
  Pt  Pt18  1  0.383496  0.171558  0.000000  1
  Pt  Pt19  1  0.828442  0.211939  0.000000  1
  Pt  Pt20  1  0.788061  0.616504  0.000000  1
