# generated using pymatgen
data_ErPa3(Co2Sn)2
_symmetry_space_group_name_H-M   'P 1'
_cell_length_a   7.37004771
_cell_length_b   7.37004722
_cell_length_c   3.51558200
_cell_angle_alpha   90.00000000
_cell_angle_beta   90.00000000
_cell_angle_gamma   92.38943638
_symmetry_Int_Tables_number   1
_chemical_formula_structural   ErPa3(Co2Sn)2
_chemical_formula_sum   'Er1 Pa3 Co4 Sn2'
_cell_volume   190.79194404
_cell_formula_units_Z   1
loop_
 _symmetry_equiv_pos_site_id
 _symmetry_equiv_pos_as_xyz
  1  'x, y, z'
loop_
 _atom_site_type_symbol
 _atom_site_label
 _atom_site_symmetry_multiplicity
 _atom_site_fract_x
 _atom_site_fract_y
 _atom_site_fract_z
 _atom_site_occupancy
  Er  Er0  1  0.829908  0.670092  0.500000  1
  Pa  Pa1  1  0.674682  0.168812  0.500000  1
  Pa  Pa2  1  0.331188  0.825318  0.500000  1
  Pa  Pa3  1  0.168576  0.331424  0.500000  1
  Co  Co4  1  0.876799  0.347993  0.000000  1
  Co  Co5  1  0.152007  0.623201  0.000000  1
  Co  Co6  1  0.355720  0.144280  0.000000  1
  Co  Co7  1  0.603766  0.896234  0.000000  1
  Sn  Sn8  1  0.508962  0.501609  0.000000  1
  Sn  Sn9  1  0.998391  0.991038  0.000000  1
