# generated using pymatgen
data_Hf4TiGa6Mo
_symmetry_space_group_name_H-M   'P 1'
_cell_length_a   5.45065000
_cell_length_b   8.47699900
_cell_length_c   9.09245200
_cell_angle_alpha   90.00000000
_cell_angle_beta   90.00000000
_cell_angle_gamma   90.00000000
_symmetry_Int_Tables_number   1
_chemical_formula_structural   Hf4TiGa6Mo
_chemical_formula_sum   'Hf8 Ti2 Ga12 Mo2'
_cell_volume   420.11815035
_cell_formula_units_Z   2
loop_
 _symmetry_equiv_pos_site_id
 _symmetry_equiv_pos_as_xyz
  1  'x, y, z'
loop_
 _atom_site_type_symbol
 _atom_site_label
 _atom_site_symmetry_multiplicity
 _atom_site_fract_x
 _atom_site_fract_y
 _atom_site_fract_z
 _atom_site_occupancy
  Hf  Hf0  1  0.749245  0.470607  0.620602  1
  Hf  Hf1  1  0.249245  0.529393  0.379398  1
  Hf  Hf2  1  0.750755  0.970607  0.379398  1
  Hf  Hf3  1  0.250755  0.029393  0.620602  1
  Hf  Hf4  1  0.750852  0.364094  0.183320  1
  Hf  Hf5  1  0.250852  0.635906  0.816680  1
  Hf  Hf6  1  0.749148  0.864094  0.816680  1
  Hf  Hf7  1  0.249148  0.135906  0.183320  1
  Ti  Ti8  1  0.000000  0.750000  0.111702  1
  Ti  Ti9  1  0.500000  0.250000  0.888298  1
  Ga  Ga10  1  0.000000  0.750000  0.569030  1
  Ga  Ga11  1  0.500000  0.250000  0.430970  1
  Ga  Ga12  1  0.000000  0.250000  0.430590  1
  Ga  Ga13  1  0.500000  0.750000  0.569410  1
  Ga  Ga14  1  0.748582  0.043439  0.078357  1
  Ga  Ga15  1  0.248582  0.956561  0.921643  1
  Ga  Ga16  1  0.751418  0.543439  0.921643  1
  Ga  Ga17  1  0.251418  0.456561  0.078357  1
  Ga  Ga18  1  0.753685  0.134323  0.658359  1
  Ga  Ga19  1  0.253685  0.865677  0.341641  1
  Ga  Ga20  1  0.746315  0.634323  0.341641  1
  Ga  Ga21  1  0.246315  0.365677  0.658359  1
  Mo  Mo22  1  0.000000  0.250000  0.894289  1
  Mo  Mo23  1  0.500000  0.750000  0.105711  1
