# generated using pymatgen
data_ErPa(WC2)2
_symmetry_space_group_name_H-M   'P 1'
_cell_length_a   3.33862600
_cell_length_b   5.72846700
_cell_length_c   10.89573300
_cell_angle_alpha   90.00000000
_cell_angle_beta   90.00000000
_cell_angle_gamma   90.00000000
_symmetry_Int_Tables_number   1
_chemical_formula_structural   ErPa(WC2)2
_chemical_formula_sum   'Er2 Pa2 W4 C8'
_cell_volume   208.38316938
_cell_formula_units_Z   2
loop_
 _symmetry_equiv_pos_site_id
 _symmetry_equiv_pos_as_xyz
  1  'x, y, z'
loop_
 _atom_site_type_symbol
 _atom_site_label
 _atom_site_symmetry_multiplicity
 _atom_site_fract_x
 _atom_site_fract_y
 _atom_site_fract_z
 _atom_site_occupancy
  Er  Er0  1  0.750000  0.913045  0.139537  1
  Er  Er1  1  0.750000  0.413045  0.360463  1
  Pa  Pa2  1  0.250000  0.086256  0.861847  1
  Pa  Pa3  1  0.250000  0.586256  0.638153  1
  W  W4  1  0.250000  0.406025  0.113215  1
  W  W5  1  0.250000  0.906025  0.386785  1
  W  W6  1  0.750000  0.588446  0.897703  1
  W  W7  1  0.750000  0.088446  0.602297  1
  C  C8  1  0.250000  0.161677  0.248005  1
  C  C9  1  0.250000  0.661677  0.251995  1
  C  C10  1  0.750000  0.841201  0.755155  1
  C  C11  1  0.750000  0.341201  0.744845  1
  C  C12  1  0.250000  0.735330  0.987658  1
  C  C13  1  0.250000  0.235330  0.512342  1
  C  C14  1  0.750000  0.268020  0.012240  1
  C  C15  1  0.750000  0.768020  0.487760  1
