# generated using pymatgen
data_TbHo7Sc11Si16W
_symmetry_space_group_name_H-M   'P 1'
_cell_length_a   7.02844417
_cell_length_b   7.34540515
_cell_length_c   13.88650605
_cell_angle_alpha   90.02801869
_cell_angle_beta   90.00405160
_cell_angle_gamma   90.25430491
_symmetry_Int_Tables_number   1
_chemical_formula_structural   TbHo7Sc11Si16W
_chemical_formula_sum   'Tb1 Ho7 Sc11 Si16 W1'
_cell_volume   716.90830576
_cell_formula_units_Z   1
loop_
 _symmetry_equiv_pos_site_id
 _symmetry_equiv_pos_as_xyz
  1  'x, y, z'
loop_
 _atom_site_type_symbol
 _atom_site_label
 _atom_site_symmetry_multiplicity
 _atom_site_fract_x
 _atom_site_fract_y
 _atom_site_fract_z
 _atom_site_occupancy
  Tb  Tb0  1  0.013253  0.176828  0.093733  1
  Ho  Ho1  1  0.991859  0.819242  0.900163  1
  Ho  Ho2  1  0.486155  0.673277  0.901469  1
  Ho  Ho3  1  0.991720  0.819053  0.599532  1
  Ho  Ho4  1  0.512301  0.323163  0.095673  1
  Ho  Ho5  1  0.013208  0.177523  0.405917  1
  Ho  Ho6  1  0.512275  0.323175  0.404671  1
  Ho  Ho7  1  0.486062  0.673189  0.598147  1
  Sc  Sc8  1  0.842788  0.497337  0.250265  1
  Sc  Sc9  1  0.342790  0.002994  0.250218  1
  Sc  Sc10  1  0.656770  0.995147  0.749890  1
  Sc  Sc11  1  0.326406  0.177832  0.627692  1
  Sc  Sc12  1  0.672318  0.824314  0.374712  1
  Sc  Sc13  1  0.173398  0.673127  0.377064  1
  Sc  Sc14  1  0.672452  0.824178  0.125629  1
  Sc  Sc15  1  0.826657  0.330475  0.628367  1
  Sc  Sc16  1  0.326758  0.178036  0.872109  1
  Sc  Sc17  1  0.826166  0.330875  0.871449  1
  Sc  Sc18  1  0.173389  0.673027  0.123303  1
  Si  Si19  1  0.029029  0.123108  0.749955  1
  Si  Si20  1  0.973317  0.884714  0.250409  1
  Si  Si21  1  0.469615  0.614724  0.250151  1
  Si  Si22  1  0.518886  0.395136  0.749808  1
  Si  Si23  1  0.282632  0.859751  0.749876  1
  Si  Si24  1  0.718001  0.129503  0.250566  1
  Si  Si25  1  0.215878  0.371252  0.250448  1
  Si  Si26  1  0.792969  0.628839  0.749832  1
  Si  Si27  1  0.154229  0.466761  0.548903  1
  Si  Si28  1  0.843211  0.535437  0.462770  1
  Si  Si29  1  0.345895  0.964982  0.462496  1
  Si  Si30  1  0.843027  0.536322  0.036999  1
  Si  Si31  1  0.657636  0.034392  0.539877  1
  Si  Si32  1  0.154066  0.467468  0.950749  1
  Si  Si33  1  0.657562  0.034396  0.960047  1
  Si  Si34  1  0.347044  0.964285  0.037269  1
  W  W35  1  0.150281  0.496134  0.749844  1
