# generated using pymatgen
data_Ca3Al12CoOs3
_symmetry_space_group_name_H-M   'P 1'
_cell_length_a   8.81956300
_cell_length_b   8.81956309
_cell_length_c   9.55742100
_cell_angle_alpha   90.00000000
_cell_angle_beta   90.00000000
_cell_angle_gamma   119.99999591
_symmetry_Int_Tables_number   1
_chemical_formula_structural   Ca3Al12CoOs3
_chemical_formula_sum   'Ca6 Al24 Co2 Os6'
_cell_volume   643.82154294
_cell_formula_units_Z   2
loop_
 _symmetry_equiv_pos_site_id
 _symmetry_equiv_pos_as_xyz
  1  'x, y, z'
loop_
 _atom_site_type_symbol
 _atom_site_label
 _atom_site_symmetry_multiplicity
 _atom_site_fract_x
 _atom_site_fract_y
 _atom_site_fract_z
 _atom_site_occupancy
  Ca  Ca0  1  0.194355  0.388709  0.250000  1
  Ca  Ca1  1  0.805645  0.611291  0.750000  1
  Ca  Ca2  1  0.611291  0.805645  0.250000  1
  Ca  Ca3  1  0.388709  0.194355  0.750000  1
  Ca  Ca4  1  0.194355  0.805645  0.250000  1
  Ca  Ca5  1  0.805645  0.194355  0.750000  1
  Al  Al6  1  0.333333  0.666667  0.994858  1
  Al  Al7  1  0.666667  0.333333  0.005142  1
  Al  Al8  1  0.666667  0.333333  0.494858  1
  Al  Al9  1  0.333333  0.666667  0.505142  1
  Al  Al10  1  0.157570  0.315140  0.574178  1
  Al  Al11  1  0.842430  0.684860  0.425822  1
  Al  Al12  1  0.684860  0.842430  0.574178  1
  Al  Al13  1  0.842430  0.684860  0.074178  1
  Al  Al14  1  0.315140  0.157570  0.425822  1
  Al  Al15  1  0.157570  0.315140  0.925822  1
  Al  Al16  1  0.157570  0.842430  0.574178  1
  Al  Al17  1  0.315140  0.157570  0.074178  1
  Al  Al18  1  0.842430  0.157570  0.425822  1
  Al  Al19  1  0.684860  0.842430  0.925822  1
  Al  Al20  1  0.842430  0.157570  0.074178  1
  Al  Al21  1  0.157570  0.842430  0.925822  1
  Al  Al22  1  0.559719  0.119438  0.250000  1
  Al  Al23  1  0.440281  0.880562  0.750000  1
  Al  Al24  1  0.880562  0.440281  0.250000  1
  Al  Al25  1  0.119438  0.559719  0.750000  1
  Al  Al26  1  0.559719  0.440281  0.250000  1
  Al  Al27  1  0.440281  0.559719  0.750000  1
  Al  Al28  1  0.000000  0.000000  0.250000  1
  Al  Al29  1  0.000000  0.000000  0.750000  1
  Co  Co30  1  0.000000  0.000000  0.000000  1
  Co  Co31  1  0.000000  0.000000  0.500000  1
  Os  Os32  1  0.500000  0.000000  0.000000  1
  Os  Os33  1  0.000000  0.500000  0.000000  1
  Os  Os34  1  0.500000  0.000000  0.500000  1
  Os  Os35  1  0.500000  0.500000  0.000000  1
  Os  Os36  1  0.000000  0.500000  0.500000  1
  Os  Os37  1  0.500000  0.500000  0.500000  1
