# generated using pymatgen
data_HoEr2GaSn3Ir2
_symmetry_space_group_name_H-M   'P 1'
_cell_length_a   7.40970619
_cell_length_b   7.41154336
_cell_length_c   4.09887700
_cell_angle_alpha   90.00000000
_cell_angle_beta   90.00000000
_cell_angle_gamma   120.01781931
_symmetry_Int_Tables_number   1
_chemical_formula_structural   HoEr2GaSn3Ir2
_chemical_formula_sum   'Ho1 Er2 Ga1 Sn3 Ir2'
_cell_volume   194.90687106
_cell_formula_units_Z   1
loop_
 _symmetry_equiv_pos_site_id
 _symmetry_equiv_pos_as_xyz
  1  'x, y, z'
loop_
 _atom_site_type_symbol
 _atom_site_label
 _atom_site_symmetry_multiplicity
 _atom_site_fract_x
 _atom_site_fract_y
 _atom_site_fract_z
 _atom_site_occupancy
  Ho  Ho0  1  0.396587  0.410158  0.500000  1
  Er  Er1  1  0.589935  0.986300  0.500000  1
  Er  Er2  1  0.013731  0.603632  0.500000  1
  Ga  Ga3  1  0.666799  0.333275  0.000000  1
  Sn  Sn4  1  0.742744  0.747649  0.000000  1
  Sn  Sn5  1  0.252446  0.995026  0.000000  1
  Sn  Sn6  1  0.004753  0.257297  0.000000  1
  Ir  Ir7  1  0.333254  0.666909  0.000000  1
  Ir  Ir8  1  0.999753  0.999754  0.500000  1
