# generated using pymatgen
data_Er2Sc3Sn4
_symmetry_space_group_name_H-M   'P 1'
_cell_length_a   7.65488000
_cell_length_b   7.94047900
_cell_length_c   14.78843000
_cell_angle_alpha   90.00000000
_cell_angle_beta   90.00000000
_cell_angle_gamma   90.00000000
_symmetry_Int_Tables_number   1
_chemical_formula_structural   Er2Sc3Sn4
_chemical_formula_sum   'Er8 Sc12 Sn16'
_cell_volume   898.89126144
_cell_formula_units_Z   4
loop_
 _symmetry_equiv_pos_site_id
 _symmetry_equiv_pos_as_xyz
  1  'x, y, z'
loop_
 _atom_site_type_symbol
 _atom_site_label
 _atom_site_symmetry_multiplicity
 _atom_site_fract_x
 _atom_site_fract_y
 _atom_site_fract_z
 _atom_site_occupancy
  Er  Er0  1  0.997834  0.177088  0.094386  1
  Er  Er1  1  0.002166  0.822912  0.905614  1
  Er  Er2  1  0.502166  0.677088  0.905614  1
  Er  Er3  1  0.002166  0.822912  0.594386  1
  Er  Er4  1  0.497834  0.322912  0.094386  1
  Er  Er5  1  0.997834  0.177088  0.405614  1
  Er  Er6  1  0.497834  0.322912  0.405614  1
  Er  Er7  1  0.502166  0.677088  0.594386  1
  Sc  Sc8  1  0.162111  0.497531  0.750000  1
  Sc  Sc9  1  0.837889  0.502469  0.250000  1
  Sc  Sc10  1  0.337889  0.997531  0.250000  1
  Sc  Sc11  1  0.662111  0.002469  0.750000  1
  Sc  Sc12  1  0.333528  0.163285  0.626967  1
  Sc  Sc13  1  0.666472  0.836715  0.373033  1
  Sc  Sc14  1  0.166472  0.663285  0.373033  1
  Sc  Sc15  1  0.666472  0.836715  0.126967  1
  Sc  Sc16  1  0.833528  0.336715  0.626967  1
  Sc  Sc17  1  0.333528  0.163285  0.873033  1
  Sc  Sc18  1  0.833528  0.336715  0.873033  1
  Sc  Sc19  1  0.166472  0.663285  0.126967  1
  Sn  Sn20  1  0.024746  0.123977  0.750000  1
  Sn  Sn21  1  0.975254  0.876023  0.250000  1
  Sn  Sn22  1  0.475254  0.623977  0.250000  1
  Sn  Sn23  1  0.524746  0.376023  0.750000  1
  Sn  Sn24  1  0.303872  0.850529  0.750000  1
  Sn  Sn25  1  0.696128  0.149471  0.250000  1
  Sn  Sn26  1  0.196128  0.350529  0.250000  1
  Sn  Sn27  1  0.803872  0.649471  0.750000  1
  Sn  Sn28  1  0.179336  0.458741  0.542274  1
  Sn  Sn29  1  0.820664  0.541259  0.457726  1
  Sn  Sn30  1  0.320664  0.958741  0.457726  1
  Sn  Sn31  1  0.820664  0.541259  0.042274  1
  Sn  Sn32  1  0.679336  0.041259  0.542274  1
  Sn  Sn33  1  0.179336  0.458741  0.957726  1
  Sn  Sn34  1  0.679336  0.041259  0.957726  1
  Sn  Sn35  1  0.320664  0.958741  0.042274  1
