# generated using pymatgen
data_K2RbLi(SnPb)2
_symmetry_space_group_name_H-M   'P 1'
_cell_length_a   8.85213962
_cell_length_b   8.85214063
_cell_length_c   10.55393400
_cell_angle_alpha   90.00000000
_cell_angle_beta   90.00000000
_cell_angle_gamma   133.87113584
_symmetry_Int_Tables_number   1
_chemical_formula_structural   K2RbLi(SnPb)2
_chemical_formula_sum   'K4 Rb2 Li2 Sn4 Pb4'
_cell_volume   596.19202628
_cell_formula_units_Z   2
loop_
 _symmetry_equiv_pos_site_id
 _symmetry_equiv_pos_as_xyz
  1  'x, y, z'
loop_
 _atom_site_type_symbol
 _atom_site_label
 _atom_site_symmetry_multiplicity
 _atom_site_fract_x
 _atom_site_fract_y
 _atom_site_fract_z
 _atom_site_occupancy
  K  K0  1  0.615627  0.384373  0.045979  1
  K  K1  1  0.384373  0.615627  0.954021  1
  K  K2  1  0.384373  0.615627  0.545979  1
  K  K3  1  0.615627  0.384373  0.454021  1
  Rb  Rb4  1  0.227247  0.772753  0.250000  1
  Rb  Rb5  1  0.772753  0.227247  0.750000  1
  Li  Li6  1  0.000000  0.000000  0.000000  1
  Li  Li7  1  0.000000  0.000000  0.500000  1
  Sn  Sn8  1  0.831695  0.168305  0.109831  1
  Sn  Sn9  1  0.168305  0.831695  0.890169  1
  Sn  Sn10  1  0.168305  0.831695  0.609831  1
  Sn  Sn11  1  0.831695  0.168305  0.390169  1
  Pb  Pb12  1  0.202647  0.278169  0.250000  1
  Pb  Pb13  1  0.797353  0.721831  0.750000  1
  Pb  Pb14  1  0.721831  0.797353  0.250000  1
  Pb  Pb15  1  0.278169  0.202647  0.750000  1
