# generated using pymatgen
data_Ac2PrSn2Hg3
_symmetry_space_group_name_H-M   'P 1'
_cell_length_a   6.72931502
_cell_length_b   6.72931565
_cell_length_c   11.01786700
_cell_angle_alpha   90.00000000
_cell_angle_beta   90.00000000
_cell_angle_gamma   102.18388079
_symmetry_Int_Tables_number   1
_chemical_formula_structural   Ac2PrSn2Hg3
_chemical_formula_sum   'Ac4 Pr2 Sn4 Hg6'
_cell_volume   487.69138180
_cell_formula_units_Z   2
loop_
 _symmetry_equiv_pos_site_id
 _symmetry_equiv_pos_as_xyz
  1  'x, y, z'
loop_
 _atom_site_type_symbol
 _atom_site_label
 _atom_site_symmetry_multiplicity
 _atom_site_fract_x
 _atom_site_fract_y
 _atom_site_fract_z
 _atom_site_occupancy
  Ac  Ac0  1  0.200959  0.799041  0.500000  1
  Ac  Ac1  1  0.200959  0.799041  0.000000  1
  Ac  Ac2  1  0.799041  0.200959  0.500000  1
  Ac  Ac3  1  0.799041  0.200959  0.000000  1
  Pr  Pr4  1  0.638280  0.638280  0.250000  1
  Pr  Pr5  1  0.361720  0.361720  0.750000  1
  Sn  Sn6  1  0.322333  0.322333  0.050486  1
  Sn  Sn7  1  0.677667  0.677667  0.949514  1
  Sn  Sn8  1  0.322333  0.322333  0.449514  1
  Sn  Sn9  1  0.677667  0.677667  0.550486  1
  Hg  Hg10  1  0.019757  0.019757  0.250000  1
  Hg  Hg11  1  0.980243  0.980243  0.750000  1
  Hg  Hg12  1  0.496962  0.077825  0.250000  1
  Hg  Hg13  1  0.922175  0.503038  0.750000  1
  Hg  Hg14  1  0.503038  0.922175  0.750000  1
  Hg  Hg15  1  0.077825  0.496962  0.250000  1
