# generated using pymatgen
data_Pr4TcCl4
_symmetry_space_group_name_H-M   'P 1'
_cell_length_a   9.06685545
_cell_length_b   9.06685659
_cell_length_c   6.77198374
_cell_angle_alpha   90.13853771
_cell_angle_beta   90.13855108
_cell_angle_gamma   89.69561573
_symmetry_Int_Tables_number   1
_chemical_formula_structural   Pr4TcCl4
_chemical_formula_sum   'Pr8 Tc2 Cl8'
_cell_volume   556.69932037
_cell_formula_units_Z   2
loop_
 _symmetry_equiv_pos_site_id
 _symmetry_equiv_pos_as_xyz
  1  'x, y, z'
loop_
 _atom_site_type_symbol
 _atom_site_label
 _atom_site_symmetry_multiplicity
 _atom_site_fract_x
 _atom_site_fract_y
 _atom_site_fract_z
 _atom_site_occupancy
  Pr  Pr0  1  0.105080  0.741974  0.987927  1
  Pr  Pr1  1  0.258026  0.894920  0.512073  1
  Pr  Pr2  1  0.894920  0.258026  0.012073  1
  Pr  Pr3  1  0.741974  0.105080  0.487927  1
  Pr  Pr4  1  0.742760  0.895369  0.999729  1
  Pr  Pr5  1  0.104631  0.257240  0.500271  1
  Pr  Pr6  1  0.257240  0.104631  0.000271  1
  Pr  Pr7  1  0.895369  0.742760  0.499729  1
  Tc  Tc8  1  0.004617  0.995383  0.250000  1
  Tc  Tc9  1  0.995383  0.004617  0.750000  1
  Cl  Cl10  1  0.412741  0.823209  0.921319  1
  Cl  Cl11  1  0.176791  0.587259  0.578681  1
  Cl  Cl12  1  0.587259  0.176791  0.078681  1
  Cl  Cl13  1  0.823209  0.412741  0.421319  1
  Cl  Cl14  1  0.821299  0.588135  0.918468  1
  Cl  Cl15  1  0.411865  0.178701  0.581532  1
  Cl  Cl16  1  0.178701  0.411865  0.081532  1
  Cl  Cl17  1  0.588135  0.821299  0.418468  1
