# generated using pymatgen
data_LaEuH6Ru
_symmetry_space_group_name_H-M   'P 1'
_cell_length_a   5.27482213
_cell_length_b   5.27482273
_cell_length_c   5.27482200
_cell_angle_alpha   60.00000455
_cell_angle_beta   60.00000080
_cell_angle_gamma   60.00000429
_symmetry_Int_Tables_number   1
_chemical_formula_structural   LaEuH6Ru
_chemical_formula_sum   'La1 Eu1 H6 Ru1'
_cell_volume   103.77877278
_cell_formula_units_Z   1
loop_
 _symmetry_equiv_pos_site_id
 _symmetry_equiv_pos_as_xyz
  1  'x, y, z'
loop_
 _atom_site_type_symbol
 _atom_site_label
 _atom_site_symmetry_multiplicity
 _atom_site_fract_x
 _atom_site_fract_y
 _atom_site_fract_z
 _atom_site_occupancy
  La  La0  1  0.750000  0.750000  0.750000  1
  Eu  Eu1  1  0.250000  0.250000  0.250000  1
  H  H2  1  0.765472  0.765472  0.234528  1
  H  H3  1  0.234528  0.765472  0.234528  1
  H  H4  1  0.765472  0.234528  0.234528  1
  H  H5  1  0.234528  0.234528  0.765472  1
  H  H6  1  0.765472  0.234528  0.765472  1
  H  H7  1  0.234528  0.765472  0.765472  1
  Ru  Ru8  1  0.000000  0.000000  0.000000  1
