# generated using pymatgen
data_AcNiB3O7
_symmetry_space_group_name_H-M   'P 1'
_cell_length_a   7.26773400
_cell_length_b   7.26773518
_cell_length_c   4.58323900
_cell_angle_alpha   90.00000000
_cell_angle_beta   90.00000000
_cell_angle_gamma   111.50955923
_symmetry_Int_Tables_number   1
_chemical_formula_structural   AcNiB3O7
_chemical_formula_sum   'Ac2 Ni2 B6 O14'
_cell_volume   225.22675318
_cell_formula_units_Z   2
loop_
 _symmetry_equiv_pos_site_id
 _symmetry_equiv_pos_as_xyz
  1  'x, y, z'
loop_
 _atom_site_type_symbol
 _atom_site_label
 _atom_site_symmetry_multiplicity
 _atom_site_fract_x
 _atom_site_fract_y
 _atom_site_fract_z
 _atom_site_occupancy
  Ac  Ac0  1  0.000000  0.500000  0.000000  1
  Ac  Ac1  1  0.500000  0.000000  0.000000  1
  Ni  Ni2  1  0.500000  0.500000  0.000000  1
  Ni  Ni3  1  0.000000  0.000000  0.000000  1
  B  B4  1  0.865847  0.134153  0.462190  1
  B  B5  1  0.365847  0.634153  0.537810  1
  B  B6  1  0.250000  0.250000  0.500000  1
  B  B7  1  0.634153  0.365847  0.462190  1
  B  B8  1  0.134153  0.865847  0.537810  1
  B  B9  1  0.750000  0.750000  0.500000  1
  O  O10  1  0.138432  0.861568  0.232997  1
  O  O11  1  0.638432  0.361568  0.767003  1
  O  O12  1  0.278207  0.428447  0.681689  1
  O  O13  1  0.571553  0.721793  0.681689  1
  O  O14  1  0.221793  0.071553  0.681689  1
  O  O15  1  0.721793  0.571553  0.318311  1
  O  O16  1  0.928447  0.778207  0.681689  1
  O  O17  1  0.861568  0.138432  0.767003  1
  O  O18  1  0.428447  0.278207  0.318311  1
  O  O19  1  0.750000  0.250000  0.332345  1
  O  O20  1  0.250000  0.750000  0.667655  1
  O  O21  1  0.778207  0.928447  0.318311  1
  O  O22  1  0.071553  0.221793  0.318311  1
  O  O23  1  0.361568  0.638432  0.232997  1
