# generated using pymatgen
data_IrRuRh2F24
_symmetry_space_group_name_H-M   'P 1'
_cell_length_a   5.21975538
_cell_length_b   9.04696500
_cell_length_c   9.82738859
_cell_angle_alpha   90.00000000
_cell_angle_beta   90.21719694
_cell_angle_gamma   90.00000000
_symmetry_Int_Tables_number   1
_chemical_formula_structural   IrRuRh2F24
_chemical_formula_sum   'Ir1 Ru1 Rh2 F24'
_cell_volume   464.07488866
_cell_formula_units_Z   1
loop_
 _symmetry_equiv_pos_site_id
 _symmetry_equiv_pos_as_xyz
  1  'x, y, z'
loop_
 _atom_site_type_symbol
 _atom_site_label
 _atom_site_symmetry_multiplicity
 _atom_site_fract_x
 _atom_site_fract_y
 _atom_site_fract_z
 _atom_site_occupancy
  Ir  Ir0  1  0.915394  0.750000  0.629036  1
  Ru  Ru1  1  0.582996  0.750000  0.130088  1
  Rh  Rh2  1  0.084232  0.250000  0.370052  1
  Rh  Rh3  1  0.417536  0.250000  0.870808  1
  F  F4  1  0.204437  0.750000  0.516217  1
  F  F5  1  0.795879  0.250000  0.483050  1
  F  F6  1  0.707159  0.250000  0.983801  1
  F  F7  1  0.291964  0.750000  0.019991  1
  F  F8  1  0.625540  0.750000  0.741423  1
  F  F9  1  0.373561  0.250000  0.257802  1
  F  F10  1  0.127020  0.250000  0.758082  1
  F  F11  1  0.874240  0.750000  0.240240  1
  F  F12  1  0.764508  0.603683  0.519959  1
  F  F13  1  0.234985  0.396569  0.478831  1
  F  F14  1  0.267626  0.396450  0.979109  1
  F  F15  1  0.234985  0.103431  0.478831  1
  F  F16  1  0.730374  0.605019  0.021014  1
  F  F17  1  0.764508  0.896317  0.519959  1
  F  F18  1  0.730374  0.894981  0.021014  1
  F  F19  1  0.267626  0.103550  0.979109  1
  F  F20  1  0.065767  0.603708  0.738140  1
  F  F21  1  0.933731  0.396428  0.261462  1
  F  F22  1  0.566644  0.396373  0.761954  1
  F  F23  1  0.933731  0.103572  0.261462  1
  F  F24  1  0.436386  0.605054  0.239235  1
  F  F25  1  0.065767  0.896292  0.738140  1
  F  F26  1  0.436386  0.894946  0.239235  1
  F  F27  1  0.566644  0.103627  0.761954  1
