# generated using pymatgen
data_Sc11CoRh3
_symmetry_space_group_name_H-M   'P 1'
_cell_length_a   9.44231914
_cell_length_b   9.44231972
_cell_length_c   9.44232000
_cell_angle_alpha   59.99999900
_cell_angle_beta   59.99999699
_cell_angle_gamma   60.00000405
_symmetry_Int_Tables_number   1
_chemical_formula_structural   Sc11CoRh3
_chemical_formula_sum   'Sc22 Co2 Rh6'
_cell_volume   595.27972857
_cell_formula_units_Z   2
loop_
 _symmetry_equiv_pos_site_id
 _symmetry_equiv_pos_as_xyz
  1  'x, y, z'
loop_
 _atom_site_type_symbol
 _atom_site_label
 _atom_site_symmetry_multiplicity
 _atom_site_fract_x
 _atom_site_fract_y
 _atom_site_fract_z
 _atom_site_occupancy
  Sc  Sc0  1  0.807310  0.807310  0.192690  1
  Sc  Sc1  1  0.192690  0.807310  0.192690  1
  Sc  Sc2  1  0.807310  0.192690  0.192690  1
  Sc  Sc3  1  0.192690  0.192690  0.807310  1
  Sc  Sc4  1  0.807310  0.192690  0.807310  1
  Sc  Sc5  1  0.192690  0.807310  0.807310  1
  Sc  Sc6  1  0.614809  0.614809  0.155572  1
  Sc  Sc7  1  0.614809  0.155572  0.614809  1
  Sc  Sc8  1  0.155572  0.614809  0.614809  1
  Sc  Sc9  1  0.614809  0.614809  0.614809  1
  Sc  Sc10  1  0.385191  0.385191  0.844428  1
  Sc  Sc11  1  0.385191  0.844428  0.385191  1
  Sc  Sc12  1  0.844428  0.385191  0.385191  1
  Sc  Sc13  1  0.385191  0.385191  0.385191  1
  Sc  Sc14  1  0.841579  0.841579  0.475261  1
  Sc  Sc15  1  0.841579  0.475261  0.841579  1
  Sc  Sc16  1  0.475261  0.841579  0.841579  1
  Sc  Sc17  1  0.841579  0.841579  0.841579  1
  Sc  Sc18  1  0.158421  0.158421  0.524739  1
  Sc  Sc19  1  0.158421  0.524739  0.158421  1
  Sc  Sc20  1  0.524739  0.158421  0.158421  1
  Sc  Sc21  1  0.158421  0.158421  0.158421  1
  Co  Co22  1  0.000000  0.000000  0.000000  1
  Co  Co23  1  0.500000  0.500000  0.500000  1
  Rh  Rh24  1  0.000000  0.000000  0.500000  1
  Rh  Rh25  1  0.500000  0.000000  0.500000  1
  Rh  Rh26  1  0.000000  0.500000  0.500000  1
  Rh  Rh27  1  0.500000  0.500000  0.000000  1
  Rh  Rh28  1  0.000000  0.500000  0.000000  1
  Rh  Rh29  1  0.500000  0.000000  0.000000  1
