# generated using pymatgen
data_Zr6Ti2Mn5Co16
_symmetry_space_group_name_H-M   'P 1'
_cell_length_a   8.22747295
_cell_length_b   8.22747233
_cell_length_c   8.22696500
_cell_angle_alpha   60.00203575
_cell_angle_beta   60.00203823
_cell_angle_gamma   60.11124922
_symmetry_Int_Tables_number   1
_chemical_formula_structural   Zr6Ti2Mn5Co16
_chemical_formula_sum   'Zr6 Ti2 Mn5 Co16'
_cell_volume   394.12569408
_cell_formula_units_Z   1
loop_
 _symmetry_equiv_pos_site_id
 _symmetry_equiv_pos_as_xyz
  1  'x, y, z'
loop_
 _atom_site_type_symbol
 _atom_site_label
 _atom_site_symmetry_multiplicity
 _atom_site_fract_x
 _atom_site_fract_y
 _atom_site_fract_z
 _atom_site_occupancy
  Zr  Zr0  1  0.704158  0.295842  0.286538  1
  Zr  Zr1  1  0.290803  0.290803  0.709197  1
  Zr  Zr2  1  0.295842  0.704158  0.713462  1
  Zr  Zr3  1  0.709197  0.709197  0.290803  1
  Zr  Zr4  1  0.295842  0.704158  0.286538  1
  Zr  Zr5  1  0.704158  0.295842  0.713462  1
  Ti  Ti6  1  0.000000  0.000000  0.500000  1
  Ti  Ti7  1  0.000000  0.000000  0.000000  1
  Mn  Mn8  1  0.000000  0.500000  0.000000  1
  Mn  Mn9  1  0.500000  0.500000  0.000000  1
  Mn  Mn10  1  0.500000  0.000000  0.500000  1
  Mn  Mn11  1  0.500000  0.000000  0.000000  1
  Mn  Mn12  1  0.000000  0.500000  0.500000  1
  Co  Co13  1  0.124665  0.124665  0.632518  1
  Co  Co14  1  0.671744  0.977554  0.675351  1
  Co  Co15  1  0.368425  0.877041  0.877266  1
  Co  Co16  1  0.022446  0.328256  0.324649  1
  Co  Co17  1  0.977554  0.671744  0.675351  1
  Co  Co18  1  0.325074  0.325074  0.024016  1
  Co  Co19  1  0.674926  0.674926  0.975984  1
  Co  Co20  1  0.631575  0.122959  0.122734  1
  Co  Co21  1  0.674926  0.674926  0.674163  1
  Co  Co22  1  0.875335  0.875335  0.367482  1
  Co  Co23  1  0.124665  0.124665  0.118153  1
  Co  Co24  1  0.877041  0.368425  0.877266  1
  Co  Co25  1  0.875335  0.875335  0.881847  1
  Co  Co26  1  0.325074  0.325074  0.325837  1
  Co  Co27  1  0.122959  0.631575  0.122734  1
  Co  Co28  1  0.328256  0.022446  0.324649  1
