# generated using pymatgen
data_Tb5YAl24Ru5Pt3
_symmetry_space_group_name_H-M   'P 1'
_cell_length_a   8.86170071
_cell_length_b   8.84136883
_cell_length_c   9.52957722
_cell_angle_alpha   90.24117407
_cell_angle_beta   90.04776972
_cell_angle_gamma   119.81868032
_symmetry_Int_Tables_number   1
_chemical_formula_structural   Tb5YAl24Ru5Pt3
_chemical_formula_sum   'Tb5 Y1 Al24 Ru5 Pt3'
_cell_volume   647.77642023
_cell_formula_units_Z   1
loop_
 _symmetry_equiv_pos_site_id
 _symmetry_equiv_pos_as_xyz
  1  'x, y, z'
loop_
 _atom_site_type_symbol
 _atom_site_label
 _atom_site_symmetry_multiplicity
 _atom_site_fract_x
 _atom_site_fract_y
 _atom_site_fract_z
 _atom_site_occupancy
  Tb  Tb0  1  0.809776  0.193195  0.249964  1
  Tb  Tb1  1  0.811158  0.616066  0.248390  1
  Tb  Tb2  1  0.616903  0.810203  0.750426  1
  Tb  Tb3  1  0.190155  0.806911  0.750039  1
  Tb  Tb4  1  0.188635  0.383733  0.751593  1
  Y  Y5  1  0.383597  0.190105  0.249542  1
  Al  Al6  1  0.437830  0.874914  0.246432  1
  Al  Al7  1  0.121826  0.560303  0.251053  1
  Al  Al8  1  0.436216  0.563248  0.251000  1
  Al  Al9  1  0.562230  0.125400  0.753585  1
  Al  Al10  1  0.878103  0.439647  0.748956  1
  Al  Al11  1  0.563825  0.436535  0.748978  1
  Al  Al12  1  0.158207  0.832382  0.423075  1
  Al  Al13  1  0.158190  0.325161  0.423626  1
  Al  Al14  1  0.677548  0.838266  0.421728  1
  Al  Al15  1  0.841788  0.167624  0.576970  1
  Al  Al16  1  0.841831  0.674832  0.576354  1
  Al  Al17  1  0.322489  0.161744  0.578166  1
  Al  Al18  1  0.837167  0.163854  0.923394  1
  Al  Al19  1  0.841921  0.674911  0.923052  1
  Al  Al20  1  0.324340  0.157700  0.923071  1
  Al  Al21  1  0.162923  0.836262  0.076574  1
  Al  Al22  1  0.158140  0.325070  0.076980  1
  Al  Al23  1  0.675670  0.842259  0.077087  1
  Al  Al24  1  0.327151  0.663354  0.527217  1
  Al  Al25  1  0.672719  0.336563  0.472658  1
  Al  Al26  1  0.669213  0.330651  0.024214  1
  Al  Al27  1  0.330643  0.669282  0.975904  1
  Al  Al28  1  0.002330  0.999458  0.249918  1
  Al  Al29  1  0.997328  0.000419  0.750101  1
  Ru  Ru30  1  0.000143  0.000055  0.499858  1
  Ru  Ru31  1  0.000194  0.000114  0.000179  1
  Ru  Ru32  1  0.999979  0.499994  0.499895  1
  Ru  Ru33  1  0.499991  0.000029  0.000011  1
  Ru  Ru34  1  0.999970  0.499937  0.000147  1
  Pt  Pt35  1  0.499975  0.999904  0.499975  1
  Pt  Pt36  1  0.499917  0.499857  0.499882  1
  Pt  Pt37  1  0.499981  0.500060  0.000006  1
