# generated using pymatgen
data_Tb6Dy2In3Ni
_symmetry_space_group_name_H-M   'P 1'
_cell_length_a   10.50558200
_cell_length_b   10.50558055
_cell_length_c   6.97522300
_cell_angle_alpha   89.99956970
_cell_angle_beta   90.00043994
_cell_angle_gamma   119.99865444
_symmetry_Int_Tables_number   1
_chemical_formula_structural   Tb6Dy2In3Ni
_chemical_formula_sum   'Tb12 Dy4 In6 Ni2'
_cell_volume   666.70665598
_cell_formula_units_Z   2
loop_
 _symmetry_equiv_pos_site_id
 _symmetry_equiv_pos_as_xyz
  1  'x, y, z'
loop_
 _atom_site_type_symbol
 _atom_site_label
 _atom_site_symmetry_multiplicity
 _atom_site_fract_x
 _atom_site_fract_y
 _atom_site_fract_z
 _atom_site_occupancy
  Tb  Tb0  1  0.934365  0.467181  0.980963  1
  Tb  Tb1  1  0.532820  0.065635  0.980962  1
  Tb  Tb2  1  0.823230  0.176770  0.272564  1
  Tb  Tb3  1  0.353621  0.176871  0.272423  1
  Tb  Tb4  1  0.823129  0.646380  0.272423  1
  Tb  Tb5  1  0.176797  0.823203  0.772103  1
  Tb  Tb6  1  0.646329  0.823028  0.772190  1
  Tb  Tb7  1  0.176971  0.353671  0.772190  1
  Tb  Tb8  1  0.333415  0.666585  0.095076  1
  Tb  Tb9  1  0.666592  0.333408  0.594802  1
  Tb  Tb10  1  0.999975  0.000025  0.496518  1
  Tb  Tb11  1  0.000015  0.999985  0.996641  1
  Dy  Dy12  1  0.467103  0.532897  0.480826  1
  Dy  Dy13  1  0.065861  0.532928  0.480908  1
  Dy  Dy14  1  0.467072  0.934138  0.480908  1
  Dy  Dy15  1  0.532872  0.467128  0.980777  1
  In  In16  1  0.163134  0.836866  0.238286  1
  In  In17  1  0.673743  0.836867  0.238230  1
  In  In18  1  0.163133  0.326257  0.238230  1
  In  In19  1  0.837002  0.162998  0.738019  1
  In  In20  1  0.326140  0.163154  0.738147  1
  In  In21  1  0.836846  0.673860  0.738147  1
  Ni  Ni22  1  0.333305  0.666694  0.706458  1
  Ni  Ni23  1  0.666530  0.333471  0.206759  1
