# generated using pymatgen
data_Tb17Lu(ScPb8)2
_symmetry_space_group_name_H-M   'P 1'
_cell_length_a   8.16430109
_cell_length_b   8.25967802
_cell_length_c   15.65325400
_cell_angle_alpha   90.00000000
_cell_angle_beta   90.00000000
_cell_angle_gamma   89.98954145
_symmetry_Int_Tables_number   1
_chemical_formula_structural   Tb17Lu(ScPb8)2
_chemical_formula_sum   'Tb17 Lu1 Sc2 Pb16'
_cell_volume   1055.56931234
_cell_formula_units_Z   1
loop_
 _symmetry_equiv_pos_site_id
 _symmetry_equiv_pos_as_xyz
  1  'x, y, z'
loop_
 _atom_site_type_symbol
 _atom_site_label
 _atom_site_symmetry_multiplicity
 _atom_site_fract_x
 _atom_site_fract_y
 _atom_site_fract_z
 _atom_site_occupancy
  Tb  Tb0  1  0.376276  0.841614  0.878771  1
  Tb  Tb1  1  0.877120  0.657667  0.620841  1
  Tb  Tb2  1  0.624377  0.158961  0.379472  1
  Tb  Tb3  1  0.122315  0.342487  0.120637  1
  Tb  Tb4  1  0.624377  0.158961  0.120528  1
  Tb  Tb5  1  0.122315  0.342487  0.379363  1
  Tb  Tb6  1  0.376276  0.841614  0.621229  1
  Tb  Tb7  1  0.877120  0.657667  0.879159  1
  Tb  Tb8  1  0.533802  0.323641  0.900517  1
  Tb  Tb9  1  0.034656  0.177191  0.600120  1
  Tb  Tb10  1  0.466612  0.675823  0.400561  1
  Tb  Tb11  1  0.965109  0.822406  0.099667  1
  Tb  Tb12  1  0.466612  0.675823  0.099439  1
  Tb  Tb13  1  0.965109  0.822406  0.400333  1
  Tb  Tb14  1  0.533802  0.323641  0.599483  1
  Tb  Tb15  1  0.034656  0.177191  0.899880  1
  Tb  Tb16  1  0.291939  0.003757  0.250000  1
  Lu  Lu17  1  0.708489  0.995653  0.750000  1
  Sc  Sc18  1  0.209182  0.503919  0.750000  1
  Sc  Sc19  1  0.790718  0.495669  0.250000  1
  Pb  Pb20  1  0.281469  0.033344  0.042837  1
  Pb  Pb21  1  0.781788  0.467438  0.454953  1
  Pb  Pb22  1  0.718403  0.967240  0.544077  1
  Pb  Pb23  1  0.218447  0.532775  0.954704  1
  Pb  Pb24  1  0.718403  0.967240  0.955923  1
  Pb  Pb25  1  0.218447  0.532775  0.545296  1
  Pb  Pb26  1  0.281469  0.033344  0.457163  1
  Pb  Pb27  1  0.781788  0.467438  0.045047  1
  Pb  Pb28  1  0.567656  0.623370  0.750000  1
  Pb  Pb29  1  0.072210  0.871852  0.750000  1
  Pb  Pb30  1  0.432709  0.377434  0.250000  1
  Pb  Pb31  1  0.925633  0.129183  0.250000  1
  Pb  Pb32  1  0.344294  0.158943  0.750000  1
  Pb  Pb33  1  0.848411  0.347207  0.750000  1
  Pb  Pb34  1  0.656974  0.841252  0.250000  1
  Pb  Pb35  1  0.151039  0.650588  0.250000  1
