# generated using pymatgen
data_Na7B18F
_symmetry_space_group_name_H-M   'P 1'
_cell_length_a   4.29507300
_cell_length_b   8.47454515
_cell_length_c   8.47474334
_cell_angle_alpha   59.83637076
_cell_angle_beta   90.00000000
_cell_angle_gamma   90.00000000
_symmetry_Int_Tables_number   1
_chemical_formula_structural   Na7B18F
_chemical_formula_sum   'Na7 B18 F1'
_cell_volume   266.70164153
_cell_formula_units_Z   1
loop_
 _symmetry_equiv_pos_site_id
 _symmetry_equiv_pos_as_xyz
  1  'x, y, z'
loop_
 _atom_site_type_symbol
 _atom_site_label
 _atom_site_symmetry_multiplicity
 _atom_site_fract_x
 _atom_site_fract_y
 _atom_site_fract_z
 _atom_site_occupancy
  Na  Na0  1  0.000000  0.316379  0.858471  1
  Na  Na1  1  0.000000  0.683479  0.675232  1
  Na  Na2  1  0.500000  0.057246  0.049174  1
  Na  Na3  1  0.000000  0.866590  0.308211  1
  Na  Na4  1  0.000000  0.330702  0.322432  1
  Na  Na5  1  0.000000  0.721952  0.087271  1
  Na  Na6  1  0.000000  0.095715  0.713638  1
  B  B7  1  0.793725  0.503703  0.495517  1
  B  B8  1  0.500000  0.670817  0.451474  1
  B  B9  1  0.500000  0.880417  0.454390  1
  B  B10  1  0.500000  0.459661  0.662592  1
  B  B11  1  0.790937  0.004615  0.494158  1
  B  B12  1  0.500000  0.462623  0.872152  1
  B  B13  1  0.500000  0.883138  0.665179  1
  B  B14  1  0.500000  0.673419  0.874887  1
  B  B15  1  0.209073  0.502361  0.996367  1
  B  B16  1  0.790927  0.502361  0.996367  1
  B  B17  1  0.500000  0.333902  0.117024  1
  B  B18  1  0.500000  0.125290  0.325682  1
  B  B19  1  0.500000  0.543339  0.120026  1
  B  B20  1  0.209063  0.004615  0.494158  1
  B  B21  1  0.500000  0.548247  0.327815  1
  B  B22  1  0.500000  0.128267  0.535135  1
  B  B23  1  0.500000  0.336054  0.539992  1
  B  B24  1  0.206275  0.503703  0.495517  1
  F  F25  1  0.000000  0.013350  0.005139  1
