# generated using pymatgen
data_Tb2NdTaO7
_symmetry_space_group_name_H-M   'P 1'
_cell_length_a   6.53538351
_cell_length_b   6.53538387
_cell_length_c   7.63179900
_cell_angle_alpha   90.00000000
_cell_angle_beta   90.00000000
_cell_angle_gamma   109.30883538
_symmetry_Int_Tables_number   1
_chemical_formula_structural   Tb2NdTaO7
_chemical_formula_sum   'Tb4 Nd2 Ta2 O14'
_cell_volume   307.62813725
_cell_formula_units_Z   2
loop_
 _symmetry_equiv_pos_site_id
 _symmetry_equiv_pos_as_xyz
  1  'x, y, z'
loop_
 _atom_site_type_symbol
 _atom_site_label
 _atom_site_symmetry_multiplicity
 _atom_site_fract_x
 _atom_site_fract_y
 _atom_site_fract_z
 _atom_site_occupancy
  Tb  Tb0  1  0.000386  0.533832  0.250000  1
  Tb  Tb1  1  0.999614  0.466168  0.750000  1
  Tb  Tb2  1  0.533832  0.000386  0.750000  1
  Tb  Tb3  1  0.466168  0.999614  0.250000  1
  Nd  Nd4  1  0.500000  0.500000  0.500000  1
  Nd  Nd5  1  0.500000  0.500000  0.000000  1
  Ta  Ta6  1  0.000000  0.000000  0.500000  1
  Ta  Ta7  1  0.000000  0.000000  0.000000  1
  O  O8  1  0.938005  0.061995  0.750000  1
  O  O9  1  0.061995  0.938005  0.250000  1
  O  O10  1  0.358582  0.641418  0.250000  1
  O  O11  1  0.641418  0.358582  0.750000  1
  O  O12  1  0.365104  0.634896  0.750000  1
  O  O13  1  0.634896  0.365104  0.250000  1
  O  O14  1  0.319137  0.068623  0.968863  1
  O  O15  1  0.680863  0.931377  0.468863  1
  O  O16  1  0.319137  0.068623  0.531137  1
  O  O17  1  0.680863  0.931377  0.031137  1
  O  O18  1  0.068623  0.319137  0.468863  1
  O  O19  1  0.931377  0.680863  0.968863  1
  O  O20  1  0.931377  0.680863  0.531137  1
  O  O21  1  0.068623  0.319137  0.031137  1
