# generated using pymatgen
data_Zr10Be2GaSb5
_symmetry_space_group_name_H-M   'P 1'
_cell_length_a   8.54449100
_cell_length_b   8.56751458
_cell_length_c   5.78692800
_cell_angle_alpha   90.00000000
_cell_angle_beta   90.00000000
_cell_angle_gamma   119.91114034
_symmetry_Int_Tables_number   1
_chemical_formula_structural   Zr10Be2GaSb5
_chemical_formula_sum   'Zr10 Be2 Ga1 Sb5'
_cell_volume   367.20444922
_cell_formula_units_Z   1
loop_
 _symmetry_equiv_pos_site_id
 _symmetry_equiv_pos_as_xyz
  1  'x, y, z'
loop_
 _atom_site_type_symbol
 _atom_site_label
 _atom_site_symmetry_multiplicity
 _atom_site_fract_x
 _atom_site_fract_y
 _atom_site_fract_z
 _atom_site_occupancy
  Zr  Zr0  1  0.262706  0.000000  0.250000  1
  Zr  Zr1  1  0.250710  0.249651  0.750000  1
  Zr  Zr2  1  0.001058  0.750349  0.750000  1
  Zr  Zr3  1  0.990795  0.252661  0.250000  1
  Zr  Zr4  1  0.738134  0.747339  0.250000  1
  Zr  Zr5  1  0.751271  0.000000  0.750000  1
  Zr  Zr6  1  0.335562  0.669139  0.002887  1
  Zr  Zr7  1  0.666424  0.330861  0.497113  1
  Zr  Zr8  1  0.666424  0.330861  0.002887  1
  Zr  Zr9  1  0.335562  0.669139  0.497113  1
  Be  Be10  1  0.000166  0.000000  0.018896  1
  Be  Be11  1  0.000166  0.000000  0.481104  1
  Ga  Ga12  1  0.611977  0.000000  0.250000  1
  Sb  Sb13  1  0.609328  0.609014  0.750000  1
  Sb  Sb14  1  0.000314  0.390986  0.750000  1
  Sb  Sb15  1  0.998831  0.614490  0.250000  1
  Sb  Sb16  1  0.384341  0.385510  0.250000  1
  Sb  Sb17  1  0.396233  0.000000  0.750000  1
