# generated using pymatgen
data_SrYTm2(Ir2O7)2
_symmetry_space_group_name_H-M   'P 1'
_cell_length_a   7.25186499
_cell_length_b   7.28895438
_cell_length_c   7.25186394
_cell_angle_alpha   60.14222291
_cell_angle_beta   59.91617020
_cell_angle_gamma   60.14222319
_symmetry_Int_Tables_number   1
_chemical_formula_structural   SrYTm2(Ir2O7)2
_chemical_formula_sum   'Sr1 Y1 Tm2 Ir4 O14'
_cell_volume   271.45808620
_cell_formula_units_Z   1
loop_
 _symmetry_equiv_pos_site_id
 _symmetry_equiv_pos_as_xyz
  1  'x, y, z'
loop_
 _atom_site_type_symbol
 _atom_site_label
 _atom_site_symmetry_multiplicity
 _atom_site_fract_x
 _atom_site_fract_y
 _atom_site_fract_z
 _atom_site_occupancy
  Sr  Sr0  1  0.125000  0.625000  0.125000  1
  Y  Y1  1  0.125000  0.125000  0.125000  1
  Tm  Tm2  1  0.625000  0.125000  0.125000  1
  Tm  Tm3  1  0.125000  0.125000  0.625000  1
  Ir  Ir4  1  0.125000  0.625000  0.625000  1
  Ir  Ir5  1  0.625000  0.125000  0.625000  1
  Ir  Ir6  1  0.625000  0.625000  0.125000  1
  Ir  Ir7  1  0.625000  0.625000  0.625000  1
  O  O8  1  0.690475  0.724404  0.292985  1
  O  O9  1  0.292600  0.289609  0.705460  1
  O  O10  1  0.709355  0.289538  0.709355  1
  O  O11  1  0.293391  0.720343  0.293391  1
  O  O12  1  0.292985  0.724404  0.690475  1
  O  O13  1  0.705460  0.289609  0.292600  1
  O  O14  1  0.559525  0.525596  0.957015  1
  O  O15  1  0.957400  0.960391  0.544540  1
  O  O16  1  0.540645  0.960462  0.540645  1
  O  O17  1  0.956609  0.529657  0.956609  1
  O  O18  1  0.957015  0.525596  0.559525  1
  O  O19  1  0.544540  0.960391  0.957400  1
  O  O20  1  0.260267  0.225107  0.260267  1
  O  O21  1  0.989733  0.024893  0.989733  1
