# generated using pymatgen
data_Tb4ZnSi2Pd27
_symmetry_space_group_name_H-M   'P 1'
_cell_length_a   8.93352337
_cell_length_b   8.93352337
_cell_length_c   7.06790648
_cell_angle_alpha   90.32077887
_cell_angle_beta   90.32077887
_cell_angle_gamma   88.94899825
_symmetry_Int_Tables_number   1
_chemical_formula_structural   Tb4ZnSi2Pd27
_chemical_formula_sum   'Tb4 Zn1 Si2 Pd27'
_cell_volume   563.96209100
_cell_formula_units_Z   1
loop_
 _symmetry_equiv_pos_site_id
 _symmetry_equiv_pos_as_xyz
  1  'x, y, z'
loop_
 _atom_site_type_symbol
 _atom_site_label
 _atom_site_symmetry_multiplicity
 _atom_site_fract_x
 _atom_site_fract_y
 _atom_site_fract_z
 _atom_site_occupancy
  Tb  Tb0  1  0.507731  0.007731  0.931968  1
  Tb  Tb1  1  0.992269  0.492269  0.068032  1
  Tb  Tb2  1  0.002274  0.997726  0.500000  1
  Tb  Tb3  1  0.497726  0.502274  0.500000  1
  Zn  Zn4  1  0.250000  0.750000  0.000000  1
  Si  Si5  1  0.501568  0.001568  0.445448  1
  Si  Si6  1  0.998432  0.498432  0.554552  1
  Pd  Pd7  1  0.336432  0.836432  0.609412  1
  Pd  Pd8  1  0.333655  0.165769  0.618544  1
  Pd  Pd9  1  0.665769  0.833655  0.618544  1
  Pd  Pd10  1  0.665735  0.165735  0.614283  1
  Pd  Pd11  1  0.163568  0.663568  0.390588  1
  Pd  Pd12  1  0.166345  0.334231  0.381456  1
  Pd  Pd13  1  0.834231  0.666345  0.381456  1
  Pd  Pd14  1  0.834265  0.334265  0.385717  1
  Pd  Pd15  1  0.499955  0.770882  0.253385  1
  Pd  Pd16  1  0.497527  0.231987  0.255980  1
  Pd  Pd17  1  0.270882  0.999955  0.253385  1
  Pd  Pd18  1  0.731987  0.997527  0.255980  1
  Pd  Pd19  1  0.000045  0.729118  0.746615  1
  Pd  Pd20  1  0.002473  0.268013  0.744020  1
  Pd  Pd21  1  0.229118  0.500045  0.746615  1
  Pd  Pd22  1  0.768013  0.502473  0.744020  1
  Pd  Pd23  1  0.498636  0.352923  0.852107  1
  Pd  Pd24  1  0.493073  0.659210  0.859599  1
  Pd  Pd25  1  0.852923  0.998636  0.852107  1
  Pd  Pd26  1  0.159210  0.993073  0.859599  1
  Pd  Pd27  1  0.001364  0.147077  0.147893  1
  Pd  Pd28  1  0.006927  0.840790  0.140401  1
  Pd  Pd29  1  0.647077  0.501364  0.147893  1
  Pd  Pd30  1  0.340790  0.506927  0.140401  1
  Pd  Pd31  1  0.250000  0.250000  0.000000  1
  Pd  Pd32  1  0.750000  0.750000  0.000000  1
  Pd  Pd33  1  0.750000  0.250000  0.000000  1
