# generated using pymatgen
data_Zr8Ti2Sn6HC
_symmetry_space_group_name_H-M   'P 1'
_cell_length_a   8.42955600
_cell_length_b   8.42955731
_cell_length_c   5.70452400
_cell_angle_alpha   90.00000000
_cell_angle_beta   90.00000000
_cell_angle_gamma   120.00001054
_symmetry_Int_Tables_number   1
_chemical_formula_structural   Zr8Ti2Sn6HC
_chemical_formula_sum   'Zr8 Ti2 Sn6 H1 C1'
_cell_volume   351.04231112
_cell_formula_units_Z   1
loop_
 _symmetry_equiv_pos_site_id
 _symmetry_equiv_pos_as_xyz
  1  'x, y, z'
loop_
 _atom_site_type_symbol
 _atom_site_label
 _atom_site_symmetry_multiplicity
 _atom_site_fract_x
 _atom_site_fract_y
 _atom_site_fract_z
 _atom_site_occupancy
  Zr  Zr0  1  0.666667  0.333333  0.000000  1
  Zr  Zr1  1  0.333333  0.666667  0.000000  1
  Zr  Zr2  1  0.229580  0.000000  0.759912  1
  Zr  Zr3  1  0.770420  0.000000  0.240088  1
  Zr  Zr4  1  0.000000  0.229580  0.759912  1
  Zr  Zr5  1  0.000000  0.770420  0.240088  1
  Zr  Zr6  1  0.770420  0.770420  0.759912  1
  Zr  Zr7  1  0.229580  0.229580  0.240088  1
  Ti  Ti8  1  0.333333  0.666667  0.500000  1
  Ti  Ti9  1  0.666667  0.333333  0.500000  1
  Sn  Sn10  1  0.598317  0.000000  0.737739  1
  Sn  Sn11  1  0.401683  0.000000  0.262261  1
  Sn  Sn12  1  0.000000  0.598317  0.737739  1
  Sn  Sn13  1  0.000000  0.401683  0.262261  1
  Sn  Sn14  1  0.401683  0.401683  0.737739  1
  Sn  Sn15  1  0.598317  0.598317  0.262261  1
  H  H16  1  0.000000  0.000000  0.500000  1
  C  C17  1  0.000000  0.000000  0.000000  1
