# generated using pymatgen
data_Tb3ErAl18(NiRh2)2
_symmetry_space_group_name_H-M   'P 1'
_cell_length_a   7.52931378
_cell_length_b   7.53098780
_cell_length_c   9.42000300
_cell_angle_alpha   90.00000000
_cell_angle_beta   90.00000000
_cell_angle_gamma   119.81952542
_symmetry_Int_Tables_number   1
_chemical_formula_structural   Tb3ErAl18(NiRh2)2
_chemical_formula_sum   'Tb3 Er1 Al18 Ni2 Rh4'
_cell_volume   463.42124954
_cell_formula_units_Z   1
loop_
 _symmetry_equiv_pos_site_id
 _symmetry_equiv_pos_as_xyz
  1  'x, y, z'
loop_
 _atom_site_type_symbol
 _atom_site_label
 _atom_site_symmetry_multiplicity
 _atom_site_fract_x
 _atom_site_fract_y
 _atom_site_fract_z
 _atom_site_occupancy
  Tb  Tb0  1  0.994312  0.668285  0.750000  1
  Tb  Tb1  1  0.005821  0.331792  0.250000  1
  Tb  Tb2  1  0.668200  0.994249  0.750000  1
  Er  Er3  1  0.331981  0.005758  0.250000  1
  Al  Al4  1  0.122248  0.122066  0.750000  1
  Al  Al5  1  0.878868  0.878255  0.250000  1
  Al  Al6  1  0.000045  0.331968  0.574623  1
  Al  Al7  1  0.000695  0.668851  0.425152  1
  Al  Al8  1  0.000695  0.668851  0.074848  1
  Al  Al9  1  0.331958  0.999969  0.926062  1
  Al  Al10  1  0.000045  0.331968  0.925377  1
  Al  Al11  1  0.667269  0.999909  0.074863  1
  Al  Al12  1  0.667269  0.999909  0.425137  1
  Al  Al13  1  0.331958  0.999969  0.573938  1
  Al  Al14  1  0.330974  0.330345  0.049525  1
  Al  Al15  1  0.669000  0.668924  0.950876  1
  Al  Al16  1  0.669000  0.668924  0.549124  1
  Al  Al17  1  0.330974  0.330345  0.450475  1
  Al  Al18  1  0.338489  0.546544  0.750000  1
  Al  Al19  1  0.661043  0.452469  0.250000  1
  Al  Al20  1  0.546572  0.338449  0.750000  1
  Al  Al21  1  0.453230  0.662235  0.250000  1
  Ni  Ni22  1  0.000086  0.000110  0.499966  1
  Ni  Ni23  1  0.000086  0.000110  0.000034  1
  Rh  Rh24  1  0.671219  0.327854  0.499352  1
  Rh  Rh25  1  0.328371  0.672018  0.499546  1
  Rh  Rh26  1  0.328371  0.672018  0.000454  1
  Rh  Rh27  1  0.671219  0.327854  0.000648  1
