# generated using pymatgen
data_Dy3Y2In3
_symmetry_space_group_name_H-M   'P 1'
_cell_length_a   6.02605470
_cell_length_b   9.19196692
_cell_length_c   9.19276533
_cell_angle_alpha   96.22426392
_cell_angle_beta   109.19700127
_cell_angle_gamma   70.80268831
_symmetry_Int_Tables_number   1
_chemical_formula_structural   Dy3Y2In3
_chemical_formula_sum   'Dy6 Y4 In6'
_cell_volume   454.14329468
_cell_formula_units_Z   2
loop_
 _symmetry_equiv_pos_site_id
 _symmetry_equiv_pos_as_xyz
  1  'x, y, z'
loop_
 _atom_site_type_symbol
 _atom_site_label
 _atom_site_symmetry_multiplicity
 _atom_site_fract_x
 _atom_site_fract_y
 _atom_site_fract_z
 _atom_site_occupancy
  Dy  Dy0  1  0.250003  0.499584  0.499627  1
  Dy  Dy1  1  0.749990  0.500405  0.500458  1
  Dy  Dy2  1  0.782399  0.136655  0.699598  1
  Dy  Dy3  1  0.419333  0.863100  0.699651  1
  Dy  Dy4  1  0.281933  0.301166  0.863350  1
  Dy  Dy5  1  0.080998  0.698888  0.863111  1
  Y  Y6  1  0.918978  0.300437  0.136262  1
  Y  Y7  1  0.717450  0.699528  0.136008  1
  Y  Y8  1  0.217885  0.864025  0.301202  1
  Y  Y9  1  0.581364  0.136223  0.301164  1
  In  In10  1  0.249834  0.000522  0.000323  1
  In  In11  1  0.749794  0.999464  0.999151  1
  In  In12  1  0.338261  0.500139  0.176443  1
  In  In13  1  0.161748  0.176438  0.500299  1
  In  In14  1  0.838380  0.823551  0.499897  1
  In  In15  1  0.661646  0.499872  0.823453  1
