# generated using pymatgen
data_Ta3Nb3Cr2(Co2N)2
_symmetry_space_group_name_H-M   'P 1'
_cell_length_a   8.01308100
_cell_length_b   8.01308049
_cell_length_c   8.01308200
_cell_angle_alpha   60.00000201
_cell_angle_beta   60.00000414
_cell_angle_gamma   60.00000301
_symmetry_Int_Tables_number   1
_chemical_formula_structural   Ta3Nb3Cr2(Co2N)2
_chemical_formula_sum   'Ta6 Nb6 Cr4 Co8 N4'
_cell_volume   363.81756026
_cell_formula_units_Z   2
loop_
 _symmetry_equiv_pos_site_id
 _symmetry_equiv_pos_as_xyz
  1  'x, y, z'
loop_
 _atom_site_type_symbol
 _atom_site_label
 _atom_site_symmetry_multiplicity
 _atom_site_fract_x
 _atom_site_fract_y
 _atom_site_fract_z
 _atom_site_occupancy
  Ta  Ta0  1  0.446278  0.446278  0.053722  1
  Ta  Ta1  1  0.053722  0.053722  0.446278  1
  Ta  Ta2  1  0.446278  0.053722  0.446278  1
  Ta  Ta3  1  0.053722  0.446278  0.053722  1
  Ta  Ta4  1  0.053722  0.446278  0.446278  1
  Ta  Ta5  1  0.446278  0.053722  0.053722  1
  Nb  Nb6  1  0.803525  0.803525  0.196475  1
  Nb  Nb7  1  0.196475  0.196475  0.803525  1
  Nb  Nb8  1  0.803525  0.196475  0.803525  1
  Nb  Nb9  1  0.196475  0.803525  0.196475  1
  Nb  Nb10  1  0.196475  0.803525  0.803525  1
  Nb  Nb11  1  0.803525  0.196475  0.196475  1
  Cr  Cr12  1  0.124364  0.625212  0.625212  1
  Cr  Cr13  1  0.625212  0.124364  0.625212  1
  Cr  Cr14  1  0.625212  0.625212  0.124364  1
  Cr  Cr15  1  0.625212  0.625212  0.625212  1
  Co  Co16  1  0.728058  0.423980  0.423980  1
  Co  Co17  1  0.423980  0.728058  0.423980  1
  Co  Co18  1  0.423980  0.423980  0.728058  1
  Co  Co19  1  0.423980  0.423980  0.423980  1
  Co  Co20  1  0.523093  0.825636  0.825636  1
  Co  Co21  1  0.825636  0.523093  0.825636  1
  Co  Co22  1  0.825636  0.825636  0.523093  1
  Co  Co23  1  0.825636  0.825636  0.825636  1
  N  N24  1  0.621461  0.126180  0.126180  1
  N  N25  1  0.126180  0.621461  0.126180  1
  N  N26  1  0.126180  0.126180  0.621461  1
  N  N27  1  0.126180  0.126180  0.126180  1
