# generated using pymatgen
data_YbNb8FeS16
_symmetry_space_group_name_H-M   'P 1'
_cell_length_a   6.69759400
_cell_length_b   6.69759576
_cell_length_c   12.98855500
_cell_angle_alpha   90.00000000
_cell_angle_beta   90.00000000
_cell_angle_gamma   120.00000120
_symmetry_Int_Tables_number   1
_chemical_formula_structural   YbNb8FeS16
_chemical_formula_sum   'Yb1 Nb8 Fe1 S16'
_cell_volume   504.57904833
_cell_formula_units_Z   1
loop_
 _symmetry_equiv_pos_site_id
 _symmetry_equiv_pos_as_xyz
  1  'x, y, z'
loop_
 _atom_site_type_symbol
 _atom_site_label
 _atom_site_symmetry_multiplicity
 _atom_site_fract_x
 _atom_site_fract_y
 _atom_site_fract_z
 _atom_site_occupancy
  Yb  Yb0  1  0.000000  0.000000  0.500000  1
  Nb  Nb1  1  0.000000  0.000000  0.224997  1
  Nb  Nb2  1  0.000000  0.000000  0.775003  1
  Nb  Nb3  1  0.503898  0.007795  0.220727  1
  Nb  Nb4  1  0.992205  0.496102  0.220727  1
  Nb  Nb5  1  0.503898  0.496102  0.220727  1
  Nb  Nb6  1  0.496102  0.992205  0.779273  1
  Nb  Nb7  1  0.007795  0.503898  0.779273  1
  Nb  Nb8  1  0.496102  0.503898  0.779273  1
  Fe  Fe9  1  0.000000  0.000000  0.000000  1
  S  S10  1  0.333333  0.666667  0.900854  1
  S  S11  1  0.666667  0.333333  0.099146  1
  S  S12  1  0.666667  0.333333  0.344579  1
  S  S13  1  0.333333  0.666667  0.655421  1
  S  S14  1  0.168194  0.831806  0.343779  1
  S  S15  1  0.168194  0.336387  0.343779  1
  S  S16  1  0.663613  0.831806  0.343779  1
  S  S17  1  0.831806  0.168194  0.656221  1
  S  S18  1  0.831806  0.663613  0.656221  1
  S  S19  1  0.336387  0.168194  0.656221  1
  S  S20  1  0.836611  0.163389  0.897478  1
  S  S21  1  0.836611  0.673225  0.897478  1
  S  S22  1  0.326775  0.163389  0.897478  1
  S  S23  1  0.163389  0.836611  0.102522  1
  S  S24  1  0.163389  0.326775  0.102522  1
  S  S25  1  0.673225  0.836611  0.102522  1
