# generated using pymatgen
data_Ca14AgBi11
_symmetry_space_group_name_H-M   'P 1'
_cell_length_a   16.60538127
_cell_length_b   16.60538090
_cell_length_c   16.60538100
_cell_angle_alpha   117.56788670
_cell_angle_beta   117.56788604
_cell_angle_gamma   94.26683545
_symmetry_Int_Tables_number   1
_chemical_formula_structural   Ca14AgBi11
_chemical_formula_sum   'Ca56 Ag4 Bi44'
_cell_volume   3346.64356403
_cell_formula_units_Z   4
loop_
 _symmetry_equiv_pos_site_id
 _symmetry_equiv_pos_as_xyz
  1  'x, y, z'
loop_
 _atom_site_type_symbol
 _atom_site_label
 _atom_site_symmetry_multiplicity
 _atom_site_fract_x
 _atom_site_fract_y
 _atom_site_fract_z
 _atom_site_occupancy
  Ca  Ca0  1  0.307226  0.645774  0.017692  1
  Ca  Ca1  1  0.399065  0.001493  0.649272  1
  Ca  Ca2  1  0.395774  0.878082  0.838548  1
  Ca  Ca3  1  0.161444  0.378079  0.132480  1
  Ca  Ca4  1  0.039534  0.557226  0.161452  1
  Ca  Ca5  1  0.251493  0.149065  0.149272  1
  Ca  Ca6  1  0.998507  0.647781  0.397572  1
  Ca  Ca7  1  0.210466  0.871918  0.017692  1
  Ca  Ca8  1  0.478247  0.875000  0.103248  1
  Ca  Ca9  1  0.850935  0.000209  0.102428  1
  Ca  Ca10  1  0.625000  0.521753  0.396753  1
  Ca  Ca11  1  0.350935  0.248507  0.850728  1
  Ca  Ca12  1  0.854226  0.192774  0.982308  1
  Ca  Ca13  1  0.745599  0.878079  0.216635  1
  Ca  Ca14  1  0.771752  0.375000  0.896752  1
  Ca  Ca15  1  0.121921  0.338556  0.867520  1
  Ca  Ca16  1  0.942774  0.460466  0.838548  1
  Ca  Ca17  1  0.751493  0.602219  0.102428  1
  Ca  Ca18  1  0.710466  0.692774  0.338548  1
  Ca  Ca19  1  0.498507  0.100935  0.350728  1
  Ca  Ca20  1  0.899065  0.249791  0.397572  1
  Ca  Ca21  1  0.352219  0.749791  0.350728  1
  Ca  Ca22  1  0.354226  0.371918  0.661452  1
  Ca  Ca23  1  0.504401  0.221036  0.632480  1
  Ca  Ca24  1  0.245599  0.028964  0.867520  1
  Ca  Ca25  1  0.621918  0.104226  0.161452  1
  Ca  Ca26  1  0.852219  0.501493  0.602428  1
  Ca  Ca27  1  0.897781  0.748507  0.897572  1
  Ca  Ca28  1  0.895774  0.057226  0.517692  1
  Ca  Ca29  1  0.121918  0.960466  0.517692  1
  Ca  Ca30  1  0.628079  0.911444  0.632480  1
  Ca  Ca31  1  0.088556  0.721036  0.716635  1
  Ca  Ca32  1  0.128082  0.145774  0.338548  1
  Ca  Ca33  1  0.271753  0.375000  0.396752  1
  Ca  Ca34  1  0.539534  0.378082  0.482308  1
  Ca  Ca35  1  0.625000  0.021752  0.896752  1
  Ca  Ca36  1  0.750209  0.147781  0.649272  1
  Ca  Ca37  1  0.004401  0.371921  0.283365  1
  Ca  Ca38  1  0.128079  0.495599  0.716635  1
  Ca  Ca39  1  0.499791  0.649065  0.897572  1
  Ca  Ca40  1  0.971036  0.838556  0.216635  1
  Ca  Ca41  1  0.588556  0.871921  0.367520  1
  Ca  Ca42  1  0.125000  0.228248  0.603248  1
  Ca  Ca43  1  0.250209  0.600935  0.602428  1
  Ca  Ca44  1  0.778964  0.411444  0.283365  1
  Ca  Ca45  1  0.621921  0.754401  0.783365  1
  Ca  Ca46  1  0.442774  0.604226  0.482308  1
  Ca  Ca47  1  0.125000  0.728248  0.103248  1
  Ca  Ca48  1  0.628082  0.289534  0.982308  1
  Ca  Ca49  1  0.978248  0.875000  0.603248  1
  Ca  Ca50  1  0.397781  0.500209  0.149272  1
  Ca  Ca51  1  0.278964  0.995599  0.367520  1
  Ca  Ca52  1  0.661444  0.528964  0.783365  1
  Ca  Ca53  1  0.999791  0.102219  0.850728  1
  Ca  Ca54  1  0.807226  0.789534  0.661452  1
  Ca  Ca55  1  0.471036  0.254401  0.132480  1
  Ag  Ag56  1  0.000000  0.000000  0.000000  1
  Ag  Ag57  1  0.500000  0.500000  0.000000  1
  Ag  Ag58  1  0.250000  0.750000  0.500000  1
  Ag  Ag59  1  0.750000  0.250000  0.500000  1
  Bi  Bi60  1  0.290993  0.430473  0.849230  1
  Bi  Bi61  1  0.362729  0.862729  0.225458  1
  Bi  Bi62  1  0.790993  0.941763  0.860520  1
  Bi  Bi63  1  0.168757  0.808237  0.349230  1
  Bi  Bi64  1  0.958259  0.051353  0.353321  1
  Bi  Bi65  1  0.180473  0.831243  0.639480  1
  Bi  Bi66  1  0.112729  0.112729  0.725458  1
  Bi  Bi67  1  0.791741  0.198647  0.146679  1
  Bi  Bi68  1  0.354938  0.208259  0.406906  1
  Bi  Bi69  1  0.250000  0.250000  0.000000  1
  Bi  Bi70  1  0.801353  0.948031  0.593094  1
  Bi  Bi71  1  0.459007  0.819527  0.650770  1
  Bi  Bi72  1  0.058237  0.918757  0.849230  1
  Bi  Bi73  1  0.862729  0.637271  0.500000  1
  Bi  Bi74  1  0.551969  0.698647  0.406906  1
  Bi  Bi75  1  0.680473  0.040993  0.349230  1
  Bi  Bi76  1  0.069527  0.209007  0.150770  1
  Bi  Bi77  1  0.137271  0.362729  0.500000  1
  Bi  Bi78  1  0.191763  0.540993  0.360520  1
  Bi  Bi79  1  0.387271  0.387271  0.274542  1
  Bi  Bi80  1  0.500000  0.000000  0.500000  1
  Bi  Bi81  1  0.081243  0.930473  0.139480  1
  Bi  Bi82  1  0.569527  0.418757  0.860520  1
  Bi  Bi83  1  0.448647  0.541741  0.646679  1
  Bi  Bi84  1  0.668757  0.319527  0.360520  1
  Bi  Bi85  1  0.458259  0.104938  0.906906  1
  Bi  Bi86  1  0.395062  0.041741  0.093094  1
  Bi  Bi87  1  0.895062  0.801969  0.353321  1
  Bi  Bi88  1  0.698031  0.604938  0.646679  1
  Bi  Bi89  1  0.691763  0.331243  0.650770  1
  Bi  Bi90  1  0.750000  0.750000  0.000000  1
  Bi  Bi91  1  0.198031  0.551353  0.093094  1
  Bi  Bi92  1  0.959007  0.308237  0.639480  1
  Bi  Bi93  1  0.854938  0.448031  0.146679  1
  Bi  Bi94  1  0.887271  0.612729  0.000000  1
  Bi  Bi95  1  0.301353  0.708259  0.853321  1
  Bi  Bi96  1  0.000000  0.500000  0.500000  1
  Bi  Bi97  1  0.291741  0.145062  0.593094  1
  Bi  Bi98  1  0.637271  0.137271  0.774542  1
  Bi  Bi99  1  0.558237  0.709007  0.139480  1
  Bi  Bi100  1  0.581243  0.441763  0.150770  1
  Bi  Bi101  1  0.051969  0.645062  0.853321  1
  Bi  Bi102  1  0.948647  0.301969  0.906906  1
  Bi  Bi103  1  0.612729  0.887271  0.000000  1
