# generated using pymatgen
data_Ti8Al14Co7P
_symmetry_space_group_name_H-M   'P 1'
_cell_length_a   8.41489725
_cell_length_b   8.41489706
_cell_length_c   8.41489660
_cell_angle_alpha   120.08566562
_cell_angle_beta   119.86874558
_cell_angle_gamma   90.03958907
_symmetry_Int_Tables_number   1
_chemical_formula_structural   Ti8Al14Co7P
_chemical_formula_sum   'Ti8 Al14 Co7 P1'
_cell_volume   421.48192677
_cell_formula_units_Z   1
loop_
 _symmetry_equiv_pos_site_id
 _symmetry_equiv_pos_as_xyz
  1  'x, y, z'
loop_
 _atom_site_type_symbol
 _atom_site_label
 _atom_site_symmetry_multiplicity
 _atom_site_fract_x
 _atom_site_fract_y
 _atom_site_fract_z
 _atom_site_occupancy
  Ti  Ti0  1  0.800044  0.296959  0.092566  1
  Ti  Ti1  1  0.204393  0.296959  0.496915  1
  Ti  Ti2  1  0.202381  0.702381  0.500000  1
  Ti  Ti3  1  0.204393  0.707478  0.907434  1
  Ti  Ti4  1  0.800044  0.707478  0.503085  1
  Ti  Ti5  1  0.795431  0.295431  0.500000  1
  Ti  Ti6  1  0.380576  0.120557  0.739981  1
  Ti  Ti7  1  0.380576  0.640595  0.260019  1
  Al  Al8  1  0.161467  0.336932  0.175462  1
  Al  Al9  1  0.161467  0.986005  0.824538  1
  Al  Al10  1  0.158054  0.338295  0.819758  1
  Al  Al11  1  0.518536  0.338295  0.180242  1
  Al  Al12  1  0.837653  0.661255  0.823603  1
  Al  Al13  1  0.837653  0.014050  0.176397  1
  Al  Al14  1  0.837525  0.661749  0.175775  1
  Al  Al15  1  0.485974  0.661749  0.824225  1
  Al  Al16  1  0.380963  0.118131  0.262832  1
  Al  Al17  1  0.855299  0.118131  0.737168  1
  Al  Al18  1  0.619131  0.880780  0.261649  1
  Al  Al19  1  0.619131  0.357483  0.738351  1
  Al  Al20  1  0.620043  0.880475  0.739567  1
  Al  Al21  1  0.140906  0.880475  0.260433  1
  Co  Co22  1  0.004019  0.000846  0.502581  1
  Co  Co23  1  0.498264  0.000846  0.996827  1
  Co  Co24  1  0.497433  0.497433  0.000000  1
  Co  Co25  1  0.498264  0.501438  0.497419  1
  Co  Co26  1  0.004019  0.501438  0.003173  1
  Co  Co27  1  0.000803  0.000803  0.000000  1
  Co  Co28  1  0.496522  0.996522  0.500000  1
  P  P29  1  0.999027  0.499027  0.500000  1
