# generated using pymatgen
data_Y2Tm3Ir2
_symmetry_space_group_name_H-M   'P 1'
_cell_length_a   6.43476475
_cell_length_b   7.19536011
_cell_length_c   8.45723168
_cell_angle_alpha   96.83823026
_cell_angle_beta   112.36030498
_cell_angle_gamma   89.99999797
_symmetry_Int_Tables_number   1
_chemical_formula_structural   Y2Tm3Ir2
_chemical_formula_sum   'Y4 Tm6 Ir4'
_cell_volume   359.11729183
_cell_formula_units_Z   2
loop_
 _symmetry_equiv_pos_site_id
 _symmetry_equiv_pos_as_xyz
  1  'x, y, z'
loop_
 _atom_site_type_symbol
 _atom_site_label
 _atom_site_symmetry_multiplicity
 _atom_site_fract_x
 _atom_site_fract_y
 _atom_site_fract_z
 _atom_site_occupancy
  Y  Y0  1  0.970883  0.920317  0.186366  1
  Y  Y1  1  0.784515  0.579683  0.813634  1
  Y  Y2  1  0.029117  0.079683  0.813634  1
  Y  Y3  1  0.215485  0.420317  0.186366  1
  Tm  Tm4  1  0.650979  0.817490  0.440652  1
  Tm  Tm5  1  0.210327  0.682510  0.559348  1
  Tm  Tm6  1  0.349021  0.182510  0.559348  1
  Tm  Tm7  1  0.789673  0.317490  0.440652  1
  Tm  Tm8  1  0.428160  0.750000  0.000000  1
  Tm  Tm9  1  0.571840  0.250000  0.000000  1
  Ir  Ir10  1  0.820141  0.573089  0.221075  1
  Ir  Ir11  1  0.599066  0.926911  0.778925  1
  Ir  Ir12  1  0.179860  0.426911  0.778925  1
  Ir  Ir13  1  0.400934  0.073089  0.221075  1
