# generated using pymatgen
data_Pr6As(P3Rh5)4
_symmetry_space_group_name_H-M   'P 1'
_cell_length_a   13.55022200
_cell_length_b   13.55022109
_cell_length_c   3.97743900
_cell_angle_alpha   90.00000000
_cell_angle_beta   90.00000000
_cell_angle_gamma   119.99999735
_symmetry_Int_Tables_number   1
_chemical_formula_structural   Pr6As(P3Rh5)4
_chemical_formula_sum   'Pr6 As1 P12 Rh20'
_cell_volume   632.45111541
_cell_formula_units_Z   1
loop_
 _symmetry_equiv_pos_site_id
 _symmetry_equiv_pos_as_xyz
  1  'x, y, z'
loop_
 _atom_site_type_symbol
 _atom_site_label
 _atom_site_symmetry_multiplicity
 _atom_site_fract_x
 _atom_site_fract_y
 _atom_site_fract_z
 _atom_site_occupancy
  Pr  Pr0  1  0.530064  0.717164  0.247124  1
  Pr  Pr1  1  0.282836  0.812900  0.247124  1
  Pr  Pr2  1  0.187100  0.469936  0.247124  1
  Pr  Pr3  1  0.469936  0.282836  0.752876  1
  Pr  Pr4  1  0.717164  0.187100  0.752876  1
  Pr  Pr5  1  0.812900  0.530064  0.752876  1
  As  As6  1  0.000000  0.000000  0.000000  1
  P  P7  1  0.522036  0.135478  0.251146  1
  P  P8  1  0.864522  0.386559  0.251146  1
  P  P9  1  0.613441  0.477964  0.251146  1
  P  P10  1  0.948218  0.719040  0.254218  1
  P  P11  1  0.280960  0.229178  0.254218  1
  P  P12  1  0.770822  0.051782  0.254218  1
  P  P13  1  0.386559  0.522036  0.748854  1
  P  P14  1  0.477964  0.864522  0.748854  1
  P  P15  1  0.135478  0.613441  0.748854  1
  P  P16  1  0.719040  0.770822  0.745782  1
  P  P17  1  0.229178  0.948218  0.745782  1
  P  P18  1  0.051782  0.280960  0.745782  1
  Rh  Rh19  1  0.333333  0.666667  0.750999  1
  Rh  Rh20  1  0.922875  0.250264  0.253356  1
  Rh  Rh21  1  0.749736  0.672611  0.253356  1
  Rh  Rh22  1  0.327389  0.077125  0.253356  1
  Rh  Rh23  1  0.440112  0.024861  0.751658  1
  Rh  Rh24  1  0.975139  0.415252  0.751658  1
  Rh  Rh25  1  0.584748  0.559888  0.751658  1
  Rh  Rh26  1  0.666667  0.333333  0.249001  1
  Rh  Rh27  1  0.095430  0.192401  0.252931  1
  Rh  Rh28  1  0.807599  0.903027  0.252931  1
  Rh  Rh29  1  0.096973  0.904570  0.252931  1
  Rh  Rh30  1  0.024861  0.584748  0.248342  1
  Rh  Rh31  1  0.415252  0.440112  0.248342  1
  Rh  Rh32  1  0.559888  0.975139  0.248342  1
  Rh  Rh33  1  0.672611  0.922875  0.746644  1
  Rh  Rh34  1  0.077125  0.749736  0.746644  1
  Rh  Rh35  1  0.250264  0.327389  0.746644  1
  Rh  Rh36  1  0.904570  0.807599  0.747069  1
  Rh  Rh37  1  0.192401  0.096973  0.747069  1
  Rh  Rh38  1  0.903027  0.095430  0.747069  1
