# generated using pymatgen
data_LuTi2(NbSn)4
_symmetry_space_group_name_H-M   'P 1'
_cell_length_a   8.43626828
_cell_length_b   8.12438203
_cell_length_c   8.43626868
_cell_angle_alpha   40.69459258
_cell_angle_beta   41.21558338
_cell_angle_gamma   40.69459752
_symmetry_Int_Tables_number   1
_chemical_formula_structural   LuTi2(NbSn)4
_chemical_formula_sum   'Lu1 Ti2 Nb4 Sn4'
_cell_volume   223.40555873
_cell_formula_units_Z   1
loop_
 _symmetry_equiv_pos_site_id
 _symmetry_equiv_pos_as_xyz
  1  'x, y, z'
loop_
 _atom_site_type_symbol
 _atom_site_label
 _atom_site_symmetry_multiplicity
 _atom_site_fract_x
 _atom_site_fract_y
 _atom_site_fract_z
 _atom_site_occupancy
  Lu  Lu0  1  0.992881  0.000000  0.007119  1
  Ti  Ti1  1  0.102672  0.624698  0.585118  1
  Ti  Ti2  1  0.414883  0.375302  0.897327  1
  Nb  Nb3  1  0.586009  0.622411  0.106256  1
  Nb  Nb4  1  0.893745  0.377589  0.413990  1
  Nb  Nb5  1  0.412581  0.848285  0.405624  1
  Nb  Nb6  1  0.594375  0.151715  0.587420  1
  Sn  Sn7  1  0.118882  0.150791  0.109293  1
  Sn  Sn8  1  0.331238  0.325213  0.337972  1
  Sn  Sn9  1  0.662028  0.674787  0.668762  1
  Sn  Sn10  1  0.890707  0.849209  0.881118  1
