# generated using pymatgen
data_YEr4In2(HgPd)2
_symmetry_space_group_name_H-M   'P 1'
_cell_length_a   3.60495900
_cell_length_b   7.98432800
_cell_length_c   18.22152300
_cell_angle_alpha   90.00000000
_cell_angle_beta   90.00000000
_cell_angle_gamma   90.00000000
_symmetry_Int_Tables_number   1
_chemical_formula_structural   YEr4In2(HgPd)2
_chemical_formula_sum   'Y2 Er8 In4 Hg4 Pd4'
_cell_volume   524.47328678
_cell_formula_units_Z   2
loop_
 _symmetry_equiv_pos_site_id
 _symmetry_equiv_pos_as_xyz
  1  'x, y, z'
loop_
 _atom_site_type_symbol
 _atom_site_label
 _atom_site_symmetry_multiplicity
 _atom_site_fract_x
 _atom_site_fract_y
 _atom_site_fract_z
 _atom_site_occupancy
  Y  Y0  1  0.000000  0.500000  0.500000  1
  Y  Y1  1  0.000000  0.000000  0.000000  1
  Er  Er2  1  0.000000  0.742589  0.283852  1
  Er  Er3  1  0.000000  0.257411  0.716148  1
  Er  Er4  1  0.000000  0.757411  0.783852  1
  Er  Er5  1  0.000000  0.242589  0.216148  1
  Er  Er6  1  0.000000  0.608103  0.083798  1
  Er  Er7  1  0.000000  0.391897  0.916202  1
  Er  Er8  1  0.000000  0.891897  0.583798  1
  Er  Er9  1  0.000000  0.108103  0.416202  1
  In  In10  1  0.500000  0.580862  0.648958  1
  In  In11  1  0.500000  0.419138  0.351042  1
  In  In12  1  0.500000  0.919138  0.148958  1
  In  In13  1  0.500000  0.080862  0.851042  1
  Hg  Hg14  1  0.500000  0.712779  0.932638  1
  Hg  Hg15  1  0.500000  0.287221  0.067362  1
  Hg  Hg16  1  0.500000  0.787221  0.432638  1
  Hg  Hg17  1  0.500000  0.212779  0.567362  1
  Pd  Pd18  1  0.500000  0.529359  0.197697  1
  Pd  Pd19  1  0.500000  0.470641  0.802303  1
  Pd  Pd20  1  0.500000  0.970641  0.697697  1
  Pd  Pd21  1  0.500000  0.029359  0.302303  1
