# generated using pymatgen
data_Rb4Er3Bi3(Sb3Se10)2
_symmetry_space_group_name_H-M   'P 1'
_cell_length_a   4.12087100
_cell_length_b   12.36854820
_cell_length_c   22.25006182
_cell_angle_alpha   90.16726162
_cell_angle_beta   90.00000000
_cell_angle_gamma   90.00000000
_symmetry_Int_Tables_number   1
_chemical_formula_structural   Rb4Er3Bi3(Sb3Se10)2
_chemical_formula_sum   'Rb4 Er3 Bi3 Sb6 Se20'
_cell_volume   1134.06283177
_cell_formula_units_Z   1
loop_
 _symmetry_equiv_pos_site_id
 _symmetry_equiv_pos_as_xyz
  1  'x, y, z'
loop_
 _atom_site_type_symbol
 _atom_site_label
 _atom_site_symmetry_multiplicity
 _atom_site_fract_x
 _atom_site_fract_y
 _atom_site_fract_z
 _atom_site_occupancy
  Rb  Rb0  1  0.250000  0.488106  0.209858  1
  Rb  Rb1  1  0.750000  0.510324  0.790043  1
  Rb  Rb2  1  0.750000  0.988172  0.289322  1
  Rb  Rb3  1  0.250000  0.009550  0.709904  1
  Er  Er4  1  0.250000  0.365440  0.023521  1
  Er  Er5  1  0.750000  0.634420  0.976458  1
  Er  Er6  1  0.750000  0.863933  0.476121  1
  Bi  Bi7  1  0.250000  0.594252  0.426246  1
  Bi  Bi8  1  0.750000  0.096121  0.074806  1
  Bi  Bi9  1  0.250000  0.903751  0.924971  1
  Sb  Sb10  1  0.250000  0.130969  0.523762  1
  Sb  Sb11  1  0.250000  0.805057  0.125575  1
  Sb  Sb12  1  0.750000  0.194615  0.874075  1
  Sb  Sb13  1  0.750000  0.307784  0.374711  1
  Sb  Sb14  1  0.250000  0.689842  0.626770  1
  Sb  Sb15  1  0.750000  0.403323  0.572403  1
  Se  Se16  1  0.250000  0.813740  0.390799  1
  Se  Se17  1  0.750000  0.198499  0.611922  1
  Se  Se18  1  0.750000  0.312817  0.109606  1
  Se  Se19  1  0.250000  0.687022  0.890302  1
  Se  Se20  1  0.250000  0.250268  0.299788  1
  Se  Se21  1  0.750000  0.746530  0.701711  1
  Se  Se22  1  0.750000  0.750375  0.200682  1
  Se  Se23  1  0.250000  0.248896  0.798739  1
  Se  Se24  1  0.250000  0.361989  0.481510  1
  Se  Se25  1  0.750000  0.645870  0.519258  1
  Se  Se26  1  0.750000  0.854468  0.019256  1
  Se  Se27  1  0.250000  0.145524  0.980369  1
  Se  Se28  1  0.250000  0.020520  0.159372  1
  Se  Se29  1  0.750000  0.979402  0.840258  1
  Se  Se30  1  0.750000  0.520568  0.340186  1
  Se  Se31  1  0.250000  0.477588  0.657413  1
  Se  Se32  1  0.250000  0.583432  0.059999  1
  Se  Se33  1  0.750000  0.416423  0.939964  1
  Se  Se34  1  0.750000  0.082389  0.439018  1
  Se  Se35  1  0.250000  0.918022  0.561298  1
