# generated using pymatgen
data_Ho2Fe3Mo2(PIr)7
_symmetry_space_group_name_H-M   'P 1'
_cell_length_a   9.35834462
_cell_length_b   9.40480467
_cell_length_c   3.90122900
_cell_angle_alpha   90.00000000
_cell_angle_beta   90.00000000
_cell_angle_gamma   120.11033666
_symmetry_Int_Tables_number   1
_chemical_formula_structural   Ho2Fe3Mo2(PIr)7
_chemical_formula_sum   'Ho2 Fe3 Mo2 P7 Ir7'
_cell_volume   297.02770237
_cell_formula_units_Z   1
loop_
 _symmetry_equiv_pos_site_id
 _symmetry_equiv_pos_as_xyz
  1  'x, y, z'
loop_
 _atom_site_type_symbol
 _atom_site_label
 _atom_site_symmetry_multiplicity
 _atom_site_fract_x
 _atom_site_fract_y
 _atom_site_fract_z
 _atom_site_occupancy
  Ho  Ho0  1  0.999052  0.999556  0.000000  1
  Ho  Ho1  1  0.331658  0.663843  0.500000  1
  Fe  Fe2  1  0.769786  0.171912  0.000000  1
  Fe  Fe3  1  0.398976  0.221814  0.000000  1
  Fe  Fe4  1  0.830512  0.608179  0.000000  1
  Mo  Mo5  1  0.576573  0.454024  0.500000  1
  Mo  Mo6  1  0.881613  0.426133  0.500000  1
  P  P7  1  0.558390  0.921663  0.000000  1
  P  P8  1  0.370478  0.442366  0.000000  1
  P  P9  1  0.073070  0.627740  0.000000  1
  P  P10  1  0.945121  0.214180  0.500000  1
  P  P11  1  0.261982  0.054993  0.500000  1
  P  P12  1  0.787716  0.732491  0.500000  1
  P  P13  1  0.672177  0.340761  0.000000  1
  Ir  Ir14  1  0.304404  0.901817  0.000000  1
  Ir  Ir15  1  0.600487  0.696784  0.000000  1
  Ir  Ir16  1  0.098874  0.399060  0.000000  1
  Ir  Ir17  1  0.722452  0.948103  0.500000  1
  Ir  Ir18  1  0.224838  0.276827  0.500000  1
  Ir  Ir19  1  0.057195  0.779375  0.500000  1
  Ir  Ir20  1  0.534646  0.118381  0.500000  1
