# generated using pymatgen
data_Lu2Zn2IrRh
_symmetry_space_group_name_H-M   'P 1'
_cell_length_a   3.99375900
_cell_length_b   6.89591577
_cell_length_c   8.03128789
_cell_angle_alpha   90.27775110
_cell_angle_beta   90.00000000
_cell_angle_gamma   90.00000000
_symmetry_Int_Tables_number   1
_chemical_formula_structural   Lu2Zn2IrRh
_chemical_formula_sum   'Lu4 Zn4 Ir2 Rh2'
_cell_volume   221.18409477
_cell_formula_units_Z   2
loop_
 _symmetry_equiv_pos_site_id
 _symmetry_equiv_pos_as_xyz
  1  'x, y, z'
loop_
 _atom_site_type_symbol
 _atom_site_label
 _atom_site_symmetry_multiplicity
 _atom_site_fract_x
 _atom_site_fract_y
 _atom_site_fract_z
 _atom_site_occupancy
  Lu  Lu0  1  0.250000  0.539584  0.183036  1
  Lu  Lu1  1  0.750000  0.460416  0.816964  1
  Lu  Lu2  1  0.250000  0.036412  0.319378  1
  Lu  Lu3  1  0.750000  0.963588  0.680622  1
  Zn  Zn4  1  0.250000  0.136229  0.935450  1
  Zn  Zn5  1  0.750000  0.863771  0.064550  1
  Zn  Zn6  1  0.250000  0.637320  0.565309  1
  Zn  Zn7  1  0.750000  0.362680  0.434691  1
  Ir  Ir8  1  0.750000  0.745017  0.375085  1
  Ir  Ir9  1  0.250000  0.254983  0.624915  1
  Rh  Rh10  1  0.750000  0.246015  0.122347  1
  Rh  Rh11  1  0.250000  0.753985  0.877653  1
