# generated using pymatgen
data_HoSc4Si12Ir19
_symmetry_space_group_name_H-M   'P 1'
_cell_length_a   12.75409000
_cell_length_b   12.75409005
_cell_length_c   3.94286100
_cell_angle_alpha   90.00000000
_cell_angle_beta   90.00000000
_cell_angle_gamma   119.99999987
_symmetry_Int_Tables_number   1
_chemical_formula_structural   HoSc4Si12Ir19
_chemical_formula_sum   'Ho1 Sc4 Si12 Ir19'
_cell_volume   555.44499201
_cell_formula_units_Z   1
loop_
 _symmetry_equiv_pos_site_id
 _symmetry_equiv_pos_as_xyz
  1  'x, y, z'
loop_
 _atom_site_type_symbol
 _atom_site_label
 _atom_site_symmetry_multiplicity
 _atom_site_fract_x
 _atom_site_fract_y
 _atom_site_fract_z
 _atom_site_occupancy
  Ho  Ho0  1  0.333333  0.666667  0.000000  1
  Sc  Sc1  1  0.666667  0.333333  0.000000  1
  Sc  Sc2  1  0.816107  0.999994  0.500000  1
  Sc  Sc3  1  0.000006  0.816113  0.500000  1
  Sc  Sc4  1  0.183887  0.183893  0.500000  1
  Si  Si5  1  0.179291  0.000877  0.000000  1
  Si  Si6  1  0.999123  0.178414  0.000000  1
  Si  Si7  1  0.821586  0.820709  0.000000  1
  Si  Si8  1  0.167537  0.480208  0.500000  1
  Si  Si9  1  0.519792  0.687328  0.500000  1
  Si  Si10  1  0.312672  0.832463  0.500000  1
  Si  Si11  1  0.687611  0.517034  0.500000  1
  Si  Si12  1  0.829422  0.312389  0.500000  1
  Si  Si13  1  0.482966  0.170578  0.500000  1
  Si  Si14  1  0.634901  0.000428  0.000000  1
  Si  Si15  1  0.999572  0.634472  0.000000  1
  Si  Si16  1  0.365528  0.365099  0.000000  1
  Ir  Ir17  1  0.447334  0.999574  0.000000  1
  Ir  Ir18  1  0.000426  0.447760  0.000000  1
  Ir  Ir19  1  0.552240  0.552666  0.000000  1
  Ir  Ir20  1  0.360630  0.486662  0.500000  1
  Ir  Ir21  1  0.513338  0.873968  0.500000  1
  Ir  Ir22  1  0.126032  0.639370  0.500000  1
  Ir  Ir23  1  0.872431  0.511473  0.500000  1
  Ir  Ir24  1  0.639042  0.127569  0.500000  1
  Ir  Ir25  1  0.488527  0.360958  0.500000  1
  Ir  Ir26  1  0.181695  0.373587  0.000000  1
  Ir  Ir27  1  0.626413  0.808109  0.000000  1
  Ir  Ir28  1  0.191891  0.818305  0.000000  1
  Ir  Ir29  1  0.807154  0.624586  0.000000  1
  Ir  Ir30  1  0.817432  0.192846  0.000000  1
  Ir  Ir31  1  0.375414  0.182568  0.000000  1
  Ir  Ir32  1  0.281496  0.000820  0.500000  1
  Ir  Ir33  1  0.999180  0.280675  0.500000  1
  Ir  Ir34  1  0.719325  0.718504  0.500000  1
  Ir  Ir35  1  0.000000  0.000000  0.000000  1
