# generated using pymatgen
data_PrNd2Er2P12Ru19
_symmetry_space_group_name_H-M   'P 1'
_cell_length_a   12.59672302
_cell_length_b   12.59537413
_cell_length_c   4.00948400
_cell_angle_alpha   90.00000000
_cell_angle_beta   90.00000000
_cell_angle_gamma   119.99645641
_symmetry_Int_Tables_number   1
_chemical_formula_structural   PrNd2Er2P12Ru19
_chemical_formula_sum   'Pr1 Nd2 Er2 P12 Ru19'
_cell_volume   550.93869405
_cell_formula_units_Z   1
loop_
 _symmetry_equiv_pos_site_id
 _symmetry_equiv_pos_as_xyz
  1  'x, y, z'
loop_
 _atom_site_type_symbol
 _atom_site_label
 _atom_site_symmetry_multiplicity
 _atom_site_fract_x
 _atom_site_fract_y
 _atom_site_fract_z
 _atom_site_occupancy
  Pr  Pr0  1  0.000000  0.816268  0.500000  1
  Nd  Nd1  1  0.183721  0.183760  0.500000  1
  Nd  Nd2  1  0.816279  0.000038  0.500000  1
  Er  Er3  1  0.333331  0.666634  0.000000  1
  Er  Er4  1  0.666669  0.333302  0.000000  1
  P  P5  1  0.811211  0.811486  0.000000  1
  P  P6  1  0.188789  0.000275  0.000000  1
  P  P7  1  0.000000  0.188513  0.000000  1
  P  P8  1  0.174309  0.479217  0.500000  1
  P  P9  1  0.520727  0.695061  0.500000  1
  P  P10  1  0.304932  0.825690  0.500000  1
  P  P11  1  0.695068  0.520759  0.500000  1
  P  P12  1  0.825691  0.304908  0.500000  1
  P  P13  1  0.479273  0.174334  0.500000  1
  P  P14  1  0.373880  0.373886  0.000000  1
  P  P15  1  0.626120  0.000006  0.000000  1
  P  P16  1  0.000000  0.625889  0.000000  1
  Ru  Ru17  1  0.553752  0.553755  0.000000  1
  Ru  Ru18  1  0.446248  0.000003  0.000000  1
  Ru  Ru19  1  0.000000  0.446197  0.000000  1
  Ru  Ru20  1  0.712551  0.712703  0.500000  1
  Ru  Ru21  1  0.287449  0.000152  0.500000  1
  Ru  Ru22  1  0.000000  0.287225  0.500000  1
  Ru  Ru23  1  0.185472  0.381457  0.000000  1
  Ru  Ru24  1  0.618518  0.804008  0.000000  1
  Ru  Ru25  1  0.196281  0.814552  0.000000  1
  Ru  Ru26  1  0.803719  0.618271  0.000000  1
  Ru  Ru27  1  0.814528  0.195986  0.000000  1
  Ru  Ru28  1  0.381482  0.185490  0.000000  1
  Ru  Ru29  1  0.367838  0.493831  0.500000  1
  Ru  Ru30  1  0.506168  0.874009  0.500000  1
  Ru  Ru31  1  0.126031  0.632098  0.500000  1
  Ru  Ru32  1  0.873969  0.506067  0.500000  1
  Ru  Ru33  1  0.632162  0.125993  0.500000  1
  Ru  Ru34  1  0.493832  0.367841  0.500000  1
  Ru  Ru35  1  0.000000  0.000334  0.000000  1
