# generated using pymatgen
data_Er8Ti10Nb2Si15As
_symmetry_space_group_name_H-M   'P 1'
_cell_length_a   7.04117413
_cell_length_b   7.03744543
_cell_length_c   12.93838328
_cell_angle_alpha   89.99939939
_cell_angle_beta   89.95813439
_cell_angle_gamma   89.94201324
_symmetry_Int_Tables_number   1
_chemical_formula_structural   Er8Ti10Nb2Si15As
_chemical_formula_sum   'Er8 Ti10 Nb2 Si15 As1'
_cell_volume   641.12069929
_cell_formula_units_Z   1
loop_
 _symmetry_equiv_pos_site_id
 _symmetry_equiv_pos_as_xyz
  1  'x, y, z'
loop_
 _atom_site_type_symbol
 _atom_site_label
 _atom_site_symmetry_multiplicity
 _atom_site_fract_x
 _atom_site_fract_y
 _atom_site_fract_z
 _atom_site_occupancy
  Er  Er0  1  0.341559  0.000777  0.465864  1
  Er  Er1  1  0.498204  0.842254  0.717519  1
  Er  Er2  1  0.501044  0.158192  0.216600  1
  Er  Er3  1  0.840555  0.497878  0.282976  1
  Er  Er4  1  0.158775  0.500600  0.783428  1
  Er  Er5  1  0.660751  0.996253  0.967873  1
  Er  Er6  1  0.998741  0.343417  0.531737  1
  Er  Er7  1  0.999425  0.658619  0.033413  1
  Ti  Ti8  1  0.824186  0.173927  0.750102  1
  Ti  Ti9  1  0.672296  0.672926  0.500139  1
  Ti  Ti10  1  0.155292  0.009507  0.875230  1
  Ti  Ti11  1  0.491667  0.652135  0.124840  1
  Ti  Ti12  1  0.508110  0.347615  0.626424  1
  Ti  Ti13  1  0.654469  0.495179  0.875945  1
  Ti  Ti14  1  0.345936  0.507816  0.374390  1
  Ti  Ti15  1  0.847486  0.992587  0.374805  1
  Ti  Ti16  1  0.008244  0.151666  0.124989  1
  Ti  Ti17  1  0.989981  0.844115  0.623575  1
  Nb  Nb18  1  0.326510  0.326849  0.999844  1
  Nb  Nb19  1  0.172896  0.827054  0.249953  1
  Si  Si20  1  0.369119  0.704434  0.932870  1
  Si  Si21  1  0.629286  0.297586  0.433984  1
  Si  Si22  1  0.704345  0.369191  0.066988  1
  Si  Si23  1  0.297142  0.630668  0.566658  1
  Si  Si24  1  0.796076  0.868884  0.183729  1
  Si  Si25  1  0.130390  0.203947  0.317034  1
  Si  Si26  1  0.870370  0.797973  0.815977  1
  Si  Si27  1  0.293170  0.952920  0.063552  1
  Si  Si28  1  0.547323  0.790999  0.314701  1
  Si  Si29  1  0.463296  0.209206  0.818289  1
  Si  Si30  1  0.791560  0.546535  0.685228  1
  Si  Si31  1  0.207262  0.452718  0.186376  1
  Si  Si32  1  0.707334  0.046384  0.564534  1
  Si  Si33  1  0.953087  0.291601  0.935171  1
  Si  Si34  1  0.045661  0.707703  0.435707  1
  As  As35  1  0.198449  0.129886  0.679558  1
