# generated using pymatgen
data_Tb5NbCo16(P6Ru)2
_symmetry_space_group_name_H-M   'P 1'
_cell_length_a   12.07965202
_cell_length_b   12.07965147
_cell_length_c   3.71325700
_cell_angle_alpha   90.00000000
_cell_angle_beta   90.00000000
_cell_angle_gamma   119.83174821
_symmetry_Int_Tables_number   1
_chemical_formula_structural   Tb5NbCo16(P6Ru)2
_chemical_formula_sum   'Tb5 Nb1 Co16 P12 Ru2'
_cell_volume   470.03292883
_cell_formula_units_Z   1
loop_
 _symmetry_equiv_pos_site_id
 _symmetry_equiv_pos_as_xyz
  1  'x, y, z'
loop_
 _atom_site_type_symbol
 _atom_site_label
 _atom_site_symmetry_multiplicity
 _atom_site_fract_x
 _atom_site_fract_y
 _atom_site_fract_z
 _atom_site_occupancy
  Tb  Tb0  1  0.814412  0.999325  0.500000  1
  Tb  Tb1  1  0.999325  0.814412  0.500000  1
  Tb  Tb2  1  0.182586  0.182586  0.500000  1
  Tb  Tb3  1  0.332516  0.666280  0.000000  1
  Tb  Tb4  1  0.666280  0.332516  0.000000  1
  Nb  Nb5  1  0.558406  0.558406  0.000000  1
  Co  Co6  1  0.283035  0.999686  0.500000  1
  Co  Co7  1  0.999686  0.283035  0.500000  1
  Co  Co8  1  0.720924  0.720924  0.500000  1
  Co  Co9  1  0.625147  0.806762  0.000000  1
  Co  Co10  1  0.198295  0.820919  0.000000  1
  Co  Co11  1  0.176624  0.374527  0.000000  1
  Co  Co12  1  0.374527  0.176624  0.000000  1
  Co  Co13  1  0.806762  0.625147  0.000000  1
  Co  Co14  1  0.820919  0.198295  0.000000  1
  Co  Co15  1  0.516027  0.874949  0.500000  1
  Co  Co16  1  0.125480  0.642505  0.500000  1
  Co  Co17  1  0.353837  0.480472  0.500000  1
  Co  Co18  1  0.480472  0.353837  0.500000  1
  Co  Co19  1  0.874949  0.516027  0.500000  1
  Co  Co20  1  0.642505  0.125480  0.500000  1
  Co  Co21  1  0.001103  0.001103  0.000000  1
  P  P22  1  0.179831  0.998727  0.000000  1
  P  P23  1  0.998727  0.179831  0.000000  1
  P  P24  1  0.821374  0.821374  0.000000  1
  P  P25  1  0.520840  0.690382  0.500000  1
  P  P26  1  0.313114  0.834663  0.500000  1
  P  P27  1  0.163962  0.477591  0.500000  1
  P  P28  1  0.477591  0.163962  0.500000  1
  P  P29  1  0.690382  0.520840  0.500000  1
  P  P30  1  0.834663  0.313114  0.500000  1
  P  P31  1  0.637861  0.002660  0.000000  1
  P  P32  1  0.002660  0.637861  0.000000  1
  P  P33  1  0.357568  0.357568  0.000000  1
  Ru  Ru34  1  0.446923  0.000686  0.000000  1
  Ru  Ru35  1  0.000686  0.446923  0.000000  1
