# generated using pymatgen
data_Ce2PrNd5(AgAs2)8
_symmetry_space_group_name_H-M   'P 1'
_cell_length_a   5.80244500
_cell_length_b   5.80556408
_cell_length_c   20.91058212
_cell_angle_alpha   89.84310322
_cell_angle_beta   90.00000000
_cell_angle_gamma   90.00000000
_symmetry_Int_Tables_number   1
_chemical_formula_structural   Ce2PrNd5(AgAs2)8
_chemical_formula_sum   'Ce2 Pr1 Nd5 Ag8 As16'
_cell_volume   704.40097850
_cell_formula_units_Z   1
loop_
 _symmetry_equiv_pos_site_id
 _symmetry_equiv_pos_as_xyz
  1  'x, y, z'
loop_
 _atom_site_type_symbol
 _atom_site_label
 _atom_site_symmetry_multiplicity
 _atom_site_fract_x
 _atom_site_fract_y
 _atom_site_fract_z
 _atom_site_occupancy
  Ce  Ce0  1  0.250000  0.005824  0.386694  1
  Ce  Ce1  1  0.250000  0.493883  0.616861  1
  Pr  Pr2  1  0.750000  0.490870  0.882542  1
  Nd  Nd3  1  0.750000  0.505692  0.386741  1
  Nd  Nd4  1  0.750000  0.994941  0.609892  1
  Nd  Nd5  1  0.750000  0.008845  0.113498  1
  Nd  Nd6  1  0.250000  0.993939  0.889048  1
  Nd  Nd7  1  0.250000  0.506743  0.114970  1
  Ag  Ag8  1  0.499908  0.741711  0.748463  1
  Ag  Ag9  1  0.000039  0.258648  0.251380  1
  Ag  Ag10  1  0.499872  0.239368  0.748426  1
  Ag  Ag11  1  0.499961  0.258648  0.251380  1
  Ag  Ag12  1  0.000092  0.741711  0.748463  1
  Ag  Ag13  1  0.999976  0.759931  0.251430  1
  Ag  Ag14  1  0.000128  0.239368  0.748426  1
  Ag  Ag15  1  0.500024  0.759931  0.251430  1
  As  As16  1  0.250000  0.993142  0.655968  1
  As  As17  1  0.750000  0.006995  0.344282  1
  As  As18  1  0.750000  0.508813  0.162813  1
  As  As19  1  0.975713  0.727679  0.999637  1
  As  As20  1  0.024236  0.730702  0.500547  1
  As  As21  1  0.250000  0.506806  0.342972  1
  As  As22  1  0.020543  0.269074  0.500263  1
  As  As23  1  0.524287  0.727679  0.999637  1
  As  As24  1  0.479457  0.269074  0.500263  1
  As  As25  1  0.475764  0.730702  0.500547  1
  As  As26  1  0.992940  0.272632  0.000319  1
  As  As27  1  0.250000  0.008068  0.161124  1
  As  As28  1  0.250000  0.491624  0.837716  1
  As  As29  1  0.750000  0.493161  0.656122  1
  As  As30  1  0.750000  0.991166  0.837826  1
  As  As31  1  0.507060  0.272632  0.000319  1
