# generated using pymatgen
data_Ho3LuSn6Rh7
_symmetry_space_group_name_H-M   'P 1'
_cell_length_a   7.57587652
_cell_length_b   7.57587670
_cell_length_c   7.59784300
_cell_angle_alpha   109.52996424
_cell_angle_beta   109.52996474
_cell_angle_gamma   109.41241222
_symmetry_Int_Tables_number   1
_chemical_formula_structural   Ho3LuSn6Rh7
_chemical_formula_sum   'Ho3 Lu1 Sn6 Rh7'
_cell_volume   335.44308690
_cell_formula_units_Z   1
loop_
 _symmetry_equiv_pos_site_id
 _symmetry_equiv_pos_as_xyz
  1  'x, y, z'
loop_
 _atom_site_type_symbol
 _atom_site_label
 _atom_site_symmetry_multiplicity
 _atom_site_fract_x
 _atom_site_fract_y
 _atom_site_fract_z
 _atom_site_occupancy
  Ho  Ho0  1  0.500000  0.500000  0.500000  1
  Ho  Ho1  1  0.000000  0.500000  0.000000  1
  Ho  Ho2  1  0.500000  0.000000  0.000000  1
  Lu  Lu3  1  0.000000  0.000000  0.500000  1
  Sn  Sn4  1  0.685834  0.000000  0.684571  1
  Sn  Sn5  1  0.685834  0.685834  0.001263  1
  Sn  Sn6  1  0.314166  0.314166  0.998737  1
  Sn  Sn7  1  0.000000  0.685834  0.684571  1
  Sn  Sn8  1  0.000000  0.314166  0.315429  1
  Sn  Sn9  1  0.314166  0.000000  0.315429  1
  Rh  Rh10  1  0.750542  0.501083  0.250542  1
  Rh  Rh11  1  0.498917  0.249458  0.749458  1
  Rh  Rh12  1  0.750542  0.249458  0.500000  1
  Rh  Rh13  1  0.249458  0.750542  0.500000  1
  Rh  Rh14  1  0.249458  0.498917  0.749458  1
  Rh  Rh15  1  0.501083  0.750542  0.250542  1
  Rh  Rh16  1  0.000000  0.000000  0.000000  1
