# generated using pymatgen
data_TbTm7Hf11Si16Tc
_symmetry_space_group_name_H-M   'P 1'
_cell_length_a   7.21355957
_cell_length_b   7.21181344
_cell_length_c   13.20462431
_cell_angle_alpha   89.95539793
_cell_angle_beta   89.99470049
_cell_angle_gamma   90.04339952
_symmetry_Int_Tables_number   1
_chemical_formula_structural   TbTm7Hf11Si16Tc
_chemical_formula_sum   'Tb1 Tm7 Hf11 Si16 Tc1'
_cell_volume   686.94172678
_cell_formula_units_Z   1
loop_
 _symmetry_equiv_pos_site_id
 _symmetry_equiv_pos_as_xyz
  1  'x, y, z'
loop_
 _atom_site_type_symbol
 _atom_site_label
 _atom_site_symmetry_multiplicity
 _atom_site_fract_x
 _atom_site_fract_y
 _atom_site_fract_z
 _atom_site_occupancy
  Tb  Tb0  1  0.656126  0.005265  0.282820  1
  Tm  Tm1  1  0.999359  0.343632  0.211930  1
  Tm  Tm2  1  0.004376  0.655646  0.717089  1
  Tm  Tm3  1  0.155998  0.495644  0.465594  1
  Tm  Tm4  1  0.500662  0.845746  0.033332  1
  Tm  Tm5  1  0.846105  0.500958  0.966257  1
  Tm  Tm6  1  0.495511  0.155899  0.534873  1
  Tm  Tm7  1  0.343378  0.999043  0.787917  1
  Hf  Hf8  1  0.825213  0.824920  0.500277  1
  Hf  Hf9  1  0.324190  0.674494  0.248418  1
  Hf  Hf10  1  0.674868  0.324461  0.751577  1
  Hf  Hf11  1  0.147699  0.998087  0.373154  1
  Hf  Hf12  1  0.854047  0.004076  0.877571  1
  Hf  Hf13  1  0.502617  0.646963  0.625498  1
  Hf  Hf14  1  0.351220  0.495312  0.876641  1
  Hf  Hf15  1  0.494719  0.351426  0.122857  1
  Hf  Hf16  1  0.647099  0.502843  0.374941  1
  Hf  Hf17  1  0.998326  0.147112  0.627245  1
  Hf  Hf18  1  0.004126  0.853594  0.121976  1
  Si  Si19  1  0.358822  0.295977  0.316686  1
  Si  Si20  1  0.639512  0.705187  0.819037  1
  Si  Si21  1  0.205470  0.860560  0.568095  1
  Si  Si22  1  0.138522  0.794905  0.931464  1
  Si  Si23  1  0.795419  0.138666  0.068046  1
  Si  Si24  1  0.861844  0.206479  0.432997  1
  Si  Si25  1  0.294943  0.359837  0.683213  1
  Si  Si26  1  0.705645  0.637844  0.180525  1
  Si  Si27  1  0.293844  0.053022  0.180887  1
  Si  Si28  1  0.701914  0.951872  0.685876  1
  Si  Si29  1  0.449402  0.797290  0.435481  1
  Si  Si30  1  0.203111  0.547410  0.064255  1
  Si  Si31  1  0.547458  0.203228  0.935519  1
  Si  Si32  1  0.798326  0.450571  0.565311  1
  Si  Si33  1  0.052560  0.295409  0.818619  1
  Si  Si34  1  0.952585  0.701394  0.314198  1
  Tc  Tc35  1  0.174984  0.175230  0.999826  1
