# generated using pymatgen
data_YbSm3(Al3Os)2
_symmetry_space_group_name_H-M   'P 1'
_cell_length_a   5.57661700
_cell_length_b   5.57661676
_cell_length_c   8.83484100
_cell_angle_alpha   90.00000000
_cell_angle_beta   90.00000000
_cell_angle_gamma   119.99999550
_symmetry_Int_Tables_number   1
_chemical_formula_structural   YbSm3(Al3Os)2
_chemical_formula_sum   'Yb1 Sm3 Al6 Os2'
_cell_volume   237.94194499
_cell_formula_units_Z   1
loop_
 _symmetry_equiv_pos_site_id
 _symmetry_equiv_pos_as_xyz
  1  'x, y, z'
loop_
 _atom_site_type_symbol
 _atom_site_label
 _atom_site_symmetry_multiplicity
 _atom_site_fract_x
 _atom_site_fract_y
 _atom_site_fract_z
 _atom_site_occupancy
  Yb  Yb0  1  0.333334  0.666667  0.946802  1
  Sm  Sm1  1  0.666666  0.333333  0.048101  1
  Sm  Sm2  1  0.666666  0.333333  0.449570  1
  Sm  Sm3  1  0.333334  0.666667  0.552486  1
  Al  Al4  1  0.159934  0.319868  0.251220  1
  Al  Al5  1  0.159934  0.840066  0.251220  1
  Al  Al6  1  0.680131  0.840066  0.251220  1
  Al  Al7  1  0.320680  0.160340  0.749611  1
  Al  Al8  1  0.839660  0.160340  0.749611  1
  Al  Al9  1  0.839660  0.679320  0.749611  1
  Os  Os10  1  0.000000  0.000000  0.999514  1
  Os  Os11  1  0.000000  0.000000  0.501035  1
