# generated using pymatgen
data_AcLuTe2Se
_symmetry_space_group_name_H-M   'P 1'
_cell_length_a   7.45822600
_cell_length_b   7.45822601
_cell_length_c   10.36087000
_cell_angle_alpha   90.00000000
_cell_angle_beta   90.00000000
_cell_angle_gamma   145.56573590
_symmetry_Int_Tables_number   1
_chemical_formula_structural   AcLuTe2Se
_chemical_formula_sum   'Ac2 Lu2 Te4 Se2'
_cell_volume   325.88881274
_cell_formula_units_Z   2
loop_
 _symmetry_equiv_pos_site_id
 _symmetry_equiv_pos_as_xyz
  1  'x, y, z'
loop_
 _atom_site_type_symbol
 _atom_site_label
 _atom_site_symmetry_multiplicity
 _atom_site_fract_x
 _atom_site_fract_y
 _atom_site_fract_z
 _atom_site_occupancy
  Ac  Ac0  1  0.266981  0.733019  0.750000  1
  Ac  Ac1  1  0.733019  0.266981  0.250000  1
  Lu  Lu2  1  0.000000  0.000000  0.000000  1
  Lu  Lu3  1  0.000000  0.000000  0.500000  1
  Te  Te4  1  0.640625  0.359375  0.559397  1
  Te  Te5  1  0.359375  0.640625  0.440603  1
  Te  Te6  1  0.640625  0.359375  0.940603  1
  Te  Te7  1  0.359375  0.640625  0.059397  1
  Se  Se8  1  0.077648  0.922352  0.250000  1
  Se  Se9  1  0.922352  0.077648  0.750000  1
