# generated using pymatgen
data_Ho8MgHgPt2
_symmetry_space_group_name_H-M   'P 1'
_cell_length_a   9.63988640
_cell_length_b   9.63988605
_cell_length_c   9.61641500
_cell_angle_alpha   60.08051284
_cell_angle_beta   60.08051402
_cell_angle_gamma   60.35055618
_symmetry_Int_Tables_number   1
_chemical_formula_structural   Ho8MgHgPt2
_chemical_formula_sum   'Ho16 Mg2 Hg2 Pt4'
_cell_volume   634.32184550
_cell_formula_units_Z   2
loop_
 _symmetry_equiv_pos_site_id
 _symmetry_equiv_pos_as_xyz
  1  'x, y, z'
loop_
 _atom_site_type_symbol
 _atom_site_label
 _atom_site_symmetry_multiplicity
 _atom_site_fract_x
 _atom_site_fract_y
 _atom_site_fract_z
 _atom_site_occupancy
  Ho  Ho0  1  0.351457  0.351457  0.347798  1
  Ho  Ho1  1  0.351457  0.351457  0.949290  1
  Ho  Ho2  1  0.358122  0.936043  0.352917  1
  Ho  Ho3  1  0.936043  0.358122  0.352917  1
  Ho  Ho4  1  0.811615  0.188221  0.189723  1
  Ho  Ho5  1  0.188221  0.811615  0.810439  1
  Ho  Ho6  1  0.188221  0.811615  0.189723  1
  Ho  Ho7  1  0.811615  0.188221  0.810439  1
  Ho  Ho8  1  0.188478  0.188478  0.811522  1
  Ho  Ho9  1  0.809363  0.809363  0.190637  1
  Ho  Ho10  1  0.933003  0.564704  0.565426  1
  Ho  Ho11  1  0.564704  0.933003  0.936868  1
  Ho  Ho12  1  0.564704  0.933003  0.565426  1
  Ho  Ho13  1  0.933003  0.564704  0.936868  1
  Ho  Ho14  1  0.565367  0.565367  0.934633  1
  Ho  Ho15  1  0.936163  0.936163  0.563837  1
  Mg  Mg16  1  0.577397  0.267843  0.577380  1
  Mg  Mg17  1  0.267843  0.577397  0.577380  1
  Hg  Hg18  1  0.583143  0.583143  0.590424  1
  Hg  Hg19  1  0.583143  0.583143  0.243289  1
  Pt  Pt20  1  0.142779  0.142779  0.147771  1
  Pt  Pt21  1  0.142779  0.142779  0.566673  1
  Pt  Pt22  1  0.140311  0.571072  0.144309  1
  Pt  Pt23  1  0.571072  0.140311  0.144309  1
