# generated using pymatgen
data_Ho3Be2Co7
_symmetry_space_group_name_H-M   'P 1'
_cell_length_a   8.21703049
_cell_length_b   8.21703055
_cell_length_c   8.21703054
_cell_angle_alpha   35.13247459
_cell_angle_beta   35.13247436
_cell_angle_gamma   35.13247588
_symmetry_Int_Tables_number   1
_chemical_formula_structural   Ho3Be2Co7
_chemical_formula_sum   'Ho3 Be2 Co7'
_cell_volume   164.08930905
_cell_formula_units_Z   1
loop_
 _symmetry_equiv_pos_site_id
 _symmetry_equiv_pos_as_xyz
  1  'x, y, z'
loop_
 _atom_site_type_symbol
 _atom_site_label
 _atom_site_symmetry_multiplicity
 _atom_site_fract_x
 _atom_site_fract_y
 _atom_site_fract_z
 _atom_site_occupancy
  Ho  Ho0  1  0.000000  0.000000  0.000000  1
  Ho  Ho1  1  0.859960  0.859960  0.859960  1
  Ho  Ho2  1  0.140040  0.140040  0.140040  1
  Be  Be3  1  0.666049  0.666049  0.666049  1
  Be  Be4  1  0.333951  0.333951  0.333951  1
  Co  Co5  1  0.500000  0.500000  0.500000  1
  Co  Co6  1  0.422484  0.922985  0.422484  1
  Co  Co7  1  0.422484  0.422484  0.922985  1
  Co  Co8  1  0.922985  0.422484  0.422484  1
  Co  Co9  1  0.577516  0.077015  0.577516  1
  Co  Co10  1  0.577516  0.577516  0.077015  1
  Co  Co11  1  0.077015  0.577516  0.577516  1
