# generated using pymatgen
data_Ba4Cr3GaF20
_symmetry_space_group_name_H-M   'P 1'
_cell_length_a   5.12377794
_cell_length_b   5.79193378
_cell_length_c   14.21651222
_cell_angle_alpha   89.86317894
_cell_angle_beta   90.03912848
_cell_angle_gamma   90.05797637
_symmetry_Int_Tables_number   1
_chemical_formula_structural   Ba4Cr3GaF20
_chemical_formula_sum   'Ba4 Cr3 Ga1 F20'
_cell_volume   421.89598153
_cell_formula_units_Z   1
loop_
 _symmetry_equiv_pos_site_id
 _symmetry_equiv_pos_as_xyz
  1  'x, y, z'
loop_
 _atom_site_type_symbol
 _atom_site_label
 _atom_site_symmetry_multiplicity
 _atom_site_fract_x
 _atom_site_fract_y
 _atom_site_fract_z
 _atom_site_occupancy
  Ba  Ba0  1  0.732827  0.659140  0.656772  1
  Ba  Ba1  1  0.232221  0.841513  0.343049  1
  Ba  Ba2  1  0.267304  0.158896  0.843197  1
  Ba  Ba3  1  0.767500  0.340643  0.156639  1
  Cr  Cr4  1  0.315898  0.147812  0.585565  1
  Cr  Cr5  1  0.815732  0.352245  0.414339  1
  Cr  Cr6  1  0.684352  0.647932  0.914919  1
  Ga  Ga7  1  0.184973  0.854049  0.086514  1
  F  F8  1  0.955700  0.612988  0.480966  1
  F  F9  1  0.455624  0.887137  0.519001  1
  F  F10  1  0.047315  0.106570  0.019258  1
  F  F11  1  0.545415  0.385573  0.981103  1
  F  F12  1  0.645454  0.558773  0.327361  1
  F  F13  1  0.146098  0.940897  0.672486  1
  F  F14  1  0.354014  0.059934  0.172126  1
  F  F15  1  0.853895  0.441594  0.827976  1
  F  F16  1  0.189381  0.410874  0.655566  1
  F  F17  1  0.689203  0.089032  0.344508  1
  F  F18  1  0.809959  0.911758  0.844719  1
  F  F19  1  0.310379  0.593252  0.152439  1
  F  F20  1  0.603750  0.147060  0.672894  1
  F  F21  1  0.103606  0.353375  0.326982  1
  F  F22  1  0.396916  0.647102  0.827269  1
  F  F23  1  0.896458  0.852032  0.172752  1
  F  F24  1  0.516525  0.362785  0.503695  1
  F  F25  1  0.016437  0.137226  0.496232  1
  F  F26  1  0.478974  0.859702  0.997281  1
  F  F27  1  0.984090  0.640104  0.004392  1
