# generated using pymatgen
data_Yb3Dy(Al3Pt4)2
_symmetry_space_group_name_H-M   'P 1'
_cell_length_a   8.18732357
_cell_length_b   8.18732456
_cell_length_c   7.48883000
_cell_angle_alpha   90.28086400
_cell_angle_beta   89.71913455
_cell_angle_gamma   139.72380322
_symmetry_Int_Tables_number   1
_chemical_formula_structural   Yb3Dy(Al3Pt4)2
_chemical_formula_sum   'Yb3 Dy1 Al6 Pt8'
_cell_volume   324.52063885
_cell_formula_units_Z   1
loop_
 _symmetry_equiv_pos_site_id
 _symmetry_equiv_pos_as_xyz
  1  'x, y, z'
loop_
 _atom_site_type_symbol
 _atom_site_label
 _atom_site_symmetry_multiplicity
 _atom_site_fract_x
 _atom_site_fract_y
 _atom_site_fract_z
 _atom_site_occupancy
  Yb  Yb0  1  0.604118  0.395882  0.909650  1
  Yb  Yb1  1  0.395823  0.604177  0.089591  1
  Yb  Yb2  1  0.893581  0.106419  0.410391  1
  Dy  Dy3  1  0.106050  0.893950  0.589926  1
  Al  Al4  1  0.500025  0.499975  0.500940  1
  Al  Al5  1  0.001585  0.998415  0.998329  1
  Al  Al6  1  0.521289  0.978698  0.752551  1
  Al  Al7  1  0.979506  0.521426  0.247777  1
  Al  Al8  1  0.478574  0.020494  0.247777  1
  Al  Al9  1  0.021302  0.478711  0.752551  1
  Pt  Pt10  1  0.689610  0.812458  0.748708  1
  Pt  Pt11  1  0.812424  0.688557  0.251294  1
  Pt  Pt12  1  0.311443  0.187576  0.251294  1
  Pt  Pt13  1  0.187542  0.310390  0.748708  1
  Pt  Pt14  1  0.683826  0.316174  0.528877  1
  Pt  Pt15  1  0.314624  0.685376  0.474368  1
  Pt  Pt16  1  0.818426  0.181574  0.026296  1
  Pt  Pt17  1  0.180253  0.819747  0.970973  1
