# generated using pymatgen
data_Cs5Ti3AuO9
_symmetry_space_group_name_H-M   'P 1'
_cell_length_a   6.71273400
_cell_length_b   10.24761471
_cell_length_c   12.42512700
_cell_angle_alpha   86.82723332
_cell_angle_beta   90.00000000
_cell_angle_gamma   90.00000000
_symmetry_Int_Tables_number   1
_chemical_formula_structural   Cs5Ti3AuO9
_chemical_formula_sum   'Cs10 Ti6 Au2 O18'
_cell_volume   853.40829267
_cell_formula_units_Z   2
loop_
 _symmetry_equiv_pos_site_id
 _symmetry_equiv_pos_as_xyz
  1  'x, y, z'
loop_
 _atom_site_type_symbol
 _atom_site_label
 _atom_site_symmetry_multiplicity
 _atom_site_fract_x
 _atom_site_fract_y
 _atom_site_fract_z
 _atom_site_occupancy
  Cs  Cs0  1  0.250000  0.346000  0.055556  1
  Cs  Cs1  1  0.750000  0.956725  0.619479  1
  Cs  Cs2  1  0.250000  0.230658  0.690229  1
  Cs  Cs3  1  0.250000  0.043275  0.380521  1
  Cs  Cs4  1  0.250000  0.739791  0.137348  1
  Cs  Cs5  1  0.250000  0.460332  0.398058  1
  Cs  Cs6  1  0.750000  0.654000  0.944444  1
  Cs  Cs7  1  0.750000  0.539668  0.601942  1
  Cs  Cs8  1  0.750000  0.260209  0.862652  1
  Cs  Cs9  1  0.750000  0.769342  0.309771  1
  Ti  Ti10  1  0.250000  0.891334  0.805593  1
  Ti  Ti11  1  0.750000  0.108666  0.194407  1
  Ti  Ti12  1  0.250000  0.556961  0.796309  1
  Ti  Ti13  1  0.750000  0.253426  0.436697  1
  Ti  Ti14  1  0.250000  0.746574  0.563303  1
  Ti  Ti15  1  0.750000  0.443039  0.203691  1
  Au  Au16  1  0.000000  0.000000  0.000000  1
  Au  Au17  1  0.500000  0.000000  0.000000  1
  O  O18  1  0.467697  0.757216  0.482572  1
  O  O19  1  0.977323  0.018502  0.161694  1
  O  O20  1  0.477323  0.981498  0.838306  1
  O  O21  1  0.465595  0.466828  0.836728  1
  O  O22  1  0.967697  0.242784  0.517428  1
  O  O23  1  0.034405  0.466828  0.836728  1
  O  O24  1  0.250000  0.721603  0.864808  1
  O  O25  1  0.750000  0.109953  0.341699  1
  O  O26  1  0.750000  0.415503  0.356076  1
  O  O27  1  0.022677  0.981498  0.838306  1
  O  O28  1  0.250000  0.584497  0.643924  1
  O  O29  1  0.522677  0.018502  0.161694  1
  O  O30  1  0.750000  0.278397  0.135192  1
  O  O31  1  0.532303  0.242784  0.517428  1
  O  O32  1  0.534405  0.533172  0.163272  1
  O  O33  1  0.032303  0.757216  0.482572  1
  O  O34  1  0.965595  0.533172  0.163272  1
  O  O35  1  0.250000  0.890047  0.658301  1
