# generated using pymatgen
data_CaErMgAlIr2
_symmetry_space_group_name_H-M   'P 1'
_cell_length_a   4.12640100
_cell_length_b   7.13510000
_cell_length_c   8.21107100
_cell_angle_alpha   90.00000000
_cell_angle_beta   90.00000000
_cell_angle_gamma   90.00000000
_symmetry_Int_Tables_number   1
_chemical_formula_structural   CaErMgAlIr2
_chemical_formula_sum   'Ca2 Er2 Mg2 Al2 Ir4'
_cell_volume   241.75268248
_cell_formula_units_Z   2
loop_
 _symmetry_equiv_pos_site_id
 _symmetry_equiv_pos_as_xyz
  1  'x, y, z'
loop_
 _atom_site_type_symbol
 _atom_site_label
 _atom_site_symmetry_multiplicity
 _atom_site_fract_x
 _atom_site_fract_y
 _atom_site_fract_z
 _atom_site_occupancy
  Ca  Ca0  1  0.250000  0.972992  0.322966  1
  Ca  Ca1  1  0.250000  0.472992  0.177034  1
  Er  Er2  1  0.750000  0.029832  0.678179  1
  Er  Er3  1  0.750000  0.529832  0.821821  1
  Mg  Mg4  1  0.750000  0.644605  0.434063  1
  Mg  Mg5  1  0.750000  0.144605  0.065937  1
  Al  Al6  1  0.250000  0.360563  0.565408  1
  Al  Al7  1  0.250000  0.860563  0.934592  1
  Ir  Ir8  1  0.250000  0.222944  0.859402  1
  Ir  Ir9  1  0.250000  0.722944  0.640598  1
  Ir  Ir10  1  0.750000  0.769063  0.098682  1
  Ir  Ir11  1  0.750000  0.269063  0.401318  1
