# generated using pymatgen
data_YbZrNiBi2
_symmetry_space_group_name_H-M   'P 1'
_cell_length_a   8.04141710
_cell_length_b   8.04141727
_cell_length_c   8.04141629
_cell_angle_alpha   31.80917021
_cell_angle_beta   31.80916667
_cell_angle_gamma   31.80916878
_symmetry_Int_Tables_number   1
_chemical_formula_structural   YbZrNiBi2
_chemical_formula_sum   'Yb1 Zr1 Ni1 Bi2'
_cell_volume   128.32005956
_cell_formula_units_Z   1
loop_
 _symmetry_equiv_pos_site_id
 _symmetry_equiv_pos_as_xyz
  1  'x, y, z'
loop_
 _atom_site_type_symbol
 _atom_site_label
 _atom_site_symmetry_multiplicity
 _atom_site_fract_x
 _atom_site_fract_y
 _atom_site_fract_z
 _atom_site_occupancy
  Yb  Yb0  1  0.504224  0.504224  0.504224  1
  Zr  Zr1  1  0.995861  0.995861  0.995861  1
  Ni  Ni2  1  0.371877  0.371877  0.371877  1
  Bi  Bi3  1  0.748369  0.748369  0.748369  1
  Bi  Bi4  1  0.254669  0.254669  0.254669  1
