# generated using pymatgen
data_Nd4MgScSi3Ge
_symmetry_space_group_name_H-M   'P 1'
_cell_length_a   7.41153187
_cell_length_b   7.42558380
_cell_length_c   4.40090700
_cell_angle_alpha   90.00000000
_cell_angle_beta   90.00000000
_cell_angle_gamma   89.74177849
_symmetry_Int_Tables_number   1
_chemical_formula_structural   Nd4MgScSi3Ge
_chemical_formula_sum   'Nd4 Mg1 Sc1 Si3 Ge1'
_cell_volume   242.20124131
_cell_formula_units_Z   1
loop_
 _symmetry_equiv_pos_site_id
 _symmetry_equiv_pos_as_xyz
  1  'x, y, z'
loop_
 _atom_site_type_symbol
 _atom_site_label
 _atom_site_symmetry_multiplicity
 _atom_site_fract_x
 _atom_site_fract_y
 _atom_site_fract_z
 _atom_site_occupancy
  Nd  Nd0  1  0.673418  0.183620  0.500000  1
  Nd  Nd1  1  0.327895  0.817632  0.500000  1
  Nd  Nd2  1  0.183711  0.324563  0.500000  1
  Nd  Nd3  1  0.814454  0.673685  0.500000  1
  Mg  Mg4  1  0.501156  0.499457  0.000000  1
  Sc  Sc5  1  0.999305  0.001717  0.000000  1
  Si  Si6  1  0.888728  0.372277  0.000000  1
  Si  Si7  1  0.624418  0.891522  0.000000  1
  Si  Si8  1  0.375556  0.108468  0.000000  1
  Ge  Ge9  1  0.111358  0.627058  0.000000  1
