# generated using pymatgen
data_BaPaBr6
_symmetry_space_group_name_H-M   'P 1'
_cell_length_a   8.09793033
_cell_length_b   8.14080300
_cell_length_c   8.28027900
_cell_angle_alpha   89.69146935
_cell_angle_beta   118.60740364
_cell_angle_gamma   119.86830714
_symmetry_Int_Tables_number   1
_chemical_formula_structural   BaPaBr6
_chemical_formula_sum   'Ba1 Pa1 Br6'
_cell_volume   395.62027491
_cell_formula_units_Z   1
loop_
 _symmetry_equiv_pos_site_id
 _symmetry_equiv_pos_as_xyz
  1  'x, y, z'
loop_
 _atom_site_type_symbol
 _atom_site_label
 _atom_site_symmetry_multiplicity
 _atom_site_fract_x
 _atom_site_fract_y
 _atom_site_fract_z
 _atom_site_occupancy
  Ba  Ba0  1  0.238016  0.620653  0.856171  1
  Pa  Pa1  1  0.579001  0.289336  0.869299  1
  Br  Br2  1  0.459828  0.068795  0.104213  1
  Br  Br3  1  0.141472  0.216479  0.640919  1
  Br  Br4  1  0.713620  0.499791  0.635790  1
  Br  Br5  1  0.430761  0.930264  0.639414  1
  Br  Br6  1  0.708933  0.637700  0.100659  1
  Br  Br7  1  0.027368  0.386482  0.102035  1
