# generated using pymatgen
data_Er2NpFe2Si7
_symmetry_space_group_name_H-M   'P 1'
_cell_length_a   12.31766700
_cell_length_b   12.31766722
_cell_length_c   3.97943700
_cell_angle_alpha   90.00000000
_cell_angle_beta   90.00000000
_cell_angle_gamma   161.27887123
_symmetry_Int_Tables_number   1
_chemical_formula_structural   Er2NpFe2Si7
_chemical_formula_sum   'Er2 Np1 Fe2 Si7'
_cell_volume   193.79052545
_cell_formula_units_Z   1
loop_
 _symmetry_equiv_pos_site_id
 _symmetry_equiv_pos_as_xyz
  1  'x, y, z'
loop_
 _atom_site_type_symbol
 _atom_site_label
 _atom_site_symmetry_multiplicity
 _atom_site_fract_x
 _atom_site_fract_y
 _atom_site_fract_z
 _atom_site_occupancy
  Er  Er0  1  0.098522  0.901478  0.500000  1
  Er  Er1  1  0.467579  0.532421  0.500000  1
  Np  Np2  1  0.783069  0.216931  0.000000  1
  Fe  Fe3  1  0.655444  0.344556  0.000000  1
  Fe  Fe4  1  0.910708  0.089292  0.000000  1
  Si  Si5  1  0.369092  0.630908  0.000000  1
  Si  Si6  1  0.561091  0.438909  0.000000  1
  Si  Si7  1  0.868453  0.131547  0.500000  1
  Si  Si8  1  0.005078  0.994922  0.000000  1
  Si  Si9  1  0.197020  0.802980  0.000000  1
  Si  Si10  1  0.282983  0.717017  0.500000  1
  Si  Si11  1  0.697660  0.302340  0.500000  1
