# generated using pymatgen
data_NaTm(PS3)2
_symmetry_space_group_name_H-M   'P 1'
_cell_length_a   7.25427600
_cell_length_b   6.47536374
_cell_length_c   9.47345125
_cell_angle_alpha   87.72558364
_cell_angle_beta   90.00000000
_cell_angle_gamma   90.00000000
_symmetry_Int_Tables_number   1
_chemical_formula_structural   NaTm(PS3)2
_chemical_formula_sum   'Na2 Tm2 P4 S12'
_cell_volume   444.65604699
_cell_formula_units_Z   2
loop_
 _symmetry_equiv_pos_site_id
 _symmetry_equiv_pos_as_xyz
  1  'x, y, z'
loop_
 _atom_site_type_symbol
 _atom_site_label
 _atom_site_symmetry_multiplicity
 _atom_site_fract_x
 _atom_site_fract_y
 _atom_site_fract_z
 _atom_site_occupancy
  Na  Na0  1  0.543862  0.302990  0.499514  1
  Na  Na1  1  0.043862  0.697010  0.500486  1
  Tm  Tm2  1  0.307124  0.217398  0.997258  1
  Tm  Tm3  1  0.807124  0.782602  0.002742  1
  P  P4  1  0.823163  0.325608  0.823280  1
  P  P5  1  0.042511  0.183649  0.693531  1
  P  P6  1  0.542511  0.816351  0.306469  1
  P  P7  1  0.323163  0.674392  0.176720  1
  S  S8  1  0.946950  0.379696  0.014675  1
  S  S9  1  0.114707  0.939375  0.830045  1
  S  S10  1  0.936166  0.130747  0.506281  1
  S  S11  1  0.436166  0.869253  0.493719  1
  S  S12  1  0.250763  0.389306  0.708794  1
  S  S13  1  0.614707  0.060625  0.169955  1
  S  S14  1  0.625744  0.096039  0.834402  1
  S  S15  1  0.735711  0.594563  0.733128  1
  S  S16  1  0.125744  0.903961  0.165598  1
  S  S17  1  0.235711  0.405437  0.266872  1
  S  S18  1  0.446950  0.620304  0.985325  1
  S  S19  1  0.750763  0.610694  0.291206  1
