# generated using pymatgen
data_Li2Tb3AgSn3
_symmetry_space_group_name_H-M   'P 1'
_cell_length_a   7.33473000
_cell_length_b   7.34812238
_cell_length_c   4.60944700
_cell_angle_alpha   90.00000000
_cell_angle_beta   90.00000000
_cell_angle_gamma   119.93972857
_symmetry_Int_Tables_number   1
_chemical_formula_structural   Li2Tb3AgSn3
_chemical_formula_sum   'Li2 Tb3 Ag1 Sn3'
_cell_volume   215.27986454
_cell_formula_units_Z   1
loop_
 _symmetry_equiv_pos_site_id
 _symmetry_equiv_pos_as_xyz
  1  'x, y, z'
loop_
 _atom_site_type_symbol
 _atom_site_label
 _atom_site_symmetry_multiplicity
 _atom_site_fract_x
 _atom_site_fract_y
 _atom_site_fract_z
 _atom_site_occupancy
  Li  Li0  1  0.004227  0.232865  0.500000  1
  Li  Li1  1  0.771362  0.767135  0.500000  1
  Tb  Tb2  1  0.001684  0.568033  0.000000  1
  Tb  Tb3  1  0.433652  0.431967  0.000000  1
  Tb  Tb4  1  0.554550  0.000000  0.000000  1
  Ag  Ag5  1  0.236597  0.000000  0.500000  1
  Sn  Sn6  1  0.990906  0.000000  0.000000  1
  Sn  Sn7  1  0.672739  0.338457  0.500000  1
  Sn  Sn8  1  0.334281  0.661543  0.500000  1
