# generated using pymatgen
data_Ho4Si7Pd
_symmetry_space_group_name_H-M   'P 1'
_cell_length_a   8.13869400
_cell_length_b   8.13869334
_cell_length_c   7.92424600
_cell_angle_alpha   90.00000000
_cell_angle_beta   90.00000000
_cell_angle_gamma   120.00000267
_symmetry_Int_Tables_number   1
_chemical_formula_structural   Ho4Si7Pd
_chemical_formula_sum   'Ho8 Si14 Pd2'
_cell_volume   454.56707356
_cell_formula_units_Z   2
loop_
 _symmetry_equiv_pos_site_id
 _symmetry_equiv_pos_as_xyz
  1  'x, y, z'
loop_
 _atom_site_type_symbol
 _atom_site_label
 _atom_site_symmetry_multiplicity
 _atom_site_fract_x
 _atom_site_fract_y
 _atom_site_fract_z
 _atom_site_occupancy
  Ho  Ho0  1  0.501324  0.002648  0.242578  1
  Ho  Ho1  1  0.498676  0.997352  0.757422  1
  Ho  Ho2  1  0.997352  0.498676  0.242578  1
  Ho  Ho3  1  0.002648  0.501324  0.757422  1
  Ho  Ho4  1  0.501324  0.498676  0.242578  1
  Ho  Ho5  1  0.498676  0.501324  0.757422  1
  Ho  Ho6  1  0.000000  0.000000  0.245358  1
  Ho  Ho7  1  0.000000  0.000000  0.754642  1
  Si  Si8  1  0.166080  0.332159  0.000498  1
  Si  Si9  1  0.833920  0.667841  0.999502  1
  Si  Si10  1  0.667841  0.833920  0.000498  1
  Si  Si11  1  0.833658  0.667317  0.501976  1
  Si  Si12  1  0.332159  0.166080  0.999502  1
  Si  Si13  1  0.166342  0.332683  0.498024  1
  Si  Si14  1  0.166080  0.833920  0.000498  1
  Si  Si15  1  0.332683  0.166342  0.501976  1
  Si  Si16  1  0.833920  0.166080  0.999502  1
  Si  Si17  1  0.667317  0.833658  0.498024  1
  Si  Si18  1  0.833658  0.166342  0.501976  1
  Si  Si19  1  0.166342  0.833658  0.498024  1
  Si  Si20  1  0.333333  0.666667  0.003374  1
  Si  Si21  1  0.666667  0.333333  0.996626  1
  Pd  Pd22  1  0.666667  0.333333  0.502410  1
  Pd  Pd23  1  0.333333  0.666667  0.497590  1
