# generated using pymatgen
data_Sr2Hg4N6O19
_symmetry_space_group_name_H-M   'P 1'
_cell_length_a   11.06647427
_cell_length_b   11.06647427
_cell_length_c   11.06647427
_cell_angle_alpha   60.00000000
_cell_angle_beta   60.00000000
_cell_angle_gamma   60.00000000
_symmetry_Int_Tables_number   1
_chemical_formula_structural   Sr2Hg4N6O19
_chemical_formula_sum   'Sr4 Hg8 N12 O38'
_cell_volume   958.32504445
_cell_formula_units_Z   2
loop_
 _symmetry_equiv_pos_site_id
 _symmetry_equiv_pos_as_xyz
  1  'x, y, z'
loop_
 _atom_site_type_symbol
 _atom_site_label
 _atom_site_symmetry_multiplicity
 _atom_site_fract_x
 _atom_site_fract_y
 _atom_site_fract_z
 _atom_site_occupancy
  Sr  Sr0  1  0.625000  0.125000  0.625000  1
  Sr  Sr1  1  0.125000  0.625000  0.625000  1
  Sr  Sr2  1  0.625000  0.625000  0.125000  1
  Sr  Sr3  1  0.625000  0.625000  0.625000  1
  Hg  Hg4  1  0.171133  0.486601  0.171133  1
  Hg  Hg5  1  0.171133  0.171133  0.171133  1
  Hg  Hg6  1  0.078867  0.078867  0.763399  1
  Hg  Hg7  1  0.763399  0.078867  0.078867  1
  Hg  Hg8  1  0.078867  0.763399  0.078867  1
  Hg  Hg9  1  0.171133  0.171133  0.486601  1
  Hg  Hg10  1  0.078867  0.078867  0.078867  1
  Hg  Hg11  1  0.486601  0.171133  0.171133  1
  N  N12  1  0.265699  0.265699  0.734301  1
  N  N13  1  0.984301  0.984301  0.515699  1
  N  N14  1  0.515699  0.984301  0.515699  1
  N  N15  1  0.984301  0.515699  0.984301  1
  N  N16  1  0.515699  0.515699  0.984301  1
  N  N17  1  0.265699  0.734301  0.734301  1
  N  N18  1  0.515699  0.984301  0.984301  1
  N  N19  1  0.734301  0.734301  0.265699  1
  N  N20  1  0.734301  0.265699  0.734301  1
  N  N21  1  0.984301  0.515699  0.515699  1
  N  N22  1  0.734301  0.265699  0.265699  1
  N  N23  1  0.265699  0.734301  0.265699  1
  O  O24  1  0.126021  0.774462  0.325054  1
  O  O25  1  0.126021  0.774462  0.774462  1
  O  O26  1  0.652829  0.347171  0.347171  1
  O  O27  1  0.475538  0.924946  0.123979  1
  O  O28  1  0.774462  0.774462  0.325054  1
  O  O29  1  0.774462  0.126021  0.774462  1
  O  O30  1  0.924946  0.123979  0.475538  1
  O  O31  1  0.475538  0.123979  0.475538  1
  O  O32  1  0.597171  0.902829  0.597171  1
  O  O33  1  0.347171  0.652829  0.347171  1
  O  O34  1  0.347171  0.347171  0.652829  1
  O  O35  1  0.475538  0.475538  0.924946  1
  O  O36  1  0.325054  0.774462  0.774462  1
  O  O37  1  0.347171  0.652829  0.652829  1
  O  O38  1  0.652829  0.347171  0.652829  1
  O  O39  1  0.475538  0.924946  0.475538  1
  O  O40  1  0.774462  0.325054  0.126021  1
  O  O41  1  0.902829  0.597171  0.597171  1
  O  O42  1  0.123979  0.475538  0.475538  1
  O  O43  1  0.126021  0.325054  0.774462  1
  O  O44  1  0.924946  0.475538  0.123979  1
  O  O45  1  0.475538  0.475538  0.123979  1
  O  O46  1  0.123979  0.924946  0.475538  1
  O  O47  1  0.123979  0.475538  0.924946  1
  O  O48  1  0.597171  0.597171  0.902829  1
  O  O49  1  0.597171  0.902829  0.902829  1
  O  O50  1  0.250000  0.250000  0.250000  1
  O  O51  1  0.652829  0.652829  0.347171  1
  O  O52  1  0.902829  0.597171  0.902829  1
  O  O53  1  0.924946  0.475538  0.475538  1
  O  O54  1  0.475538  0.123979  0.924946  1
  O  O55  1  0.325054  0.774462  0.126021  1
  O  O56  1  0.000000  0.000000  0.000000  1
  O  O57  1  0.774462  0.325054  0.774462  1
  O  O58  1  0.325054  0.126021  0.774462  1
  O  O59  1  0.774462  0.126021  0.325054  1
  O  O60  1  0.774462  0.774462  0.126021  1
  O  O61  1  0.902829  0.902829  0.597171  1
