# generated using pymatgen
data_HgPO3F
_symmetry_space_group_name_H-M   'P 1'
_cell_length_a   10.81463000
_cell_length_b   5.18404534
_cell_length_c   7.49834672
_cell_angle_alpha   73.57553026
_cell_angle_beta   90.00000000
_cell_angle_gamma   90.00000000
_symmetry_Int_Tables_number   1
_chemical_formula_structural   HgPO3F
_chemical_formula_sum   'Hg4 P4 O12 F4'
_cell_volume   403.22932992
_cell_formula_units_Z   4
loop_
 _symmetry_equiv_pos_site_id
 _symmetry_equiv_pos_as_xyz
  1  'x, y, z'
loop_
 _atom_site_type_symbol
 _atom_site_label
 _atom_site_symmetry_multiplicity
 _atom_site_fract_x
 _atom_site_fract_y
 _atom_site_fract_z
 _atom_site_occupancy
  Hg  Hg0  1  0.354840  0.093928  0.616883  1
  Hg  Hg1  1  0.645160  0.906072  0.383117  1
  Hg  Hg2  1  0.145160  0.093928  0.116883  1
  Hg  Hg3  1  0.854840  0.906072  0.883117  1
  P  P4  1  0.878024  0.298772  0.241639  1
  P  P5  1  0.378024  0.701228  0.258361  1
  P  P6  1  0.121976  0.701228  0.758361  1
  P  P7  1  0.621976  0.298772  0.741639  1
  O  O8  1  0.710109  0.518269  0.646729  1
  O  O9  1  0.042036  0.802375  0.898857  1
  O  O10  1  0.957964  0.197625  0.101143  1
  O  O11  1  0.321894  0.943331  0.108423  1
  O  O12  1  0.178106  0.943331  0.608423  1
  O  O13  1  0.210109  0.481731  0.853271  1
  O  O14  1  0.289891  0.481731  0.353271  1
  O  O15  1  0.789891  0.518269  0.146729  1
  O  O16  1  0.821894  0.056669  0.391577  1
  O  O17  1  0.542036  0.197625  0.601143  1
  O  O18  1  0.678106  0.056669  0.891577  1
  O  O19  1  0.457964  0.802375  0.398857  1
  F  F20  1  0.523395  0.408113  0.857021  1
  F  F21  1  0.976605  0.408113  0.357021  1
  F  F22  1  0.476605  0.591887  0.142979  1
  F  F23  1  0.023395  0.591887  0.642979  1
