# generated using pymatgen
data_RbNb(CrS3)2
_symmetry_space_group_name_H-M   'P 1'
_cell_length_a   5.45830900
_cell_length_b   5.45831076
_cell_length_c   16.76715600
_cell_angle_alpha   90.00000000
_cell_angle_beta   90.00000000
_cell_angle_gamma   119.99999539
_symmetry_Int_Tables_number   1
_chemical_formula_structural   RbNb(CrS3)2
_chemical_formula_sum   'Rb2 Nb2 Cr4 S12'
_cell_volume   432.61984028
_cell_formula_units_Z   2
loop_
 _symmetry_equiv_pos_site_id
 _symmetry_equiv_pos_as_xyz
  1  'x, y, z'
loop_
 _atom_site_type_symbol
 _atom_site_label
 _atom_site_symmetry_multiplicity
 _atom_site_fract_x
 _atom_site_fract_y
 _atom_site_fract_z
 _atom_site_occupancy
  Rb  Rb0  1  0.000000  0.000000  0.000000  1
  Rb  Rb1  1  0.000000  0.000000  0.500000  1
  Nb  Nb2  1  0.666667  0.333333  0.250000  1
  Nb  Nb3  1  0.333333  0.666667  0.750000  1
  Cr  Cr4  1  0.000000  0.000000  0.750000  1
  Cr  Cr5  1  0.000000  0.000000  0.250000  1
  Cr  Cr6  1  0.333333  0.666667  0.250000  1
  Cr  Cr7  1  0.666667  0.333333  0.750000  1
  S  S8  1  0.315383  0.979325  0.160927  1
  S  S9  1  0.020675  0.336058  0.160927  1
  S  S10  1  0.663942  0.684617  0.160927  1
  S  S11  1  0.336058  0.315383  0.660927  1
  S  S12  1  0.663942  0.684617  0.339073  1
  S  S13  1  0.684617  0.020675  0.660927  1
  S  S14  1  0.979325  0.663942  0.660927  1
  S  S15  1  0.979325  0.663942  0.839073  1
  S  S16  1  0.336058  0.315383  0.839073  1
  S  S17  1  0.020675  0.336058  0.339073  1
  S  S18  1  0.315383  0.979325  0.339073  1
  S  S19  1  0.684617  0.020675  0.839073  1
