# generated using pymatgen
data_Ho6FeCo13(P3Rh)4
_symmetry_space_group_name_H-M   'P 1'
_cell_length_a   3.72990900
_cell_length_b   10.69498600
_cell_length_c   12.36203100
_cell_angle_alpha   90.00000000
_cell_angle_beta   90.00000000
_cell_angle_gamma   90.00000000
_symmetry_Int_Tables_number   1
_chemical_formula_structural   Ho6FeCo13(P3Rh)4
_chemical_formula_sum   'Ho6 Fe1 Co13 P12 Rh4'
_cell_volume   493.13779055
_cell_formula_units_Z   1
loop_
 _symmetry_equiv_pos_site_id
 _symmetry_equiv_pos_as_xyz
  1  'x, y, z'
loop_
 _atom_site_type_symbol
 _atom_site_label
 _atom_site_symmetry_multiplicity
 _atom_site_fract_x
 _atom_site_fract_y
 _atom_site_fract_z
 _atom_site_occupancy
  Ho  Ho0  1  0.000000  0.500000  0.520524  1
  Ho  Ho1  1  0.500000  0.000000  0.479412  1
  Ho  Ho2  1  0.500000  0.814079  0.205743  1
  Ho  Ho3  1  0.500000  0.185921  0.205743  1
  Ho  Ho4  1  0.000000  0.684071  0.795073  1
  Ho  Ho5  1  0.000000  0.315929  0.795073  1
  Fe  Fe6  1  0.000000  0.500000  0.990293  1
  Co  Co7  1  0.500000  0.000000  0.011513  1
  Co  Co8  1  0.500000  0.300108  0.429804  1
  Co  Co9  1  0.500000  0.699892  0.429804  1
  Co  Co10  1  0.000000  0.200098  0.570453  1
  Co  Co11  1  0.000000  0.799902  0.570453  1
  Co  Co12  1  0.500000  0.879771  0.709748  1
  Co  Co13  1  0.500000  0.120229  0.709748  1
  Co  Co14  1  0.000000  0.619916  0.290160  1
  Co  Co15  1  0.000000  0.380084  0.290160  1
  Co  Co16  1  0.500000  0.330506  0.994243  1
  Co  Co17  1  0.500000  0.669494  0.994243  1
  Co  Co18  1  0.000000  0.167191  0.005954  1
  Co  Co19  1  0.000000  0.832809  0.005954  1
  P  P20  1  0.500000  0.302392  0.613670  1
  P  P21  1  0.500000  0.697608  0.613670  1
  P  P22  1  0.000000  0.197745  0.386280  1
  P  P23  1  0.000000  0.802255  0.386280  1
  P  P24  1  0.500000  0.500000  0.891414  1
  P  P25  1  0.000000  0.000000  0.110099  1
  P  P26  1  0.500000  0.844409  0.894273  1
  P  P27  1  0.500000  0.155591  0.894273  1
  P  P28  1  0.000000  0.655843  0.104419  1
  P  P29  1  0.000000  0.344157  0.104419  1
  P  P30  1  0.500000  0.500000  0.349709  1
  P  P31  1  0.000000  0.000000  0.649524  1
  Rh  Rh32  1  0.500000  0.500000  0.158877  1
  Rh  Rh33  1  0.000000  0.000000  0.839439  1
  Rh  Rh34  1  0.500000  0.500000  0.702730  1
  Rh  Rh35  1  0.000000  0.000000  0.296825  1
