# generated using pymatgen
data_Ho2Co7Tc5P7
_symmetry_space_group_name_H-M   'P 1'
_cell_length_a   9.19549586
_cell_length_b   9.09864864
_cell_length_c   3.74069100
_cell_angle_alpha   90.00000000
_cell_angle_beta   90.00000000
_cell_angle_gamma   119.68136315
_symmetry_Int_Tables_number   1
_chemical_formula_structural   Ho2Co7Tc5P7
_chemical_formula_sum   'Ho2 Co7 Tc5 P7'
_cell_volume   271.90676304
_cell_formula_units_Z   1
loop_
 _symmetry_equiv_pos_site_id
 _symmetry_equiv_pos_as_xyz
  1  'x, y, z'
loop_
 _atom_site_type_symbol
 _atom_site_label
 _atom_site_symmetry_multiplicity
 _atom_site_fract_x
 _atom_site_fract_y
 _atom_site_fract_z
 _atom_site_occupancy
  Ho  Ho0  1  0.671662  0.338012  0.500000  1
  Ho  Ho1  1  0.330367  0.666137  0.000000  1
  Co  Co2  1  0.115759  0.836489  0.000000  1
  Co  Co3  1  0.732043  0.883739  0.000000  1
  Co  Co4  1  0.936793  0.369178  0.000000  1
  Co  Co5  1  0.640024  0.571871  0.000000  1
  Co  Co6  1  0.422919  0.063223  0.000000  1
  Co  Co7  1  0.046226  0.610006  0.500000  1
  Co  Co8  1  0.153008  0.274219  0.000000  1
  Tc  Tc9  1  0.388587  0.437240  0.500000  1
  Tc  Tc10  1  0.564499  0.955614  0.500000  1
  Tc  Tc11  1  0.207035  0.086525  0.500000  1
  Tc  Tc12  1  0.880150  0.781299  0.500000  1
  Tc  Tc13  1  0.909467  0.122375  0.500000  1
  P  P14  1  0.001485  0.000009  0.000000  1
  P  P15  1  0.600577  0.716915  0.500000  1
  P  P16  1  0.700768  0.116846  0.000000  1
  P  P17  1  0.889382  0.587554  0.000000  1
  P  P18  1  0.413166  0.299099  0.000000  1
  P  P19  1  0.280767  0.876576  0.500000  1
  P  P20  1  0.115316  0.407074  0.500000  1
