# generated using pymatgen
data_Tm2Sc2Al17GaIr6
_symmetry_space_group_name_H-M   'P 1'
_cell_length_a   7.50040219
_cell_length_b   7.50040106
_cell_length_c   9.38203800
_cell_angle_alpha   90.00000000
_cell_angle_beta   90.00000000
_cell_angle_gamma   119.47872005
_symmetry_Int_Tables_number   1
_chemical_formula_structural   Tm2Sc2Al17GaIr6
_chemical_formula_sum   'Tm2 Sc2 Al17 Ga1 Ir6'
_cell_volume   459.46689050
_cell_formula_units_Z   1
loop_
 _symmetry_equiv_pos_site_id
 _symmetry_equiv_pos_as_xyz
  1  'x, y, z'
loop_
 _atom_site_type_symbol
 _atom_site_label
 _atom_site_symmetry_multiplicity
 _atom_site_fract_x
 _atom_site_fract_y
 _atom_site_fract_z
 _atom_site_occupancy
  Tm  Tm0  1  0.993451  0.675957  0.250000  1
  Tm  Tm1  1  0.675957  0.993451  0.250000  1
  Sc  Sc2  1  0.003132  0.326274  0.750000  1
  Sc  Sc3  1  0.326274  0.003132  0.750000  1
  Al  Al4  1  0.875187  0.875187  0.750000  1
  Al  Al5  1  0.002039  0.336004  0.070097  1
  Al  Al6  1  0.001812  0.664143  0.919598  1
  Al  Al7  1  0.001812  0.664143  0.580402  1
  Al  Al8  1  0.336004  0.002039  0.429903  1
  Al  Al9  1  0.002039  0.336004  0.429903  1
  Al  Al10  1  0.664143  0.001812  0.580402  1
  Al  Al11  1  0.664143  0.001812  0.919598  1
  Al  Al12  1  0.336004  0.002039  0.070097  1
  Al  Al13  1  0.330129  0.330129  0.563285  1
  Al  Al14  1  0.665221  0.665221  0.452230  1
  Al  Al15  1  0.665221  0.665221  0.047770  1
  Al  Al16  1  0.330129  0.330129  0.936715  1
  Al  Al17  1  0.338619  0.549903  0.250000  1
  Al  Al18  1  0.659820  0.444991  0.750000  1
  Al  Al19  1  0.549903  0.338619  0.250000  1
  Al  Al20  1  0.444991  0.659820  0.750000  1
  Ga  Ga21  1  0.136733  0.136733  0.250000  1
  Ir  Ir22  1  0.671854  0.327693  0.999767  1
  Ir  Ir23  1  0.327693  0.671854  0.999767  1
  Ir  Ir24  1  0.327693  0.671854  0.500233  1
  Ir  Ir25  1  0.671854  0.327693  0.500233  1
  Ir  Ir26  1  0.999071  0.999071  0.997599  1
  Ir  Ir27  1  0.999071  0.999071  0.502401  1
