# generated using pymatgen
data_Tb19Ho(Ir2Rh)4
_symmetry_space_group_name_H-M   'P 1'
_cell_length_a   10.93316400
_cell_length_b   10.93316400
_cell_length_c   6.42404300
_cell_angle_alpha   90.00000000
_cell_angle_beta   90.00000000
_cell_angle_gamma   90.00000000
_symmetry_Int_Tables_number   1
_chemical_formula_structural   Tb19Ho(Ir2Rh)4
_chemical_formula_sum   'Tb19 Ho1 Ir8 Rh4'
_cell_volume   767.89203809
_cell_formula_units_Z   1
loop_
 _symmetry_equiv_pos_site_id
 _symmetry_equiv_pos_as_xyz
  1  'x, y, z'
loop_
 _atom_site_type_symbol
 _atom_site_label
 _atom_site_symmetry_multiplicity
 _atom_site_fract_x
 _atom_site_fract_y
 _atom_site_fract_z
 _atom_site_occupancy
  Tb  Tb0  1  0.290208  0.089158  0.380060  1
  Tb  Tb1  1  0.290441  0.910825  0.879876  1
  Tb  Tb2  1  0.709559  0.089175  0.879876  1
  Tb  Tb3  1  0.709792  0.910842  0.380060  1
  Tb  Tb4  1  0.589195  0.790608  0.879954  1
  Tb  Tb5  1  0.589289  0.209394  0.379929  1
  Tb  Tb6  1  0.410711  0.790606  0.379929  1
  Tb  Tb7  1  0.410805  0.209392  0.879954  1
  Tb  Tb8  1  0.209394  0.410711  0.620071  1
  Tb  Tb9  1  0.209392  0.589195  0.120046  1
  Tb  Tb10  1  0.790608  0.410805  0.120046  1
  Tb  Tb11  1  0.790606  0.589289  0.620071  1
  Tb  Tb12  1  0.910825  0.709559  0.120124  1
  Tb  Tb13  1  0.910842  0.290208  0.619940  1
  Tb  Tb14  1  0.089158  0.709792  0.619940  1
  Tb  Tb15  1  0.089175  0.290441  0.120124  1
  Tb  Tb16  1  0.000000  0.000000  0.000000  1
  Tb  Tb17  1  0.500000  0.500000  0.000000  1
  Tb  Tb18  1  0.500000  0.500000  0.500000  1
  Ho  Ho19  1  0.000000  0.000000  0.500000  1
  Ir  Ir20  1  0.846500  0.153479  0.250782  1
  Ir  Ir21  1  0.846521  0.846500  0.749218  1
  Ir  Ir22  1  0.153479  0.153500  0.749218  1
  Ir  Ir23  1  0.153500  0.846521  0.250782  1
  Ir  Ir24  1  0.654071  0.345886  0.750050  1
  Ir  Ir25  1  0.654114  0.654071  0.249950  1
  Ir  Ir26  1  0.345886  0.345929  0.249950  1
  Ir  Ir27  1  0.345929  0.654114  0.750050  1
  Rh  Rh28  1  0.500000  0.000000  0.122555  1
  Rh  Rh29  1  0.500000  0.000000  0.622607  1
  Rh  Rh30  1  0.000000  0.500000  0.877445  1
  Rh  Rh31  1  0.000000  0.500000  0.377393  1
