# generated using pymatgen
data_Tb2Nd5S8
_symmetry_space_group_name_H-M   'P 1'
_cell_length_a   8.08687400
_cell_length_b   8.12328364
_cell_length_c   8.15716200
_cell_angle_alpha   120.13805604
_cell_angle_beta   90.00000000
_cell_angle_gamma   119.85184266
_symmetry_Int_Tables_number   1
_chemical_formula_structural   Tb2Nd5S8
_chemical_formula_sum   'Tb2 Nd5 S8'
_cell_volume   378.96575715
_cell_formula_units_Z   1
loop_
 _symmetry_equiv_pos_site_id
 _symmetry_equiv_pos_as_xyz
  1  'x, y, z'
loop_
 _atom_site_type_symbol
 _atom_site_label
 _atom_site_symmetry_multiplicity
 _atom_site_fract_x
 _atom_site_fract_y
 _atom_site_fract_z
 _atom_site_occupancy
  Tb  Tb0  1  0.249999  0.499998  0.749998  1
  Tb  Tb1  1  0.750003  0.500004  0.750003  1
  Nd  Nd2  1  0.249994  0.999992  0.249995  1
  Nd  Nd3  1  0.250000  0.500001  0.249998  1
  Nd  Nd4  1  0.750001  0.999993  0.249997  1
  Nd  Nd5  1  0.249998  0.999999  0.750003  1
  Nd  Nd6  1  0.750000  0.000000  0.750005  1
  S  S7  1  0.995529  0.991099  0.995574  1
  S  S8  1  0.504472  0.008899  0.504424  1
  S  S9  1  0.007638  0.015272  0.507607  1
  S  S10  1  0.002801  0.499984  0.511279  1
  S  S11  1  0.497105  0.499971  0.511426  1
  S  S12  1  0.002901  0.500040  0.988580  1
  S  S13  1  0.497203  0.500024  0.988727  1
  S  S14  1  0.492361  0.984724  0.992394  1
