# generated using pymatgen
data_NaNbP4O13
_symmetry_space_group_name_H-M   'P 1'
_cell_length_a   7.20819700
_cell_length_b   8.41290500
_cell_length_c   18.05070900
_cell_angle_alpha   90.00000000
_cell_angle_beta   90.00000000
_cell_angle_gamma   90.00000000
_symmetry_Int_Tables_number   1
_chemical_formula_structural   NaNbP4O13
_chemical_formula_sum   'Na4 Nb4 P16 O52'
_cell_volume   1094.62886740
_cell_formula_units_Z   4
loop_
 _symmetry_equiv_pos_site_id
 _symmetry_equiv_pos_as_xyz
  1  'x, y, z'
loop_
 _atom_site_type_symbol
 _atom_site_label
 _atom_site_symmetry_multiplicity
 _atom_site_fract_x
 _atom_site_fract_y
 _atom_site_fract_z
 _atom_site_occupancy
  Na  Na0  1  0.204819  0.724876  0.485267  1
  Na  Na1  1  0.704819  0.775122  0.514733  1
  Na  Na2  1  0.795181  0.224876  0.014733  1
  Na  Na3  1  0.295181  0.275122  0.985267  1
  Nb  Nb4  1  0.238301  0.273694  0.711277  1
  Nb  Nb5  1  0.738309  0.226314  0.288719  1
  Nb  Nb6  1  0.761699  0.773694  0.788723  1
  Nb  Nb7  1  0.261691  0.726314  0.211281  1
  P  P8  1  0.403050  0.654444  0.670301  1
  P  P9  1  0.903049  0.845558  0.329699  1
  P  P10  1  0.596950  0.154444  0.829699  1
  P  P11  1  0.096951  0.345558  0.170301  1
  P  P12  1  0.097541  0.894284  0.665302  1
  P  P13  1  0.597544  0.605718  0.334698  1
  P  P14  1  0.902459  0.394284  0.834698  1
  P  P15  1  0.402456  0.105718  0.165302  1
  P  P16  1  0.074189  0.318662  0.425143  1
  P  P17  1  0.574191  0.181337  0.574857  1
  P  P18  1  0.925811  0.818662  0.074857  1
  P  P19  1  0.425809  0.681337  0.925143  1
  P  P20  1  0.920297  0.390265  0.572772  1
  P  P21  1  0.420296  0.109734  0.427228  1
  P  P22  1  0.079703  0.890265  0.927228  1
  P  P23  1  0.579704  0.609734  0.072772  1
  O  O24  1  0.431659  0.657899  0.589058  1
  O  O25  1  0.931659  0.842102  0.410942  1
  O  O26  1  0.568341  0.157899  0.910942  1
  O  O27  1  0.068341  0.342102  0.089058  1
  O  O28  1  0.336740  0.493557  0.703842  1
  O  O29  1  0.836739  0.006443  0.296158  1
  O  O30  1  0.663260  0.993557  0.796158  1
  O  O31  1  0.163261  0.506443  0.203842  1
  O  O32  1  0.574774  0.703000  0.717541  1
  O  O33  1  0.074774  0.797000  0.282459  1
  O  O34  1  0.425226  0.203000  0.782459  1
  O  O35  1  0.925226  0.297000  0.217541  1
  O  O36  1  0.094449  0.897176  0.583680  1
  O  O37  1  0.594448  0.602823  0.416320  1
  O  O38  1  0.905551  0.397176  0.916320  1
  O  O39  1  0.405552  0.102823  0.083680  1
  O  O40  1  0.918936  0.831800  0.704547  1
  O  O41  1  0.418937  0.668199  0.295454  1
  O  O42  1  0.252200  0.778390  0.700644  1
  O  O43  1  0.081064  0.331800  0.795453  1
  O  O44  1  0.140841  0.054739  0.705035  1
  O  O45  1  0.640841  0.445261  0.294965  1
  O  O46  1  0.859159  0.554739  0.794965  1
  O  O47  1  0.359159  0.945261  0.205035  1
  O  O48  1  0.467191  0.665690  0.140232  1
  O  O49  1  0.967192  0.834309  0.859768  1
  O  O50  1  0.532809  0.165690  0.359768  1
  O  O51  1  0.032808  0.334309  0.640232  1
  O  O52  1  0.787906  0.670468  0.086648  1
  O  O53  1  0.287906  0.829531  0.913353  1
  O  O54  1  0.212094  0.170468  0.413352  1
  O  O55  1  0.712094  0.329531  0.586647  1
  O  O56  1  0.505783  0.721581  0.006722  1
  O  O57  1  0.005783  0.778418  0.993278  1
  O  O58  1  0.494217  0.221581  0.493278  1
  O  O59  1  0.994217  0.278418  0.506722  1
  O  O60  1  0.578432  0.437832  0.056353  1
  O  O61  1  0.078431  0.062167  0.943647  1
  O  O62  1  0.421568  0.937832  0.443647  1
  O  O63  1  0.921569  0.562167  0.556353  1
  O  O64  1  0.588897  0.720714  0.873586  1
  O  O65  1  0.088897  0.779285  0.126415  1
  O  O66  1  0.411103  0.220714  0.626414  1
  O  O67  1  0.911103  0.279285  0.373585  1
  O  O68  1  0.337525  0.524190  0.918654  1
  O  O69  1  0.837526  0.975810  0.081346  1
  O  O70  1  0.662475  0.024190  0.581346  1
  O  O71  1  0.162474  0.475810  0.418654  1
  O  O72  1  0.247800  0.221609  0.200643  1
  O  O73  1  0.747800  0.278390  0.799356  1
  O  O74  1  0.752200  0.721609  0.299357  1
  O  O75  1  0.581063  0.168199  0.204546  1
