# generated using pymatgen
data_K3VSe16
_symmetry_space_group_name_H-M   'P 1'
_cell_length_a   11.89755200
_cell_length_b   11.89791299
_cell_length_c   11.89797200
_cell_angle_alpha   120.00170585
_cell_angle_beta   89.99986996
_cell_angle_gamma   119.99974900
_symmetry_Int_Tables_number   1
_chemical_formula_structural   K3VSe16
_chemical_formula_sum   'K6 V2 Se32'
_cell_volume   1190.90546272
_cell_formula_units_Z   2
loop_
 _symmetry_equiv_pos_site_id
 _symmetry_equiv_pos_as_xyz
  1  'x, y, z'
loop_
 _atom_site_type_symbol
 _atom_site_label
 _atom_site_symmetry_multiplicity
 _atom_site_fract_x
 _atom_site_fract_y
 _atom_site_fract_z
 _atom_site_occupancy
  K  K0  1  0.000051  0.000036  0.000021  1
  K  K1  1  0.499985  0.000039  0.000020  1
  K  K2  1  0.499983  0.499959  0.000013  1
  K  K3  1  0.125002  0.749999  0.374998  1
  K  K4  1  0.499981  0.499955  0.499943  1
  K  K5  1  0.874999  0.249999  0.625005  1
  V  V6  1  0.375048  0.250023  0.124992  1
  V  V7  1  0.624997  0.749999  0.875000  1
  Se  Se8  1  0.035379  0.726905  0.054225  1
  Se  Se9  1  0.191525  0.518842  0.054223  1
  Se  Se10  1  0.827316  0.362695  0.054229  1
  Se  Se11  1  0.703627  0.907247  0.110867  1
  Se  Se12  1  0.296350  0.092685  0.203643  1
  Se  Se13  1  0.296360  0.407311  0.203658  1
  Se  Se14  1  0.610877  0.407248  0.203624  1
  Se  Se15  1  0.827312  0.773085  0.308473  1
  Se  Se16  1  0.445776  0.981151  0.308473  1
  Se  Se17  1  0.035378  0.362697  0.308474  1
  Se  Se18  1  0.554224  0.862694  0.327315  1
  Se  Se19  1  0.964623  0.018847  0.327317  1
  Se  Se20  1  0.808473  0.273090  0.327315  1
  Se  Se21  1  0.191526  0.137302  0.464622  1
  Se  Se22  1  0.827315  0.518843  0.464618  1
  Se  Se23  1  0.445775  0.773093  0.464623  1
  Se  Se24  1  0.554225  0.226912  0.535381  1
  Se  Se25  1  0.172685  0.481154  0.535378  1
  Se  Se26  1  0.808476  0.862698  0.535381  1
  Se  Se27  1  0.191528  0.726908  0.672683  1
  Se  Se28  1  0.035379  0.981152  0.672683  1
  Se  Se29  1  0.445775  0.137299  0.672683  1
  Se  Se30  1  0.964620  0.637305  0.691532  1
  Se  Se31  1  0.554221  0.018843  0.691527  1
  Se  Se32  1  0.172685  0.226907  0.691528  1
  Se  Se33  1  0.389128  0.592754  0.796371  1
  Se  Se34  1  0.703610  0.592764  0.796384  1
  Se  Se35  1  0.703636  0.907281  0.796369  1
  Se  Se36  1  0.296366  0.092719  0.889078  1
  Se  Se37  1  0.172684  0.637303  0.945776  1
  Se  Se38  1  0.808473  0.481159  0.945778  1
  Se  Se39  1  0.964629  0.273094  0.945778  1
