# generated using pymatgen
data_LiYb2Ru3
_symmetry_space_group_name_H-M   'P 1'
_cell_length_a   5.18351811
_cell_length_b   5.18351857
_cell_length_c   9.11932500
_cell_angle_alpha   90.00000000
_cell_angle_beta   90.00000000
_cell_angle_gamma   119.96724674
_symmetry_Int_Tables_number   1
_chemical_formula_structural   LiYb2Ru3
_chemical_formula_sum   'Li2 Yb4 Ru6'
_cell_volume   212.26864384
_cell_formula_units_Z   2
loop_
 _symmetry_equiv_pos_site_id
 _symmetry_equiv_pos_as_xyz
  1  'x, y, z'
loop_
 _atom_site_type_symbol
 _atom_site_label
 _atom_site_symmetry_multiplicity
 _atom_site_fract_x
 _atom_site_fract_y
 _atom_site_fract_z
 _atom_site_occupancy
  Li  Li0  1  0.000000  0.000000  0.500000  1
  Li  Li1  1  0.000000  0.000000  0.000000  1
  Yb  Yb2  1  0.666682  0.333318  0.571634  1
  Yb  Yb3  1  0.333318  0.666682  0.428366  1
  Yb  Yb4  1  0.333318  0.666682  0.071634  1
  Yb  Yb5  1  0.666682  0.333318  0.928366  1
  Ru  Ru6  1  0.167673  0.335353  0.750000  1
  Ru  Ru7  1  0.167700  0.832300  0.750000  1
  Ru  Ru8  1  0.664647  0.832327  0.750000  1
  Ru  Ru9  1  0.832327  0.664647  0.250000  1
  Ru  Ru10  1  0.832300  0.167700  0.250000  1
  Ru  Ru11  1  0.335353  0.167673  0.250000  1
