# generated using pymatgen
data_K6Li4TaTlAs6
_symmetry_space_group_name_H-M   'P 1'
_cell_length_a   10.27689655
_cell_length_b   10.27689715
_cell_length_c   15.49698100
_cell_angle_alpha   90.00000000
_cell_angle_beta   90.00000000
_cell_angle_gamma   143.37603601
_symmetry_Int_Tables_number   1
_chemical_formula_structural   K6Li4TaTlAs6
_chemical_formula_sum   'K12 Li8 Ta2 Tl2 As12'
_cell_volume   976.39526324
_cell_formula_units_Z   2
loop_
 _symmetry_equiv_pos_site_id
 _symmetry_equiv_pos_as_xyz
  1  'x, y, z'
loop_
 _atom_site_type_symbol
 _atom_site_label
 _atom_site_symmetry_multiplicity
 _atom_site_fract_x
 _atom_site_fract_y
 _atom_site_fract_z
 _atom_site_occupancy
  K  K0  1  0.605622  0.950088  0.828291  1
  K  K1  1  0.273059  0.281075  0.323636  1
  K  K2  1  0.226941  0.218925  0.823636  1
  K  K3  1  0.718925  0.726941  0.676364  1
  K  K4  1  0.450088  0.105622  0.671709  1
  K  K5  1  0.894378  0.549912  0.328291  1
  K  K6  1  0.049912  0.394378  0.171709  1
  K  K7  1  0.406651  0.068866  0.171493  1
  K  K8  1  0.568866  0.906651  0.328507  1
  K  K9  1  0.093349  0.431134  0.671493  1
  K  K10  1  0.931134  0.593349  0.828507  1
  K  K11  1  0.781075  0.773059  0.176364  1
  Li  Li12  1  0.086905  0.913095  0.000000  1
  Li  Li13  1  0.583926  0.416074  0.500000  1
  Li  Li14  1  0.916074  0.083926  0.000000  1
  Li  Li15  1  0.749302  0.250698  0.000000  1
  Li  Li16  1  0.750698  0.249302  0.500000  1
  Li  Li17  1  0.248570  0.751430  0.000000  1
  Li  Li18  1  0.251430  0.748570  0.500000  1
  Li  Li19  1  0.413095  0.586905  0.500000  1
  Ta  Ta20  1  0.084822  0.915178  0.500000  1
  Ta  Ta21  1  0.415178  0.584822  0.000000  1
  Tl  Tl22  1  0.909992  0.090008  0.500000  1
  Tl  Tl23  1  0.590008  0.409992  0.000000  1
  As  As24  1  0.084161  0.417402  0.397120  1
  As  As25  1  0.917402  0.584161  0.102880  1
  As  As26  1  0.415839  0.082598  0.897120  1
  As  As27  1  0.582598  0.915839  0.602880  1
  As  As28  1  0.935549  0.616045  0.590404  1
  As  As29  1  0.116045  0.435549  0.909596  1
  As  As30  1  0.564451  0.883955  0.090404  1
  As  As31  1  0.383955  0.064451  0.409596  1
  As  As32  1  0.239987  0.220360  0.594126  1
  As  As33  1  0.720360  0.739987  0.905874  1
  As  As34  1  0.260013  0.279640  0.094126  1
  As  As35  1  0.779640  0.760013  0.405874  1
