# generated using pymatgen
data_Dy2Er3Ga6P6Ir19
_symmetry_space_group_name_H-M   'P 1'
_cell_length_a   12.95472905
_cell_length_b   12.95773724
_cell_length_c   3.97705000
_cell_angle_alpha   90.00000000
_cell_angle_beta   90.00000000
_cell_angle_gamma   120.00219088
_symmetry_Int_Tables_number   1
_chemical_formula_structural   Dy2Er3Ga6P6Ir19
_chemical_formula_sum   'Dy2 Er3 Ga6 P6 Ir19'
_cell_volume   578.14875849
_cell_formula_units_Z   1
loop_
 _symmetry_equiv_pos_site_id
 _symmetry_equiv_pos_as_xyz
  1  'x, y, z'
loop_
 _atom_site_type_symbol
 _atom_site_label
 _atom_site_symmetry_multiplicity
 _atom_site_fract_x
 _atom_site_fract_y
 _atom_site_fract_z
 _atom_site_occupancy
  Dy  Dy0  1  0.666661  0.333324  0.000000  1
  Dy  Dy1  1  0.816605  0.812283  0.500000  1
  Er  Er2  1  0.333329  0.666663  0.000000  1
  Er  Er3  1  0.187920  0.004561  0.500000  1
  Er  Er4  1  0.995472  0.183367  0.500000  1
  Ga  Ga5  1  0.677097  0.158547  0.500000  1
  Ga  Ga6  1  0.841503  0.518575  0.500000  1
  Ga  Ga7  1  0.481367  0.322859  0.500000  1
  Ga  Ga8  1  0.635329  0.636999  0.000000  1
  Ga  Ga9  1  0.362738  0.998293  0.000000  1
  Ga  Ga10  1  0.001699  0.364443  0.000000  1
  P  P11  1  0.180291  0.697334  0.500000  1
  P  P12  1  0.517069  0.819712  0.500000  1
  P  P13  1  0.302634  0.482907  0.500000  1
  P  P14  1  0.175439  0.181212  0.000000  1
  P  P15  1  0.818853  0.994419  0.000000  1
  P  P16  1  0.005891  0.824599  0.000000  1
  Ir  Ir17  1  0.809315  0.169136  0.000000  1
  Ir  Ir18  1  0.830882  0.639699  0.000000  1
  Ir  Ir19  1  0.359805  0.190707  0.000000  1
  Ir  Ir20  1  0.182301  0.793844  0.000000  1
  Ir  Ir21  1  0.611443  0.817790  0.000000  1
  Ir  Ir22  1  0.206180  0.388442  0.000000  1
  Ir  Ir23  1  0.446383  0.440451  0.000000  1
  Ir  Ir24  1  0.559463  0.005895  0.000000  1
  Ir  Ir25  1  0.994109  0.553548  0.000000  1
  Ir  Ir26  1  0.267765  0.280633  0.500000  1
  Ir  Ir27  1  0.719221  0.987403  0.500000  1
  Ir  Ir28  1  0.012978  0.732165  0.500000  1
  Ir  Ir29  1  0.873109  0.348664  0.500000  1
  Ir  Ir30  1  0.651256  0.524293  0.500000  1
  Ir  Ir31  1  0.475518  0.126893  0.500000  1
  Ir  Ir32  1  0.371451  0.868683  0.500000  1
  Ir  Ir33  1  0.497219  0.628528  0.500000  1
  Ir  Ir34  1  0.131312  0.502759  0.500000  1
  Ir  Ir35  1  0.000391  0.000372  0.000000  1
