# generated using pymatgen
data_Hf4CrSi3N
_symmetry_space_group_name_H-M   'P 1'
_cell_length_a   7.67237400
_cell_length_b   7.67237418
_cell_length_c   5.36369000
_cell_angle_alpha   90.00000000
_cell_angle_beta   90.00000000
_cell_angle_gamma   119.99999922
_symmetry_Int_Tables_number   1
_chemical_formula_structural   Hf4CrSi3N
_chemical_formula_sum   'Hf8 Cr2 Si6 N2'
_cell_volume   273.43483669
_cell_formula_units_Z   2
loop_
 _symmetry_equiv_pos_site_id
 _symmetry_equiv_pos_as_xyz
  1  'x, y, z'
loop_
 _atom_site_type_symbol
 _atom_site_label
 _atom_site_symmetry_multiplicity
 _atom_site_fract_x
 _atom_site_fract_y
 _atom_site_fract_z
 _atom_site_occupancy
  Hf  Hf0  1  0.235952  0.000000  0.248948  1
  Hf  Hf1  1  0.764048  0.000000  0.751052  1
  Hf  Hf2  1  0.000000  0.235952  0.248948  1
  Hf  Hf3  1  0.000000  0.764048  0.751052  1
  Hf  Hf4  1  0.764048  0.764048  0.248948  1
  Hf  Hf5  1  0.235952  0.235952  0.751052  1
  Hf  Hf6  1  0.666667  0.333333  0.500000  1
  Hf  Hf7  1  0.333333  0.666667  0.500000  1
  Cr  Cr8  1  0.333333  0.666667  0.000000  1
  Cr  Cr9  1  0.666667  0.333333  0.000000  1
  Si  Si10  1  0.588510  0.000000  0.218325  1
  Si  Si11  1  0.411490  0.000000  0.781675  1
  Si  Si12  1  0.000000  0.588510  0.218325  1
  Si  Si13  1  0.000000  0.411490  0.781675  1
  Si  Si14  1  0.411490  0.411490  0.218325  1
  Si  Si15  1  0.588510  0.588510  0.781675  1
  N  N16  1  0.000000  0.000000  0.000000  1
  N  N17  1  0.000000  0.000000  0.500000  1
