# generated using pymatgen
data_Sc6Al24Os3Pd5
_symmetry_space_group_name_H-M   'P 1'
_cell_length_a   8.76205700
_cell_length_b   8.79926611
_cell_length_c   9.41899500
_cell_angle_alpha   89.83246074
_cell_angle_beta   90.00000000
_cell_angle_gamma   119.86021159
_symmetry_Int_Tables_number   1
_chemical_formula_structural   Sc6Al24Os3Pd5
_chemical_formula_sum   'Sc6 Al24 Os3 Pd5'
_cell_volume   629.78930472
_cell_formula_units_Z   1
loop_
 _symmetry_equiv_pos_site_id
 _symmetry_equiv_pos_as_xyz
  1  'x, y, z'
loop_
 _atom_site_type_symbol
 _atom_site_label
 _atom_site_symmetry_multiplicity
 _atom_site_fract_x
 _atom_site_fract_y
 _atom_site_fract_z
 _atom_site_occupancy
  Sc  Sc0  1  0.190351  0.380702  0.253341  1
  Sc  Sc1  1  0.809649  0.619298  0.746659  1
  Sc  Sc2  1  0.617416  0.813008  0.250786  1
  Sc  Sc3  1  0.382584  0.186992  0.749214  1
  Sc  Sc4  1  0.195591  0.813008  0.250786  1
  Sc  Sc5  1  0.804409  0.186992  0.749214  1
  Al  Al6  1  0.332927  0.665854  0.045777  1
  Al  Al7  1  0.667073  0.334146  0.954223  1
  Al  Al8  1  0.664540  0.329080  0.542899  1
  Al  Al9  1  0.335460  0.670920  0.457101  1
  Al  Al10  1  0.162056  0.324110  0.579403  1
  Al  Al11  1  0.837944  0.675890  0.420597  1
  Al  Al12  1  0.673191  0.841542  0.577395  1
  Al  Al13  1  0.838014  0.676030  0.079869  1
  Al  Al14  1  0.326809  0.158458  0.422605  1
  Al  Al15  1  0.161986  0.323970  0.920131  1
  Al  Al16  1  0.168351  0.841542  0.577395  1
  Al  Al17  1  0.324863  0.163247  0.081377  1
  Al  Al18  1  0.831649  0.158458  0.422605  1
  Al  Al19  1  0.675137  0.836753  0.918623  1
  Al  Al20  1  0.838384  0.163247  0.081377  1
  Al  Al21  1  0.161616  0.836753  0.918623  1
  Al  Al22  1  0.560971  0.121943  0.251585  1
  Al  Al23  1  0.439029  0.878057  0.748415  1
  Al  Al24  1  0.879652  0.440583  0.250314  1
  Al  Al25  1  0.120348  0.559417  0.749686  1
  Al  Al26  1  0.560931  0.440583  0.250314  1
  Al  Al27  1  0.439069  0.559417  0.749686  1
  Al  Al28  1  0.000126  0.000252  0.250216  1
  Al  Al29  1  0.999874  0.999748  0.749784  1
  Os  Os30  1  0.500000  0.000000  0.500000  1
  Os  Os31  1  0.000000  0.000000  0.000000  1
  Os  Os32  1  0.000000  0.000000  0.500000  1
  Pd  Pd33  1  0.500000  0.000000  0.000000  1
  Pd  Pd34  1  0.000000  0.500000  0.000000  1
  Pd  Pd35  1  0.500000  0.500000  0.000000  1
  Pd  Pd36  1  0.000000  0.500000  0.500000  1
  Pd  Pd37  1  0.500000  0.500000  0.500000  1
