# generated using pymatgen
data_MgFeAg2F7
_symmetry_space_group_name_H-M   'P 1'
_cell_length_a   7.52256603
_cell_length_b   7.52256742
_cell_length_c   7.52256654
_cell_angle_alpha   121.02374250
_cell_angle_beta   117.20573729
_cell_angle_gamma   91.57123668
_symmetry_Int_Tables_number   1
_chemical_formula_structural   MgFeAg2F7
_chemical_formula_sum   'Mg2 Fe2 Ag4 F14'
_cell_volume   304.50589590
_cell_formula_units_Z   2
loop_
 _symmetry_equiv_pos_site_id
 _symmetry_equiv_pos_as_xyz
  1  'x, y, z'
loop_
 _atom_site_type_symbol
 _atom_site_label
 _atom_site_symmetry_multiplicity
 _atom_site_fract_x
 _atom_site_fract_y
 _atom_site_fract_z
 _atom_site_occupancy
  Mg  Mg0  1  0.000000  0.000000  0.500000  1
  Mg  Mg1  1  0.000000  0.500000  0.000000  1
  Fe  Fe2  1  0.500000  0.000000  0.500000  1
  Fe  Fe3  1  0.000000  0.500000  0.500000  1
  Ag  Ag4  1  0.000000  0.000000  0.000000  1
  Ag  Ag5  1  0.500000  0.500000  0.000000  1
  Ag  Ag6  1  0.500000  0.000000  0.000000  1
  Ag  Ag7  1  0.500000  0.500000  0.500000  1
  F  F8  1  0.370152  0.091915  0.278237  1
  F  F9  1  0.686321  0.408085  0.278237  1
  F  F10  1  0.689007  0.306266  0.763415  1
  F  F11  1  0.957148  0.193734  0.382741  1
  F  F12  1  0.957148  0.574407  0.763415  1
  F  F13  1  0.689007  0.925593  0.382741  1
  F  F14  1  0.310993  0.074407  0.617259  1
  F  F15  1  0.042852  0.425593  0.236585  1
  F  F16  1  0.042852  0.806266  0.617259  1
  F  F17  1  0.310993  0.693734  0.236585  1
  F  F18  1  0.912381  0.750000  0.162381  1
  F  F19  1  0.629848  0.908085  0.721763  1
  F  F20  1  0.313679  0.591915  0.721763  1
  F  F21  1  0.087619  0.250000  0.837619  1
