# generated using pymatgen
data_Ho3Er7Tl3In5Pd4
_symmetry_space_group_name_H-M   'P 1'
_cell_length_a   3.60917000
_cell_length_b   8.14945793
_cell_length_c   18.20675447
_cell_angle_alpha   89.99036003
_cell_angle_beta   90.00000000
_cell_angle_gamma   90.00000000
_symmetry_Int_Tables_number   1
_chemical_formula_structural   Ho3Er7Tl3In5Pd4
_chemical_formula_sum   'Ho3 Er7 Tl3 In5 Pd4'
_cell_volume   535.51123953
_cell_formula_units_Z   1
loop_
 _symmetry_equiv_pos_site_id
 _symmetry_equiv_pos_as_xyz
  1  'x, y, z'
loop_
 _atom_site_type_symbol
 _atom_site_label
 _atom_site_symmetry_multiplicity
 _atom_site_fract_x
 _atom_site_fract_y
 _atom_site_fract_z
 _atom_site_occupancy
  Ho  Ho0  1  0.000000  0.497972  0.500199  1
  Ho  Ho1  1  0.000000  0.000169  0.999902  1
  Ho  Ho2  1  0.000000  0.742271  0.282460  1
  Er  Er3  1  0.000000  0.258161  0.717797  1
  Er  Er4  1  0.000000  0.758360  0.781278  1
  Er  Er5  1  0.000000  0.241184  0.217935  1
  Er  Er6  1  0.000000  0.617221  0.085460  1
  Er  Er7  1  0.000000  0.383459  0.914303  1
  Er  Er8  1  0.000000  0.882574  0.585459  1
  Er  Er9  1  0.000000  0.117759  0.415812  1
  Tl  Tl10  1  0.500000  0.708235  0.933984  1
  Tl  Tl11  1  0.500000  0.292789  0.065443  1
  Tl  Tl12  1  0.500000  0.792858  0.434781  1
  In  In13  1  0.500000  0.206484  0.566885  1
  In  In14  1  0.500000  0.579439  0.650165  1
  In  In15  1  0.500000  0.415948  0.349095  1
  In  In16  1  0.500000  0.916428  0.150740  1
  In  In17  1  0.500000  0.083220  0.849238  1
  Pd  Pd18  1  0.500000  0.529046  0.197641  1
  Pd  Pd19  1  0.500000  0.471280  0.802156  1
  Pd  Pd20  1  0.500000  0.973867  0.696762  1
  Pd  Pd21  1  0.500000  0.031277  0.302506  1
