# generated using pymatgen
data_Dy2Y9(Lu3Bi4)3
_symmetry_space_group_name_H-M   'P 1'
_cell_length_a   8.18743709
_cell_length_b   9.44042407
_cell_length_c   11.99574707
_cell_angle_alpha   90.00589461
_cell_angle_beta   90.09683021
_cell_angle_gamma   89.99460505
_symmetry_Int_Tables_number   1
_chemical_formula_structural   Dy2Y9(Lu3Bi4)3
_chemical_formula_sum   'Dy2 Y9 Lu9 Bi12'
_cell_volume   927.18448373
_cell_formula_units_Z   1
loop_
 _symmetry_equiv_pos_site_id
 _symmetry_equiv_pos_as_xyz
  1  'x, y, z'
loop_
 _atom_site_type_symbol
 _atom_site_label
 _atom_site_symmetry_multiplicity
 _atom_site_fract_x
 _atom_site_fract_y
 _atom_site_fract_z
 _atom_site_occupancy
  Dy  Dy0  1  0.185255  0.749448  0.719018  1
  Dy  Dy1  1  0.685522  0.749570  0.781803  1
  Y  Y2  1  0.814601  0.249497  0.281265  1
  Y  Y3  1  0.314122  0.249810  0.218889  1
  Y  Y4  1  0.192697  0.939263  0.439870  1
  Y  Y5  1  0.309376  0.061546  0.941623  1
  Y  Y6  1  0.806902  0.439225  0.559962  1
  Y  Y7  1  0.354680  0.749448  0.215352  1
  Y  Y8  1  0.851749  0.748346  0.282761  1
  Y  Y9  1  0.645959  0.249177  0.784234  1
  Y  Y10  1  0.146931  0.249030  0.716439  1
  Lu  Lu11  1  0.022147  0.749476  0.989604  1
  Lu  Lu12  1  0.523311  0.749954  0.510365  1
  Lu  Lu13  1  0.976708  0.249155  0.010317  1
  Lu  Lu14  1  0.476902  0.249716  0.489418  1
  Lu  Lu15  1  0.308093  0.430974  0.941279  1
  Lu  Lu16  1  0.808649  0.069284  0.559213  1
  Lu  Lu17  1  0.690921  0.931638  0.058297  1
  Lu  Lu18  1  0.191546  0.569243  0.440792  1
  Lu  Lu19  1  0.692993  0.565472  0.059211  1
  Bi  Bi20  1  0.434420  0.003170  0.671805  1
  Bi  Bi21  1  0.934495  0.495533  0.828615  1
  Bi  Bi22  1  0.565806  0.503279  0.328043  1
  Bi  Bi23  1  0.065599  0.995442  0.171527  1
  Bi  Bi24  1  0.567208  0.995830  0.328406  1
  Bi  Bi25  1  0.066227  0.503427  0.170848  1
  Bi  Bi26  1  0.433041  0.495743  0.671439  1
  Bi  Bi27  1  0.932969  0.003353  0.828841  1
  Bi  Bi28  1  0.404207  0.744016  0.957341  1
  Bi  Bi29  1  0.904645  0.755528  0.542007  1
  Bi  Bi30  1  0.597051  0.249823  0.043688  1
  Bi  Bi31  1  0.095265  0.255587  0.457727  1
