# generated using pymatgen
data_Tb2Co6CuB3
_symmetry_space_group_name_H-M   'P 1'
_cell_length_a   5.05199700
_cell_length_b   5.04729209
_cell_length_c   12.79591500
_cell_angle_alpha   89.99982822
_cell_angle_beta   90.00034324
_cell_angle_gamma   120.03082092
_symmetry_Int_Tables_number   1
_chemical_formula_structural   Tb2Co6CuB3
_chemical_formula_sum   'Tb4 Co12 Cu2 B6'
_cell_volume   282.48054136
_cell_formula_units_Z   2
loop_
 _symmetry_equiv_pos_site_id
 _symmetry_equiv_pos_as_xyz
  1  'x, y, z'
loop_
 _atom_site_type_symbol
 _atom_site_label
 _atom_site_symmetry_multiplicity
 _atom_site_fract_x
 _atom_site_fract_y
 _atom_site_fract_z
 _atom_site_occupancy
  Tb  Tb0  1  0.999988  0.000000  0.000050  1
  Tb  Tb1  1  0.999992  0.000000  0.499942  1
  Tb  Tb2  1  0.999986  0.000000  0.261413  1
  Tb  Tb3  1  0.000000  0.000000  0.738592  1
  Co  Co4  1  0.499985  0.000000  0.159636  1
  Co  Co5  1  0.499985  0.500000  0.159650  1
  Co  Co6  1  0.999985  0.500000  0.159650  1
  Co  Co7  1  0.500000  0.000000  0.840411  1
  Co  Co8  1  0.499999  0.500001  0.840384  1
  Co  Co9  1  0.999998  0.499999  0.840384  1
  Co  Co10  1  0.499988  0.000000  0.385476  1
  Co  Co11  1  0.499989  0.500000  0.385502  1
  Co  Co12  1  0.999988  0.500000  0.385502  1
  Co  Co13  1  0.499996  0.000000  0.614492  1
  Co  Co14  1  0.499996  0.500000  0.614465  1
  Co  Co15  1  0.999996  0.500000  0.614465  1
  Cu  Cu16  1  0.333362  0.666747  0.000013  1
  Cu  Cu17  1  0.666615  0.333253  0.000013  1
  B  B18  1  0.333405  0.666828  0.499961  1
  B  B19  1  0.666578  0.333172  0.499961  1
  B  B20  1  0.333369  0.666766  0.268943  1
  B  B21  1  0.666603  0.333234  0.268943  1
  B  B22  1  0.666581  0.333167  0.731074  1
  B  B23  1  0.333414  0.666833  0.731074  1
