# generated using pymatgen
data_LaSmDy4(SbO7)2
_symmetry_space_group_name_H-M   'P 1'
_cell_length_a   6.53086363
_cell_length_b   6.53086330
_cell_length_c   7.62669205
_cell_angle_alpha   89.98971747
_cell_angle_beta   90.01028092
_cell_angle_gamma   109.11320235
_symmetry_Int_Tables_number   1
_chemical_formula_structural   LaSmDy4(SbO7)2
_chemical_formula_sum   'La1 Sm1 Dy4 Sb2 O14'
_cell_volume   307.36263603
_cell_formula_units_Z   1
loop_
 _symmetry_equiv_pos_site_id
 _symmetry_equiv_pos_as_xyz
  1  'x, y, z'
loop_
 _atom_site_type_symbol
 _atom_site_label
 _atom_site_symmetry_multiplicity
 _atom_site_fract_x
 _atom_site_fract_y
 _atom_site_fract_z
 _atom_site_occupancy
  La  La0  1  0.500000  0.500000  0.500000  1
  Sm  Sm1  1  0.500000  0.500000  0.000000  1
  Dy  Dy2  1  0.531047  0.000918  0.751640  1
  Dy  Dy3  1  0.000918  0.531047  0.248360  1
  Dy  Dy4  1  0.468953  0.999082  0.248360  1
  Dy  Dy5  1  0.999082  0.468953  0.751640  1
  Sb  Sb6  1  0.000000  0.000000  0.500000  1
  Sb  Sb7  1  0.000000  0.000000  0.000000  1
  O  O8  1  0.680361  0.934357  0.470456  1
  O  O9  1  0.934357  0.680361  0.529544  1
  O  O10  1  0.679753  0.929947  0.029126  1
  O  O11  1  0.929947  0.679753  0.970874  1
  O  O12  1  0.319639  0.065643  0.529544  1
  O  O13  1  0.065643  0.319639  0.470456  1
  O  O14  1  0.320247  0.070053  0.970874  1
  O  O15  1  0.070053  0.320247  0.029126  1
  O  O16  1  0.931577  0.068423  0.749838  1
  O  O17  1  0.068423  0.931577  0.250162  1
  O  O18  1  0.364103  0.635897  0.755718  1
  O  O19  1  0.635897  0.364103  0.244282  1
  O  O20  1  0.641958  0.358042  0.754691  1
  O  O21  1  0.358042  0.641958  0.245309  1
