# generated using pymatgen
data_Tb3Zr7Pb6
_symmetry_space_group_name_H-M   'P 1'
_cell_length_a   8.83835900
_cell_length_b   8.83918076
_cell_length_c   6.00463700
_cell_angle_alpha   90.00000000
_cell_angle_beta   90.00000000
_cell_angle_gamma   119.99692845
_symmetry_Int_Tables_number   1
_chemical_formula_structural   Tb3Zr7Pb6
_chemical_formula_sum   'Tb3 Zr7 Pb6'
_cell_volume   406.26974700
_cell_formula_units_Z   1
loop_
 _symmetry_equiv_pos_site_id
 _symmetry_equiv_pos_as_xyz
  1  'x, y, z'
loop_
 _atom_site_type_symbol
 _atom_site_label
 _atom_site_symmetry_multiplicity
 _atom_site_fract_x
 _atom_site_fract_y
 _atom_site_fract_z
 _atom_site_occupancy
  Tb  Tb0  1  0.761044  0.758775  0.250000  1
  Tb  Tb1  1  0.002269  0.241225  0.250000  1
  Tb  Tb2  1  0.760940  0.000000  0.750000  1
  Zr  Zr3  1  0.331156  0.666675  0.501222  1
  Zr  Zr4  1  0.243517  0.000000  0.250000  1
  Zr  Zr5  1  0.664482  0.333325  0.501222  1
  Zr  Zr6  1  0.002935  0.756219  0.750000  1
  Zr  Zr7  1  0.331156  0.666675  0.998778  1
  Zr  Zr8  1  0.246716  0.243781  0.750000  1
  Zr  Zr9  1  0.664482  0.333325  0.998778  1
  Pb  Pb10  1  0.606437  0.604264  0.750000  1
  Pb  Pb11  1  0.387238  0.000000  0.750000  1
  Pb  Pb12  1  0.599016  0.000000  0.250000  1
  Pb  Pb13  1  0.002173  0.395736  0.750000  1
  Pb  Pb14  1  0.393877  0.391315  0.250000  1
  Pb  Pb15  1  0.002561  0.608685  0.250000  1
