# generated using pymatgen
data_Yb2Lu2Mn3FeB16
_symmetry_space_group_name_H-M   'P 1'
_cell_length_a   3.34387300
_cell_length_b   5.88276628
_cell_length_c   11.37579000
_cell_angle_alpha   89.93196569
_cell_angle_beta   90.00000000
_cell_angle_gamma   90.00000000
_symmetry_Int_Tables_number   1
_chemical_formula_structural   Yb2Lu2Mn3FeB16
_chemical_formula_sum   'Yb2 Lu2 Mn3 Fe1 B16'
_cell_volume   223.77554786
_cell_formula_units_Z   1
loop_
 _symmetry_equiv_pos_site_id
 _symmetry_equiv_pos_as_xyz
  1  'x, y, z'
loop_
 _atom_site_type_symbol
 _atom_site_label
 _atom_site_symmetry_multiplicity
 _atom_site_fract_x
 _atom_site_fract_y
 _atom_site_fract_z
 _atom_site_occupancy
  Yb  Yb0  1  0.000000  0.626345  0.349850  1
  Yb  Yb1  1  0.000000  0.374347  0.650405  1
  Lu  Lu2  1  0.000000  0.126885  0.150603  1
  Lu  Lu3  1  0.000000  0.873396  0.848910  1
  Mn  Mn4  1  0.000000  0.625539  0.082410  1
  Mn  Mn5  1  0.000000  0.373703  0.916010  1
  Mn  Mn6  1  0.000000  0.128159  0.415425  1
  Fe  Fe7  1  0.000000  0.872981  0.585448  1
  B  B8  1  0.500000  0.781841  0.183333  1
  B  B9  1  0.500000  0.217768  0.816127  1
  B  B10  1  0.500000  0.282396  0.315335  1
  B  B11  1  0.500000  0.719436  0.683566  1
  B  B12  1  0.500000  0.863140  0.031819  1
  B  B13  1  0.500000  0.137082  0.967992  1
  B  B14  1  0.500000  0.362345  0.468179  1
  B  B15  1  0.500000  0.638034  0.533095  1
  B  B16  1  0.500000  0.885425  0.454642  1
  B  B17  1  0.500000  0.111093  0.547636  1
  B  B18  1  0.500000  0.387232  0.046804  1
  B  B19  1  0.500000  0.613658  0.953001  1
  B  B20  1  0.500000  0.974955  0.308143  1
  B  B21  1  0.500000  0.023233  0.691847  1
  B  B22  1  0.500000  0.475068  0.190983  1
  B  B23  1  0.500000  0.525941  0.808439  1
