# generated using pymatgen
data_NaErHf3Ni9As7
_symmetry_space_group_name_H-M   'P 1'
_cell_length_a   9.75280500
_cell_length_b   9.75280448
_cell_length_c   3.83700100
_cell_angle_alpha   90.00000000
_cell_angle_beta   90.00000000
_cell_angle_gamma   120.00001103
_symmetry_Int_Tables_number   1
_chemical_formula_structural   NaErHf3Ni9As7
_chemical_formula_sum   'Na1 Er1 Hf3 Ni9 As7'
_cell_volume   316.06874683
_cell_formula_units_Z   1
loop_
 _symmetry_equiv_pos_site_id
 _symmetry_equiv_pos_as_xyz
  1  'x, y, z'
loop_
 _atom_site_type_symbol
 _atom_site_label
 _atom_site_symmetry_multiplicity
 _atom_site_fract_x
 _atom_site_fract_y
 _atom_site_fract_z
 _atom_site_occupancy
  Na  Na0  1  0.666667  0.333333  0.500000  1
  Er  Er1  1  0.333333  0.666667  0.000000  1
  Hf  Hf2  1  0.231451  0.120012  0.500000  1
  Hf  Hf3  1  0.879988  0.111440  0.500000  1
  Hf  Hf4  1  0.888560  0.768549  0.500000  1
  Ni  Ni5  1  0.126433  0.284085  0.000000  1
  Ni  Ni6  1  0.715915  0.842348  0.000000  1
  Ni  Ni7  1  0.157652  0.873567  0.000000  1
  Ni  Ni8  1  0.419588  0.358334  0.000000  1
  Ni  Ni9  1  0.641666  0.061254  0.000000  1
  Ni  Ni10  1  0.938746  0.580412  0.000000  1
  Ni  Ni11  1  0.060686  0.436413  0.500000  1
  Ni  Ni12  1  0.563587  0.624273  0.500000  1
  Ni  Ni13  1  0.375727  0.939314  0.500000  1
  As  As14  1  0.296678  0.418984  0.500000  1
  As  As15  1  0.581016  0.877693  0.500000  1
  As  As16  1  0.122307  0.703322  0.500000  1
  As  As17  1  0.426943  0.109048  0.000000  1
  As  As18  1  0.890952  0.317895  0.000000  1
  As  As19  1  0.682105  0.573057  0.000000  1
  As  As20  1  0.000000  0.000000  0.000000  1
