# generated using pymatgen
data_Hf7Pa3(CoSn3)2
_symmetry_space_group_name_H-M   'P 1'
_cell_length_a   5.92973500
_cell_length_b   8.92369754
_cell_length_c   8.84774010
_cell_angle_alpha   122.37963421
_cell_angle_beta   90.00000000
_cell_angle_gamma   90.00000000
_symmetry_Int_Tables_number   1
_chemical_formula_structural   Hf7Pa3(CoSn3)2
_chemical_formula_sum   'Hf7 Pa3 Co2 Sn6'
_cell_volume   395.38625284
_cell_formula_units_Z   1
loop_
 _symmetry_equiv_pos_site_id
 _symmetry_equiv_pos_as_xyz
  1  'x, y, z'
loop_
 _atom_site_type_symbol
 _atom_site_label
 _atom_site_symmetry_multiplicity
 _atom_site_fract_x
 _atom_site_fract_y
 _atom_site_fract_z
 _atom_site_occupancy
  Hf  Hf0  1  0.250000  0.013000  0.741748  1
  Hf  Hf1  1  0.750000  0.241345  0.002173  1
  Hf  Hf2  1  0.250000  0.736803  0.010831  1
  Hf  Hf3  1  0.000628  0.668612  0.340908  1
  Hf  Hf4  1  0.001167  0.336836  0.658696  1
  Hf  Hf5  1  0.498833  0.336836  0.658696  1
  Hf  Hf6  1  0.499372  0.668612  0.340908  1
  Pa  Pa7  1  0.750000  0.777288  0.777797  1
  Pa  Pa8  1  0.250000  0.231429  0.231578  1
  Pa  Pa9  1  0.750000  0.002067  0.239193  1
  Co  Co10  1  0.034627  0.987153  0.990451  1
  Co  Co11  1  0.465373  0.987153  0.990451  1
  Sn  Sn12  1  0.750000  0.407169  0.397794  1
  Sn  Sn13  1  0.250000  0.617295  0.615668  1
  Sn  Sn14  1  0.750000  0.010383  0.606905  1
  Sn  Sn15  1  0.250000  0.993718  0.398253  1
  Sn  Sn16  1  0.750000  0.587276  0.002794  1
  Sn  Sn17  1  0.250000  0.397026  0.995156  1
