# generated using pymatgen
data_Zr10Si2Ge3AsN2
_symmetry_space_group_name_H-M   'P 1'
_cell_length_a   7.98988600
_cell_length_b   7.99307230
_cell_length_c   5.65964800
_cell_angle_alpha   90.00000000
_cell_angle_beta   90.00000000
_cell_angle_gamma   120.06694359
_symmetry_Int_Tables_number   1
_chemical_formula_structural   Zr10Si2Ge3AsN2
_chemical_formula_sum   'Zr10 Si2 Ge3 As1 N2'
_cell_volume   312.81028264
_cell_formula_units_Z   1
loop_
 _symmetry_equiv_pos_site_id
 _symmetry_equiv_pos_as_xyz
  1  'x, y, z'
loop_
 _atom_site_type_symbol
 _atom_site_label
 _atom_site_symmetry_multiplicity
 _atom_site_fract_x
 _atom_site_fract_y
 _atom_site_fract_z
 _atom_site_occupancy
  Zr  Zr0  1  0.232276  0.001920  0.750000  1
  Zr  Zr1  1  0.767608  0.998128  0.250000  1
  Zr  Zr2  1  0.002513  0.234174  0.750000  1
  Zr  Zr3  1  0.998190  0.766643  0.250000  1
  Zr  Zr4  1  0.763507  0.762874  0.750000  1
  Zr  Zr5  1  0.236501  0.236303  0.250000  1
  Zr  Zr6  1  0.336257  0.665330  0.499703  1
  Zr  Zr7  1  0.664525  0.334714  0.499636  1
  Zr  Zr8  1  0.664525  0.334714  0.000364  1
  Zr  Zr9  1  0.336257  0.665330  0.000297  1
  Si  Si10  1  0.405063  0.404989  0.750000  1
  Si  Si11  1  0.595346  0.594721  0.250000  1
  Ge  Ge12  1  0.402020  0.998907  0.250000  1
  Ge  Ge13  1  0.001151  0.595881  0.750000  1
  Ge  Ge14  1  0.999606  0.404459  0.250000  1
  As  As15  1  0.596531  0.000929  0.750000  1
  N  N16  1  0.999062  0.999993  0.500329  1
  N  N17  1  0.999062  0.999993  0.999671  1
