# generated using pymatgen
data_SrPrUS5
_symmetry_space_group_name_H-M   'P 1'
_cell_length_a   7.55715100
_cell_length_b   8.15276400
_cell_length_c   11.93006000
_cell_angle_alpha   90.00000000
_cell_angle_beta   90.00000000
_cell_angle_gamma   90.00000000
_symmetry_Int_Tables_number   1
_chemical_formula_structural   SrPrUS5
_chemical_formula_sum   'Sr4 Pr4 U4 S20'
_cell_volume   735.03090328
_cell_formula_units_Z   4
loop_
 _symmetry_equiv_pos_site_id
 _symmetry_equiv_pos_as_xyz
  1  'x, y, z'
loop_
 _atom_site_type_symbol
 _atom_site_label
 _atom_site_symmetry_multiplicity
 _atom_site_fract_x
 _atom_site_fract_y
 _atom_site_fract_z
 _atom_site_occupancy
  Sr  Sr0  1  0.459499  0.504221  0.324025  1
  Sr  Sr1  1  0.959499  0.495779  0.175975  1
  Sr  Sr2  1  0.040501  0.995779  0.824025  1
  Sr  Sr3  1  0.540501  0.004221  0.675975  1
  Pr  Pr4  1  0.539863  0.498927  0.671767  1
  Pr  Pr5  1  0.039863  0.501073  0.828233  1
  Pr  Pr6  1  0.960137  0.001073  0.171767  1
  Pr  Pr7  1  0.460137  0.998927  0.328233  1
  U  U8  1  0.933215  0.752468  0.492393  1
  U  U9  1  0.433215  0.247532  0.007607  1
  U  U10  1  0.566785  0.747532  0.992393  1
  U  U11  1  0.066785  0.252468  0.507607  1
  S  S12  1  0.822959  0.736745  0.707599  1
  S  S13  1  0.322959  0.263255  0.792401  1
  S  S14  1  0.677041  0.763255  0.207599  1
  S  S15  1  0.177041  0.236745  0.292401  1
  S  S16  1  0.558824  0.752157  0.495436  1
  S  S17  1  0.058824  0.247843  0.004564  1
  S  S18  1  0.941176  0.747843  0.995436  1
  S  S19  1  0.441176  0.252157  0.504564  1
  S  S20  1  0.149643  0.762405  0.313126  1
  S  S21  1  0.649643  0.237595  0.186874  1
  S  S22  1  0.350357  0.737595  0.813126  1
  S  S23  1  0.850357  0.262405  0.686874  1
  S  S24  1  0.162474  0.960936  0.580853  1
  S  S25  1  0.662474  0.039064  0.919147  1
  S  S26  1  0.337526  0.539064  0.080853  1
  S  S27  1  0.837526  0.460936  0.419147  1
  S  S28  1  0.831530  0.043695  0.413383  1
  S  S29  1  0.331530  0.956305  0.086617  1
  S  S30  1  0.668470  0.456305  0.913383  1
  S  S31  1  0.168470  0.543695  0.586617  1
