# generated using pymatgen
data_Cs6LiV5Br18
_symmetry_space_group_name_H-M   'P 1'
_cell_length_a   13.53686800
_cell_length_b   13.53686837
_cell_length_c   6.43428900
_cell_angle_alpha   90.00000000
_cell_angle_beta   90.00000000
_cell_angle_gamma   119.99999487
_symmetry_Int_Tables_number   1
_chemical_formula_structural   Cs6LiV5Br18
_chemical_formula_sum   'Cs6 Li1 V5 Br18'
_cell_volume   1021.09845171
_cell_formula_units_Z   1
loop_
 _symmetry_equiv_pos_site_id
 _symmetry_equiv_pos_as_xyz
  1  'x, y, z'
loop_
 _atom_site_type_symbol
 _atom_site_label
 _atom_site_symmetry_multiplicity
 _atom_site_fract_x
 _atom_site_fract_y
 _atom_site_fract_z
 _atom_site_occupancy
  Cs  Cs0  1  0.999835  0.316744  0.748256  1
  Cs  Cs1  1  0.316744  0.316909  0.251744  1
  Cs  Cs2  1  0.683256  0.683091  0.748256  1
  Cs  Cs3  1  0.000165  0.683256  0.251744  1
  Cs  Cs4  1  0.316909  0.000165  0.748256  1
  Cs  Cs5  1  0.683091  0.999835  0.251744  1
  Li  Li6  1  0.000000  0.000000  0.000000  1
  V  V7  1  0.333333  0.666667  0.527830  1
  V  V8  1  0.666667  0.333333  0.472170  1
  V  V9  1  0.000000  0.000000  0.500000  1
  V  V10  1  0.666667  0.333333  0.972335  1
  V  V11  1  0.333333  0.666667  0.027665  1
  Br  Br12  1  0.821313  0.486067  0.722218  1
  Br  Br13  1  0.335026  0.513786  0.778115  1
  Br  Br14  1  0.178760  0.664974  0.778115  1
  Br  Br15  1  0.821240  0.335026  0.221885  1
  Br  Br16  1  0.178687  0.513933  0.277782  1
  Br  Br17  1  0.159629  0.000234  0.263036  1
  Br  Br18  1  0.335245  0.821313  0.277782  1
  Br  Br19  1  0.486214  0.821240  0.778115  1
  Br  Br20  1  0.664755  0.178687  0.722218  1
  Br  Br21  1  0.664974  0.486214  0.221885  1
  Br  Br22  1  0.999766  0.159394  0.263036  1
  Br  Br23  1  0.159394  0.159629  0.736964  1
  Br  Br24  1  0.840371  0.999766  0.736964  1
  Br  Br25  1  0.000234  0.840606  0.736964  1
  Br  Br26  1  0.840606  0.840371  0.263036  1
  Br  Br27  1  0.513786  0.178760  0.221885  1
  Br  Br28  1  0.486067  0.664755  0.277782  1
  Br  Br29  1  0.513933  0.335245  0.722218  1
