# generated using pymatgen
data_Ti(Mn6Os)4
_symmetry_space_group_name_H-M   'P 1'
_cell_length_a   7.55130607
_cell_length_b   7.55130533
_cell_length_c   7.55130600
_cell_angle_alpha   109.47121437
_cell_angle_beta   109.47121240
_cell_angle_gamma   109.47123084
_symmetry_Int_Tables_number   1
_chemical_formula_structural   Ti(Mn6Os)4
_chemical_formula_sum   'Ti1 Mn24 Os4'
_cell_volume   331.47005954
_cell_formula_units_Z   1
loop_
 _symmetry_equiv_pos_site_id
 _symmetry_equiv_pos_as_xyz
  1  'x, y, z'
loop_
 _atom_site_type_symbol
 _atom_site_label
 _atom_site_symmetry_multiplicity
 _atom_site_fract_x
 _atom_site_fract_y
 _atom_site_fract_z
 _atom_site_occupancy
  Ti  Ti0  1  0.000000  0.000000  0.000000  1
  Mn  Mn1  1  0.387435  0.674070  0.000000  1
  Mn  Mn2  1  0.713365  0.325930  0.325930  1
  Mn  Mn3  1  0.387435  0.000000  0.674070  1
  Mn  Mn4  1  0.674070  0.387435  0.000000  1
  Mn  Mn5  1  0.000000  0.387435  0.674070  1
  Mn  Mn6  1  0.325930  0.713365  0.325930  1
  Mn  Mn7  1  0.325930  0.325930  0.713365  1
  Mn  Mn8  1  0.000000  0.674070  0.387435  1
  Mn  Mn9  1  0.674070  0.000000  0.387435  1
  Mn  Mn10  1  0.612565  0.612565  0.286635  1
  Mn  Mn11  1  0.286635  0.612565  0.612565  1
  Mn  Mn12  1  0.612565  0.286635  0.612565  1
  Mn  Mn13  1  0.373442  0.194710  0.000000  1
  Mn  Mn14  1  0.178732  0.805290  0.805290  1
  Mn  Mn15  1  0.373442  0.000000  0.194710  1
  Mn  Mn16  1  0.194710  0.373442  0.000000  1
  Mn  Mn17  1  0.000000  0.373442  0.194710  1
  Mn  Mn18  1  0.805290  0.178732  0.805290  1
  Mn  Mn19  1  0.805290  0.805290  0.178732  1
  Mn  Mn20  1  0.000000  0.194710  0.373442  1
  Mn  Mn21  1  0.194710  0.000000  0.373442  1
  Mn  Mn22  1  0.626558  0.626558  0.821268  1
  Mn  Mn23  1  0.821268  0.626558  0.626558  1
  Mn  Mn24  1  0.626558  0.821268  0.626558  1
  Os  Os25  1  0.631137  0.000000  0.000000  1
  Os  Os26  1  0.000000  0.631137  0.000000  1
  Os  Os27  1  0.000000  0.000000  0.631137  1
  Os  Os28  1  0.368863  0.368863  0.368863  1
