# generated using pymatgen
data_AlZn(Ni7B2)3
_symmetry_space_group_name_H-M   'P 1'
_cell_length_a   7.39391456
_cell_length_b   7.39391437
_cell_length_c   7.39391500
_cell_angle_alpha   60.00000167
_cell_angle_beta   60.00000249
_cell_angle_gamma   60.00000342
_symmetry_Int_Tables_number   1
_chemical_formula_structural   AlZn(Ni7B2)3
_chemical_formula_sum   'Al1 Zn1 Ni21 B6'
_cell_volume   285.83033949
_cell_formula_units_Z   1
loop_
 _symmetry_equiv_pos_site_id
 _symmetry_equiv_pos_as_xyz
  1  'x, y, z'
loop_
 _atom_site_type_symbol
 _atom_site_label
 _atom_site_symmetry_multiplicity
 _atom_site_fract_x
 _atom_site_fract_y
 _atom_site_fract_z
 _atom_site_occupancy
  Al  Al0  1  0.250000  0.250000  0.250000  1
  Zn  Zn1  1  0.750000  0.750000  0.750000  1
  Ni  Ni2  1  0.000000  0.000000  0.000000  1
  Ni  Ni3  1  0.616633  0.616633  0.150101  1
  Ni  Ni4  1  0.616633  0.150101  0.616633  1
  Ni  Ni5  1  0.150101  0.616633  0.616633  1
  Ni  Ni6  1  0.616633  0.616633  0.616633  1
  Ni  Ni7  1  0.382150  0.382150  0.853550  1
  Ni  Ni8  1  0.382150  0.853550  0.382150  1
  Ni  Ni9  1  0.853550  0.382150  0.382150  1
  Ni  Ni10  1  0.382150  0.382150  0.382150  1
  Ni  Ni11  1  0.000391  0.000391  0.337202  1
  Ni  Ni12  1  0.662016  0.000391  0.337202  1
  Ni  Ni13  1  0.000391  0.662016  0.337202  1
  Ni  Ni14  1  0.662016  0.337202  0.000391  1
  Ni  Ni15  1  0.000391  0.337202  0.000391  1
  Ni  Ni16  1  0.000391  0.337202  0.662016  1
  Ni  Ni17  1  0.337202  0.662016  0.000391  1
  Ni  Ni18  1  0.337202  0.000391  0.662016  1
  Ni  Ni19  1  0.337202  0.000391  0.000391  1
  Ni  Ni20  1  0.000391  0.000391  0.662016  1
  Ni  Ni21  1  0.000391  0.662016  0.000391  1
  Ni  Ni22  1  0.662016  0.000391  0.000391  1
  B  B23  1  0.726452  0.726452  0.273548  1
  B  B24  1  0.273548  0.726452  0.273548  1
  B  B25  1  0.726452  0.273548  0.273548  1
  B  B26  1  0.273548  0.273548  0.726452  1
  B  B27  1  0.726452  0.273548  0.726452  1
  B  B28  1  0.273548  0.726452  0.726452  1
