# generated using pymatgen
data_Tb12ZnFe4Bi
_symmetry_space_group_name_H-M   'P 1'
_cell_length_a   8.48832654
_cell_length_b   8.48832652
_cell_length_c   8.48832600
_cell_angle_alpha   110.61618388
_cell_angle_beta   111.08850789
_cell_angle_gamma   106.74329859
_symmetry_Int_Tables_number   1
_chemical_formula_structural   Tb12ZnFe4Bi
_chemical_formula_sum   'Tb12 Zn1 Fe4 Bi1'
_cell_volume   470.00450430
_cell_formula_units_Z   1
loop_
 _symmetry_equiv_pos_site_id
 _symmetry_equiv_pos_as_xyz
  1  'x, y, z'
loop_
 _atom_site_type_symbol
 _atom_site_label
 _atom_site_symmetry_multiplicity
 _atom_site_fract_x
 _atom_site_fract_y
 _atom_site_fract_z
 _atom_site_occupancy
  Tb  Tb0  1  0.285033  0.184175  0.469208  1
  Tb  Tb1  1  0.714967  0.815825  0.530792  1
  Tb  Tb2  1  0.285033  0.815825  0.100857  1
  Tb  Tb3  1  0.714967  0.184175  0.899143  1
  Tb  Tb4  1  0.613389  0.309408  0.303981  1
  Tb  Tb5  1  0.386611  0.690592  0.696019  1
  Tb  Tb6  1  0.005426  0.309408  0.696019  1
  Tb  Tb7  1  0.994574  0.690592  0.303981  1
  Tb  Tb8  1  0.219103  0.426758  0.207656  1
  Tb  Tb9  1  0.780897  0.573242  0.792344  1
  Tb  Tb10  1  0.219103  0.011447  0.792344  1
  Tb  Tb11  1  0.780897  0.988553  0.207656  1
  Zn  Zn12  1  0.000000  0.000000  0.000000  1
  Fe  Fe13  1  0.000000  0.386732  0.386732  1
  Fe  Fe14  1  0.000000  0.613268  0.613268  1
  Fe  Fe15  1  0.394012  0.894012  0.500000  1
  Fe  Fe16  1  0.605988  0.105988  0.500000  1
  Bi  Bi17  1  0.500000  0.500000  0.000000  1
