# generated using pymatgen
data_Cr3H4Os
_symmetry_space_group_name_H-M   'P 1'
_cell_length_a   2.75640489
_cell_length_b   5.50265153
_cell_length_c   5.12778514
_cell_angle_alpha   57.55312873
_cell_angle_beta   74.38238731
_cell_angle_gamma   59.89831544
_symmetry_Int_Tables_number   1
_chemical_formula_structural   Cr3H4Os
_chemical_formula_sum   'Cr3 H4 Os1'
_cell_volume   56.78256941
_cell_formula_units_Z   1
loop_
 _symmetry_equiv_pos_site_id
 _symmetry_equiv_pos_as_xyz
  1  'x, y, z'
loop_
 _atom_site_type_symbol
 _atom_site_label
 _atom_site_symmetry_multiplicity
 _atom_site_fract_x
 _atom_site_fract_y
 _atom_site_fract_z
 _atom_site_occupancy
  Cr  Cr0  1  0.909103  0.512151  0.848657  1
  Cr  Cr1  1  0.909502  0.014067  0.844721  1
  Cr  Cr2  1  0.242661  0.929748  0.347212  1
  H  H3  1  0.593417  0.208832  0.086952  1
  H  H4  1  0.592870  0.948936  0.606540  1
  H  H5  1  0.556578  0.481474  0.617613  1
  H  H6  1  0.555427  0.752260  0.076032  1
  Os  Os7  1  0.244946  0.427821  0.346820  1
