# generated using pymatgen
data_YPuSi5Ni3
_symmetry_space_group_name_H-M   'P 1'
_cell_length_a   7.86435850
_cell_length_b   7.83566689
_cell_length_c   7.83566854
_cell_angle_alpha   137.98884654
_cell_angle_beta   105.05244669
_cell_angle_gamma   89.79056345
_symmetry_Int_Tables_number   1
_chemical_formula_structural   YPuSi5Ni3
_chemical_formula_sum   'Y2 Pu2 Si10 Ni6'
_cell_volume   298.38662217
_cell_formula_units_Z   2
loop_
 _symmetry_equiv_pos_site_id
 _symmetry_equiv_pos_as_xyz
  1  'x, y, z'
loop_
 _atom_site_type_symbol
 _atom_site_label
 _atom_site_symmetry_multiplicity
 _atom_site_fract_x
 _atom_site_fract_y
 _atom_site_fract_z
 _atom_site_occupancy
  Y  Y0  1  0.367107  0.631563  0.735544  1
  Y  Y1  1  0.632893  0.368437  0.264456  1
  Pu  Pu2  1  0.101835  0.866137  0.235699  1
  Pu  Pu3  1  0.898165  0.133863  0.764301  1
  Si  Si4  1  0.000000  0.762500  0.762500  1
  Si  Si5  1  0.000000  0.237500  0.237500  1
  Si  Si6  1  0.267275  0.017643  0.746876  1
  Si  Si7  1  0.732725  0.479601  0.750368  1
  Si  Si8  1  0.732725  0.982357  0.253124  1
  Si  Si9  1  0.267275  0.520399  0.249632  1
  Si  Si10  1  0.764653  0.608304  0.156349  1
  Si  Si11  1  0.449746  0.102936  0.346809  1
  Si  Si12  1  0.550254  0.897064  0.653191  1
  Si  Si13  1  0.235347  0.391696  0.843651  1
  Ni  Ni14  1  0.251428  0.138484  0.112945  1
  Ni  Ni15  1  0.500000  0.254518  0.754518  1
  Ni  Ni16  1  0.023428  0.631545  0.391883  1
  Ni  Ni17  1  0.976572  0.368455  0.608117  1
  Ni  Ni18  1  0.748572  0.861516  0.887055  1
  Ni  Ni19  1  0.500000  0.745482  0.245482  1
