# generated using pymatgen
data_Nd8Ta12Si15Ge
_symmetry_space_group_name_H-M   'P 1'
_cell_length_a   6.98451412
_cell_length_b   7.19155842
_cell_length_c   13.58125009
_cell_angle_alpha   90.03509807
_cell_angle_beta   89.92768574
_cell_angle_gamma   90.02683317
_symmetry_Int_Tables_number   1
_chemical_formula_structural   Nd8Ta12Si15Ge
_chemical_formula_sum   'Nd8 Ta12 Si15 Ge1'
_cell_volume   682.17921655
_cell_formula_units_Z   1
loop_
 _symmetry_equiv_pos_site_id
 _symmetry_equiv_pos_as_xyz
  1  'x, y, z'
loop_
 _atom_site_type_symbol
 _atom_site_label
 _atom_site_symmetry_multiplicity
 _atom_site_fract_x
 _atom_site_fract_y
 _atom_site_fract_z
 _atom_site_occupancy
  Nd  Nd0  1  0.503814  0.331320  0.095699  1
  Nd  Nd1  1  0.002899  0.168453  0.403867  1
  Nd  Nd2  1  0.499070  0.670554  0.596368  1
  Nd  Nd3  1  0.996065  0.831218  0.904812  1
  Nd  Nd4  1  0.496066  0.668644  0.904688  1
  Nd  Nd5  1  0.996268  0.831523  0.595915  1
  Nd  Nd6  1  0.504136  0.330083  0.403505  1
  Nd  Nd7  1  0.003692  0.169120  0.095427  1
  Ta  Ta8  1  0.662827  0.013495  0.750200  1
  Ta  Ta9  1  0.162819  0.485708  0.752149  1
  Ta  Ta10  1  0.336887  0.986567  0.249746  1
  Ta  Ta11  1  0.837129  0.513929  0.249804  1
  Ta  Ta12  1  0.835700  0.324014  0.626415  1
  Ta  Ta13  1  0.337625  0.175305  0.874295  1
  Ta  Ta14  1  0.162138  0.675472  0.125764  1
  Ta  Ta15  1  0.661788  0.825102  0.373619  1
  Ta  Ta16  1  0.160696  0.677925  0.372433  1
  Ta  Ta17  1  0.661337  0.824470  0.125767  1
  Ta  Ta18  1  0.837998  0.324460  0.874258  1
  Ta  Ta19  1  0.340774  0.171745  0.627165  1
  Si  Si20  1  0.798950  0.617229  0.750263  1
  Si  Si21  1  0.297737  0.881466  0.750687  1
  Si  Si22  1  0.201561  0.382736  0.249690  1
  Si  Si23  1  0.701761  0.117390  0.249555  1
  Si  Si24  1  0.542591  0.371352  0.750456  1
  Si  Si25  1  0.042602  0.128840  0.749950  1
  Si  Si26  1  0.457014  0.628853  0.249861  1
  Si  Si27  1  0.956381  0.871843  0.249081  1
  Si  Si28  1  0.660882  0.040270  0.541937  1
  Si  Si29  1  0.159907  0.460107  0.957723  1
  Si  Si30  1  0.339679  0.960368  0.042439  1
  Si  Si31  1  0.836262  0.540943  0.456576  1
  Si  Si32  1  0.339554  0.959595  0.457718  1
  Si  Si33  1  0.840108  0.539986  0.042609  1
  Si  Si34  1  0.659838  0.039984  0.957618  1
  Ge  Ge35  1  0.165445  0.459933  0.541944  1
