# generated using pymatgen
data_Ca7Mg(Si4Tc3)4
_symmetry_space_group_name_H-M   'P 1'
_cell_length_a   6.79391751
_cell_length_b   6.85120593
_cell_length_c   12.59041800
_cell_angle_alpha   89.86554993
_cell_angle_beta   90.02223886
_cell_angle_gamma   89.95559514
_symmetry_Int_Tables_number   1
_chemical_formula_structural   Ca7Mg(Si4Tc3)4
_chemical_formula_sum   'Ca7 Mg1 Si16 Tc12'
_cell_volume   586.03840881
_cell_formula_units_Z   1
loop_
 _symmetry_equiv_pos_site_id
 _symmetry_equiv_pos_as_xyz
  1  'x, y, z'
loop_
 _atom_site_type_symbol
 _atom_site_label
 _atom_site_symmetry_multiplicity
 _atom_site_fract_x
 _atom_site_fract_y
 _atom_site_fract_z
 _atom_site_occupancy
  Ca  Ca0  1  0.491815  0.339548  0.090130  1
  Ca  Ca1  1  0.991690  0.160758  0.409938  1
  Ca  Ca2  1  0.509032  0.659454  0.590533  1
  Ca  Ca3  1  0.007215  0.840466  0.912701  1
  Ca  Ca4  1  0.507757  0.661387  0.911408  1
  Ca  Ca5  1  0.008294  0.838676  0.590230  1
  Ca  Ca6  1  0.490529  0.339856  0.407441  1
  Mg  Mg7  1  0.980702  0.164275  0.095509  1
  Si  Si8  1  0.650821  0.048312  0.551581  1
  Si  Si9  1  0.151792  0.448312  0.950934  1
  Si  Si10  1  0.340842  0.957015  0.051712  1
  Si  Si11  1  0.849160  0.549399  0.446918  1
  Si  Si12  1  0.349156  0.950632  0.446688  1
  Si  Si13  1  0.851092  0.541783  0.052101  1
  Si  Si14  1  0.652918  0.047818  0.950475  1
  Si  Si15  1  0.151868  0.451578  0.551582  1
  Si  Si16  1  0.531025  0.352814  0.751581  1
  Si  Si17  1  0.030425  0.144570  0.749966  1
  Si  Si18  1  0.472149  0.648328  0.248646  1
  Si  Si19  1  0.971824  0.858795  0.247053  1
  Si  Si20  1  0.814488  0.634641  0.751622  1
  Si  Si21  1  0.312333  0.862102  0.750711  1
  Si  Si22  1  0.183657  0.359003  0.246280  1
  Si  Si23  1  0.690355  0.138611  0.247859  1
  Tc  Tc24  1  0.826310  0.346054  0.627975  1
  Tc  Tc25  1  0.323602  0.152145  0.873600  1
  Tc  Tc26  1  0.176526  0.654000  0.127384  1
  Tc  Tc27  1  0.676888  0.849255  0.370993  1
  Tc  Tc28  1  0.174007  0.652729  0.370920  1
  Tc  Tc29  1  0.678424  0.851861  0.125054  1
  Tc  Tc30  1  0.828628  0.343244  0.875422  1
  Tc  Tc31  1  0.325581  0.152563  0.626990  1
  Tc  Tc32  1  0.671482  0.999332  0.751108  1
  Tc  Tc33  1  0.172747  0.498917  0.750701  1
  Tc  Tc34  1  0.324990  0.002855  0.247899  1
  Tc  Tc35  1  0.829877  0.498915  0.248353  1
