# generated using pymatgen
data_Hf6AlTc6As5
_symmetry_space_group_name_H-M   'P 1'
_cell_length_a   7.79761441
_cell_length_b   7.80783429
_cell_length_c   7.79761475
_cell_angle_alpha   127.26149163
_cell_angle_beta   125.35759314
_cell_angle_gamma   79.35736288
_symmetry_Int_Tables_number   1
_chemical_formula_structural   Hf6AlTc6As5
_chemical_formula_sum   'Hf6 Al1 Tc6 As5'
_cell_volume   297.93822737
_cell_formula_units_Z   1
loop_
 _symmetry_equiv_pos_site_id
 _symmetry_equiv_pos_as_xyz
  1  'x, y, z'
loop_
 _atom_site_type_symbol
 _atom_site_label
 _atom_site_symmetry_multiplicity
 _atom_site_fract_x
 _atom_site_fract_y
 _atom_site_fract_z
 _atom_site_occupancy
  Hf  Hf0  1  0.455616  0.665012  0.709396  1
  Hf  Hf1  1  0.542690  0.251114  0.208424  1
  Hf  Hf2  1  0.749138  0.845473  0.596335  1
  Hf  Hf3  1  0.249813  0.847189  0.097375  1
  Hf  Hf4  1  0.050645  0.254449  0.703803  1
  Hf  Hf5  1  0.951060  0.655808  0.204748  1
  Al  Al6  1  0.256826  0.260646  0.503822  1
  Tc  Tc7  1  0.503767  0.506172  0.009525  1
  Tc  Tc8  1  0.996647  0.506172  0.502405  1
  Tc  Tc9  1  0.114990  0.253435  0.115651  1
  Tc  Tc10  1  0.882633  0.001381  0.135555  1
  Tc  Tc11  1  0.365827  0.001381  0.618748  1
  Tc  Tc12  1  0.637784  0.253435  0.638445  1
  As  As13  1  0.742798  0.244303  0.001506  1
  As  As14  1  0.332591  0.586315  0.252840  1
  As  As15  1  0.667911  0.920500  0.254708  1
  As  As16  1  0.165793  0.920500  0.752589  1
  As  As17  1  0.833474  0.586315  0.753723  1
