# generated using pymatgen
data_Nd4Al2Ga2PtRh3
_symmetry_space_group_name_H-M   'P 1'
_cell_length_a   4.37973300
_cell_length_b   7.07481093
_cell_length_c   8.00864380
_cell_angle_alpha   89.98871539
_cell_angle_beta   90.00000000
_cell_angle_gamma   90.00000000
_symmetry_Int_Tables_number   1
_chemical_formula_structural   Nd4Al2Ga2PtRh3
_chemical_formula_sum   'Nd4 Al2 Ga2 Pt1 Rh3'
_cell_volume   248.15409332
_cell_formula_units_Z   1
loop_
 _symmetry_equiv_pos_site_id
 _symmetry_equiv_pos_as_xyz
  1  'x, y, z'
loop_
 _atom_site_type_symbol
 _atom_site_label
 _atom_site_symmetry_multiplicity
 _atom_site_fract_x
 _atom_site_fract_y
 _atom_site_fract_z
 _atom_site_occupancy
  Nd  Nd0  1  0.250000  0.532194  0.191386  1
  Nd  Nd1  1  0.750000  0.462232  0.812381  1
  Nd  Nd2  1  0.750000  0.968066  0.678311  1
  Nd  Nd3  1  0.250000  0.034748  0.319590  1
  Al  Al4  1  0.750000  0.863713  0.066104  1
  Al  Al5  1  0.250000  0.140121  0.935974  1
  Ga  Ga6  1  0.250000  0.644185  0.564672  1
  Ga  Ga7  1  0.750000  0.353945  0.433397  1
  Pt  Pt8  1  0.250000  0.773854  0.888992  1
  Rh  Rh9  1  0.750000  0.227434  0.109055  1
  Rh  Rh10  1  0.750000  0.731102  0.382158  1
  Rh  Rh11  1  0.250000  0.268407  0.617980  1
