# generated using pymatgen
data_CuIr2Rh2Pb3O14
_symmetry_space_group_name_H-M   'P 1'
_cell_length_a   7.31804285
_cell_length_b   7.31321259
_cell_length_c   7.20986828
_cell_angle_alpha   59.40022745
_cell_angle_beta   59.50243223
_cell_angle_gamma   59.97815549
_symmetry_Int_Tables_number   1
_chemical_formula_structural   CuIr2Rh2Pb3O14
_chemical_formula_sum   'Cu1 Ir2 Rh2 Pb3 O14'
_cell_volume   270.51562652
_cell_formula_units_Z   1
loop_
 _symmetry_equiv_pos_site_id
 _symmetry_equiv_pos_as_xyz
  1  'x, y, z'
loop_
 _atom_site_type_symbol
 _atom_site_label
 _atom_site_symmetry_multiplicity
 _atom_site_fract_x
 _atom_site_fract_y
 _atom_site_fract_z
 _atom_site_occupancy
  Cu  Cu0  1  0.125000  0.125000  0.625000  1
  Ir  Ir1  1  0.125000  0.625000  0.625000  1
  Ir  Ir2  1  0.625000  0.625000  0.625000  1
  Rh  Rh3  1  0.625000  0.125000  0.625000  1
  Rh  Rh4  1  0.625000  0.625000  0.125000  1
  Pb  Pb5  1  0.625000  0.125000  0.125000  1
  Pb  Pb6  1  0.125000  0.625000  0.125000  1
  Pb  Pb7  1  0.125000  0.125000  0.125000  1
  O  O8  1  0.710327  0.706976  0.291674  1
  O  O9  1  0.296036  0.303927  0.704061  1
  O  O10  1  0.695978  0.303927  0.704061  1
  O  O11  1  0.291021  0.706976  0.291674  1
  O  O12  1  0.302403  0.690040  0.705155  1
  O  O13  1  0.710221  0.291101  0.288456  1
  O  O14  1  0.539673  0.543024  0.958326  1
  O  O15  1  0.953964  0.946073  0.545939  1
  O  O16  1  0.554022  0.946073  0.545939  1
  O  O17  1  0.958979  0.543024  0.958326  1
  O  O18  1  0.947597  0.559960  0.544845  1
  O  O19  1  0.539779  0.958899  0.961544  1
  O  O20  1  0.231990  0.232960  0.303062  1
  O  O21  1  0.018010  0.017040  0.946938  1
