# generated using pymatgen
data_Tb6Al24Re4RuAu3
_symmetry_space_group_name_H-M   'P 1'
_cell_length_a   8.90864694
_cell_length_b   8.95437898
_cell_length_c   9.64808082
_cell_angle_alpha   90.09822010
_cell_angle_beta   89.58153115
_cell_angle_gamma   119.07300323
_symmetry_Int_Tables_number   1
_chemical_formula_structural   Tb6Al24Re4RuAu3
_chemical_formula_sum   'Tb6 Al24 Re4 Ru1 Au3'
_cell_volume   672.64772757
_cell_formula_units_Z   1
loop_
 _symmetry_equiv_pos_site_id
 _symmetry_equiv_pos_as_xyz
  1  'x, y, z'
loop_
 _atom_site_type_symbol
 _atom_site_label
 _atom_site_symmetry_multiplicity
 _atom_site_fract_x
 _atom_site_fract_y
 _atom_site_fract_z
 _atom_site_occupancy
  Tb  Tb0  1  0.387139  0.184578  0.246032  1
  Tb  Tb1  1  0.803706  0.191151  0.248737  1
  Tb  Tb2  1  0.813129  0.617653  0.250285  1
  Tb  Tb3  1  0.612861  0.815422  0.753968  1
  Tb  Tb4  1  0.196294  0.808849  0.751263  1
  Tb  Tb5  1  0.186871  0.382347  0.749715  1
  Al  Al6  1  0.440633  0.876135  0.250671  1
  Al  Al7  1  0.129025  0.564596  0.244342  1
  Al  Al8  1  0.436575  0.567700  0.251158  1
  Al  Al9  1  0.559367  0.123865  0.749329  1
  Al  Al10  1  0.870975  0.435404  0.755658  1
  Al  Al11  1  0.563425  0.432300  0.748842  1
  Al  Al12  1  0.172724  0.848726  0.419970  1
  Al  Al13  1  0.160734  0.316378  0.417254  1
  Al  Al14  1  0.679833  0.849705  0.422117  1
  Al  Al15  1  0.827276  0.151274  0.580030  1
  Al  Al16  1  0.839266  0.683622  0.582746  1
  Al  Al17  1  0.320167  0.150295  0.577883  1
  Al  Al18  1  0.835913  0.164901  0.923137  1
  Al  Al19  1  0.848582  0.678885  0.925004  1
  Al  Al20  1  0.322328  0.152989  0.922917  1
  Al  Al21  1  0.164087  0.835099  0.076863  1
  Al  Al22  1  0.151418  0.321115  0.074996  1
  Al  Al23  1  0.677672  0.847011  0.077083  1
  Al  Al24  1  0.337989  0.676673  0.526233  1
  Al  Al25  1  0.662011  0.323327  0.473767  1
  Al  Al26  1  0.672818  0.329058  0.025691  1
  Al  Al27  1  0.327182  0.670942  0.974309  1
  Al  Al28  1  0.002144  0.995423  0.247477  1
  Al  Al29  1  0.997856  0.004577  0.752523  1
  Re  Re30  1  0.000000  0.000000  0.500000  1
  Re  Re31  1  0.500000  0.000000  0.500000  1
  Re  Re32  1  0.500000  0.000000  0.000000  1
  Re  Re33  1  0.000000  0.500000  0.000000  1
  Ru  Ru34  1  0.000000  0.000000  0.000000  1
  Au  Au35  1  0.000000  0.500000  0.500000  1
  Au  Au36  1  0.500000  0.500000  0.500000  1
  Au  Au37  1  0.500000  0.500000  0.000000  1
