# generated using pymatgen
data_Tm16MgTl2InRh4
_symmetry_space_group_name_H-M   'P 1'
_cell_length_a   9.56135242
_cell_length_b   9.56135344
_cell_length_c   9.56651613
_cell_angle_alpha   60.01213714
_cell_angle_beta   60.01213806
_cell_angle_gamma   60.03317247
_symmetry_Int_Tables_number   1
_chemical_formula_structural   Tm16MgTl2InRh4
_chemical_formula_sum   'Tm16 Mg1 Tl2 In1 Rh4'
_cell_volume   618.67983269
_cell_formula_units_Z   1
loop_
 _symmetry_equiv_pos_site_id
 _symmetry_equiv_pos_as_xyz
  1  'x, y, z'
loop_
 _atom_site_type_symbol
 _atom_site_label
 _atom_site_symmetry_multiplicity
 _atom_site_fract_x
 _atom_site_fract_y
 _atom_site_fract_z
 _atom_site_occupancy
  Tm  Tm0  1  0.060936  0.060936  0.438907  1
  Tm  Tm1  1  0.436321  0.064465  0.436305  1
  Tm  Tm2  1  0.061654  0.438506  0.060936  1
  Tm  Tm3  1  0.047420  0.649688  0.650524  1
  Tm  Tm4  1  0.435958  0.435958  0.064163  1
  Tm  Tm5  1  0.649688  0.047420  0.650524  1
  Tm  Tm6  1  0.186331  0.812186  0.186469  1
  Tm  Tm7  1  0.187029  0.187029  0.812277  1
  Tm  Tm8  1  0.810907  0.810907  0.189232  1
  Tm  Tm9  1  0.438506  0.061654  0.060936  1
  Tm  Tm10  1  0.812186  0.186331  0.186469  1
  Tm  Tm11  1  0.064465  0.436321  0.436305  1
  Tm  Tm12  1  0.809966  0.189548  0.811271  1
  Tm  Tm13  1  0.189548  0.809966  0.811271  1
  Tm  Tm14  1  0.650093  0.650093  0.047093  1
  Tm  Tm15  1  0.651389  0.651389  0.652088  1
  Mg  Mg16  1  0.422786  0.422786  0.422890  1
  Tl  Tl17  1  0.754586  0.413971  0.415352  1
  Tl  Tl18  1  0.413971  0.754586  0.415352  1
  In  In19  1  0.416277  0.416277  0.751442  1
  Rh  Rh20  1  0.858091  0.858091  0.426942  1
  Rh  Rh21  1  0.856955  0.856955  0.856969  1
  Rh  Rh22  1  0.426786  0.858151  0.858144  1
  Rh  Rh23  1  0.858151  0.426786  0.858144  1
