# generated using pymatgen
data_BaGe6(Sb3Pt2)2
_symmetry_space_group_name_H-M   'P 1'
_cell_length_a   7.93149031
_cell_length_b   7.95123909
_cell_length_c   7.93149095
_cell_angle_alpha   109.48510851
_cell_angle_beta   109.50436122
_cell_angle_gamma   109.32371730
_symmetry_Int_Tables_number   1
_chemical_formula_structural   BaGe6(Sb3Pt2)2
_chemical_formula_sum   'Ba1 Ge6 Sb6 Pt4'
_cell_volume   385.53067014
_cell_formula_units_Z   1
loop_
 _symmetry_equiv_pos_site_id
 _symmetry_equiv_pos_as_xyz
  1  'x, y, z'
loop_
 _atom_site_type_symbol
 _atom_site_label
 _atom_site_symmetry_multiplicity
 _atom_site_fract_x
 _atom_site_fract_y
 _atom_site_fract_z
 _atom_site_occupancy
  Ba  Ba0  1  0.009527  0.002935  0.993408  1
  Ge  Ge1  1  0.145887  0.340733  0.492049  1
  Ge  Ge2  1  0.516713  0.163355  0.360399  1
  Ge  Ge3  1  0.848685  0.340733  0.194846  1
  Ge  Ge4  1  0.637509  0.477023  0.839516  1
  Ge  Ge5  1  0.356716  0.202147  0.845431  1
  Ge  Ge6  1  0.802956  0.163355  0.646643  1
  Sb  Sb7  1  0.840232  0.642291  0.487257  1
  Sb  Sb8  1  0.341591  0.489876  0.148284  1
  Sb  Sb9  1  0.197487  0.857086  0.346652  1
  Sb  Sb10  1  0.155033  0.642291  0.802059  1
  Sb  Sb11  1  0.657616  0.808149  0.150533  1
  Sb  Sb12  1  0.510433  0.857086  0.659599  1
  Pt  Pt13  1  0.006574  0.018091  0.518105  1
  Pt  Pt14  1  0.492550  0.488378  0.507874  1
  Pt  Pt15  1  0.980504  0.488378  0.995828  1
  Pt  Pt16  1  0.499986  0.018091  0.011518  1
