# generated using pymatgen
data_Sm2Dy4MgCo17P12
_symmetry_space_group_name_H-M   'P 1'
_cell_length_a   3.73516100
_cell_length_b   10.61208800
_cell_length_c   12.29095500
_cell_angle_alpha   90.00000000
_cell_angle_beta   90.00000000
_cell_angle_gamma   90.00000000
_symmetry_Int_Tables_number   1
_chemical_formula_structural   Sm2Dy4MgCo17P12
_chemical_formula_sum   'Sm2 Dy4 Mg1 Co17 P12'
_cell_volume   487.18711946
_cell_formula_units_Z   1
loop_
 _symmetry_equiv_pos_site_id
 _symmetry_equiv_pos_as_xyz
  1  'x, y, z'
loop_
 _atom_site_type_symbol
 _atom_site_label
 _atom_site_symmetry_multiplicity
 _atom_site_fract_x
 _atom_site_fract_y
 _atom_site_fract_z
 _atom_site_occupancy
  Sm  Sm0  1  0.000000  0.500000  0.526004  1
  Sm  Sm1  1  0.500000  0.000000  0.478182  1
  Dy  Dy2  1  0.500000  0.821831  0.206431  1
  Dy  Dy3  1  0.500000  0.178169  0.206431  1
  Dy  Dy4  1  0.000000  0.682605  0.795399  1
  Dy  Dy5  1  0.000000  0.317395  0.795399  1
  Mg  Mg6  1  0.500000  0.500000  0.151347  1
  Co  Co7  1  0.000000  0.000000  0.840006  1
  Co  Co8  1  0.500000  0.500000  0.706717  1
  Co  Co9  1  0.000000  0.000000  0.293850  1
  Co  Co10  1  0.000000  0.500000  0.986336  1
  Co  Co11  1  0.500000  0.000000  0.011294  1
  Co  Co12  1  0.500000  0.329059  0.993049  1
  Co  Co13  1  0.500000  0.670941  0.993049  1
  Co  Co14  1  0.000000  0.163217  0.001341  1
  Co  Co15  1  0.000000  0.836783  0.001341  1
  Co  Co16  1  0.500000  0.295240  0.432235  1
  Co  Co17  1  0.500000  0.704760  0.432235  1
  Co  Co18  1  0.000000  0.202700  0.571433  1
  Co  Co19  1  0.000000  0.797300  0.571433  1
  Co  Co20  1  0.500000  0.880359  0.710380  1
  Co  Co21  1  0.500000  0.119641  0.710380  1
  Co  Co22  1  0.000000  0.622789  0.291965  1
  Co  Co23  1  0.000000  0.377211  0.291965  1
  P  P24  1  0.500000  0.500000  0.884426  1
  P  P25  1  0.000000  0.000000  0.114978  1
  P  P26  1  0.500000  0.500000  0.351279  1
  P  P27  1  0.000000  0.000000  0.657811  1
  P  P28  1  0.500000  0.307506  0.618172  1
  P  P29  1  0.500000  0.692494  0.618172  1
  P  P30  1  0.000000  0.191063  0.385131  1
  P  P31  1  0.000000  0.808937  0.385131  1
  P  P32  1  0.500000  0.849191  0.890659  1
  P  P33  1  0.500000  0.150809  0.890659  1
  P  P34  1  0.000000  0.663222  0.102691  1
  P  P35  1  0.000000  0.336778  0.102691  1
