# generated using pymatgen
data_Li2Tb2Si2Pb
_symmetry_space_group_name_H-M   'P 1'
_cell_length_a   9.66613273
_cell_length_b   9.66613206
_cell_length_c   6.82321000
_cell_angle_alpha   90.00000000
_cell_angle_beta   90.00000000
_cell_angle_gamma   153.64547058
_symmetry_Int_Tables_number   1
_chemical_formula_structural   Li2Tb2Si2Pb
_chemical_formula_sum   'Li4 Tb4 Si4 Pb2'
_cell_volume   283.01081333
_cell_formula_units_Z   2
loop_
 _symmetry_equiv_pos_site_id
 _symmetry_equiv_pos_as_xyz
  1  'x, y, z'
loop_
 _atom_site_type_symbol
 _atom_site_label
 _atom_site_symmetry_multiplicity
 _atom_site_fract_x
 _atom_site_fract_y
 _atom_site_fract_z
 _atom_site_occupancy
  Li  Li0  1  0.182590  0.817410  0.053609  1
  Li  Li1  1  0.182590  0.817410  0.446391  1
  Li  Li2  1  0.817410  0.182590  0.946391  1
  Li  Li3  1  0.817410  0.182590  0.553609  1
  Tb  Tb4  1  0.353158  0.646842  0.250000  1
  Tb  Tb5  1  0.646842  0.353158  0.750000  1
  Tb  Tb6  1  0.547351  0.452649  0.250000  1
  Tb  Tb7  1  0.452649  0.547351  0.750000  1
  Si  Si8  1  0.057212  0.942788  0.926343  1
  Si  Si9  1  0.942788  0.057212  0.073657  1
  Si  Si10  1  0.942788  0.057212  0.426343  1
  Si  Si11  1  0.057212  0.942788  0.573657  1
  Pb  Pb12  1  0.719369  0.280631  0.250000  1
  Pb  Pb13  1  0.280631  0.719369  0.750000  1
