# generated using pymatgen
data_NaPa5(NO5)2
_symmetry_space_group_name_H-M   'P 1'
_cell_length_a   6.48871957
_cell_length_b   6.48891186
_cell_length_c   7.49869700
_cell_angle_alpha   73.20464723
_cell_angle_beta   73.20074047
_cell_angle_gamma   48.16063114
_symmetry_Int_Tables_number   1
_chemical_formula_structural   NaPa5(NO5)2
_chemical_formula_sum   'Na1 Pa5 N2 O10'
_cell_volume   223.12999858
_cell_formula_units_Z   1
loop_
 _symmetry_equiv_pos_site_id
 _symmetry_equiv_pos_as_xyz
  1  'x, y, z'
loop_
 _atom_site_type_symbol
 _atom_site_label
 _atom_site_symmetry_multiplicity
 _atom_site_fract_x
 _atom_site_fract_y
 _atom_site_fract_z
 _atom_site_occupancy
  Na  Na0  1  0.000561  0.000550  0.500117  1
  Pa  Pa1  1  0.005677  0.005709  0.996479  1
  Pa  Pa2  1  0.666083  0.666059  0.668515  1
  Pa  Pa3  1  0.333368  0.333373  0.828279  1
  Pa  Pa4  1  0.332163  0.332140  0.339177  1
  Pa  Pa5  1  0.662195  0.662219  0.167641  1
  N  N6  1  0.418290  0.918951  0.917552  1
  N  N7  1  0.918841  0.418243  0.917454  1
  O  O8  1  0.087319  0.569595  0.583897  1
  O  O9  1  0.256934  0.741332  0.759541  1
  O  O10  1  0.569485  0.087147  0.583845  1
  O  O11  1  0.741218  0.256879  0.759421  1
  O  O12  1  0.738708  0.256083  0.242857  1
  O  O13  1  0.915487  0.431081  0.411593  1
  O  O14  1  0.431008  0.915324  0.411498  1
  O  O15  1  0.255996  0.738614  0.242698  1
  O  O16  1  0.583310  0.083469  0.084762  1
  O  O17  1  0.083361  0.583227  0.084679  1
