# generated using pymatgen
data_PrDy3(Ir2O7)2
_symmetry_space_group_name_H-M   'P 1'
_cell_length_a   7.31019688
_cell_length_b   7.27099577
_cell_length_c   7.27099600
_cell_angle_alpha   59.99999894
_cell_angle_beta   60.17723186
_cell_angle_gamma   60.17723404
_symmetry_Int_Tables_number   1
_chemical_formula_structural   PrDy3(Ir2O7)2
_chemical_formula_sum   'Pr1 Dy3 Ir4 O14'
_cell_volume   274.00602399
_cell_formula_units_Z   1
loop_
 _symmetry_equiv_pos_site_id
 _symmetry_equiv_pos_as_xyz
  1  'x, y, z'
loop_
 _atom_site_type_symbol
 _atom_site_label
 _atom_site_symmetry_multiplicity
 _atom_site_fract_x
 _atom_site_fract_y
 _atom_site_fract_z
 _atom_site_occupancy
  Pr  Pr0  1  0.625000  0.125000  0.125000  1
  Dy  Dy1  1  0.125000  0.125000  0.625000  1
  Dy  Dy2  1  0.125000  0.125000  0.125000  1
  Dy  Dy3  1  0.125000  0.625000  0.125000  1
  Ir  Ir4  1  0.625000  0.625000  0.625000  1
  Ir  Ir5  1  0.125000  0.625000  0.625000  1
  Ir  Ir6  1  0.625000  0.125000  0.625000  1
  Ir  Ir7  1  0.625000  0.625000  0.125000  1
  O  O8  1  0.962236  0.538650  0.538650  1
  O  O9  1  0.287764  0.289537  0.711350  1
  O  O10  1  0.962236  0.538650  0.960463  1
  O  O11  1  0.719214  0.289403  0.289403  1
  O  O12  1  0.530786  0.548019  0.960597  1
  O  O13  1  0.530786  0.960597  0.548019  1
  O  O14  1  0.530786  0.960597  0.960597  1
  O  O15  1  0.237378  0.254207  0.254207  1
  O  O16  1  0.287764  0.711350  0.711350  1
  O  O17  1  0.719214  0.289403  0.701981  1
  O  O18  1  0.012622  0.995793  0.995793  1
  O  O19  1  0.962236  0.960463  0.538650  1
  O  O20  1  0.287764  0.711350  0.289537  1
  O  O21  1  0.719214  0.701981  0.289403  1
