# generated using pymatgen
data_SmNp5O12
_symmetry_space_group_name_H-M   'P 1'
_cell_length_a   6.62407941
_cell_length_b   6.62407914
_cell_length_c   7.64358517
_cell_angle_alpha   73.21727291
_cell_angle_beta   73.21727331
_cell_angle_gamma   48.19267230
_symmetry_Int_Tables_number   1
_chemical_formula_structural   SmNp5O12
_chemical_formula_sum   'Sm1 Np5 O12'
_cell_volume   237.16001347
_cell_formula_units_Z   1
loop_
 _symmetry_equiv_pos_site_id
 _symmetry_equiv_pos_as_xyz
  1  'x, y, z'
loop_
 _atom_site_type_symbol
 _atom_site_label
 _atom_site_symmetry_multiplicity
 _atom_site_fract_x
 _atom_site_fract_y
 _atom_site_fract_z
 _atom_site_occupancy
  Sm  Sm0  1  0.999898  0.000102  0.500000  1
  Np  Np1  1  0.000029  0.999971  0.000000  1
  Np  Np2  1  0.667592  0.667288  0.666240  1
  Np  Np3  1  0.334267  0.333953  0.832998  1
  Np  Np4  1  0.332712  0.332408  0.333760  1
  Np  Np5  1  0.666047  0.665733  0.167002  1
  O  O6  1  0.417763  0.918382  0.917995  1
  O  O7  1  0.916984  0.416907  0.917919  1
  O  O8  1  0.083441  0.575084  0.587559  1
  O  O9  1  0.259443  0.742905  0.758515  1
  O  O10  1  0.569267  0.087312  0.586917  1
  O  O11  1  0.747521  0.254372  0.756589  1
  O  O12  1  0.745628  0.252479  0.243411  1
  O  O13  1  0.912688  0.430733  0.413083  1
  O  O14  1  0.424916  0.916559  0.412441  1
  O  O15  1  0.257095  0.740557  0.241485  1
  O  O16  1  0.583093  0.083016  0.082081  1
  O  O17  1  0.081618  0.582237  0.082005  1
