# generated using pymatgen
data_Ce12Al6CuOs5
_symmetry_space_group_name_H-M   'P 1'
_cell_length_a   7.82645750
_cell_length_b   7.81963916
_cell_length_c   9.75929800
_cell_angle_alpha   90.12788843
_cell_angle_beta   90.05418111
_cell_angle_gamma   120.17378386
_symmetry_Int_Tables_number   1
_chemical_formula_structural   Ce12Al6CuOs5
_chemical_formula_sum   'Ce12 Al6 Cu1 Os5'
_cell_volume   516.33985043
_cell_formula_units_Z   1
loop_
 _symmetry_equiv_pos_site_id
 _symmetry_equiv_pos_as_xyz
  1  'x, y, z'
loop_
 _atom_site_type_symbol
 _atom_site_label
 _atom_site_symmetry_multiplicity
 _atom_site_fract_x
 _atom_site_fract_y
 _atom_site_fract_z
 _atom_site_occupancy
  Ce  Ce0  1  0.000564  0.596125  0.504038  1
  Ce  Ce1  1  0.596368  0.000857  0.504232  1
  Ce  Ce2  1  0.398559  0.398768  0.502343  1
  Ce  Ce3  1  0.995857  0.403873  0.006956  1
  Ce  Ce4  1  0.404066  0.995877  0.007533  1
  Ce  Ce5  1  0.612445  0.612697  0.016760  1
  Ce  Ce6  1  0.001243  0.735324  0.171426  1
  Ce  Ce7  1  0.734438  0.000976  0.171485  1
  Ce  Ce8  1  0.274529  0.274066  0.169144  1
  Ce  Ce9  1  0.993877  0.269712  0.664986  1
  Ce  Ce10  1  0.270450  0.994133  0.664917  1
  Ce  Ce11  1  0.730771  0.730870  0.672401  1
  Al  Al12  1  0.667987  0.333048  0.278671  1
  Al  Al13  1  0.332434  0.667458  0.278598  1
  Al  Al14  1  0.334090  0.666288  0.782281  1
  Al  Al15  1  0.666522  0.334287  0.782257  1
  Al  Al16  1  0.998009  0.998270  0.417318  1
  Al  Al17  1  0.998499  0.998083  0.914179  1
  Cu  Cu18  1  0.328428  0.328426  0.839002  1
  Os  Os19  1  0.000016  0.333862  0.335064  1
  Os  Os20  1  0.333776  0.000070  0.335268  1
  Os  Os21  1  0.660646  0.660689  0.337506  1
  Os  Os22  1  0.001892  0.664437  0.836277  1
  Os  Os23  1  0.664534  0.001804  0.836610  1
