# generated using pymatgen
data_LaGd(Si7Ir3)2
_symmetry_space_group_name_H-M   'P 1'
_cell_length_a   8.12032964
_cell_length_b   8.12032914
_cell_length_c   8.12032900
_cell_angle_alpha   56.54331988
_cell_angle_beta   56.54331376
_cell_angle_gamma   56.54331735
_symmetry_Int_Tables_number   1
_chemical_formula_structural   LaGd(Si7Ir3)2
_chemical_formula_sum   'La1 Gd1 Si14 Ir6'
_cell_volume   348.37778385
_cell_formula_units_Z   1
loop_
 _symmetry_equiv_pos_site_id
 _symmetry_equiv_pos_as_xyz
  1  'x, y, z'
loop_
 _atom_site_type_symbol
 _atom_site_label
 _atom_site_symmetry_multiplicity
 _atom_site_fract_x
 _atom_site_fract_y
 _atom_site_fract_z
 _atom_site_occupancy
  La  La0  1  0.000000  0.000000  0.000000  1
  Gd  Gd1  1  0.500000  0.500000  0.500000  1
  Si  Si2  1  0.064774  0.849448  0.671820  1
  Si  Si3  1  0.671820  0.064774  0.849448  1
  Si  Si4  1  0.849448  0.671820  0.064774  1
  Si  Si5  1  0.173450  0.351909  0.562577  1
  Si  Si6  1  0.562577  0.173450  0.351909  1
  Si  Si7  1  0.351909  0.562577  0.173450  1
  Si  Si8  1  0.935226  0.150552  0.328180  1
  Si  Si9  1  0.328180  0.935226  0.150552  1
  Si  Si10  1  0.150552  0.328180  0.935226  1
  Si  Si11  1  0.826550  0.648091  0.437423  1
  Si  Si12  1  0.437423  0.826550  0.648091  1
  Si  Si13  1  0.648091  0.437423  0.826550  1
  Si  Si14  1  0.750211  0.750211  0.750211  1
  Si  Si15  1  0.249789  0.249789  0.249789  1
  Ir  Ir16  1  0.069639  0.748291  0.433169  1
  Ir  Ir17  1  0.433169  0.069639  0.748291  1
  Ir  Ir18  1  0.748291  0.433169  0.069639  1
  Ir  Ir19  1  0.930361  0.251709  0.566831  1
  Ir  Ir20  1  0.566831  0.930361  0.251709  1
  Ir  Ir21  1  0.251709  0.566831  0.930361  1
