# generated using pymatgen
data_Li3Tb2NdAgSn4
_symmetry_space_group_name_H-M   'P 1'
_cell_length_a   4.64688323
_cell_length_b   7.17364776
_cell_length_c   8.74401383
_cell_angle_alpha   114.16817627
_cell_angle_beta   105.40171478
_cell_angle_gamma   90.00481967
_symmetry_Int_Tables_number   1
_chemical_formula_structural   Li3Tb2NdAgSn4
_chemical_formula_sum   'Li3 Tb2 Nd1 Ag1 Sn4'
_cell_volume   254.41348788
_cell_formula_units_Z   1
loop_
 _symmetry_equiv_pos_site_id
 _symmetry_equiv_pos_as_xyz
  1  'x, y, z'
loop_
 _atom_site_type_symbol
 _atom_site_label
 _atom_site_symmetry_multiplicity
 _atom_site_fract_x
 _atom_site_fract_y
 _atom_site_fract_z
 _atom_site_occupancy
  Li  Li0  1  0.327083  0.013555  0.654174  1
  Li  Li1  1  0.670469  0.980793  0.340915  1
  Li  Li2  1  0.325373  0.635524  0.650809  1
  Tb  Tb3  1  0.128963  0.629013  0.257973  1
  Tb  Tb4  1  0.002692  0.003021  0.005286  1
  Nd  Nd5  1  0.871771  0.374308  0.743271  1
  Ag  Ag6  1  0.673332  0.366186  0.346761  1
  Sn  Sn7  1  0.214075  0.202623  0.428305  1
  Sn  Sn8  1  0.787854  0.794211  0.575790  1
  Sn  Sn9  1  0.498391  0.298799  0.996700  1
  Sn  Sn10  1  0.499998  0.701966  0.000014  1
