# generated using pymatgen
data_Tb2TmCrCo7P6Ir
_symmetry_space_group_name_H-M   'P 1'
_cell_length_a   3.69426200
_cell_length_b   10.66693700
_cell_length_c   12.34183000
_cell_angle_alpha   90.00000000
_cell_angle_beta   90.00000000
_cell_angle_gamma   90.00000000
_symmetry_Int_Tables_number   1
_chemical_formula_structural   Tb2TmCrCo7P6Ir
_chemical_formula_sum   'Tb4 Tm2 Cr2 Co14 P12 Ir2'
_cell_volume   486.34783041
_cell_formula_units_Z   2
loop_
 _symmetry_equiv_pos_site_id
 _symmetry_equiv_pos_as_xyz
  1  'x, y, z'
loop_
 _atom_site_type_symbol
 _atom_site_label
 _atom_site_symmetry_multiplicity
 _atom_site_fract_x
 _atom_site_fract_y
 _atom_site_fract_z
 _atom_site_occupancy
  Tb  Tb0  1  0.000000  0.500000  0.518941  1
  Tb  Tb1  1  0.500000  0.000000  0.481821  1
  Tb  Tb2  1  0.500000  0.814512  0.202595  1
  Tb  Tb3  1  0.500000  0.185488  0.202595  1
  Tm  Tm4  1  0.000000  0.685405  0.797268  1
  Tm  Tm5  1  0.000000  0.314595  0.797268  1
  Cr  Cr6  1  0.500000  0.500000  0.155223  1
  Cr  Cr7  1  0.000000  0.000000  0.843909  1
  Co  Co8  1  0.000000  0.500000  0.988275  1
  Co  Co9  1  0.500000  0.000000  0.009155  1
  Co  Co10  1  0.500000  0.331893  0.992756  1
  Co  Co11  1  0.500000  0.668107  0.992756  1
  Co  Co12  1  0.000000  0.168886  0.004434  1
  Co  Co13  1  0.000000  0.831114  0.004434  1
  Co  Co14  1  0.500000  0.297490  0.431386  1
  Co  Co15  1  0.500000  0.702510  0.431386  1
  Co  Co16  1  0.000000  0.202926  0.570980  1
  Co  Co17  1  0.000000  0.797074  0.570980  1
  Co  Co18  1  0.500000  0.880539  0.711102  1
  Co  Co19  1  0.500000  0.119461  0.711102  1
  Co  Co20  1  0.000000  0.618681  0.289916  1
  Co  Co21  1  0.000000  0.381319  0.289916  1
  P  P22  1  0.500000  0.500000  0.890494  1
  P  P23  1  0.000000  0.000000  0.107791  1
  P  P24  1  0.500000  0.500000  0.343875  1
  P  P25  1  0.000000  0.000000  0.656460  1
  P  P26  1  0.500000  0.303625  0.615858  1
  P  P27  1  0.500000  0.696375  0.615858  1
  P  P28  1  0.000000  0.196928  0.386560  1
  P  P29  1  0.000000  0.803072  0.386560  1
  P  P30  1  0.500000  0.846512  0.891705  1
  P  P31  1  0.500000  0.153488  0.891705  1
  P  P32  1  0.000000  0.651836  0.106699  1
  P  P33  1  0.000000  0.348164  0.106699  1
  Ir  Ir34  1  0.500000  0.500000  0.704761  1
  Ir  Ir35  1  0.000000  0.000000  0.296780  1
