# generated using pymatgen
data_Ho3Co3NiP6Ru5
_symmetry_space_group_name_H-M   'P 1'
_cell_length_a   3.85247800
_cell_length_b   10.67520600
_cell_length_c   12.54860400
_cell_angle_alpha   90.00000000
_cell_angle_beta   90.00000000
_cell_angle_gamma   90.00000000
_symmetry_Int_Tables_number   1
_chemical_formula_structural   Ho3Co3NiP6Ru5
_chemical_formula_sum   'Ho6 Co6 Ni2 P12 Ru10'
_cell_volume   516.07384118
_cell_formula_units_Z   2
loop_
 _symmetry_equiv_pos_site_id
 _symmetry_equiv_pos_as_xyz
  1  'x, y, z'
loop_
 _atom_site_type_symbol
 _atom_site_label
 _atom_site_symmetry_multiplicity
 _atom_site_fract_x
 _atom_site_fract_y
 _atom_site_fract_z
 _atom_site_occupancy
  Ho  Ho0  1  0.000000  0.500000  0.524456  1
  Ho  Ho1  1  0.500000  0.000000  0.475544  1
  Ho  Ho2  1  0.500000  0.819276  0.199339  1
  Ho  Ho3  1  0.500000  0.180724  0.199339  1
  Ho  Ho4  1  0.000000  0.680724  0.800661  1
  Ho  Ho5  1  0.000000  0.319276  0.800661  1
  Co  Co6  1  0.000000  0.500000  0.984549  1
  Co  Co7  1  0.500000  0.000000  0.015451  1
  Co  Co8  1  0.500000  0.332697  0.988849  1
  Co  Co9  1  0.500000  0.667303  0.988849  1
  Co  Co10  1  0.000000  0.167303  0.011151  1
  Co  Co11  1  0.000000  0.832697  0.011151  1
  Ni  Ni12  1  0.500000  0.500000  0.702897  1
  Ni  Ni13  1  0.000000  0.000000  0.297103  1
  P  P14  1  0.500000  0.313708  0.617595  1
  P  P15  1  0.500000  0.686292  0.617595  1
  P  P16  1  0.000000  0.186292  0.382405  1
  P  P17  1  0.000000  0.813708  0.382405  1
  P  P18  1  0.500000  0.500000  0.881982  1
  P  P19  1  0.000000  0.000000  0.118018  1
  P  P20  1  0.500000  0.845705  0.900998  1
  P  P21  1  0.500000  0.154295  0.900998  1
  P  P22  1  0.000000  0.654295  0.099002  1
  P  P23  1  0.000000  0.345705  0.099002  1
  P  P24  1  0.500000  0.500000  0.337981  1
  P  P25  1  0.000000  0.000000  0.662019  1
  Ru  Ru26  1  0.500000  0.298782  0.427983  1
  Ru  Ru27  1  0.500000  0.701218  0.427983  1
  Ru  Ru28  1  0.000000  0.201218  0.572017  1
  Ru  Ru29  1  0.000000  0.798782  0.572017  1
  Ru  Ru30  1  0.500000  0.874634  0.719502  1
  Ru  Ru31  1  0.500000  0.125366  0.719502  1
  Ru  Ru32  1  0.000000  0.625366  0.280498  1
  Ru  Ru33  1  0.000000  0.374634  0.280498  1
  Ru  Ru34  1  0.500000  0.500000  0.146718  1
  Ru  Ru35  1  0.000000  0.000000  0.853282  1
