# generated using pymatgen
data_Ba6Dy2Co4O15
_symmetry_space_group_name_H-M   'P 1'
_cell_length_a   6.06106300
_cell_length_b   8.08409529
_cell_length_c   18.51297300
_cell_angle_alpha   89.18976891
_cell_angle_beta   90.00000000
_cell_angle_gamma   90.00000000
_symmetry_Int_Tables_number   1
_chemical_formula_structural   Ba6Dy2Co4O15
_chemical_formula_sum   'Ba12 Dy4 Co8 O30'
_cell_volume   907.01185768
_cell_formula_units_Z   2
loop_
 _symmetry_equiv_pos_site_id
 _symmetry_equiv_pos_as_xyz
  1  'x, y, z'
loop_
 _atom_site_type_symbol
 _atom_site_label
 _atom_site_symmetry_multiplicity
 _atom_site_fract_x
 _atom_site_fract_y
 _atom_site_fract_z
 _atom_site_occupancy
  Ba  Ba0  1  0.276568  0.000000  0.250000  1
  Ba  Ba1  1  0.723432  0.000000  0.750000  1
  Ba  Ba2  1  0.329521  0.500000  0.250000  1
  Ba  Ba3  1  0.670479  0.500000  0.750000  1
  Ba  Ba4  1  0.748412  0.979041  0.088804  1
  Ba  Ba5  1  0.748412  0.020959  0.411196  1
  Ba  Ba6  1  0.251588  0.020959  0.911196  1
  Ba  Ba7  1  0.251588  0.979041  0.588804  1
  Ba  Ba8  1  0.247494  0.496408  0.578041  1
  Ba  Ba9  1  0.247494  0.503592  0.921959  1
  Ba  Ba10  1  0.752506  0.503592  0.421959  1
  Ba  Ba11  1  0.752506  0.496408  0.078041  1
  Dy  Dy12  1  0.251884  0.753567  0.411094  1
  Dy  Dy13  1  0.251884  0.246433  0.088906  1
  Dy  Dy14  1  0.748116  0.246433  0.588906  1
  Dy  Dy15  1  0.748116  0.753567  0.911094  1
  Co  Co16  1  0.252799  0.753882  0.062042  1
  Co  Co17  1  0.252799  0.246118  0.437958  1
  Co  Co18  1  0.747201  0.246118  0.937958  1
  Co  Co19  1  0.747201  0.753882  0.562042  1
  Co  Co20  1  0.775738  0.768691  0.264330  1
  Co  Co21  1  0.775738  0.231309  0.235670  1
  Co  Co22  1  0.224262  0.231309  0.735670  1
  Co  Co23  1  0.224262  0.768691  0.764330  1
  O  O24  1  0.818730  0.000000  0.250000  1
  O  O25  1  0.181270  0.000000  0.750000  1
  O  O26  1  0.767878  0.958074  0.605826  1
  O  O27  1  0.767878  0.041926  0.894174  1
  O  O28  1  0.232122  0.041926  0.394174  1
  O  O29  1  0.232122  0.958074  0.105826  1
  O  O30  1  0.243850  0.532683  0.088302  1
  O  O31  1  0.243850  0.467317  0.411698  1
  O  O32  1  0.756150  0.467317  0.911698  1
  O  O33  1  0.756150  0.532683  0.588302  1
  O  O34  1  0.036926  0.717800  0.310958  1
  O  O35  1  0.036926  0.282200  0.189042  1
  O  O36  1  0.963074  0.282200  0.689042  1
  O  O37  1  0.963074  0.717800  0.810958  1
  O  O38  1  0.543109  0.751708  0.335916  1
  O  O39  1  0.543109  0.248292  0.164084  1
  O  O40  1  0.456891  0.248292  0.664084  1
  O  O41  1  0.456891  0.751708  0.835916  1
  O  O42  1  0.489347  0.764182  0.502162  1
  O  O43  1  0.489347  0.235818  0.997838  1
  O  O44  1  0.510653  0.235818  0.497838  1
  O  O45  1  0.510653  0.764182  0.002162  1
  O  O46  1  0.014295  0.764784  0.993130  1
  O  O47  1  0.014295  0.235216  0.506870  1
  O  O48  1  0.985705  0.235216  0.006870  1
  O  O49  1  0.985705  0.764784  0.493130  1
  O  O50  1  0.348874  0.697899  0.682478  1
  O  O51  1  0.348874  0.302101  0.817522  1
  O  O52  1  0.651126  0.302101  0.317522  1
  O  O53  1  0.651126  0.697899  0.182478  1
