# generated using pymatgen
data_LuTh2Ni9
_symmetry_space_group_name_H-M   'P 1'
_cell_length_a   8.74552931
_cell_length_b   8.74553014
_cell_length_c   8.74553006
_cell_angle_alpha   33.20698194
_cell_angle_beta   33.20698785
_cell_angle_gamma   33.20698259
_symmetry_Int_Tables_number   1
_chemical_formula_structural   LuTh2Ni9
_chemical_formula_sum   'Lu1 Th2 Ni9'
_cell_volume   178.60048047
_cell_formula_units_Z   1
loop_
 _symmetry_equiv_pos_site_id
 _symmetry_equiv_pos_as_xyz
  1  'x, y, z'
loop_
 _atom_site_type_symbol
 _atom_site_label
 _atom_site_symmetry_multiplicity
 _atom_site_fract_x
 _atom_site_fract_y
 _atom_site_fract_z
 _atom_site_occupancy
  Lu  Lu0  1  0.137481  0.137481  0.137481  1
  Th  Th1  1  0.001980  0.001980  0.001980  1
  Th  Th2  1  0.860722  0.860722  0.860722  1
  Ni  Ni3  1  0.499187  0.499187  0.499187  1
  Ni  Ni4  1  0.666640  0.666640  0.666640  1
  Ni  Ni5  1  0.333373  0.333373  0.333373  1
  Ni  Ni6  1  0.415729  0.919649  0.415729  1
  Ni  Ni7  1  0.415729  0.415729  0.919649  1
  Ni  Ni8  1  0.919649  0.415729  0.415729  1
  Ni  Ni9  1  0.583867  0.081773  0.583867  1
  Ni  Ni10  1  0.583867  0.583867  0.081773  1
  Ni  Ni11  1  0.081773  0.583867  0.583867  1
