# generated using pymatgen
data_ZrBr35
_symmetry_space_group_name_H-M   'P 1'
_cell_length_a   15.98197694
_cell_length_b   11.40028128
_cell_length_c   10.79188300
_cell_angle_alpha   88.81408278
_cell_angle_beta   66.02770512
_cell_angle_gamma   92.31545406
_symmetry_Int_Tables_number   1
_chemical_formula_structural   ZrBr35
_chemical_formula_sum   'Zr1 Br35'
_cell_volume   1793.71352310
_cell_formula_units_Z   1
loop_
 _symmetry_equiv_pos_site_id
 _symmetry_equiv_pos_as_xyz
  1  'x, y, z'
loop_
 _atom_site_type_symbol
 _atom_site_label
 _atom_site_symmetry_multiplicity
 _atom_site_fract_x
 _atom_site_fract_y
 _atom_site_fract_z
 _atom_site_occupancy
  Zr  Zr0  1  0.221999  0.440367  0.476286  1
  Br  Br1  1  0.513774  0.259928  0.520754  1
  Br  Br2  1  0.764663  0.577483  0.556953  1
  Br  Br3  1  0.492207  0.682684  0.747435  1
  Br  Br4  1  0.046567  0.886631  0.870872  1
  Br  Br5  1  0.888872  0.158671  0.004627  1
  Br  Br6  1  0.649422  0.320209  0.289170  1
  Br  Br7  1  0.624963  0.350220  0.835711  1
  Br  Br8  1  0.357184  0.751333  0.703339  1
  Br  Br9  1  0.351984  0.586794  0.237375  1
  Br  Br10  1  0.642369  0.144849  0.809297  1
  Br  Br11  1  0.901616  0.537905  0.351892  1
  Br  Br12  1  0.047954  0.951045  0.645034  1
  Br  Br13  1  0.896618  0.107320  0.238474  1
  Br  Br14  1  0.879393  0.214675  0.787975  1
  Br  Br15  1  0.653910  0.048025  0.233935  1
  Br  Br16  1  0.021321  0.816362  0.113974  1
  Br  Br17  1  0.370550  0.971353  0.722189  1
  Br  Br18  1  0.895217  0.316727  0.305647  1
  Br  Br19  1  0.866865  0.926417  0.719969  1
  Br  Br20  1  0.897880  0.659318  0.788063  1
  Br  Br21  1  0.323243  0.030960  0.285012  1
  Br  Br22  1  0.344032  0.327209  0.258850  1
  Br  Br23  1  0.627964  0.613722  0.794077  1
  Br  Br24  1  0.115756  0.435375  0.351688  1
  Br  Br25  1  0.699921  0.907555  0.795593  1
  Br  Br26  1  0.869418  0.450941  0.801491  1
  Br  Br27  1  0.495078  0.036515  0.259053  1
  Br  Br28  1  0.153043  0.268922  0.639662  1
  Br  Br29  1  0.673236  0.771006  0.270872  1
  Br  Br30  1  0.846881  0.796319  0.194609  1
  Br  Br31  1  0.381405  0.197432  0.738124  1
  Br  Br32  1  0.357268  0.485717  0.552074  1
  Br  Br33  1  0.654765  0.542631  0.268369  1
  Br  Br34  1  0.153848  0.625579  0.599793  1
  Br  Br35  1  0.318813  0.801804  0.231766  1
