# generated using pymatgen
data_Ac2Ce(SnIr)3
_symmetry_space_group_name_H-M   'P 1'
_cell_length_a   7.71200436
_cell_length_b   7.69009507
_cell_length_c   4.22952900
_cell_angle_alpha   90.00000000
_cell_angle_beta   90.00000000
_cell_angle_gamma   119.90606509
_symmetry_Int_Tables_number   1
_chemical_formula_structural   Ac2Ce(SnIr)3
_chemical_formula_sum   'Ac2 Ce1 Sn3 Ir3'
_cell_volume   217.43623442
_cell_formula_units_Z   1
loop_
 _symmetry_equiv_pos_site_id
 _symmetry_equiv_pos_as_xyz
  1  'x, y, z'
loop_
 _atom_site_type_symbol
 _atom_site_label
 _atom_site_symmetry_multiplicity
 _atom_site_fract_x
 _atom_site_fract_y
 _atom_site_fract_z
 _atom_site_occupancy
  Ac  Ac0  1  0.415402  0.417116  0.000000  1
  Ac  Ac1  1  0.584598  0.001714  0.000000  1
  Ce  Ce2  1  0.000000  0.584657  0.000000  1
  Sn  Sn3  1  0.000000  0.245639  0.500000  1
  Sn  Sn4  1  0.760017  0.753671  0.500000  1
  Sn  Sn5  1  0.239983  0.993654  0.500000  1
  Ir  Ir6  1  0.000000  0.987404  0.000000  1
  Ir  Ir7  1  0.701386  0.358766  0.500000  1
  Ir  Ir8  1  0.298614  0.657380  0.500000  1
