# generated using pymatgen
data_Dy3Ni9AsP5
_symmetry_space_group_name_H-M   'P 1'
_cell_length_a   3.79832200
_cell_length_b   10.51679000
_cell_length_c   12.36130000
_cell_angle_alpha   90.00000000
_cell_angle_beta   90.00000000
_cell_angle_gamma   90.00000000
_symmetry_Int_Tables_number   1
_chemical_formula_structural   Dy3Ni9AsP5
_chemical_formula_sum   'Dy6 Ni18 As2 P10'
_cell_volume   493.78640366
_cell_formula_units_Z   2
loop_
 _symmetry_equiv_pos_site_id
 _symmetry_equiv_pos_as_xyz
  1  'x, y, z'
loop_
 _atom_site_type_symbol
 _atom_site_label
 _atom_site_symmetry_multiplicity
 _atom_site_fract_x
 _atom_site_fract_y
 _atom_site_fract_z
 _atom_site_occupancy
  Dy  Dy0  1  0.000000  0.500000  0.525088  1
  Dy  Dy1  1  0.500000  0.000000  0.474912  1
  Dy  Dy2  1  0.500000  0.816474  0.204356  1
  Dy  Dy3  1  0.500000  0.183526  0.204356  1
  Dy  Dy4  1  0.000000  0.683526  0.795644  1
  Dy  Dy5  1  0.000000  0.316474  0.795644  1
  Ni  Ni6  1  0.500000  0.500000  0.150796  1
  Ni  Ni7  1  0.000000  0.000000  0.849204  1
  Ni  Ni8  1  0.500000  0.500000  0.700629  1
  Ni  Ni9  1  0.000000  0.000000  0.299371  1
  Ni  Ni10  1  0.000000  0.500000  0.983740  1
  Ni  Ni11  1  0.500000  0.000000  0.016260  1
  Ni  Ni12  1  0.500000  0.332490  0.994446  1
  Ni  Ni13  1  0.500000  0.667510  0.994446  1
  Ni  Ni14  1  0.000000  0.167510  0.005554  1
  Ni  Ni15  1  0.000000  0.832490  0.005554  1
  Ni  Ni16  1  0.500000  0.291716  0.433326  1
  Ni  Ni17  1  0.500000  0.708284  0.433326  1
  Ni  Ni18  1  0.000000  0.208284  0.566674  1
  Ni  Ni19  1  0.000000  0.791716  0.566674  1
  Ni  Ni20  1  0.500000  0.874501  0.714764  1
  Ni  Ni21  1  0.500000  0.125499  0.714764  1
  Ni  Ni22  1  0.000000  0.625499  0.285236  1
  Ni  Ni23  1  0.000000  0.374501  0.285236  1
  As  As24  1  0.500000  0.500000  0.345213  1
  As  As25  1  0.000000  0.000000  0.654787  1
  P  P26  1  0.500000  0.500000  0.876859  1
  P  P27  1  0.000000  0.000000  0.123141  1
  P  P28  1  0.500000  0.313674  0.616610  1
  P  P29  1  0.500000  0.686326  0.616610  1
  P  P30  1  0.000000  0.186326  0.383390  1
  P  P31  1  0.000000  0.813674  0.383390  1
  P  P32  1  0.500000  0.847829  0.894278  1
  P  P33  1  0.500000  0.152171  0.894278  1
  P  P34  1  0.000000  0.652171  0.105722  1
  P  P35  1  0.000000  0.347829  0.105722  1
