# generated using pymatgen
data_Dy3Y5Re2(B12Ru)2
_symmetry_space_group_name_H-M   'P 1'
_cell_length_a   3.67623500
_cell_length_b   9.16566357
_cell_length_c   11.55656303
_cell_angle_alpha   90.21271509
_cell_angle_beta   90.00000000
_cell_angle_gamma   90.00000000
_symmetry_Int_Tables_number   1
_chemical_formula_structural   Dy3Y5Re2(B12Ru)2
_chemical_formula_sum   'Dy3 Y5 Re2 B24 Ru2'
_cell_volume   389.39724705
_cell_formula_units_Z   1
loop_
 _symmetry_equiv_pos_site_id
 _symmetry_equiv_pos_as_xyz
  1  'x, y, z'
loop_
 _atom_site_type_symbol
 _atom_site_label
 _atom_site_symmetry_multiplicity
 _atom_site_fract_x
 _atom_site_fract_y
 _atom_site_fract_z
 _atom_site_occupancy
  Dy  Dy0  1  0.000000  0.057141  0.629619  1
  Dy  Dy1  1  0.000000  0.443002  0.129452  1
  Dy  Dy2  1  0.000000  0.556987  0.870548  1
  Y  Y3  1  0.000000  0.321272  0.412486  1
  Y  Y4  1  0.000000  0.678741  0.587506  1
  Y  Y5  1  0.000000  0.824908  0.084472  1
  Y  Y6  1  0.000000  0.175082  0.915547  1
  Y  Y7  1  0.000000  0.943041  0.370640  1
  Re  Re8  1  0.000000  0.138728  0.179526  1
  Re  Re9  1  0.000000  0.861339  0.820345  1
  B  B10  1  0.500000  0.554108  0.432819  1
  B  B11  1  0.500000  0.445894  0.567188  1
  B  B12  1  0.500000  0.053333  0.066954  1
  B  B13  1  0.500000  0.946668  0.933037  1
  B  B14  1  0.500000  0.748323  0.418818  1
  B  B15  1  0.500000  0.251597  0.581264  1
  B  B16  1  0.500000  0.248839  0.081228  1
  B  B17  1  0.500000  0.751159  0.918767  1
  B  B18  1  0.500000  0.790484  0.265994  1
  B  B19  1  0.500000  0.209479  0.733890  1
  B  B20  1  0.500000  0.291682  0.234539  1
  B  B21  1  0.500000  0.708337  0.765453  1
  B  B22  1  0.500000  0.631260  0.186344  1
  B  B23  1  0.500000  0.368715  0.813637  1
  B  B24  1  0.500000  0.131711  0.314571  1
  B  B25  1  0.500000  0.868407  0.685464  1
  B  B26  1  0.500000  0.983205  0.212303  1
  B  B27  1  0.500000  0.016741  0.787599  1
  B  B28  1  0.500000  0.483898  0.288127  1
  B  B29  1  0.500000  0.516073  0.711861  1
  B  B30  1  0.500000  0.603666  0.028817  1
  B  B31  1  0.500000  0.396324  0.971180  1
  B  B32  1  0.500000  0.104361  0.471243  1
  B  B33  1  0.500000  0.895687  0.528823  1
  Ru  Ru34  1  0.000000  0.637811  0.321596  1
  Ru  Ru35  1  0.000000  0.361995  0.678348  1
