# generated using pymatgen
data_Dy6GaCoRu
_symmetry_space_group_name_H-M   'P 1'
_cell_length_a   8.32786290
_cell_length_b   8.32786339
_cell_length_c   8.32786399
_cell_angle_alpha   112.51868791
_cell_angle_beta   110.15379748
_cell_angle_gamma   105.81153335
_symmetry_Int_Tables_number   1
_chemical_formula_structural   Dy6GaCoRu
_chemical_formula_sum   'Dy12 Ga2 Co2 Ru2'
_cell_volume   443.05809500
_cell_formula_units_Z   2
loop_
 _symmetry_equiv_pos_site_id
 _symmetry_equiv_pos_as_xyz
  1  'x, y, z'
loop_
 _atom_site_type_symbol
 _atom_site_label
 _atom_site_symmetry_multiplicity
 _atom_site_fract_x
 _atom_site_fract_y
 _atom_site_fract_z
 _atom_site_occupancy
  Dy  Dy0  1  0.323982  0.509230  0.185247  1
  Dy  Dy1  1  0.323982  0.138735  0.814752  1
  Dy  Dy2  1  0.676018  0.861265  0.185247  1
  Dy  Dy3  1  0.676017  0.490770  0.814752  1
  Dy  Dy4  1  0.563118  0.256155  0.306963  1
  Dy  Dy5  1  0.949191  0.256155  0.693037  1
  Dy  Dy6  1  0.436882  0.743845  0.693036  1
  Dy  Dy7  1  0.050809  0.743845  0.306963  1
  Dy  Dy8  1  0.179914  0.219662  0.399576  1
  Dy  Dy9  1  0.820086  0.780338  0.600424  1
  Dy  Dy10  1  0.820086  0.219662  0.039749  1
  Dy  Dy11  1  0.179914  0.780337  0.960251  1
  Ga  Ga12  1  0.500000  0.000000  0.500000  1
  Ga  Ga13  1  0.000000  0.500000  0.500000  1
  Co  Co14  1  0.112302  0.112302  0.000000  1
  Co  Co15  1  0.887698  0.887698  0.000000  1
  Ru  Ru16  1  0.671783  0.500000  0.171783  1
  Ru  Ru17  1  0.328216  0.500000  0.828216  1
