# generated using pymatgen
data_CsGaSiSe4
_symmetry_space_group_name_H-M   'P 1'
_cell_length_a   17.15747400
_cell_length_b   7.29193370
_cell_length_c   8.21265803
_cell_angle_alpha   70.32128144
_cell_angle_beta   90.00000000
_cell_angle_gamma   90.00000000
_symmetry_Int_Tables_number   1
_chemical_formula_structural   CsGaSiSe4
_chemical_formula_sum   'Cs4 Ga4 Si4 Se16'
_cell_volume   967.48504595
_cell_formula_units_Z   4
loop_
 _symmetry_equiv_pos_site_id
 _symmetry_equiv_pos_as_xyz
  1  'x, y, z'
loop_
 _atom_site_type_symbol
 _atom_site_label
 _atom_site_symmetry_multiplicity
 _atom_site_fract_x
 _atom_site_fract_y
 _atom_site_fract_z
 _atom_site_occupancy
  Cs  Cs0  1  0.396428  0.956512  0.182076  1
  Cs  Cs1  1  0.896428  0.043488  0.817924  1
  Cs  Cs2  1  0.602979  0.526758  0.829691  1
  Cs  Cs3  1  0.102979  0.473242  0.170309  1
  Ga  Ga4  1  0.584237  0.166833  0.476736  1
  Ga  Ga5  1  0.084237  0.833167  0.523264  1
  Ga  Ga6  1  0.272287  0.590401  0.699641  1
  Ga  Ga7  1  0.772287  0.409599  0.300359  1
  Si  Si8  1  0.420380  0.317006  0.541365  1
  Si  Si9  1  0.920380  0.682994  0.458635  1
  Si  Si10  1  0.726504  0.912702  0.279171  1
  Si  Si11  1  0.226504  0.087298  0.720829  1
  Se  Se12  1  0.600161  0.889667  0.375506  1
  Se  Se13  1  0.100161  0.110333  0.624494  1
  Se  Se14  1  0.409989  0.586745  0.624914  1
  Se  Se15  1  0.909989  0.413255  0.375086  1
  Se  Se16  1  0.801260  0.788472  0.529602  1
  Se  Se17  1  0.301260  0.211528  0.470398  1
  Se  Se18  1  0.200616  0.715137  0.435457  1
  Se  Se19  1  0.700616  0.284863  0.564543  1
  Se  Se20  1  0.764617  0.217552  0.105143  1
  Se  Se21  1  0.264617  0.782448  0.894857  1
  Se  Se22  1  0.235555  0.267293  0.901325  1
  Se  Se23  1  0.735555  0.732707  0.098675  1
  Se  Se24  1  0.996107  0.918672  0.267890  1
  Se  Se25  1  0.496107  0.081328  0.732110  1
  Se  Se26  1  0.988877  0.603404  0.714108  1
  Se  Se27  1  0.488877  0.396596  0.285892  1
