# generated using pymatgen
data_Cs4GdUBr12
_symmetry_space_group_name_H-M   'P 1'
_cell_length_a   8.00402200
_cell_length_b   8.00402200
_cell_length_c   11.97652600
_cell_angle_alpha   90.00000000
_cell_angle_beta   90.00000000
_cell_angle_gamma   90.00000000
_symmetry_Int_Tables_number   1
_chemical_formula_structural   Cs4GdUBr12
_chemical_formula_sum   'Cs4 Gd1 U1 Br12'
_cell_volume   767.26857114
_cell_formula_units_Z   1
loop_
 _symmetry_equiv_pos_site_id
 _symmetry_equiv_pos_as_xyz
  1  'x, y, z'
loop_
 _atom_site_type_symbol
 _atom_site_label
 _atom_site_symmetry_multiplicity
 _atom_site_fract_x
 _atom_site_fract_y
 _atom_site_fract_z
 _atom_site_occupancy
  Cs  Cs0  1  0.500000  0.000000  0.793013  1
  Cs  Cs1  1  0.500000  0.000000  0.206987  1
  Cs  Cs2  1  0.000000  0.500000  0.206987  1
  Cs  Cs3  1  0.000000  0.500000  0.793013  1
  Gd  Gd4  1  0.000000  0.000000  0.000000  1
  U  U5  1  0.500000  0.500000  0.500000  1
  Br  Br6  1  0.749272  0.249688  0.000000  1
  Br  Br7  1  0.250728  0.750312  0.000000  1
  Br  Br8  1  0.500000  0.500000  0.273235  1
  Br  Br9  1  0.323732  0.213521  0.500000  1
  Br  Br10  1  0.249688  0.250728  0.000000  1
  Br  Br11  1  0.786479  0.323732  0.500000  1
  Br  Br12  1  0.000000  0.000000  0.237180  1
  Br  Br13  1  0.676268  0.786479  0.500000  1
  Br  Br14  1  0.213521  0.676268  0.500000  1
  Br  Br15  1  0.500000  0.500000  0.726765  1
  Br  Br16  1  0.750312  0.749272  0.000000  1
  Br  Br17  1  0.000000  0.000000  0.762820  1
