# generated using pymatgen
data_TaTi4NbSi2B
_symmetry_space_group_name_H-M   'P 1'
_cell_length_a   6.74797337
_cell_length_b   6.75028740
_cell_length_c   3.39599900
_cell_angle_alpha   90.00000000
_cell_angle_beta   90.00000000
_cell_angle_gamma   119.95071356
_symmetry_Int_Tables_number   1
_chemical_formula_structural   TaTi4NbSi2B
_chemical_formula_sum   'Ta1 Ti4 Nb1 Si2 B1'
_cell_volume   134.03224251
_cell_formula_units_Z   1
loop_
 _symmetry_equiv_pos_site_id
 _symmetry_equiv_pos_as_xyz
  1  'x, y, z'
loop_
 _atom_site_type_symbol
 _atom_site_label
 _atom_site_symmetry_multiplicity
 _atom_site_fract_x
 _atom_site_fract_y
 _atom_site_fract_z
 _atom_site_occupancy
  Ta  Ta0  1  0.400093  0.400249  0.000000  1
  Ti  Ti1  1  0.237686  0.997921  0.500000  1
  Ti  Ti2  1  0.763054  0.761254  0.500000  1
  Ti  Ti3  1  0.999937  0.240459  0.500000  1
  Ti  Ti4  1  0.999650  0.597269  0.000000  1
  Nb  Nb5  1  0.598511  0.999642  0.000000  1
  Si  Si6  1  0.331444  0.665094  0.500000  1
  Si  Si7  1  0.668155  0.334703  0.500000  1
  B  B8  1  0.001470  0.003409  0.000000  1
