# generated using pymatgen
data_DyPu9O20
_symmetry_space_group_name_H-M   'P 1'
_cell_length_a   6.58943817
_cell_length_b   7.60072871
_cell_length_c   8.49828018
_cell_angle_alpha   102.91068676
_cell_angle_beta   97.44109255
_cell_angle_gamma   106.76955046
_symmetry_Int_Tables_number   1
_chemical_formula_structural   DyPu9O20
_chemical_formula_sum   'Dy1 Pu9 O20'
_cell_volume   388.55441022
_cell_formula_units_Z   1
loop_
 _symmetry_equiv_pos_site_id
 _symmetry_equiv_pos_as_xyz
  1  'x, y, z'
loop_
 _atom_site_type_symbol
 _atom_site_label
 _atom_site_symmetry_multiplicity
 _atom_site_fract_x
 _atom_site_fract_y
 _atom_site_fract_z
 _atom_site_occupancy
  Dy  Dy0  1  0.000000  0.000000  0.000000  1
  Pu  Pu1  1  0.800299  0.600729  0.601000  1
  Pu  Pu2  1  0.000000  0.500000  0.000000  1
  Pu  Pu3  1  0.599947  0.199391  0.199506  1
  Pu  Pu4  1  0.800177  0.099816  0.600948  1
  Pu  Pu5  1  0.601080  0.700631  0.199684  1
  Pu  Pu6  1  0.199701  0.399271  0.399000  1
  Pu  Pu7  1  0.398920  0.299369  0.800316  1
  Pu  Pu8  1  0.199823  0.900184  0.399052  1
  Pu  Pu9  1  0.400053  0.800609  0.800494  1
  O  O10  1  0.849956  0.324844  0.451492  1
  O  O11  1  0.644826  0.923341  0.051483  1
  O  O12  1  0.949557  0.770830  0.152361  1
  O  O13  1  0.851048  0.825934  0.450345  1
  O  O14  1  0.448357  0.523610  0.650068  1
  O  O15  1  0.648683  0.425181  0.049286  1
  O  O16  1  0.747482  0.374153  0.750421  1
  O  O17  1  0.254318  0.126741  0.253607  1
  O  O18  1  0.448757  0.025390  0.648959  1
  O  O19  1  0.948735  0.279939  0.152316  1
  O  O20  1  0.551243  0.974610  0.351041  1
  O  O21  1  0.051265  0.720061  0.847684  1
  O  O22  1  0.252518  0.625847  0.249579  1
  O  O23  1  0.745682  0.873259  0.746393  1
  O  O24  1  0.351317  0.574819  0.950714  1
  O  O25  1  0.050443  0.229170  0.847639  1
  O  O26  1  0.551643  0.476390  0.349932  1
  O  O27  1  0.148952  0.174066  0.549655  1
  O  O28  1  0.355174  0.076659  0.948517  1
  O  O29  1  0.150044  0.675156  0.548508  1
