# generated using pymatgen
data_Tb3Dy(PS4)4
_symmetry_space_group_name_H-M   'P 1'
_cell_length_a   6.58856888
_cell_length_b   8.83749757
_cell_length_c   12.80090447
_cell_angle_alpha   59.21542423
_cell_angle_beta   89.94324156
_cell_angle_gamma   89.96547827
_symmetry_Int_Tables_number   1
_chemical_formula_structural   Tb3Dy(PS4)4
_chemical_formula_sum   'Tb3 Dy1 P4 S16'
_cell_volume   640.32933783
_cell_formula_units_Z   1
loop_
 _symmetry_equiv_pos_site_id
 _symmetry_equiv_pos_as_xyz
  1  'x, y, z'
loop_
 _atom_site_type_symbol
 _atom_site_label
 _atom_site_symmetry_multiplicity
 _atom_site_fract_x
 _atom_site_fract_y
 _atom_site_fract_z
 _atom_site_occupancy
  Tb  Tb0  1  0.318519  0.556587  0.834959  1
  Tb  Tb1  1  0.818906  0.444188  0.664659  1
  Tb  Tb2  1  0.681308  0.444469  0.164790  1
  Dy  Dy3  1  0.180203  0.554619  0.335688  1
  P  P4  1  0.229360  0.686691  0.040440  1
  P  P5  1  0.730041  0.314430  0.460552  1
  P  P6  1  0.770531  0.312526  0.960939  1
  P  P7  1  0.270393  0.686463  0.537989  1
  S  S8  1  0.232615  0.424152  0.588189  1
  S  S9  1  0.733187  0.574873  0.910987  1
  S  S10  1  0.769501  0.576325  0.410953  1
  S  S11  1  0.267098  0.424984  0.089120  1
  S  S12  1  0.255231  0.842954  0.356355  1
  S  S13  1  0.755064  0.155942  0.142573  1
  S  S14  1  0.744112  0.156499  0.642082  1
  S  S15  1  0.244811  0.844042  0.858877  1
  S  S16  1  0.536669  0.718796  0.610868  1
  S  S17  1  0.037327  0.280819  0.887853  1
  S  S18  1  0.463155  0.282999  0.387795  1
  S  S19  1  0.962624  0.718532  0.113522  1
  S  S20  1  0.052185  0.738774  0.631548  1
  S  S21  1  0.551740  0.261187  0.867512  1
  S  S22  1  0.948073  0.261371  0.367377  1
  S  S23  1  0.447346  0.737779  0.134371  1
