# generated using pymatgen
data_La3Pr3Y2(CdPd)2
_symmetry_space_group_name_H-M   'P 1'
_cell_length_a   10.01842100
_cell_length_b   10.05041541
_cell_length_c   10.05041485
_cell_angle_alpha   59.78950349
_cell_angle_beta   60.10524510
_cell_angle_gamma   60.10524920
_symmetry_Int_Tables_number   1
_chemical_formula_structural   La3Pr3Y2(CdPd)2
_chemical_formula_sum   'La6 Pr6 Y4 Cd4 Pd4'
_cell_volume   715.55578991
_cell_formula_units_Z   2
loop_
 _symmetry_equiv_pos_site_id
 _symmetry_equiv_pos_as_xyz
  1  'x, y, z'
loop_
 _atom_site_type_symbol
 _atom_site_label
 _atom_site_symmetry_multiplicity
 _atom_site_fract_x
 _atom_site_fract_y
 _atom_site_fract_z
 _atom_site_occupancy
  La  La0  1  0.349333  0.354030  0.354030  1
  La  La1  1  0.354030  0.349333  0.942607  1
  La  La2  1  0.354030  0.942607  0.349333  1
  La  La3  1  0.942607  0.354030  0.354030  1
  La  La4  1  0.811501  0.188499  0.188499  1
  La  La5  1  0.188499  0.811501  0.811501  1
  Pr  Pr6  1  0.934939  0.565061  0.565061  1
  Pr  Pr7  1  0.565061  0.934939  0.934939  1
  Pr  Pr8  1  0.565357  0.934643  0.565357  1
  Pr  Pr9  1  0.934643  0.565357  0.934643  1
  Pr  Pr10  1  0.565357  0.565357  0.934643  1
  Pr  Pr11  1  0.934643  0.934643  0.565357  1
  Y  Y12  1  0.190137  0.809863  0.190137  1
  Y  Y13  1  0.809863  0.190137  0.809863  1
  Y  Y14  1  0.190137  0.190137  0.809863  1
  Y  Y15  1  0.809863  0.809863  0.190137  1
  Cd  Cd16  1  0.582500  0.579523  0.579523  1
  Cd  Cd17  1  0.579523  0.582500  0.258453  1
  Cd  Cd18  1  0.579523  0.258453  0.582500  1
  Cd  Cd19  1  0.258453  0.579523  0.579523  1
  Pd  Pd20  1  0.144029  0.140577  0.140577  1
  Pd  Pd21  1  0.140577  0.144029  0.574818  1
  Pd  Pd22  1  0.140577  0.574818  0.144029  1
  Pd  Pd23  1  0.574818  0.140577  0.140577  1
