# generated using pymatgen
data_OsCl9
_symmetry_space_group_name_H-M   'P 1'
_cell_length_a   8.40614317
_cell_length_b   7.60561173
_cell_length_c   12.83200340
_cell_angle_alpha   71.35391205
_cell_angle_beta   89.90740872
_cell_angle_gamma   89.93998742
_symmetry_Int_Tables_number   1
_chemical_formula_structural   OsCl9
_chemical_formula_sum   'Os2 Cl18'
_cell_volume   777.33687588
_cell_formula_units_Z   2
loop_
 _symmetry_equiv_pos_site_id
 _symmetry_equiv_pos_as_xyz
  1  'x, y, z'
loop_
 _atom_site_type_symbol
 _atom_site_label
 _atom_site_symmetry_multiplicity
 _atom_site_fract_x
 _atom_site_fract_y
 _atom_site_fract_z
 _atom_site_occupancy
  Os  Os0  1  0.508805  0.000331  0.249392  1
  Os  Os1  1  0.491195  0.999669  0.750608  1
  Cl  Cl2  1  0.951230  0.500786  0.750457  1
  Cl  Cl3  1  0.048770  0.499214  0.249543  1
  Cl  Cl4  1  0.117407  0.322120  0.685594  1
  Cl  Cl5  1  0.476249  0.239914  0.821298  1
  Cl  Cl6  1  0.279785  0.138311  0.620082  1
  Cl  Cl7  1  0.674736  0.153326  0.625129  1
  Cl  Cl8  1  0.885257  0.324518  0.186560  1
  Cl  Cl9  1  0.524472  0.238891  0.321398  1
  Cl  Cl10  1  0.325264  0.846674  0.374871  1
  Cl  Cl11  1  0.720215  0.861689  0.379918  1
  Cl  Cl12  1  0.324650  0.153575  0.125248  1
  Cl  Cl13  1  0.719497  0.137466  0.120001  1
  Cl  Cl14  1  0.523751  0.760086  0.178702  1
  Cl  Cl15  1  0.882593  0.677880  0.314406  1
  Cl  Cl16  1  0.280503  0.862534  0.879999  1
  Cl  Cl17  1  0.675350  0.846425  0.874752  1
  Cl  Cl18  1  0.475528  0.761109  0.678602  1
  Cl  Cl19  1  0.114743  0.675482  0.813440  1
