# generated using pymatgen
data_La12Nd2Ir5Pt
_symmetry_space_group_name_H-M   'P 1'
_cell_length_a   6.51476524
_cell_length_b   10.26991598
_cell_length_c   10.26991531
_cell_angle_alpha   119.93417187
_cell_angle_beta   89.97284513
_cell_angle_gamma   90.02715722
_symmetry_Int_Tables_number   1
_chemical_formula_structural   La12Nd2Ir5Pt
_chemical_formula_sum   'La12 Nd2 Ir5 Pt1'
_cell_volume   595.45752495
_cell_formula_units_Z   1
loop_
 _symmetry_equiv_pos_site_id
 _symmetry_equiv_pos_as_xyz
  1  'x, y, z'
loop_
 _atom_site_type_symbol
 _atom_site_label
 _atom_site_symmetry_multiplicity
 _atom_site_fract_x
 _atom_site_fract_y
 _atom_site_fract_z
 _atom_site_occupancy
  La  La0  1  0.250270  0.126085  0.873915  1
  La  La1  1  0.251379  0.745188  0.867529  1
  La  La2  1  0.251379  0.132471  0.254812  1
  La  La3  1  0.742989  0.874451  0.125549  1
  La  La4  1  0.750153  0.251869  0.126359  1
  La  La5  1  0.750153  0.873641  0.748131  1
  La  La6  1  0.435677  0.540180  0.459820  1
  La  La7  1  0.438808  0.924006  0.467012  1
  La  La8  1  0.438808  0.532988  0.075994  1
  La  La9  1  0.933077  0.460182  0.539818  1
  La  La10  1  0.935389  0.079728  0.540702  1
  La  La11  1  0.935389  0.459298  0.920272  1
  Nd  Nd12  1  0.471157  0.333702  0.666298  1
  Nd  Nd13  1  0.967782  0.665100  0.334900  1
  Ir  Ir14  1  0.192419  0.377155  0.187570  1
  Ir  Ir15  1  0.192419  0.812430  0.622845  1
  Ir  Ir16  1  0.690479  0.188303  0.811697  1
  Ir  Ir17  1  0.691608  0.624570  0.813016  1
  Ir  Ir18  1  0.691608  0.186984  0.375430  1
  Pt  Pt19  1  0.191051  0.811670  0.188330  1
