# generated using pymatgen
data_Tb3Dy(In2Cl5)4
_symmetry_space_group_name_H-M   'P 1'
_cell_length_a   8.24112571
_cell_length_b   8.57395500
_cell_length_c   13.00557352
_cell_angle_alpha   90.00000000
_cell_angle_beta   90.24096346
_cell_angle_gamma   90.00000000
_symmetry_Int_Tables_number   1
_chemical_formula_structural   Tb3Dy(In2Cl5)4
_chemical_formula_sum   'Tb3 Dy1 In8 Cl20'
_cell_volume   918.95322508
_cell_formula_units_Z   1
loop_
 _symmetry_equiv_pos_site_id
 _symmetry_equiv_pos_as_xyz
  1  'x, y, z'
loop_
 _atom_site_type_symbol
 _atom_site_label
 _atom_site_symmetry_multiplicity
 _atom_site_fract_x
 _atom_site_fract_y
 _atom_site_fract_z
 _atom_site_occupancy
  Tb  Tb0  1  0.928001  0.750000  0.504282  1
  Tb  Tb1  1  0.572925  0.750000  0.004529  1
  Tb  Tb2  1  0.072903  0.250000  0.495744  1
  Dy  Dy3  1  0.426769  0.250000  0.995543  1
  In  In4  1  0.940835  0.006267  0.828122  1
  In  In5  1  0.057552  0.993713  0.171466  1
  In  In6  1  0.558139  0.493650  0.329349  1
  In  In7  1  0.057552  0.506287  0.171466  1
  In  In8  1  0.940835  0.493733  0.828122  1
  In  In9  1  0.441331  0.506424  0.670741  1
  In  In10  1  0.558139  0.006350  0.329349  1
  In  In11  1  0.441331  0.993576  0.670741  1
  Cl  Cl12  1  0.594324  0.750000  0.508374  1
  Cl  Cl13  1  0.163571  0.954847  0.432925  1
  Cl  Cl14  1  0.837472  0.045142  0.566901  1
  Cl  Cl15  1  0.337754  0.543679  0.931745  1
  Cl  Cl16  1  0.163571  0.545153  0.432925  1
  Cl  Cl17  1  0.348358  0.250000  0.196091  1
  Cl  Cl18  1  0.337754  0.956321  0.931745  1
  Cl  Cl19  1  0.837472  0.454858  0.566901  1
  Cl  Cl20  1  0.401465  0.750000  0.180979  1
  Cl  Cl21  1  0.661748  0.045356  0.068154  1
  Cl  Cl22  1  0.152766  0.250000  0.697469  1
  Cl  Cl23  1  0.598825  0.250000  0.820036  1
  Cl  Cl24  1  0.406674  0.250000  0.492199  1
  Cl  Cl25  1  0.099913  0.750000  0.681337  1
  Cl  Cl26  1  0.661748  0.454644  0.068154  1
  Cl  Cl27  1  0.093504  0.250000  0.992266  1
  Cl  Cl28  1  0.906926  0.750000  0.008027  1
  Cl  Cl29  1  0.847225  0.750000  0.302726  1
  Cl  Cl30  1  0.651873  0.750000  0.802802  1
  Cl  Cl31  1  0.900747  0.250000  0.318794  1
