# generated using pymatgen
data_YbSmY2(B6Ru)2
_symmetry_space_group_name_H-M   'P 1'
_cell_length_a   3.67888300
_cell_length_b   9.18489606
_cell_length_c   11.59149603
_cell_angle_alpha   89.81421750
_cell_angle_beta   90.00000000
_cell_angle_gamma   90.00000000
_symmetry_Int_Tables_number   1
_chemical_formula_structural   YbSmY2(B6Ru)2
_chemical_formula_sum   'Yb2 Sm2 Y4 B24 Ru4'
_cell_volume   391.67642306
_cell_formula_units_Z   2
loop_
 _symmetry_equiv_pos_site_id
 _symmetry_equiv_pos_as_xyz
  1  'x, y, z'
loop_
 _atom_site_type_symbol
 _atom_site_label
 _atom_site_symmetry_multiplicity
 _atom_site_fract_x
 _atom_site_fract_y
 _atom_site_fract_z
 _atom_site_occupancy
  Yb  Yb0  1  0.000000  0.325379  0.415243  1
  Yb  Yb1  1  0.000000  0.674621  0.584757  1
  Sm  Sm2  1  0.000000  0.822626  0.086328  1
  Sm  Sm3  1  0.000000  0.177374  0.913672  1
  Y  Y4  1  0.000000  0.941442  0.370660  1
  Y  Y5  1  0.000000  0.058558  0.629340  1
  Y  Y6  1  0.000000  0.442607  0.132024  1
  Y  Y7  1  0.000000  0.557393  0.867976  1
  B  B8  1  0.500000  0.553986  0.432873  1
  B  B9  1  0.500000  0.446014  0.567127  1
  B  B10  1  0.500000  0.054933  0.068722  1
  B  B11  1  0.500000  0.945067  0.931278  1
  B  B12  1  0.500000  0.746865  0.418520  1
  B  B13  1  0.500000  0.253135  0.581480  1
  B  B14  1  0.500000  0.248381  0.083306  1
  B  B15  1  0.500000  0.751619  0.916694  1
  B  B16  1  0.500000  0.789220  0.266385  1
  B  B17  1  0.500000  0.210780  0.733615  1
  B  B18  1  0.500000  0.289757  0.235996  1
  B  B19  1  0.500000  0.710243  0.764004  1
  B  B20  1  0.500000  0.630418  0.186969  1
  B  B21  1  0.500000  0.369582  0.813031  1
  B  B22  1  0.500000  0.131375  0.314910  1
  B  B23  1  0.500000  0.868625  0.685090  1
  B  B24  1  0.500000  0.984811  0.212811  1
  B  B25  1  0.500000  0.015189  0.787189  1
  B  B26  1  0.500000  0.483862  0.289584  1
  B  B27  1  0.500000  0.516138  0.710416  1
  B  B28  1  0.500000  0.601177  0.027925  1
  B  B29  1  0.500000  0.398823  0.972075  1
  B  B30  1  0.500000  0.100160  0.472224  1
  B  B31  1  0.500000  0.899840  0.527776  1
  Ru  Ru32  1  0.000000  0.638736  0.320221  1
  Ru  Ru33  1  0.000000  0.361264  0.679779  1
  Ru  Ru34  1  0.000000  0.138060  0.179662  1
  Ru  Ru35  1  0.000000  0.861940  0.820338  1
