# generated using pymatgen
data_Gd6Ga3SiIr4
_symmetry_space_group_name_H-M   'P 1'
_cell_length_a   5.62870300
_cell_length_b   8.01747436
_cell_length_c   13.33440700
_cell_angle_alpha   90.00000000
_cell_angle_beta   90.00000000
_cell_angle_gamma   90.25332509
_symmetry_Int_Tables_number   1
_chemical_formula_structural   Gd6Ga3SiIr4
_chemical_formula_sum   'Gd12 Ga6 Si2 Ir8'
_cell_volume   601.74899750
_cell_formula_units_Z   2
loop_
 _symmetry_equiv_pos_site_id
 _symmetry_equiv_pos_as_xyz
  1  'x, y, z'
loop_
 _atom_site_type_symbol
 _atom_site_label
 _atom_site_symmetry_multiplicity
 _atom_site_fract_x
 _atom_site_fract_y
 _atom_site_fract_z
 _atom_site_occupancy
  Gd  Gd0  1  0.148117  0.896505  0.600398  1
  Gd  Gd1  1  0.851883  0.103495  0.100398  1
  Gd  Gd2  1  0.148169  0.605732  0.399987  1
  Gd  Gd3  1  0.851831  0.394268  0.899987  1
  Gd  Gd4  1  0.851883  0.103495  0.399602  1
  Gd  Gd5  1  0.148117  0.896505  0.899602  1
  Gd  Gd6  1  0.851831  0.394268  0.600013  1
  Gd  Gd7  1  0.148169  0.605732  0.100013  1
  Gd  Gd8  1  0.366868  0.255806  0.750000  1
  Gd  Gd9  1  0.633132  0.744194  0.250000  1
  Gd  Gd10  1  0.374614  0.243744  0.250000  1
  Gd  Gd11  1  0.625386  0.756256  0.750000  1
  Ga  Ga12  1  0.876032  0.392761  0.250000  1
  Ga  Ga13  1  0.123968  0.607239  0.750000  1
  Ga  Ga14  1  0.372185  0.247124  0.499897  1
  Ga  Ga15  1  0.627815  0.752876  0.999897  1
  Ga  Ga16  1  0.627815  0.752876  0.500103  1
  Ga  Ga17  1  0.372185  0.247124  0.000103  1
  Si  Si18  1  0.866915  0.105476  0.750000  1
  Si  Si19  1  0.133085  0.894524  0.250000  1
  Ir  Ir20  1  0.650193  0.031659  0.595995  1
  Ir  Ir21  1  0.349807  0.968341  0.095995  1
  Ir  Ir22  1  0.647487  0.470061  0.408518  1
  Ir  Ir23  1  0.352513  0.529939  0.908518  1
  Ir  Ir24  1  0.349807  0.968341  0.404005  1
  Ir  Ir25  1  0.650193  0.031659  0.904005  1
  Ir  Ir26  1  0.352513  0.529939  0.591482  1
  Ir  Ir27  1  0.647487  0.470061  0.091482  1
