# generated using pymatgen
data_Li3Er2Ni9As7
_symmetry_space_group_name_H-M   'P 1'
_cell_length_a   3.89709600
_cell_length_b   9.46303724
_cell_length_c   9.46303600
_cell_angle_alpha   119.99999568
_cell_angle_beta   90.00000000
_cell_angle_gamma   90.00000000
_symmetry_Int_Tables_number   1
_chemical_formula_structural   Li3Er2Ni9As7
_chemical_formula_sum   'Li3 Er2 Ni9 As7'
_cell_volume   302.22667700
_cell_formula_units_Z   1
loop_
 _symmetry_equiv_pos_site_id
 _symmetry_equiv_pos_as_xyz
  1  'x, y, z'
loop_
 _atom_site_type_symbol
 _atom_site_label
 _atom_site_symmetry_multiplicity
 _atom_site_fract_x
 _atom_site_fract_y
 _atom_site_fract_z
 _atom_site_occupancy
  Li  Li0  1  0.500000  0.790181  0.891552  1
  Li  Li1  1  0.500000  0.101373  0.209819  1
  Li  Li2  1  0.500000  0.108448  0.898627  1
  Er  Er3  1  0.000000  0.666667  0.333333  1
  Er  Er4  1  0.500000  0.333333  0.666667  1
  Ni  Ni5  1  0.000000  0.569582  0.943569  1
  Ni  Ni6  1  0.000000  0.373987  0.430418  1
  Ni  Ni7  1  0.000000  0.056431  0.626013  1
  Ni  Ni8  1  0.000000  0.873642  0.161128  1
  Ni  Ni9  1  0.000000  0.287487  0.126358  1
  Ni  Ni10  1  0.000000  0.838872  0.712513  1
  Ni  Ni11  1  0.500000  0.953496  0.389709  1
  Ni  Ni12  1  0.500000  0.436213  0.046504  1
  Ni  Ni13  1  0.500000  0.610291  0.563787  1
  As  As14  1  0.500000  0.711614  0.120061  1
  As  As15  1  0.500000  0.408448  0.288386  1
  As  As16  1  0.500000  0.879939  0.591552  1
  As  As17  1  0.000000  0.000000  0.000000  1
  As  As18  1  0.000000  0.587995  0.702348  1
  As  As19  1  0.000000  0.114352  0.412005  1
  As  As20  1  0.000000  0.297652  0.885648  1
