# generated using pymatgen
data_Ho4Al18FePt5
_symmetry_space_group_name_H-M   'P 1'
_cell_length_a   7.58006717
_cell_length_b   7.58004881
_cell_length_c   9.40768997
_cell_angle_alpha   90.07389210
_cell_angle_beta   90.07435560
_cell_angle_gamma   119.71533595
_symmetry_Int_Tables_number   1
_chemical_formula_structural   Ho4Al18FePt5
_chemical_formula_sum   'Ho4 Al18 Fe1 Pt5'
_cell_volume   469.45705290
_cell_formula_units_Z   1
loop_
 _symmetry_equiv_pos_site_id
 _symmetry_equiv_pos_as_xyz
  1  'x, y, z'
loop_
 _atom_site_type_symbol
 _atom_site_label
 _atom_site_symmetry_multiplicity
 _atom_site_fract_x
 _atom_site_fract_y
 _atom_site_fract_z
 _atom_site_occupancy
  Ho  Ho0  1  0.993946  0.667823  0.248852  1
  Ho  Ho1  1  0.006054  0.332176  0.751147  1
  Ho  Ho2  1  0.667824  0.993948  0.248853  1
  Ho  Ho3  1  0.332177  0.006054  0.751148  1
  Al  Al4  1  0.122007  0.122007  0.241064  1
  Al  Al5  1  0.877992  0.877992  0.758935  1
  Al  Al6  1  0.998295  0.323684  0.073121  1
  Al  Al7  1  0.001704  0.676314  0.926878  1
  Al  Al8  1  0.999208  0.665890  0.578972  1
  Al  Al9  1  0.334110  0.000792  0.421028  1
  Al  Al10  1  0.000791  0.334110  0.421028  1
  Al  Al11  1  0.665890  0.999208  0.578972  1
  Al  Al12  1  0.676314  0.001704  0.926879  1
  Al  Al13  1  0.323686  0.998296  0.073121  1
  Al  Al14  1  0.333709  0.333708  0.559559  1
  Al  Al15  1  0.666292  0.666292  0.440441  1
  Al  Al16  1  0.678357  0.678358  0.052772  1
  Al  Al17  1  0.321643  0.321642  0.947227  1
  Al  Al18  1  0.339832  0.545858  0.248170  1
  Al  Al19  1  0.660169  0.454143  0.751829  1
  Al  Al20  1  0.545858  0.339831  0.248170  1
  Al  Al21  1  0.454143  0.660169  0.751830  1
  Fe  Fe22  1  0.999998  0.000001  0.000004  1
  Pt  Pt23  1  0.672527  0.327471  0.000000  1
  Pt  Pt24  1  0.327473  0.672529  0.000001  1
  Pt  Pt25  1  0.327620  0.672381  0.500000  1
  Pt  Pt26  1  0.672381  0.327620  0.500000  1
  Pt  Pt27  1  0.999999  0.000000  0.500000  1
