# generated using pymatgen
data_Tm12Th8Si15Tc
_symmetry_space_group_name_H-M   'P 1'
_cell_length_a   7.42825700
_cell_length_b   7.73185408
_cell_length_c   14.48053400
_cell_angle_alpha   90.00000000
_cell_angle_beta   90.00000000
_cell_angle_gamma   90.14298294
_symmetry_Int_Tables_number   1
_chemical_formula_structural   Tm12Th8Si15Tc
_chemical_formula_sum   'Tm12 Th8 Si15 Tc1'
_cell_volume   831.67528400
_cell_formula_units_Z   1
loop_
 _symmetry_equiv_pos_site_id
 _symmetry_equiv_pos_as_xyz
  1  'x, y, z'
loop_
 _atom_site_type_symbol
 _atom_site_label
 _atom_site_symmetry_multiplicity
 _atom_site_fract_x
 _atom_site_fract_y
 _atom_site_fract_z
 _atom_site_occupancy
  Tm  Tm0  1  0.157853  0.507547  0.750000  1
  Tm  Tm1  1  0.837859  0.491958  0.250000  1
  Tm  Tm2  1  0.338237  0.012309  0.250000  1
  Tm  Tm3  1  0.666407  0.992829  0.750000  1
  Tm  Tm4  1  0.319584  0.172831  0.627076  1
  Tm  Tm5  1  0.669867  0.824732  0.374285  1
  Tm  Tm6  1  0.168661  0.678298  0.376543  1
  Tm  Tm7  1  0.669867  0.824732  0.125715  1
  Tm  Tm8  1  0.838835  0.316418  0.625239  1
  Tm  Tm9  1  0.319584  0.172831  0.872924  1
  Tm  Tm10  1  0.838835  0.316418  0.874761  1
  Tm  Tm11  1  0.168661  0.678298  0.123457  1
  Th  Th12  1  0.011035  0.180050  0.096082  1
  Th  Th13  1  0.994029  0.828019  0.901118  1
  Th  Th14  1  0.493355  0.675594  0.903879  1
  Th  Th15  1  0.994029  0.828019  0.598882  1
  Th  Th16  1  0.508036  0.324997  0.095114  1
  Th  Th17  1  0.011035  0.180050  0.403918  1
  Th  Th18  1  0.508036  0.324997  0.404886  1
  Th  Th19  1  0.493355  0.675594  0.596121  1
  Si  Si20  1  0.967812  0.892549  0.250000  1
  Si  Si21  1  0.462893  0.610153  0.250000  1
  Si  Si22  1  0.534822  0.394320  0.750000  1
  Si  Si23  1  0.287789  0.865080  0.750000  1
  Si  Si24  1  0.714134  0.130216  0.250000  1
  Si  Si25  1  0.215168  0.373141  0.250000  1
  Si  Si26  1  0.777875  0.624353  0.750000  1
  Si  Si27  1  0.164629  0.471581  0.538831  1
  Si  Si28  1  0.837976  0.533455  0.461245  1
  Si  Si29  1  0.343912  0.967868  0.461883  1
  Si  Si30  1  0.837976  0.533455  0.038755  1
  Si  Si31  1  0.653892  0.032143  0.537103  1
  Si  Si32  1  0.164629  0.471581  0.961169  1
  Si  Si33  1  0.653892  0.032143  0.962897  1
  Si  Si34  1  0.343912  0.967868  0.038117  1
  Tc  Tc35  1  0.031534  0.093569  0.750000  1
