# generated using pymatgen
data_Dy6ZnGaTc
_symmetry_space_group_name_H-M   'P 1'
_cell_length_a   8.54347423
_cell_length_b   8.54347557
_cell_length_c   8.54347500
_cell_angle_alpha   113.12848463
_cell_angle_beta   111.24393393
_cell_angle_gamma   104.17393719
_symmetry_Int_Tables_number   1
_chemical_formula_structural   Dy6ZnGaTc
_chemical_formula_sum   'Dy12 Zn2 Ga2 Tc2'
_cell_volume   476.86259085
_cell_formula_units_Z   2
loop_
 _symmetry_equiv_pos_site_id
 _symmetry_equiv_pos_as_xyz
  1  'x, y, z'
loop_
 _atom_site_type_symbol
 _atom_site_label
 _atom_site_symmetry_multiplicity
 _atom_site_fract_x
 _atom_site_fract_y
 _atom_site_fract_z
 _atom_site_occupancy
  Dy  Dy0  1  0.049424  0.740586  0.308838  1
  Dy  Dy1  1  0.950576  0.259414  0.691162  1
  Dy  Dy2  1  0.568252  0.259414  0.308838  1
  Dy  Dy3  1  0.431748  0.740586  0.691162  1
  Dy  Dy4  1  0.660005  0.847352  0.187347  1
  Dy  Dy5  1  0.339995  0.527342  0.187347  1
  Dy  Dy6  1  0.339995  0.152648  0.812653  1
  Dy  Dy7  1  0.660005  0.472658  0.812653  1
  Dy  Dy8  1  0.183964  0.228086  0.412051  1
  Dy  Dy9  1  0.816036  0.228086  0.044122  1
  Dy  Dy10  1  0.183964  0.771914  0.955878  1
  Dy  Dy11  1  0.816036  0.771914  0.587949  1
  Zn  Zn12  1  0.879523  0.879523  0.000000  1
  Zn  Zn13  1  0.120477  0.120477  0.000000  1
  Ga  Ga14  1  0.000000  0.500000  0.500000  1
  Ga  Ga15  1  0.500000  0.000000  0.500000  1
  Tc  Tc16  1  0.677969  0.500000  0.177969  1
  Tc  Tc17  1  0.322031  0.500000  0.822031  1
