# generated using pymatgen
data_Sr4Li3AlSi7Ge
_symmetry_space_group_name_H-M   'P 1'
_cell_length_a   4.42854200
_cell_length_b   7.07913960
_cell_length_c   11.23865517
_cell_angle_alpha   89.30746015
_cell_angle_beta   90.00000000
_cell_angle_gamma   90.00000000
_symmetry_Int_Tables_number   1
_chemical_formula_structural   Sr4Li3AlSi7Ge
_chemical_formula_sum   'Sr4 Li3 Al1 Si7 Ge1'
_cell_volume   352.30910354
_cell_formula_units_Z   1
loop_
 _symmetry_equiv_pos_site_id
 _symmetry_equiv_pos_as_xyz
  1  'x, y, z'
loop_
 _atom_site_type_symbol
 _atom_site_label
 _atom_site_symmetry_multiplicity
 _atom_site_fract_x
 _atom_site_fract_y
 _atom_site_fract_z
 _atom_site_occupancy
  Sr  Sr0  1  0.250000  0.134548  0.146164  1
  Sr  Sr1  1  0.750000  0.861520  0.860904  1
  Sr  Sr2  1  0.250000  0.632985  0.356122  1
  Sr  Sr3  1  0.750000  0.364758  0.640775  1
  Li  Li4  1  0.250000  0.130144  0.436522  1
  Li  Li5  1  0.250000  0.624454  0.062032  1
  Li  Li6  1  0.750000  0.378632  0.936620  1
  Al  Al7  1  0.750000  0.875836  0.560715  1
  Si  Si8  1  0.750000  0.464590  0.164049  1
  Si  Si9  1  0.250000  0.537993  0.832809  1
  Si  Si10  1  0.750000  0.970480  0.341179  1
  Si  Si11  1  0.250000  0.033543  0.657009  1
  Si  Si12  1  0.750000  0.304265  0.351548  1
  Si  Si13  1  0.250000  0.695080  0.643120  1
  Si  Si14  1  0.750000  0.797379  0.158034  1
  Ge  Ge15  1  0.250000  0.193793  0.852397  1
