# generated using pymatgen
data_TbY9SnBi5
_symmetry_space_group_name_H-M   'P 1'
_cell_length_a   9.10211200
_cell_length_b   9.10242070
_cell_length_c   6.43706800
_cell_angle_alpha   90.00362567
_cell_angle_beta   89.99955307
_cell_angle_gamma   119.76037280
_symmetry_Int_Tables_number   1
_chemical_formula_structural   TbY9SnBi5
_chemical_formula_sum   'Tb1 Y9 Sn1 Bi5'
_cell_volume   462.97913231
_cell_formula_units_Z   1
loop_
 _symmetry_equiv_pos_site_id
 _symmetry_equiv_pos_as_xyz
  1  'x, y, z'
loop_
 _atom_site_type_symbol
 _atom_site_label
 _atom_site_symmetry_multiplicity
 _atom_site_fract_x
 _atom_site_fract_y
 _atom_site_fract_z
 _atom_site_occupancy
  Tb  Tb0  1  0.663699  0.334633  0.501496  1
  Y  Y1  1  0.663864  0.334516  0.998549  1
  Y  Y2  1  0.334493  0.663804  0.998432  1
  Y  Y3  1  0.334568  0.663687  0.501606  1
  Y  Y4  1  0.752962  0.752842  0.750065  1
  Y  Y5  1  0.242593  0.004900  0.750068  1
  Y  Y6  1  0.004443  0.242266  0.750121  1
  Y  Y7  1  0.241774  0.241565  0.249760  1
  Y  Y8  1  0.758387  0.001521  0.249868  1
  Y  Y9  1  0.001062  0.758025  0.250036  1
  Sn  Sn10  1  0.391746  0.392212  0.750285  1
  Bi  Bi11  1  0.609947  0.000411  0.750218  1
  Bi  Bi12  1  0.001254  0.610435  0.750216  1
  Bi  Bi13  1  0.610338  0.610804  0.249605  1
  Bi  Bi14  1  0.390499  0.997420  0.249826  1
  Bi  Bi15  1  0.998374  0.390962  0.249849  1
