# generated using pymatgen
data_Tm3Mn4Ni5P6
_symmetry_space_group_name_H-M   'P 1'
_cell_length_a   3.76671700
_cell_length_b   10.42682200
_cell_length_c   12.47018400
_cell_angle_alpha   90.00000000
_cell_angle_beta   90.00000000
_cell_angle_gamma   90.00000000
_symmetry_Int_Tables_number   1
_chemical_formula_structural   Tm3Mn4Ni5P6
_chemical_formula_sum   'Tm6 Mn8 Ni10 P12'
_cell_volume   489.76507599
_cell_formula_units_Z   2
loop_
 _symmetry_equiv_pos_site_id
 _symmetry_equiv_pos_as_xyz
  1  'x, y, z'
loop_
 _atom_site_type_symbol
 _atom_site_label
 _atom_site_symmetry_multiplicity
 _atom_site_fract_x
 _atom_site_fract_y
 _atom_site_fract_z
 _atom_site_occupancy
  Tm  Tm0  1  0.000000  0.500000  0.521433  1
  Tm  Tm1  1  0.500000  0.000000  0.478567  1
  Tm  Tm2  1  0.500000  0.818266  0.213201  1
  Tm  Tm3  1  0.500000  0.181734  0.213201  1
  Tm  Tm4  1  0.000000  0.681734  0.786799  1
  Tm  Tm5  1  0.000000  0.318266  0.786799  1
  Mn  Mn6  1  0.500000  0.500000  0.162264  1
  Mn  Mn7  1  0.000000  0.000000  0.837736  1
  Mn  Mn8  1  0.000000  0.500000  0.984271  1
  Mn  Mn9  1  0.500000  0.000000  0.015729  1
  Mn  Mn10  1  0.500000  0.335049  0.997105  1
  Mn  Mn11  1  0.500000  0.664951  0.997105  1
  Mn  Mn12  1  0.000000  0.164951  0.002895  1
  Mn  Mn13  1  0.000000  0.835049  0.002895  1
  Ni  Ni14  1  0.500000  0.500000  0.698427  1
  Ni  Ni15  1  0.000000  0.000000  0.301573  1
  Ni  Ni16  1  0.500000  0.301292  0.430032  1
  Ni  Ni17  1  0.500000  0.698708  0.430032  1
  Ni  Ni18  1  0.000000  0.198708  0.569968  1
  Ni  Ni19  1  0.000000  0.801292  0.569968  1
  Ni  Ni20  1  0.500000  0.878454  0.708187  1
  Ni  Ni21  1  0.500000  0.121546  0.708187  1
  Ni  Ni22  1  0.000000  0.621546  0.291813  1
  Ni  Ni23  1  0.000000  0.378454  0.291813  1
  P  P24  1  0.500000  0.500000  0.873830  1
  P  P25  1  0.000000  0.000000  0.126170  1
  P  P26  1  0.500000  0.500000  0.350301  1
  P  P27  1  0.000000  0.000000  0.649699  1
  P  P28  1  0.500000  0.313686  0.613327  1
  P  P29  1  0.500000  0.686314  0.613327  1
  P  P30  1  0.000000  0.186314  0.386673  1
  P  P31  1  0.000000  0.813686  0.386673  1
  P  P32  1  0.500000  0.843726  0.888080  1
  P  P33  1  0.500000  0.156274  0.888080  1
  P  P34  1  0.000000  0.656274  0.111920  1
  P  P35  1  0.000000  0.343726  0.111920  1
