# generated using pymatgen
data_Sr9Pr(Si9Au)2
_symmetry_space_group_name_H-M   'P 1'
_cell_length_a   4.34864216
_cell_length_b   4.42976937
_cell_length_c   35.60327000
_cell_angle_alpha   86.43585293
_cell_angle_beta   86.48125890
_cell_angle_gamma   89.99998144
_symmetry_Int_Tables_number   1
_chemical_formula_structural   Sr9Pr(Si9Au)2
_chemical_formula_sum   'Sr9 Pr1 Si18 Au2'
_cell_volume   683.22092871
_cell_formula_units_Z   1
loop_
 _symmetry_equiv_pos_site_id
 _symmetry_equiv_pos_as_xyz
  1  'x, y, z'
loop_
 _atom_site_type_symbol
 _atom_site_label
 _atom_site_symmetry_multiplicity
 _atom_site_fract_x
 _atom_site_fract_y
 _atom_site_fract_z
 _atom_site_occupancy
  Sr  Sr0  1  0.949162  0.449406  0.100610  1
  Sr  Sr1  1  0.350940  0.850783  0.298710  1
  Sr  Sr2  1  0.751676  0.252155  0.496070  1
  Sr  Sr3  1  0.149205  0.649482  0.701117  1
  Sr  Sr4  1  0.548541  0.048134  0.903365  1
  Sr  Sr5  1  0.998930  0.999134  0.001532  1
  Sr  Sr6  1  0.400881  0.400218  0.199335  1
  Sr  Sr7  1  0.801224  0.801575  0.397505  1
  Sr  Sr8  1  0.201455  0.201395  0.597119  1
  Pr  Pr9  1  0.600672  0.600389  0.799755  1
  Si  Si10  1  0.465055  0.966099  0.067570  1
  Si  Si11  1  0.867461  0.367413  0.265433  1
  Si  Si12  1  0.268007  0.768697  0.463174  1
  Si  Si13  1  0.666548  0.166803  0.666763  1
  Si  Si14  1  0.066568  0.565632  0.868403  1
  Si  Si15  1  0.916876  0.916349  0.166572  1
  Si  Si16  1  0.317359  0.318165  0.364446  1
  Si  Si17  1  0.718242  0.719040  0.562032  1
  Si  Si18  1  0.115792  0.117278  0.767201  1
  Si  Si19  1  0.515356  0.515153  0.968811  1
  Si  Si20  1  0.433559  0.933075  0.133411  1
  Si  Si21  1  0.834523  0.334557  0.331356  1
  Si  Si22  1  0.235291  0.735570  0.529264  1
  Si  Si23  1  0.632892  0.132042  0.734432  1
  Si  Si24  1  0.032840  0.532054  0.935479  1
  Si  Si25  1  0.482370  0.482424  0.034656  1
  Si  Si26  1  0.885084  0.883801  0.232461  1
  Si  Si27  1  0.284730  0.284954  0.430380  1
  Au  Au28  1  0.683580  0.683615  0.632905  1
  Au  Au29  1  0.082379  0.081808  0.835735  1
