# generated using pymatgen
data_Eu4P4Ir3Pt
_symmetry_space_group_name_H-M   'P 1'
_cell_length_a   6.28708583
_cell_length_b   6.28708583
_cell_length_c   6.28708583
_cell_angle_alpha   90.12794841
_cell_angle_beta   90.12794841
_cell_angle_gamma   89.87205159
_symmetry_Int_Tables_number   1
_chemical_formula_structural   Eu4P4Ir3Pt
_chemical_formula_sum   'Eu4 P4 Ir3 Pt1'
_cell_volume   248.51060345
_cell_formula_units_Z   1
loop_
 _symmetry_equiv_pos_site_id
 _symmetry_equiv_pos_as_xyz
  1  'x, y, z'
loop_
 _atom_site_type_symbol
 _atom_site_label
 _atom_site_symmetry_multiplicity
 _atom_site_fract_x
 _atom_site_fract_y
 _atom_site_fract_z
 _atom_site_occupancy
  Eu  Eu0  1  0.397447  0.897447  0.602553  1
  Eu  Eu1  1  0.895237  0.605679  0.398363  1
  Eu  Eu2  1  0.601637  0.395237  0.894321  1
  Eu  Eu3  1  0.105679  0.101637  0.104763  1
  P  P4  1  0.672339  0.172339  0.327661  1
  P  P5  1  0.174363  0.321700  0.668732  1
  P  P6  1  0.331268  0.674363  0.178300  1
  P  P7  1  0.821700  0.831268  0.825637  1
  Ir  Ir8  1  0.582668  0.916842  0.084009  1
  Ir  Ir9  1  0.915991  0.082668  0.583158  1
  Ir  Ir10  1  0.416842  0.415991  0.417332  1
  Pt  Pt11  1  0.084829  0.584829  0.915171  1
