# generated using pymatgen
data_La5Nd3GePd24
_symmetry_space_group_name_H-M   'P 1'
_cell_length_a   8.53212640
_cell_length_b   8.53212640
_cell_length_c   8.53189909
_cell_angle_alpha   90.01197853
_cell_angle_beta   89.98802147
_cell_angle_gamma   89.96712252
_symmetry_Int_Tables_number   1
_chemical_formula_structural   La5Nd3GePd24
_chemical_formula_sum   'La5 Nd3 Ge1 Pd24'
_cell_volume   621.09807202
_cell_formula_units_Z   1
loop_
 _symmetry_equiv_pos_site_id
 _symmetry_equiv_pos_as_xyz
  1  'x, y, z'
loop_
 _atom_site_type_symbol
 _atom_site_label
 _atom_site_symmetry_multiplicity
 _atom_site_fract_x
 _atom_site_fract_y
 _atom_site_fract_z
 _atom_site_occupancy
  La  La0  1  0.253210  0.253187  0.253066  1
  La  La1  1  0.746841  0.746952  0.747011  1
  La  La2  1  0.746813  0.746790  0.253066  1
  La  La3  1  0.746937  0.253063  0.746905  1
  La  La4  1  0.253048  0.253159  0.747011  1
  Nd  Nd5  1  0.252856  0.747144  0.252925  1
  Nd  Nd6  1  0.252915  0.747085  0.747044  1
  Nd  Nd7  1  0.747164  0.252836  0.252805  1
  Ge  Ge8  1  0.000026  0.999974  0.000041  1
  Pd  Pd9  1  0.260062  0.500374  0.000016  1
  Pd  Pd10  1  0.739943  0.499832  0.000163  1
  Pd  Pd11  1  0.999869  0.260040  0.499821  1
  Pd  Pd12  1  0.500168  0.260057  0.000163  1
  Pd  Pd13  1  0.000317  0.739965  0.500002  1
  Pd  Pd14  1  0.499626  0.739938  0.000016  1
  Pd  Pd15  1  0.499990  0.999982  0.260034  1
  Pd  Pd16  1  0.260035  0.999683  0.500002  1
  Pd  Pd17  1  0.499811  0.999834  0.739957  1
  Pd  Pd18  1  0.739960  0.000131  0.499821  1
  Pd  Pd19  1  0.000018  0.500010  0.260034  1
  Pd  Pd20  1  0.000166  0.500189  0.739957  1
  Pd  Pd21  1  0.253089  0.500337  0.499987  1
  Pd  Pd22  1  0.746913  0.499848  0.499831  1
  Pd  Pd23  1  0.500152  0.253087  0.499831  1
  Pd  Pd24  1  0.499663  0.746911  0.499987  1
  Pd  Pd25  1  0.499983  0.500017  0.253059  1
  Pd  Pd26  1  0.499829  0.500171  0.746938  1
  Pd  Pd27  1  0.290994  0.999430  0.000006  1
  Pd  Pd28  1  0.708919  0.000229  0.000287  1
  Pd  Pd29  1  0.999771  0.291081  0.000287  1
  Pd  Pd30  1  0.000570  0.709006  0.000006  1
  Pd  Pd31  1  0.000030  0.999970  0.290986  1
  Pd  Pd32  1  0.000310  0.999690  0.708934  1
