# generated using pymatgen
data_Er16Tm4(Ir3Ru)3
_symmetry_space_group_name_H-M   'P 1'
_cell_length_a   10.72913000
_cell_length_b   10.72913000
_cell_length_c   6.36361300
_cell_angle_alpha   90.00000000
_cell_angle_beta   90.00000000
_cell_angle_gamma   90.00000000
_symmetry_Int_Tables_number   1
_chemical_formula_structural   Er16Tm4(Ir3Ru)3
_chemical_formula_sum   'Er16 Tm4 Ir9 Ru3'
_cell_volume   732.54241406
_cell_formula_units_Z   1
loop_
 _symmetry_equiv_pos_site_id
 _symmetry_equiv_pos_as_xyz
  1  'x, y, z'
loop_
 _atom_site_type_symbol
 _atom_site_label
 _atom_site_symmetry_multiplicity
 _atom_site_fract_x
 _atom_site_fract_y
 _atom_site_fract_z
 _atom_site_occupancy
  Er  Er0  1  0.293416  0.086334  0.376648  1
  Er  Er1  1  0.293429  0.913807  0.876794  1
  Er  Er2  1  0.706571  0.086193  0.876794  1
  Er  Er3  1  0.706584  0.913666  0.376648  1
  Er  Er4  1  0.586193  0.793429  0.876794  1
  Er  Er5  1  0.586334  0.206584  0.376648  1
  Er  Er6  1  0.413666  0.793416  0.376648  1
  Er  Er7  1  0.413807  0.206571  0.876794  1
  Er  Er8  1  0.208196  0.413001  0.624547  1
  Er  Er9  1  0.207957  0.586978  0.121767  1
  Er  Er10  1  0.792043  0.413022  0.121767  1
  Er  Er11  1  0.791804  0.586999  0.624547  1
  Er  Er12  1  0.913022  0.707957  0.121767  1
  Er  Er13  1  0.913001  0.291804  0.624547  1
  Er  Er14  1  0.086999  0.708196  0.624547  1
  Er  Er15  1  0.086978  0.292043  0.121767  1
  Tm  Tm16  1  0.000000  0.000000  0.499805  1
  Tm  Tm17  1  0.000000  0.000000  0.999813  1
  Tm  Tm18  1  0.500000  0.500000  0.999813  1
  Tm  Tm19  1  0.500000  0.500000  0.499805  1
  Ir  Ir20  1  0.847849  0.152739  0.250199  1
  Ir  Ir21  1  0.847613  0.847285  0.749771  1
  Ir  Ir22  1  0.152387  0.152715  0.749771  1
  Ir  Ir23  1  0.152151  0.847261  0.250199  1
  Ir  Ir24  1  0.652715  0.347613  0.749771  1
  Ir  Ir25  1  0.652739  0.652151  0.250199  1
  Ir  Ir26  1  0.347261  0.347849  0.250199  1
  Ir  Ir27  1  0.347285  0.652387  0.749771  1
  Ir  Ir28  1  0.000000  0.500000  0.378186  1
  Ru  Ru29  1  0.500000  0.000000  0.122863  1
  Ru  Ru30  1  0.500000  0.000000  0.622807  1
  Ru  Ru31  1  0.000000  0.500000  0.877994  1
