# generated using pymatgen
data_Er3Cu3(Ni5B)2
_symmetry_space_group_name_H-M   'P 1'
_cell_length_a   4.95365800
_cell_length_b   4.95365779
_cell_length_c   10.89678900
_cell_angle_alpha   90.00000000
_cell_angle_beta   90.00000000
_cell_angle_gamma   119.99998807
_symmetry_Int_Tables_number   1
_chemical_formula_structural   Er3Cu3(Ni5B)2
_chemical_formula_sum   'Er3 Cu3 Ni10 B2'
_cell_volume   231.56944028
_cell_formula_units_Z   1
loop_
 _symmetry_equiv_pos_site_id
 _symmetry_equiv_pos_as_xyz
  1  'x, y, z'
loop_
 _atom_site_type_symbol
 _atom_site_label
 _atom_site_symmetry_multiplicity
 _atom_site_fract_x
 _atom_site_fract_y
 _atom_site_fract_z
 _atom_site_occupancy
  Er  Er0  1  0.000000  0.000000  0.000238  1
  Er  Er1  1  0.000000  0.000000  0.336176  1
  Er  Er2  1  0.000000  0.000000  0.670288  1
  Cu  Cu3  1  0.333333  0.666667  0.316306  1
  Cu  Cu4  1  0.666667  0.333333  0.316760  1
  Cu  Cu5  1  0.666667  0.333333  0.683025  1
  Ni  Ni6  1  0.499453  0.998906  0.500457  1
  Ni  Ni7  1  0.499453  0.500547  0.500457  1
  Ni  Ni8  1  0.001094  0.500547  0.500457  1
  Ni  Ni9  1  0.333333  0.666667  0.681354  1
  Ni  Ni10  1  0.500186  0.000373  0.129528  1
  Ni  Ni11  1  0.500186  0.499814  0.129528  1
  Ni  Ni12  1  0.999627  0.499814  0.129528  1
  Ni  Ni13  1  0.498919  0.997840  0.869061  1
  Ni  Ni14  1  0.498919  0.501081  0.869061  1
  Ni  Ni15  1  0.002160  0.501081  0.869061  1
  B  B16  1  0.333333  0.666667  0.999985  1
  B  B17  1  0.666667  0.333333  0.998724  1
