# generated using pymatgen
data_Hf3ZrNb6(ZnSn3)2
_symmetry_space_group_name_H-M   'P 1'
_cell_length_a   8.44596310
_cell_length_b   8.47007547
_cell_length_c   5.71045100
_cell_angle_alpha   90.00000000
_cell_angle_beta   90.00000000
_cell_angle_gamma   120.09447859
_symmetry_Int_Tables_number   1
_chemical_formula_structural   Hf3ZrNb6(ZnSn3)2
_chemical_formula_sum   'Hf3 Zr1 Nb6 Zn2 Sn6'
_cell_volume   353.44614712
_cell_formula_units_Z   1
loop_
 _symmetry_equiv_pos_site_id
 _symmetry_equiv_pos_as_xyz
  1  'x, y, z'
loop_
 _atom_site_type_symbol
 _atom_site_label
 _atom_site_symmetry_multiplicity
 _atom_site_fract_x
 _atom_site_fract_y
 _atom_site_fract_z
 _atom_site_occupancy
  Hf  Hf0  1  0.000000  0.277506  0.750000  1
  Hf  Hf1  1  0.262932  0.263732  0.250000  1
  Hf  Hf2  1  0.737068  0.000801  0.250000  1
  Zr  Zr3  1  0.000000  0.731318  0.250000  1
  Nb  Nb4  1  0.666670  0.332747  0.999228  1
  Nb  Nb5  1  0.333330  0.666078  0.999228  1
  Nb  Nb6  1  0.333330  0.666078  0.500772  1
  Nb  Nb7  1  0.666670  0.332747  0.500772  1
  Nb  Nb8  1  0.720721  0.725548  0.750000  1
  Nb  Nb9  1  0.279279  0.004827  0.750000  1
  Zn  Zn10  1  0.000000  0.996351  0.982850  1
  Zn  Zn11  1  0.000000  0.996351  0.517150  1
  Sn  Sn12  1  0.387052  0.385753  0.750000  1
  Sn  Sn13  1  0.612948  0.998701  0.750000  1
  Sn  Sn14  1  0.000000  0.622341  0.750000  1
  Sn  Sn15  1  0.609927  0.610428  0.250000  1
  Sn  Sn16  1  0.390073  0.000501  0.250000  1
  Sn  Sn17  1  0.000000  0.388192  0.250000  1
