# generated using pymatgen
data_Tb2YbY(B4Os)4
_symmetry_space_group_name_H-M   'P 1'
_cell_length_a   5.98867570
_cell_length_b   11.57450590
_cell_length_c   3.56923600
_cell_angle_alpha   90.00000000
_cell_angle_beta   90.00000000
_cell_angle_gamma   89.99492603
_symmetry_Int_Tables_number   1
_chemical_formula_structural   Tb2YbY(B4Os)4
_chemical_formula_sum   'Tb2 Yb1 Y1 B16 Os4'
_cell_volume   247.40502679
_cell_formula_units_Z   1
loop_
 _symmetry_equiv_pos_site_id
 _symmetry_equiv_pos_as_xyz
  1  'x, y, z'
loop_
 _atom_site_type_symbol
 _atom_site_label
 _atom_site_symmetry_multiplicity
 _atom_site_fract_x
 _atom_site_fract_y
 _atom_site_fract_z
 _atom_site_occupancy
  Tb  Tb0  1  0.127858  0.150421  0.000000  1
  Tb  Tb1  1  0.871781  0.848602  0.000000  1
  Yb  Yb2  1  0.370761  0.648995  0.000000  1
  Y  Y3  1  0.627814  0.351026  0.000000  1
  B  B4  1  0.788050  0.186190  0.500000  1
  B  B5  1  0.213068  0.813472  0.500000  1
  B  B6  1  0.288520  0.315441  0.500000  1
  B  B7  1  0.711033  0.684611  0.500000  1
  B  B8  1  0.863057  0.030363  0.500000  1
  B  B9  1  0.136987  0.969851  0.500000  1
  B  B10  1  0.363312  0.470458  0.500000  1
  B  B11  1  0.636029  0.530344  0.500000  1
  B  B12  1  0.887956  0.454240  0.500000  1
  B  B13  1  0.114043  0.547022  0.500000  1
  B  B14  1  0.387848  0.046852  0.500000  1
  B  B15  1  0.611436  0.952928  0.500000  1
  B  B16  1  0.974554  0.309392  0.500000  1
  B  B17  1  0.025652  0.690350  0.500000  1
  B  B18  1  0.475214  0.191699  0.500000  1
  B  B19  1  0.525057  0.808058  0.500000  1
  Os  Os20  1  0.640717  0.093059  0.000000  1
  Os  Os21  1  0.358900  0.907635  0.000000  1
  Os  Os22  1  0.140395  0.407443  0.000000  1
  Os  Os23  1  0.859956  0.591550  0.000000  1
