# generated using pymatgen
data_Ho16MgCd2HgRu3Pt
_symmetry_space_group_name_H-M   'P 1'
_cell_length_a   9.65252034
_cell_length_b   9.62323035
_cell_length_c   9.62322900
_cell_angle_alpha   59.51546055
_cell_angle_beta   59.64356176
_cell_angle_gamma   59.64356304
_symmetry_Int_Tables_number   1
_chemical_formula_structural   Ho16MgCd2HgRu3Pt
_chemical_formula_sum   'Ho16 Mg1 Cd2 Hg1 Ru3 Pt1'
_cell_volume   626.33706146
_cell_formula_units_Z   1
loop_
 _symmetry_equiv_pos_site_id
 _symmetry_equiv_pos_as_xyz
  1  'x, y, z'
loop_
 _atom_site_type_symbol
 _atom_site_label
 _atom_site_symmetry_multiplicity
 _atom_site_fract_x
 _atom_site_fract_y
 _atom_site_fract_z
 _atom_site_occupancy
  Ho  Ho0  1  0.346382  0.346347  0.346347  1
  Ho  Ho1  1  0.351813  0.350399  0.955772  1
  Ho  Ho2  1  0.351813  0.955772  0.350399  1
  Ho  Ho3  1  0.949572  0.352667  0.352667  1
  Ho  Ho4  1  0.803706  0.190591  0.190591  1
  Ho  Ho5  1  0.186034  0.811309  0.811309  1
  Ho  Ho6  1  0.188216  0.806608  0.188350  1
  Ho  Ho7  1  0.809409  0.188082  0.810016  1
  Ho  Ho8  1  0.188216  0.188350  0.806608  1
  Ho  Ho9  1  0.809409  0.810016  0.188082  1
  Ho  Ho10  1  0.936252  0.561560  0.561560  1
  Ho  Ho11  1  0.565355  0.936893  0.936893  1
  Ho  Ho12  1  0.562009  0.937407  0.561890  1
  Ho  Ho13  1  0.936574  0.564516  0.938309  1
  Ho  Ho14  1  0.562009  0.561890  0.937407  1
  Ho  Ho15  1  0.936574  0.938309  0.564516  1
  Mg  Mg16  1  0.276327  0.574251  0.574251  1
  Cd  Cd17  1  0.580823  0.580717  0.255488  1
  Cd  Cd18  1  0.580823  0.255488  0.580717  1
  Hg  Hg19  1  0.582113  0.584607  0.584607  1
  Ru  Ru20  1  0.139165  0.141910  0.578436  1
  Ru  Ru21  1  0.139165  0.578436  0.141910  1
  Ru  Ru22  1  0.578469  0.141225  0.141225  1
  Pt  Pt23  1  0.139773  0.142653  0.142653  1
