# generated using pymatgen
data_Er2Al20IrOs3
_symmetry_space_group_name_H-M   'P 1'
_cell_length_a   6.85083721
_cell_length_b   6.84949117
_cell_length_c   9.13919895
_cell_angle_alpha   90.26989289
_cell_angle_beta   90.23351611
_cell_angle_gamma   96.51979834
_symmetry_Int_Tables_number   1
_chemical_formula_structural   Er2Al20IrOs3
_chemical_formula_sum   'Er2 Al20 Ir1 Os3'
_cell_volume   426.07176186
_cell_formula_units_Z   1
loop_
 _symmetry_equiv_pos_site_id
 _symmetry_equiv_pos_as_xyz
  1  'x, y, z'
loop_
 _atom_site_type_symbol
 _atom_site_label
 _atom_site_symmetry_multiplicity
 _atom_site_fract_x
 _atom_site_fract_y
 _atom_site_fract_z
 _atom_site_occupancy
  Er  Er0  1  0.869210  0.128503  0.750672  1
  Er  Er1  1  0.130790  0.871497  0.249328  1
  Al  Al2  1  0.621023  0.376143  0.551628  1
  Al  Al3  1  0.378977  0.623857  0.448372  1
  Al  Al4  1  0.376805  0.623334  0.050285  1
  Al  Al5  1  0.623195  0.376666  0.949715  1
  Al  Al6  1  0.225277  0.223721  0.498982  1
  Al  Al7  1  0.774723  0.776279  0.501018  1
  Al  Al8  1  0.776221  0.776398  0.000073  1
  Al  Al9  1  0.223779  0.223602  0.999927  1
  Al  Al10  1  0.844435  0.156410  0.100153  1
  Al  Al11  1  0.155565  0.843590  0.899847  1
  Al  Al12  1  0.157159  0.844819  0.601880  1
  Al  Al13  1  0.842841  0.155181  0.398120  1
  Al  Al14  1  0.855527  0.585310  0.750785  1
  Al  Al15  1  0.144473  0.414690  0.249215  1
  Al  Al16  1  0.414564  0.143472  0.750242  1
  Al  Al17  1  0.585436  0.856528  0.249758  1
  Al  Al18  1  0.221457  0.481440  0.752128  1
  Al  Al19  1  0.778543  0.518560  0.247872  1
  Al  Al20  1  0.518366  0.779669  0.749646  1
  Al  Al21  1  0.481634  0.220331  0.250354  1
  Ir  Ir22  1  0.000000  0.500000  0.500000  1
  Os  Os23  1  0.000000  0.500000  0.000000  1
  Os  Os24  1  0.500000  0.000000  0.000000  1
  Os  Os25  1  0.500000  0.000000  0.500000  1
