# generated using pymatgen
data_Tb7DyHf9Si16W3
_symmetry_space_group_name_H-M   'P 1'
_cell_length_a   7.19472007
_cell_length_b   7.19438784
_cell_length_c   13.17095608
_cell_angle_alpha   90.12635318
_cell_angle_beta   90.11234280
_cell_angle_gamma   90.08192632
_symmetry_Int_Tables_number   1
_chemical_formula_structural   Tb7DyHf9Si16W3
_chemical_formula_sum   'Tb7 Dy1 Hf9 Si16 W3'
_cell_volume   681.74617763
_cell_formula_units_Z   1
loop_
 _symmetry_equiv_pos_site_id
 _symmetry_equiv_pos_as_xyz
  1  'x, y, z'
loop_
 _atom_site_type_symbol
 _atom_site_label
 _atom_site_symmetry_multiplicity
 _atom_site_fract_x
 _atom_site_fract_y
 _atom_site_fract_z
 _atom_site_occupancy
  Tb  Tb0  1  0.003521  0.656553  0.714834  1
  Tb  Tb1  1  0.154832  0.499510  0.463966  1
  Tb  Tb2  1  0.500426  0.845099  0.035937  1
  Tb  Tb3  1  0.846082  0.502016  0.967827  1
  Tb  Tb4  1  0.497933  0.153951  0.532237  1
  Tb  Tb5  1  0.343441  0.996474  0.785192  1
  Tb  Tb6  1  0.655828  0.001040  0.284498  1
  Dy  Dy7  1  0.999475  0.344462  0.215315  1
  Hf  Hf8  1  0.675358  0.324639  0.750013  1
  Hf  Hf9  1  0.146927  0.992919  0.373365  1
  Hf  Hf10  1  0.854572  0.004734  0.876523  1
  Hf  Hf11  1  0.505940  0.649674  0.621297  1
  Hf  Hf12  1  0.350278  0.494066  0.878713  1
  Hf  Hf13  1  0.492829  0.352206  0.125504  1
  Hf  Hf14  1  0.647906  0.507112  0.374452  1
  Hf  Hf15  1  0.995331  0.145466  0.623487  1
  Hf  Hf16  1  0.007173  0.853157  0.126575  1
  Si  Si17  1  0.360457  0.298131  0.316353  1
  Si  Si18  1  0.637906  0.705058  0.817163  1
  Si  Si19  1  0.203031  0.861501  0.565558  1
  Si  Si20  1  0.138479  0.796983  0.934424  1
  Si  Si21  1  0.797976  0.138595  0.067320  1
  Si  Si22  1  0.861768  0.202461  0.432860  1
  Si  Si23  1  0.294938  0.362121  0.682851  1
  Si  Si24  1  0.702151  0.638853  0.183530  1
  Si  Si25  1  0.295584  0.050824  0.184122  1
  Si  Si26  1  0.704994  0.947517  0.682075  1
  Si  Si27  1  0.449134  0.795283  0.432244  1
  Si  Si28  1  0.204450  0.550507  0.067981  1
  Si  Si29  1  0.547188  0.202994  0.936166  1
  Si  Si30  1  0.797051  0.452842  0.563814  1
  Si  Si31  1  0.052473  0.295008  0.817933  1
  Si  Si32  1  0.949499  0.703716  0.315735  1
  W  W33  1  0.176746  0.175543  0.001678  1
  W  W34  1  0.824572  0.823134  0.498491  1
  W  W35  1  0.323753  0.675849  0.249967  1
