# generated using pymatgen
data_Y3HoRu4F28
_symmetry_space_group_name_H-M   'P 1'
_cell_length_a   5.56223842
_cell_length_b   8.91725419
_cell_length_c   11.97097518
_cell_angle_alpha   63.41124807
_cell_angle_beta   89.88795263
_cell_angle_gamma   90.01081511
_symmetry_Int_Tables_number   1
_chemical_formula_structural   Y3HoRu4F28
_chemical_formula_sum   'Y3 Ho1 Ru4 F28'
_cell_volume   530.96300484
_cell_formula_units_Z   1
loop_
 _symmetry_equiv_pos_site_id
 _symmetry_equiv_pos_as_xyz
  1  'x, y, z'
loop_
 _atom_site_type_symbol
 _atom_site_label
 _atom_site_symmetry_multiplicity
 _atom_site_fract_x
 _atom_site_fract_y
 _atom_site_fract_z
 _atom_site_occupancy
  Y  Y0  1  0.758474  0.810020  0.769114  1
  Y  Y1  1  0.259014  0.189658  0.731078  1
  Y  Y2  1  0.241728  0.188165  0.231365  1
  Ho  Ho3  1  0.740889  0.810201  0.268955  1
  Ru  Ru4  1  0.755652  0.271812  0.955767  1
  Ru  Ru5  1  0.255260  0.727614  0.543884  1
  Ru  Ru6  1  0.243926  0.727601  0.045488  1
  Ru  Ru7  1  0.744672  0.273278  0.455033  1
  F  F8  1  0.445608  0.704889  0.919038  1
  F  F9  1  0.945281  0.295534  0.581741  1
  F  F10  1  0.554984  0.294984  0.082236  1
  F  F11  1  0.052727  0.705684  0.417599  1
  F  F12  1  0.449428  0.280630  0.544600  1
  F  F13  1  0.949695  0.719521  0.955464  1
  F  F14  1  0.550295  0.720780  0.453366  1
  F  F15  1  0.050957  0.279827  0.045128  1
  F  F16  1  0.770406  0.511204  0.860833  1
  F  F17  1  0.270483  0.488331  0.638904  1
  F  F18  1  0.229711  0.488495  0.139744  1
  F  F19  1  0.731211  0.512858  0.360415  1
  F  F20  1  0.753738  0.034090  0.047992  1
  F  F21  1  0.253590  0.965550  0.452182  1
  F  F22  1  0.245921  0.965357  0.953333  1
  F  F23  1  0.745599  0.035566  0.546782  1
  F  F24  1  0.967901  0.729406  0.639381  1
  F  F25  1  0.467536  0.270074  0.860816  1
  F  F26  1  0.032323  0.270561  0.360058  1
  F  F27  1  0.531125  0.730437  0.141009  1
  F  F28  1  0.043589  0.750462  0.173548  1
  F  F29  1  0.546725  0.251293  0.326247  1
  F  F30  1  0.953837  0.250063  0.826731  1
  F  F31  1  0.454345  0.749221  0.672672  1
  F  F32  1  0.424710  0.971327  0.232878  1
  F  F33  1  0.921527  0.025492  0.266913  1
  F  F34  1  0.578533  0.027896  0.767225  1
  F  F35  1  0.078601  0.972117  0.732479  1
