# generated using pymatgen
data_Dy2Sc3Sn3Ge
_symmetry_space_group_name_H-M   'P 1'
_cell_length_a   7.53855700
_cell_length_b   7.84728200
_cell_length_c   14.76504600
_cell_angle_alpha   90.00000000
_cell_angle_beta   90.00000000
_cell_angle_gamma   90.00000000
_symmetry_Int_Tables_number   1
_chemical_formula_structural   Dy2Sc3Sn3Ge
_chemical_formula_sum   'Dy8 Sc12 Sn12 Ge4'
_cell_volume   873.45852309
_cell_formula_units_Z   4
loop_
 _symmetry_equiv_pos_site_id
 _symmetry_equiv_pos_as_xyz
  1  'x, y, z'
loop_
 _atom_site_type_symbol
 _atom_site_label
 _atom_site_symmetry_multiplicity
 _atom_site_fract_x
 _atom_site_fract_y
 _atom_site_fract_z
 _atom_site_occupancy
  Dy  Dy0  1  0.994295  0.172505  0.096852  1
  Dy  Dy1  1  0.005705  0.827495  0.903148  1
  Dy  Dy2  1  0.505705  0.672505  0.903148  1
  Dy  Dy3  1  0.005705  0.827495  0.596852  1
  Dy  Dy4  1  0.494295  0.327495  0.096852  1
  Dy  Dy5  1  0.994295  0.172505  0.403148  1
  Dy  Dy6  1  0.494295  0.327495  0.403148  1
  Dy  Dy7  1  0.505705  0.672505  0.596852  1
  Sc  Sc8  1  0.172594  0.489724  0.750000  1
  Sc  Sc9  1  0.827406  0.510276  0.250000  1
  Sc  Sc10  1  0.327406  0.989724  0.250000  1
  Sc  Sc11  1  0.672594  0.010276  0.750000  1
  Sc  Sc12  1  0.335220  0.167252  0.633078  1
  Sc  Sc13  1  0.664780  0.832748  0.366922  1
  Sc  Sc14  1  0.164780  0.667252  0.366922  1
  Sc  Sc15  1  0.664780  0.832748  0.133078  1
  Sc  Sc16  1  0.835220  0.332748  0.633078  1
  Sc  Sc17  1  0.335220  0.167252  0.866922  1
  Sc  Sc18  1  0.835220  0.332748  0.866922  1
  Sc  Sc19  1  0.164780  0.667252  0.133078  1
  Sn  Sn20  1  0.305936  0.852781  0.750000  1
  Sn  Sn21  1  0.694064  0.147219  0.250000  1
  Sn  Sn22  1  0.194064  0.352781  0.250000  1
  Sn  Sn23  1  0.805936  0.647219  0.750000  1
  Sn  Sn24  1  0.178255  0.457640  0.540593  1
  Sn  Sn25  1  0.821745  0.542360  0.459407  1
  Sn  Sn26  1  0.321745  0.957640  0.459407  1
  Sn  Sn27  1  0.821745  0.542360  0.040593  1
  Sn  Sn28  1  0.678255  0.042360  0.540593  1
  Sn  Sn29  1  0.178255  0.457640  0.959407  1
  Sn  Sn30  1  0.678255  0.042360  0.959407  1
  Sn  Sn31  1  0.321745  0.957640  0.040593  1
  Ge  Ge32  1  0.027642  0.130816  0.750000  1
  Ge  Ge33  1  0.972358  0.869184  0.250000  1
  Ge  Ge34  1  0.472358  0.630816  0.250000  1
  Ge  Ge35  1  0.527642  0.369184  0.750000  1
