# generated using pymatgen
data_Ho8Ta6Ti5NbSi16
_symmetry_space_group_name_H-M   'P 1'
_cell_length_a   7.02867403
_cell_length_b   7.03847717
_cell_length_c   12.95751863
_cell_angle_alpha   90.01486710
_cell_angle_beta   90.06557468
_cell_angle_gamma   89.96879887
_symmetry_Int_Tables_number   1
_chemical_formula_structural   Ho8Ta6Ti5NbSi16
_chemical_formula_sum   'Ho8 Ta6 Ti5 Nb1 Si16'
_cell_volume   641.02296293
_cell_formula_units_Z   1
loop_
 _symmetry_equiv_pos_site_id
 _symmetry_equiv_pos_as_xyz
  1  'x, y, z'
loop_
 _atom_site_type_symbol
 _atom_site_label
 _atom_site_symmetry_multiplicity
 _atom_site_fract_x
 _atom_site_fract_y
 _atom_site_fract_z
 _atom_site_occupancy
  Ho  Ho0  1  0.341910  0.001797  0.466732  1
  Ho  Ho1  1  0.498057  0.842430  0.716604  1
  Ho  Ho2  1  0.501594  0.157472  0.216609  1
  Ho  Ho3  1  0.840974  0.498907  0.283268  1
  Ho  Ho4  1  0.159407  0.501825  0.782778  1
  Ho  Ho5  1  0.657659  0.998198  0.967190  1
  Ho  Ho6  1  0.002249  0.341495  0.532895  1
  Ho  Ho7  1  0.998110  0.659531  0.033134  1
  Ta  Ta8  1  0.172476  0.826712  0.250127  1
  Ta  Ta9  1  0.828169  0.172708  0.749991  1
  Ta  Ta10  1  0.671947  0.670545  0.500398  1
  Ta  Ta11  1  0.152129  0.007833  0.873922  1
  Ta  Ta12  1  0.491325  0.652495  0.124241  1
  Ta  Ta13  1  0.508266  0.347496  0.624735  1
  Ti  Ti14  1  0.652392  0.492720  0.875323  1
  Ti  Ti15  1  0.347352  0.507494  0.375658  1
  Ti  Ti16  1  0.846875  0.992296  0.374254  1
  Ti  Ti17  1  0.007867  0.152155  0.125288  1
  Ti  Ti18  1  0.991930  0.846179  0.625873  1
  Nb  Nb19  1  0.327616  0.328568  0.000294  1
  Si  Si20  1  0.203630  0.131994  0.682327  1
  Si  Si21  1  0.368285  0.704566  0.932400  1
  Si  Si22  1  0.632594  0.296006  0.432951  1
  Si  Si23  1  0.704855  0.365906  0.067158  1
  Si  Si24  1  0.296376  0.634460  0.566216  1
  Si  Si25  1  0.797778  0.868257  0.184022  1
  Si  Si26  1  0.131804  0.201869  0.316351  1
  Si  Si27  1  0.864998  0.796143  0.816958  1
  Si  Si28  1  0.291456  0.953725  0.064517  1
  Si  Si29  1  0.546512  0.792753  0.314885  1
  Si  Si30  1  0.454801  0.207924  0.813973  1
  Si  Si31  1  0.795523  0.547095  0.686159  1
  Si  Si32  1  0.205376  0.452113  0.187197  1
  Si  Si33  1  0.710091  0.045357  0.563130  1
  Si  Si34  1  0.951982  0.295191  0.936242  1
  Si  Si35  1  0.045636  0.707782  0.436199  1
