# generated using pymatgen
data_Gd6Mn3CrC12
_symmetry_space_group_name_H-M   'P 1'
_cell_length_a   8.17716600
_cell_length_b   8.17716594
_cell_length_c   5.05018400
_cell_angle_alpha   90.00000000
_cell_angle_beta   90.00000000
_cell_angle_gamma   119.99999213
_symmetry_Int_Tables_number   1
_chemical_formula_structural   Gd6Mn3CrC12
_chemical_formula_sum   'Gd6 Mn3 Cr1 C12'
_cell_volume   292.44452370
_cell_formula_units_Z   1
loop_
 _symmetry_equiv_pos_site_id
 _symmetry_equiv_pos_as_xyz
  1  'x, y, z'
loop_
 _atom_site_type_symbol
 _atom_site_label
 _atom_site_symmetry_multiplicity
 _atom_site_fract_x
 _atom_site_fract_y
 _atom_site_fract_z
 _atom_site_occupancy
  Gd  Gd0  1  0.618921  0.686675  0.748623  1
  Gd  Gd1  1  0.932246  0.618921  0.251377  1
  Gd  Gd2  1  0.686675  0.067754  0.251377  1
  Gd  Gd3  1  0.313325  0.932246  0.748623  1
  Gd  Gd4  1  0.067754  0.381079  0.748623  1
  Gd  Gd5  1  0.381079  0.313325  0.251377  1
  Mn  Mn6  1  0.000000  0.000000  0.000000  1
  Mn  Mn7  1  0.666667  0.333333  0.753369  1
  Mn  Mn8  1  0.333333  0.666667  0.246631  1
  Cr  Cr9  1  0.000000  0.000000  0.500000  1
  C  C10  1  0.960085  0.771095  0.747253  1
  C  C11  1  0.188990  0.960085  0.252747  1
  C  C12  1  0.771095  0.811010  0.252747  1
  C  C13  1  0.228905  0.188990  0.747253  1
  C  C14  1  0.811010  0.039915  0.747253  1
  C  C15  1  0.039915  0.228905  0.252747  1
  C  C16  1  0.861297  0.578055  0.751194  1
  C  C17  1  0.283241  0.861297  0.248806  1
  C  C18  1  0.578055  0.716759  0.248806  1
  C  C19  1  0.421945  0.283241  0.751194  1
  C  C20  1  0.138703  0.421945  0.248806  1
  C  C21  1  0.716759  0.138703  0.751194  1
