# generated using pymatgen
data_Y3Nb(Ni4As3)2
_symmetry_space_group_name_H-M   'P 1'
_cell_length_a   3.92336400
_cell_length_b   11.15876800
_cell_length_c   12.80863000
_cell_angle_alpha   90.00000000
_cell_angle_beta   90.00000000
_cell_angle_gamma   90.00000000
_symmetry_Int_Tables_number   1
_chemical_formula_structural   Y3Nb(Ni4As3)2
_chemical_formula_sum   'Y6 Nb2 Ni16 As12'
_cell_volume   560.76065140
_cell_formula_units_Z   2
loop_
 _symmetry_equiv_pos_site_id
 _symmetry_equiv_pos_as_xyz
  1  'x, y, z'
loop_
 _atom_site_type_symbol
 _atom_site_label
 _atom_site_symmetry_multiplicity
 _atom_site_fract_x
 _atom_site_fract_y
 _atom_site_fract_z
 _atom_site_occupancy
  Y  Y0  1  0.000000  0.500000  0.525608  1
  Y  Y1  1  0.500000  0.000000  0.474392  1
  Y  Y2  1  0.500000  0.820356  0.206680  1
  Y  Y3  1  0.500000  0.179644  0.206680  1
  Y  Y4  1  0.000000  0.679644  0.793320  1
  Y  Y5  1  0.000000  0.320356  0.793320  1
  Nb  Nb6  1  0.500000  0.500000  0.149599  1
  Nb  Nb7  1  0.000000  0.000000  0.850401  1
  Ni  Ni8  1  0.500000  0.500000  0.698090  1
  Ni  Ni9  1  0.000000  0.000000  0.301910  1
  Ni  Ni10  1  0.000000  0.500000  0.983480  1
  Ni  Ni11  1  0.500000  0.000000  0.016520  1
  Ni  Ni12  1  0.500000  0.335696  0.990911  1
  Ni  Ni13  1  0.500000  0.664304  0.990911  1
  Ni  Ni14  1  0.000000  0.164304  0.009089  1
  Ni  Ni15  1  0.000000  0.835696  0.009089  1
  Ni  Ni16  1  0.500000  0.302892  0.426435  1
  Ni  Ni17  1  0.500000  0.697108  0.426435  1
  Ni  Ni18  1  0.000000  0.197108  0.573565  1
  Ni  Ni19  1  0.000000  0.802892  0.573565  1
  Ni  Ni20  1  0.500000  0.879667  0.708017  1
  Ni  Ni21  1  0.500000  0.120333  0.708017  1
  Ni  Ni22  1  0.000000  0.620333  0.291983  1
  Ni  Ni23  1  0.000000  0.379667  0.291983  1
  As  As24  1  0.500000  0.500000  0.877234  1
  As  As25  1  0.000000  0.000000  0.122766  1
  As  As26  1  0.500000  0.500000  0.351445  1
  As  As27  1  0.000000  0.000000  0.648555  1
  As  As28  1  0.500000  0.313472  0.613792  1
  As  As29  1  0.500000  0.686528  0.613792  1
  As  As30  1  0.000000  0.186528  0.386208  1
  As  As31  1  0.000000  0.813472  0.386208  1
  As  As32  1  0.500000  0.840112  0.891785  1
  As  As33  1  0.500000  0.159888  0.891785  1
  As  As34  1  0.000000  0.659888  0.108215  1
  As  As35  1  0.000000  0.340112  0.108215  1
