# generated using pymatgen
data_Tb13Dy3In3HgRh4
_symmetry_space_group_name_H-M   'P 1'
_cell_length_a   9.67391777
_cell_length_b   9.67236378
_cell_length_c   9.67484423
_cell_angle_alpha   59.99840359
_cell_angle_beta   60.03599685
_cell_angle_gamma   60.01751788
_symmetry_Int_Tables_number   1
_chemical_formula_structural   Tb13Dy3In3HgRh4
_chemical_formula_sum   'Tb13 Dy3 In3 Hg1 Rh4'
_cell_volume   640.37483462
_cell_formula_units_Z   1
loop_
 _symmetry_equiv_pos_site_id
 _symmetry_equiv_pos_as_xyz
  1  'x, y, z'
loop_
 _atom_site_type_symbol
 _atom_site_label
 _atom_site_symmetry_multiplicity
 _atom_site_fract_x
 _atom_site_fract_y
 _atom_site_fract_z
 _atom_site_occupancy
  Tb  Tb0  1  0.689457  0.309949  0.312040  1
  Tb  Tb1  1  0.689211  0.688542  0.312401  1
  Tb  Tb2  1  0.312103  0.688918  0.310303  1
  Tb  Tb3  1  0.937490  0.937942  0.559239  1
  Tb  Tb4  1  0.148142  0.150792  0.549824  1
  Tb  Tb5  1  0.562697  0.939313  0.558217  1
  Tb  Tb6  1  0.150752  0.153154  0.149660  1
  Tb  Tb7  1  0.311849  0.308695  0.690423  1
  Tb  Tb8  1  0.937343  0.565368  0.559018  1
  Tb  Tb9  1  0.562776  0.563294  0.935350  1
  Tb  Tb10  1  0.563098  0.938144  0.935459  1
  Tb  Tb11  1  0.937015  0.564725  0.933823  1
  Tb  Tb12  1  0.150698  0.546774  0.149291  1
  Dy  Dy13  1  0.311925  0.689298  0.690373  1
  Dy  Dy14  1  0.690133  0.309959  0.690364  1
  Dy  Dy15  1  0.550031  0.151060  0.147733  1
  In  In16  1  0.244843  0.917290  0.920535  1
  In  In17  1  0.917637  0.245246  0.919912  1
  In  In18  1  0.917729  0.917107  0.919904  1
  Hg  Hg19  1  0.914473  0.913840  0.257847  1
  Rh  Rh20  1  0.357700  0.356680  0.357105  1
  Rh  Rh21  1  0.925915  0.357579  0.358769  1
  Rh  Rh22  1  0.359464  0.358390  0.924545  1
  Rh  Rh23  1  0.357521  0.927942  0.357865  1
