# generated using pymatgen
data_Tb3Pr2Dy(RuBr3)2
_symmetry_space_group_name_H-M   'P 1'
_cell_length_a   4.23735400
_cell_length_b   8.54618156
_cell_length_c   12.01412531
_cell_angle_alpha   84.92683041
_cell_angle_beta   90.00000000
_cell_angle_gamma   90.00000000
_symmetry_Int_Tables_number   1
_chemical_formula_structural   Tb3Pr2Dy(RuBr3)2
_chemical_formula_sum   'Tb3 Pr2 Dy1 Ru2 Br6'
_cell_volume   433.36553186
_cell_formula_units_Z   1
loop_
 _symmetry_equiv_pos_site_id
 _symmetry_equiv_pos_as_xyz
  1  'x, y, z'
loop_
 _atom_site_type_symbol
 _atom_site_label
 _atom_site_symmetry_multiplicity
 _atom_site_fract_x
 _atom_site_fract_y
 _atom_site_fract_z
 _atom_site_occupancy
  Tb  Tb0  1  0.250000  0.277583  0.399306  1
  Tb  Tb1  1  0.750000  0.722126  0.601271  1
  Tb  Tb2  1  0.250000  0.865831  0.370961  1
  Pr  Pr3  1  0.250000  0.876913  0.827000  1
  Pr  Pr4  1  0.750000  0.123656  0.172789  1
  Dy  Dy5  1  0.750000  0.133051  0.628990  1
  Ru  Ru6  1  0.250000  0.938547  0.592866  1
  Ru  Ru7  1  0.750000  0.062022  0.407263  1
  Br  Br8  1  0.250000  0.420255  0.626277  1
  Br  Br9  1  0.750000  0.579102  0.374023  1
  Br  Br10  1  0.250000  0.877475  0.113064  1
  Br  Br11  1  0.750000  0.123080  0.886249  1
  Br  Br12  1  0.250000  0.377090  0.149064  1
  Br  Br13  1  0.750000  0.623270  0.850878  1
