# generated using pymatgen
data_GdLu3(ZnPd)4
_symmetry_space_group_name_H-M   'P 1'
_cell_length_a   4.07967400
_cell_length_b   6.98186325
_cell_length_c   8.14003200
_cell_angle_alpha   89.84288878
_cell_angle_beta   90.00000000
_cell_angle_gamma   90.00000000
_symmetry_Int_Tables_number   1
_chemical_formula_structural   GdLu3(ZnPd)4
_chemical_formula_sum   'Gd1 Lu3 Zn4 Pd4'
_cell_volume   231.85756917
_cell_formula_units_Z   1
loop_
 _symmetry_equiv_pos_site_id
 _symmetry_equiv_pos_as_xyz
  1  'x, y, z'
loop_
 _atom_site_type_symbol
 _atom_site_label
 _atom_site_symmetry_multiplicity
 _atom_site_fract_x
 _atom_site_fract_y
 _atom_site_fract_z
 _atom_site_occupancy
  Gd  Gd0  1  0.750000  0.453903  0.814552  1
  Lu  Lu1  1  0.250000  0.046929  0.311607  1
  Lu  Lu2  1  0.250000  0.547969  0.190766  1
  Lu  Lu3  1  0.750000  0.952776  0.684920  1
  Zn  Zn4  1  0.250000  0.638125  0.563314  1
  Zn  Zn5  1  0.250000  0.133695  0.936710  1
  Zn  Zn6  1  0.750000  0.364066  0.434448  1
  Zn  Zn7  1  0.750000  0.864369  0.064279  1
  Pd  Pd8  1  0.250000  0.241429  0.617692  1
  Pd  Pd9  1  0.250000  0.753187  0.878215  1
  Pd  Pd10  1  0.750000  0.753413  0.378060  1
  Pd  Pd11  1  0.750000  0.250141  0.125436  1
