# generated using pymatgen
data_Sc22AgOs6Pt
_symmetry_space_group_name_H-M   'P 1'
_cell_length_a   9.55331539
_cell_length_b   9.52477230
_cell_length_c   9.55331461
_cell_angle_alpha   60.09878052
_cell_angle_beta   59.51532183
_cell_angle_gamma   60.09878596
_symmetry_Int_Tables_number   1
_chemical_formula_structural   Sc22AgOs6Pt
_chemical_formula_sum   'Sc22 Ag1 Os6 Pt1'
_cell_volume   613.30126717
_cell_formula_units_Z   1
loop_
 _symmetry_equiv_pos_site_id
 _symmetry_equiv_pos_as_xyz
  1  'x, y, z'
loop_
 _atom_site_type_symbol
 _atom_site_label
 _atom_site_symmetry_multiplicity
 _atom_site_fract_x
 _atom_site_fract_y
 _atom_site_fract_z
 _atom_site_occupancy
  Sc  Sc0  1  0.837194  0.856723  0.837194  1
  Sc  Sc1  1  0.530392  0.158491  0.152625  1
  Sc  Sc2  1  0.152625  0.158491  0.530392  1
  Sc  Sc3  1  0.162806  0.531111  0.162806  1
  Sc  Sc4  1  0.847375  0.841509  0.469608  1
  Sc  Sc5  1  0.837194  0.468889  0.837194  1
  Sc  Sc6  1  0.469608  0.841509  0.847375  1
  Sc  Sc7  1  0.162806  0.143277  0.162806  1
  Sc  Sc8  1  0.197067  0.802933  0.197067  1
  Sc  Sc9  1  0.197863  0.804394  0.802137  1
  Sc  Sc10  1  0.802137  0.195606  0.197863  1
  Sc  Sc11  1  0.802137  0.804394  0.197863  1
  Sc  Sc12  1  0.197863  0.195606  0.802137  1
  Sc  Sc13  1  0.802933  0.197067  0.802933  1
  Sc  Sc14  1  0.382522  0.385955  0.382522  1
  Sc  Sc15  1  0.151092  0.621327  0.606255  1
  Sc  Sc16  1  0.617478  0.151002  0.617478  1
  Sc  Sc17  1  0.606255  0.621327  0.151092  1
  Sc  Sc18  1  0.382522  0.848998  0.382522  1
  Sc  Sc19  1  0.393745  0.378673  0.848908  1
  Sc  Sc20  1  0.848908  0.378673  0.393745  1
  Sc  Sc21  1  0.617478  0.614045  0.617478  1
  Ag  Ag22  1  0.000000  0.500000  0.000000  1
  Os  Os23  1  0.500000  0.500000  0.000000  1
  Os  Os24  1  0.000000  0.000000  0.500000  1
  Os  Os25  1  0.000000  0.500000  0.500000  1
  Os  Os26  1  0.500000  0.000000  0.000000  1
  Os  Os27  1  0.500000  0.500000  0.500000  1
  Os  Os28  1  0.000000  0.000000  0.000000  1
  Pt  Pt29  1  0.500000  0.000000  0.500000  1
