# generated using pymatgen
data_NdMg2(H6Ir)2
_symmetry_space_group_name_H-M   'P 1'
_cell_length_a   4.63008000
_cell_length_b   4.63008095
_cell_length_c   8.00834600
_cell_angle_alpha   90.00000000
_cell_angle_beta   90.00000000
_cell_angle_gamma   119.99999320
_symmetry_Int_Tables_number   1
_chemical_formula_structural   NdMg2(H6Ir)2
_chemical_formula_sum   'Nd1 Mg2 H12 Ir2'
_cell_volume   148.67932102
_cell_formula_units_Z   1
loop_
 _symmetry_equiv_pos_site_id
 _symmetry_equiv_pos_as_xyz
  1  'x, y, z'
loop_
 _atom_site_type_symbol
 _atom_site_label
 _atom_site_symmetry_multiplicity
 _atom_site_fract_x
 _atom_site_fract_y
 _atom_site_fract_z
 _atom_site_occupancy
  Nd  Nd0  1  0.000000  0.000000  0.000000  1
  Mg  Mg1  1  0.666667  0.333333  0.368564  1
  Mg  Mg2  1  0.333333  0.666667  0.631436  1
  H  H3  1  0.161175  0.838825  0.382067  1
  H  H4  1  0.677650  0.838825  0.382067  1
  H  H5  1  0.161175  0.322350  0.382067  1
  H  H6  1  0.838825  0.161175  0.617933  1
  H  H7  1  0.322350  0.161175  0.617933  1
  H  H8  1  0.838825  0.677650  0.617933  1
  H  H9  1  0.496656  0.993312  0.861216  1
  H  H10  1  0.496656  0.503344  0.861216  1
  H  H11  1  0.006688  0.503344  0.861216  1
  H  H12  1  0.503344  0.006688  0.138784  1
  H  H13  1  0.503344  0.496656  0.138784  1
  H  H14  1  0.993312  0.496656  0.138784  1
  Ir  Ir15  1  0.666667  0.333333  0.732346  1
  Ir  Ir16  1  0.333333  0.666667  0.267654  1
