# generated using pymatgen
data_Ac5Sn3P
_symmetry_space_group_name_H-M   'P 1'
_cell_length_a   9.90927100
_cell_length_b   9.90927075
_cell_length_c   7.63645200
_cell_angle_alpha   90.00000000
_cell_angle_beta   90.00000000
_cell_angle_gamma   119.99999081
_symmetry_Int_Tables_number   1
_chemical_formula_structural   Ac5Sn3P
_chemical_formula_sum   'Ac10 Sn6 P2'
_cell_volume   649.39015281
_cell_formula_units_Z   2
loop_
 _symmetry_equiv_pos_site_id
 _symmetry_equiv_pos_as_xyz
  1  'x, y, z'
loop_
 _atom_site_type_symbol
 _atom_site_label
 _atom_site_symmetry_multiplicity
 _atom_site_fract_x
 _atom_site_fract_y
 _atom_site_fract_z
 _atom_site_occupancy
  Ac  Ac0  1  0.666667  0.333333  0.000000  1
  Ac  Ac1  1  0.333333  0.666667  0.000000  1
  Ac  Ac2  1  0.333333  0.666667  0.500000  1
  Ac  Ac3  1  0.666667  0.333333  0.500000  1
  Ac  Ac4  1  0.761818  0.761818  0.750000  1
  Ac  Ac5  1  0.238182  0.000000  0.750000  1
  Ac  Ac6  1  0.000000  0.238182  0.750000  1
  Ac  Ac7  1  0.238182  0.238182  0.250000  1
  Ac  Ac8  1  0.761818  0.000000  0.250000  1
  Ac  Ac9  1  0.000000  0.761818  0.250000  1
  Sn  Sn10  1  0.403059  0.403059  0.750000  1
  Sn  Sn11  1  0.596941  0.000000  0.750000  1
  Sn  Sn12  1  0.000000  0.596941  0.750000  1
  Sn  Sn13  1  0.596941  0.596941  0.250000  1
  Sn  Sn14  1  0.403059  0.000000  0.250000  1
  Sn  Sn15  1  0.000000  0.403059  0.250000  1
  P  P16  1  0.000000  0.000000  0.000000  1
  P  P17  1  0.000000  0.000000  0.500000  1
