# generated using pymatgen
data_AcTm(Ni2B)12
_symmetry_space_group_name_H-M   'P 1'
_cell_length_a   6.04783634
_cell_length_b   6.04783622
_cell_length_c   11.03569808
_cell_angle_alpha   90.15649835
_cell_angle_beta   90.15649940
_cell_angle_gamma   104.75370411
_symmetry_Int_Tables_number   1
_chemical_formula_structural   AcTm(Ni2B)12
_chemical_formula_sum   'Ac1 Tm1 Ni24 B12'
_cell_volume   390.33296217
_cell_formula_units_Z   1
loop_
 _symmetry_equiv_pos_site_id
 _symmetry_equiv_pos_as_xyz
  1  'x, y, z'
loop_
 _atom_site_type_symbol
 _atom_site_label
 _atom_site_symmetry_multiplicity
 _atom_site_fract_x
 _atom_site_fract_y
 _atom_site_fract_z
 _atom_site_occupancy
  Ac  Ac0  1  0.832491  0.832491  0.501567  1
  Tm  Tm1  1  0.165746  0.165746  0.995130  1
  Ni  Ni2  1  0.563666  0.563666  0.919430  1
  Ni  Ni3  1  0.426927  0.426927  0.413955  1
  Ni  Ni4  1  0.783249  0.783249  0.097835  1
  Ni  Ni5  1  0.225940  0.225940  0.600933  1
  Ni  Ni6  1  0.539262  0.805490  0.737676  1
  Ni  Ni7  1  0.805490  0.539262  0.737676  1
  Ni  Ni8  1  0.457351  0.195357  0.230986  1
  Ni  Ni9  1  0.195357  0.457351  0.230986  1
  Ni  Ni10  1  0.146134  0.882277  0.758854  1
  Ni  Ni11  1  0.882277  0.146134  0.758854  1
  Ni  Ni12  1  0.854468  0.121508  0.253363  1
  Ni  Ni13  1  0.121508  0.854468  0.253363  1
  Ni  Ni14  1  0.654862  0.276175  0.567831  1
  Ni  Ni15  1  0.276175  0.654862  0.567831  1
  Ni  Ni16  1  0.340199  0.729990  0.066622  1
  Ni  Ni17  1  0.729990  0.340199  0.066622  1
  Ni  Ni18  1  0.630686  0.995571  0.937959  1
  Ni  Ni19  1  0.995571  0.630686  0.937959  1
  Ni  Ni20  1  0.371596  0.006056  0.436490  1
  Ni  Ni21  1  0.006056  0.371596  0.436490  1
  Ni  Ni22  1  0.473286  0.208513  0.778312  1
  Ni  Ni23  1  0.208513  0.473286  0.778312  1
  Ni  Ni24  1  0.524469  0.787878  0.271504  1
  Ni  Ni25  1  0.787878  0.524469  0.271504  1
  B  B26  1  0.836013  0.836013  0.838219  1
  B  B27  1  0.165475  0.165475  0.330349  1
  B  B28  1  0.485032  0.485032  0.666812  1
  B  B29  1  0.512268  0.512268  0.151938  1
  B  B30  1  0.324787  0.756340  0.886894  1
  B  B31  1  0.756340  0.324787  0.886894  1
  B  B32  1  0.675733  0.252383  0.383823  1
  B  B33  1  0.252383  0.675733  0.383823  1
  B  B34  1  0.396123  0.985869  0.623101  1
  B  B35  1  0.985869  0.396123  0.623101  1
  B  B36  1  0.599192  0.011636  0.121500  1
  B  B37  1  0.011636  0.599192  0.121500  1
