# generated using pymatgen
data_CaMn(Sb4Ru)3
_symmetry_space_group_name_H-M   'P 1'
_cell_length_a   8.17486403
_cell_length_b   8.15812971
_cell_length_c   8.17486341
_cell_angle_alpha   109.42975949
_cell_angle_beta   109.51263964
_cell_angle_gamma   109.42975921
_symmetry_Int_Tables_number   1
_chemical_formula_structural   CaMn(Sb4Ru)3
_chemical_formula_sum   'Ca1 Mn1 Sb12 Ru3'
_cell_volume   419.90571155
_cell_formula_units_Z   1
loop_
 _symmetry_equiv_pos_site_id
 _symmetry_equiv_pos_as_xyz
  1  'x, y, z'
loop_
 _atom_site_type_symbol
 _atom_site_label
 _atom_site_symmetry_multiplicity
 _atom_site_fract_x
 _atom_site_fract_y
 _atom_site_fract_z
 _atom_site_occupancy
  Ca  Ca0  1  0.000000  0.000000  0.000000  1
  Mn  Mn1  1  0.000000  0.500000  0.000000  1
  Sb  Sb2  1  0.338274  0.180336  0.842052  1
  Sb  Sb3  1  0.661726  0.819664  0.157948  1
  Sb  Sb4  1  0.656525  0.503371  0.841152  1
  Sb  Sb5  1  0.343475  0.496629  0.158848  1
  Sb  Sb6  1  0.184627  0.846847  0.343475  1
  Sb  Sb7  1  0.815373  0.153153  0.656525  1
  Sb  Sb8  1  0.503778  0.842062  0.661726  1
  Sb  Sb9  1  0.496222  0.157938  0.338274  1
  Sb  Sb10  1  0.841152  0.337781  0.184627  1
  Sb  Sb11  1  0.158848  0.662219  0.815373  1
  Sb  Sb12  1  0.842052  0.661716  0.503778  1
  Sb  Sb13  1  0.157948  0.338284  0.496222  1
  Ru  Ru14  1  0.000000  0.000000  0.500000  1
  Ru  Ru15  1  0.500000  0.000000  0.000000  1
  Ru  Ru16  1  0.500000  0.500000  0.500000  1
