# generated using pymatgen
data_TbTh(BRu)4
_symmetry_space_group_name_H-M   'P 1'
_cell_length_a   6.73592696
_cell_length_b   5.98377685
_cell_length_c   5.57877408
_cell_angle_alpha   71.16394644
_cell_angle_beta   57.22086833
_cell_angle_gamma   51.61517943
_symmetry_Int_Tables_number   1
_chemical_formula_structural   TbTh(BRu)4
_chemical_formula_sum   'Tb1 Th1 B4 Ru4'
_cell_volume   148.16112697
_cell_formula_units_Z   1
loop_
 _symmetry_equiv_pos_site_id
 _symmetry_equiv_pos_as_xyz
  1  'x, y, z'
loop_
 _atom_site_type_symbol
 _atom_site_label
 _atom_site_symmetry_multiplicity
 _atom_site_fract_x
 _atom_site_fract_y
 _atom_site_fract_z
 _atom_site_occupancy
  Tb  Tb0  1  0.000000  0.000000  0.000000  1
  Th  Th1  1  0.250000  0.250000  0.250000  1
  B  B2  1  0.312405  0.687595  0.312405  1
  B  B3  1  0.687595  0.312405  0.687595  1
  B  B4  1  0.568023  0.931977  0.568023  1
  B  B5  1  0.931977  0.568023  0.931977  1
  Ru  Ru6  1  0.636914  0.636914  0.363086  1
  Ru  Ru7  1  0.363086  0.363086  0.636914  1
  Ru  Ru8  1  0.612113  0.612113  0.887887  1
  Ru  Ru9  1  0.887887  0.887887  0.612113  1
