# generated using pymatgen
data_PrBe12Ni
_symmetry_space_group_name_H-M   'P 1'
_cell_length_a   7.34845553
_cell_length_b   7.38605015
_cell_length_c   7.32310903
_cell_angle_alpha   59.94309046
_cell_angle_beta   59.72467968
_cell_angle_gamma   59.60331267
_symmetry_Int_Tables_number   1
_chemical_formula_structural   PrBe12Ni
_chemical_formula_sum   'Pr2 Be24 Ni2'
_cell_volume   279.49768369
_cell_formula_units_Z   2
loop_
 _symmetry_equiv_pos_site_id
 _symmetry_equiv_pos_as_xyz
  1  'x, y, z'
loop_
 _atom_site_type_symbol
 _atom_site_label
 _atom_site_symmetry_multiplicity
 _atom_site_fract_x
 _atom_site_fract_y
 _atom_site_fract_z
 _atom_site_occupancy
  Pr  Pr0  1  0.250046  0.249954  0.250046  1
  Pr  Pr1  1  0.749954  0.750046  0.749954  1
  Be  Be2  1  0.500000  0.500000  0.500000  1
  Be  Be3  1  0.000000  0.000000  0.000000  1
  Be  Be4  1  0.568443  0.786341  0.431557  1
  Be  Be5  1  0.431557  0.213659  0.568443  1
  Be  Be6  1  0.289351  0.933764  0.710649  1
  Be  Be7  1  0.710649  0.066236  0.289351  1
  Be  Be8  1  0.933296  0.285086  0.066704  1
  Be  Be9  1  0.066704  0.714914  0.933296  1
  Be  Be10  1  0.208434  0.793836  0.562207  1
  Be  Be11  1  0.791566  0.206164  0.437793  1
  Be  Be12  1  0.437793  0.564477  0.791566  1
  Be  Be13  1  0.562207  0.435523  0.208434  1
  Be  Be14  1  0.714277  0.282254  0.934919  1
  Be  Be15  1  0.285723  0.717746  0.065081  1
  Be  Be16  1  0.065081  0.931449  0.285723  1
  Be  Be17  1  0.934919  0.068551  0.714277  1
  Be  Be18  1  0.563369  0.210078  0.790954  1
  Be  Be19  1  0.436631  0.789922  0.209046  1
  Be  Be20  1  0.790954  0.435599  0.563369  1
  Be  Be21  1  0.209046  0.564401  0.436631  1
  Be  Be22  1  0.935671  0.713894  0.286337  1
  Be  Be23  1  0.064329  0.286106  0.713663  1
  Be  Be24  1  0.286337  0.064097  0.935671  1
  Be  Be25  1  0.713663  0.935903  0.064329  1
  Ni  Ni26  1  0.795907  0.560235  0.204093  1
  Ni  Ni27  1  0.204093  0.439765  0.795907  1
