# generated using pymatgen
data_LuMn5Fe(Sn2Ge)2
_symmetry_space_group_name_H-M   'P 1'
_cell_length_a   5.33507400
_cell_length_b   5.29908346
_cell_length_c   8.64538300
_cell_angle_alpha   90.00000000
_cell_angle_beta   90.00000000
_cell_angle_gamma   120.22495287
_symmetry_Int_Tables_number   1
_chemical_formula_structural   LuMn5Fe(Sn2Ge)2
_chemical_formula_sum   'Lu1 Mn5 Fe1 Sn4 Ge2'
_cell_volume   211.18698942
_cell_formula_units_Z   1
loop_
 _symmetry_equiv_pos_site_id
 _symmetry_equiv_pos_as_xyz
  1  'x, y, z'
loop_
 _atom_site_type_symbol
 _atom_site_label
 _atom_site_symmetry_multiplicity
 _atom_site_fract_x
 _atom_site_fract_y
 _atom_site_fract_z
 _atom_site_occupancy
  Lu  Lu0  1  0.000000  0.000000  0.000637  1
  Mn  Mn1  1  0.500000  0.500000  0.768265  1
  Mn  Mn2  1  0.000000  0.500000  0.768265  1
  Mn  Mn3  1  0.500000  0.500000  0.230409  1
  Mn  Mn4  1  0.500000  0.000000  0.232694  1
  Mn  Mn5  1  0.000000  0.500000  0.230409  1
  Fe  Fe6  1  0.500000  0.000000  0.768313  1
  Sn  Sn7  1  0.666942  0.333883  0.499434  1
  Sn  Sn8  1  0.333058  0.666117  0.499434  1
  Sn  Sn9  1  0.000000  0.000000  0.665953  1
  Sn  Sn10  1  0.000000  0.000000  0.334171  1
  Ge  Ge11  1  0.665189  0.330377  0.001008  1
  Ge  Ge12  1  0.334811  0.669623  0.001008  1
