# generated using pymatgen
data_RbCdMoF7
_symmetry_space_group_name_H-M   'P 1'
_cell_length_a   6.57447634
_cell_length_b   6.57447638
_cell_length_c   8.61514500
_cell_angle_alpha   90.00000000
_cell_angle_beta   90.00000000
_cell_angle_gamma   117.05636121
_symmetry_Int_Tables_number   1
_chemical_formula_structural   RbCdMoF7
_chemical_formula_sum   'Rb2 Cd2 Mo2 F14'
_cell_volume   331.62546515
_cell_formula_units_Z   2
loop_
 _symmetry_equiv_pos_site_id
 _symmetry_equiv_pos_as_xyz
  1  'x, y, z'
loop_
 _atom_site_type_symbol
 _atom_site_label
 _atom_site_symmetry_multiplicity
 _atom_site_fract_x
 _atom_site_fract_y
 _atom_site_fract_z
 _atom_site_occupancy
  Rb  Rb0  1  0.000000  0.000000  0.000000  1
  Rb  Rb1  1  0.000000  0.000000  0.500000  1
  Cd  Cd2  1  0.309070  0.690930  0.750000  1
  Cd  Cd3  1  0.690930  0.309070  0.250000  1
  Mo  Mo4  1  0.693828  0.306172  0.750000  1
  Mo  Mo5  1  0.306172  0.693828  0.250000  1
  F  F6  1  0.351530  0.067670  0.750000  1
  F  F7  1  0.648470  0.932330  0.250000  1
  F  F8  1  0.932330  0.648470  0.750000  1
  F  F9  1  0.067670  0.351530  0.250000  1
  F  F10  1  0.513692  0.486308  0.750000  1
  F  F11  1  0.486308  0.513692  0.250000  1
  F  F12  1  0.701992  0.298008  0.987938  1
  F  F13  1  0.298008  0.701992  0.012062  1
  F  F14  1  0.298008  0.701992  0.487938  1
  F  F15  1  0.701992  0.298008  0.512062  1
  F  F16  1  0.672852  0.980588  0.750000  1
  F  F17  1  0.327148  0.019412  0.250000  1
  F  F18  1  0.019412  0.327148  0.750000  1
  F  F19  1  0.980588  0.672852  0.250000  1
