# generated using pymatgen
data_Pr2S4O15
_symmetry_space_group_name_H-M   'P 1'
_cell_length_a   5.64521153
_cell_length_b   6.57864071
_cell_length_c   9.32613758
_cell_angle_alpha   89.76132225
_cell_angle_beta   110.96884947
_cell_angle_gamma   103.99678298
_symmetry_Int_Tables_number   1
_chemical_formula_structural   Pr2S4O15
_chemical_formula_sum   'Pr2 S4 O15'
_cell_volume   312.51274062
_cell_formula_units_Z   1
loop_
 _symmetry_equiv_pos_site_id
 _symmetry_equiv_pos_as_xyz
  1  'x, y, z'
loop_
 _atom_site_type_symbol
 _atom_site_label
 _atom_site_symmetry_multiplicity
 _atom_site_fract_x
 _atom_site_fract_y
 _atom_site_fract_z
 _atom_site_occupancy
  Pr  Pr0  1  0.991693  0.225221  0.561547  1
  Pr  Pr1  1  0.895177  0.933196  0.952684  1
  S  S2  1  0.690909  0.344937  0.854577  1
  S  S3  1  0.532478  0.789803  0.208006  1
  S  S4  1  0.365268  0.351307  0.299876  1
  S  S5  1  0.187809  0.816283  0.661736  1
  O  O6  1  0.036137  0.922582  0.732681  1
  O  O7  1  0.036205  0.598499  0.606087  1
  O  O8  1  0.847241  0.563867  0.901180  1
  O  O9  1  0.280101  0.398953  0.423547  1
  O  O10  1  0.818056  0.233998  0.768877  1
  O  O11  1  0.177187  0.181018  0.189425  1
  O  O12  1  0.346643  0.546789  0.192425  1
  O  O13  1  0.742274  0.768994  0.156146  1
  O  O14  1  0.446974  0.821335  0.778917  1
  O  O15  1  0.635982  0.335591  0.354113  1
  O  O16  1  0.209847  0.946933  0.534466  1
  O  O17  1  0.419554  0.338918  0.754077  1
  O  O18  1  0.624401  0.879154  0.366283  1
  O  O19  1  0.695624  0.222336  0.988395  1
  O  O20  1  0.338054  0.875479  0.094275  1
