# generated using pymatgen
data_Dy11Y9CoBi8Os3
_symmetry_space_group_name_H-M   'P 1'
_cell_length_a   7.99386751
_cell_length_b   8.99324400
_cell_length_c   12.51945961
_cell_angle_alpha   90.00000000
_cell_angle_beta   90.29802165
_cell_angle_gamma   90.00000000
_symmetry_Int_Tables_number   1
_chemical_formula_structural   Dy11Y9CoBi8Os3
_chemical_formula_sum   'Dy11 Y9 Co1 Bi8 Os3'
_cell_volume   900.02180442
_cell_formula_units_Z   1
loop_
 _symmetry_equiv_pos_site_id
 _symmetry_equiv_pos_as_xyz
  1  'x, y, z'
loop_
 _atom_site_type_symbol
 _atom_site_label
 _atom_site_symmetry_multiplicity
 _atom_site_fract_x
 _atom_site_fract_y
 _atom_site_fract_z
 _atom_site_occupancy
  Dy  Dy0  1  0.875715  0.250000  0.807083  1
  Dy  Dy1  1  0.058411  0.250000  0.496148  1
  Dy  Dy2  1  0.445242  0.250000  0.996974  1
  Dy  Dy3  1  0.673582  0.041804  0.563746  1
  Dy  Dy4  1  0.325200  0.957370  0.435991  1
  Dy  Dy5  1  0.175022  0.958441  0.935953  1
  Dy  Dy6  1  0.325200  0.542630  0.435991  1
  Dy  Dy7  1  0.826286  0.038610  0.062622  1
  Dy  Dy8  1  0.673582  0.458196  0.563746  1
  Dy  Dy9  1  0.826286  0.461390  0.062622  1
  Dy  Dy10  1  0.175022  0.541559  0.935953  1
  Y  Y11  1  0.843621  0.750000  0.797588  1
  Y  Y12  1  0.158801  0.250000  0.207807  1
  Y  Y13  1  0.341148  0.250000  0.709328  1
  Y  Y14  1  0.656866  0.750000  0.292977  1
  Y  Y15  1  0.375212  0.750000  0.695240  1
  Y  Y16  1  0.623762  0.250000  0.305414  1
  Y  Y17  1  0.121402  0.750000  0.189069  1
  Y  Y18  1  0.943084  0.750000  0.504736  1
  Y  Y19  1  0.553353  0.750000  0.003328  1
  Co  Co20  1  0.931186  0.750000  0.009360  1
  Bi  Bi21  1  0.570323  0.492372  0.828380  1
  Bi  Bi22  1  0.430829  0.508207  0.171621  1
  Bi  Bi23  1  0.068212  0.507803  0.672985  1
  Bi  Bi24  1  0.430829  0.991793  0.171621  1
  Bi  Bi25  1  0.931327  0.492791  0.326710  1
  Bi  Bi26  1  0.570323  0.007628  0.828380  1
  Bi  Bi27  1  0.931327  0.007209  0.326710  1
  Bi  Bi28  1  0.068212  0.992197  0.672985  1
  Os  Os29  1  0.574026  0.750000  0.511333  1
  Os  Os30  1  0.423068  0.250000  0.489053  1
  Os  Os31  1  0.073539  0.250000  0.988544  1
