# generated using pymatgen
data_VSeO3F
_symmetry_space_group_name_H-M   'P 1'
_cell_length_a   5.33598200
_cell_length_b   5.09907005
_cell_length_c   12.59302018
_cell_angle_alpha   74.41161464
_cell_angle_beta   90.00000000
_cell_angle_gamma   90.00000000
_symmetry_Int_Tables_number   1
_chemical_formula_structural   VSeO3F
_chemical_formula_sum   'V4 Se4 O12 F4'
_cell_volume   330.03454428
_cell_formula_units_Z   4
loop_
 _symmetry_equiv_pos_site_id
 _symmetry_equiv_pos_as_xyz
  1  'x, y, z'
loop_
 _atom_site_type_symbol
 _atom_site_label
 _atom_site_symmetry_multiplicity
 _atom_site_fract_x
 _atom_site_fract_y
 _atom_site_fract_z
 _atom_site_occupancy
  V  V0  1  0.751183  0.384411  0.571000  1
  V  V1  1  0.748817  0.384411  0.071000  1
  V  V2  1  0.248817  0.615589  0.429000  1
  V  V3  1  0.251183  0.615589  0.929000  1
  Se  Se4  1  0.863723  0.181091  0.833233  1
  Se  Se5  1  0.636277  0.181091  0.333233  1
  Se  Se6  1  0.136277  0.818909  0.166767  1
  Se  Se7  1  0.363723  0.818909  0.666767  1
  O  O8  1  0.124947  0.971943  0.842930  1
  O  O9  1  0.375053  0.971943  0.342930  1
  O  O10  1  0.875053  0.028057  0.157070  1
  O  O11  1  0.624947  0.028057  0.657070  1
  O  O12  1  0.950971  0.381410  0.925059  1
  O  O13  1  0.549029  0.381410  0.425059  1
  O  O14  1  0.049029  0.618590  0.074941  1
  O  O15  1  0.450971  0.618590  0.574941  1
  O  O16  1  0.930708  0.409885  0.710323  1
  O  O17  1  0.569292  0.409885  0.210323  1
  O  O18  1  0.069292  0.590115  0.289677  1
  O  O19  1  0.430708  0.590115  0.789677  1
  F  F20  1  0.058510  0.264986  0.507214  1
  F  F21  1  0.441490  0.264986  0.007214  1
  F  F22  1  0.941490  0.735014  0.492786  1
  F  F23  1  0.558510  0.735014  0.992786  1
