# generated using pymatgen
data_ErTh3(Al3Ir)6
_symmetry_space_group_name_H-M   'P 1'
_cell_length_a   7.64956315
_cell_length_b   7.63928825
_cell_length_c   9.49608200
_cell_angle_alpha   90.00000000
_cell_angle_beta   90.00000000
_cell_angle_gamma   119.51449319
_symmetry_Int_Tables_number   1
_chemical_formula_structural   ErTh3(Al3Ir)6
_chemical_formula_sum   'Er1 Th3 Al18 Ir6'
_cell_volume   482.91266112
_cell_formula_units_Z   1
loop_
 _symmetry_equiv_pos_site_id
 _symmetry_equiv_pos_as_xyz
  1  'x, y, z'
loop_
 _atom_site_type_symbol
 _atom_site_label
 _atom_site_symmetry_multiplicity
 _atom_site_fract_x
 _atom_site_fract_y
 _atom_site_fract_z
 _atom_site_occupancy
  Er  Er0  1  0.994781  0.671840  0.250000  1
  Th  Th1  1  0.005114  0.329664  0.750000  1
  Th  Th2  1  0.671020  0.996282  0.250000  1
  Th  Th3  1  0.328651  0.004541  0.750000  1
  Al  Al4  1  0.130472  0.129131  0.250000  1
  Al  Al5  1  0.867154  0.864812  0.750000  1
  Al  Al6  1  0.004665  0.340740  0.077604  1
  Al  Al7  1  0.995634  0.664718  0.931248  1
  Al  Al8  1  0.995634  0.664718  0.568752  1
  Al  Al9  1  0.330420  0.999423  0.422407  1
  Al  Al10  1  0.004665  0.340740  0.422396  1
  Al  Al11  1  0.664202  0.994098  0.574467  1
  Al  Al12  1  0.664202  0.994098  0.925533  1
  Al  Al13  1  0.330420  0.999423  0.077593  1
  Al  Al14  1  0.336841  0.336759  0.545861  1
  Al  Al15  1  0.667576  0.663798  0.446730  1
  Al  Al16  1  0.667576  0.663798  0.053270  1
  Al  Al17  1  0.336841  0.336759  0.954139  1
  Al  Al18  1  0.338078  0.547361  0.250000  1
  Al  Al19  1  0.660913  0.455497  0.750000  1
  Al  Al20  1  0.550533  0.343680  0.250000  1
  Al  Al21  1  0.455326  0.658537  0.750000  1
  Ir  Ir22  1  0.671593  0.325781  0.000038  1
  Ir  Ir23  1  0.328186  0.672730  0.999888  1
  Ir  Ir24  1  0.328186  0.672730  0.500112  1
  Ir  Ir25  1  0.671593  0.325781  0.499962  1
  Ir  Ir26  1  0.999863  0.001281  0.999828  1
  Ir  Ir27  1  0.999863  0.001281  0.500172  1
