# generated using pymatgen
data_Dy4Ho12Cd4Ir3Pt
_symmetry_space_group_name_H-M   'P 1'
_cell_length_a   9.61528249
_cell_length_b   9.61469433
_cell_length_c   9.61469550
_cell_angle_alpha   60.07016784
_cell_angle_beta   60.05787024
_cell_angle_gamma   60.05787224
_symmetry_Int_Tables_number   1
_chemical_formula_structural   Dy4Ho12Cd4Ir3Pt
_chemical_formula_sum   'Dy4 Ho12 Cd4 Ir3 Pt1'
_cell_volume   629.40121606
_cell_formula_units_Z   1
loop_
 _symmetry_equiv_pos_site_id
 _symmetry_equiv_pos_as_xyz
  1  'x, y, z'
loop_
 _atom_site_type_symbol
 _atom_site_label
 _atom_site_symmetry_multiplicity
 _atom_site_fract_x
 _atom_site_fract_y
 _atom_site_fract_z
 _atom_site_occupancy
  Dy  Dy0  1  0.812970  0.188052  0.812950  1
  Dy  Dy1  1  0.187158  0.814010  0.187161  1
  Dy  Dy2  1  0.812970  0.812950  0.188052  1
  Dy  Dy3  1  0.187158  0.187161  0.814010  1
  Ho  Ho4  1  0.597943  0.598061  0.598061  1
  Ho  Ho5  1  0.602100  0.601982  0.199628  1
  Ho  Ho6  1  0.602100  0.199628  0.601982  1
  Ho  Ho7  1  0.199567  0.602133  0.602133  1
  Ho  Ho8  1  0.056267  0.440281  0.440281  1
  Ho  Ho9  1  0.437795  0.060641  0.060641  1
  Ho  Ho10  1  0.440311  0.056277  0.440298  1
  Ho  Ho11  1  0.060648  0.437784  0.060617  1
  Ho  Ho12  1  0.440311  0.440298  0.056277  1
  Ho  Ho13  1  0.060648  0.060617  0.437784  1
  Ho  Ho14  1  0.188271  0.812731  0.812731  1
  Ho  Ho15  1  0.813801  0.187382  0.187382  1
  Cd  Cd16  1  0.831011  0.830811  0.830811  1
  Cd  Cd17  1  0.830881  0.831062  0.506411  1
  Cd  Cd18  1  0.830881  0.506411  0.831062  1
  Cd  Cd19  1  0.506392  0.830899  0.830899  1
  Ir  Ir20  1  0.391785  0.391944  0.824462  1
  Ir  Ir21  1  0.391785  0.824462  0.391944  1
  Ir  Ir22  1  0.824475  0.391799  0.391799  1
  Pt  Pt23  1  0.392772  0.392625  0.392625  1
