# generated using pymatgen
data_Y20Co3Bi8Ru
_symmetry_space_group_name_H-M   'P 1'
_cell_length_a   8.04412557
_cell_length_b   8.96646600
_cell_length_c   12.45287896
_cell_angle_alpha   90.00000000
_cell_angle_beta   90.22512681
_cell_angle_gamma   90.00000000
_symmetry_Int_Tables_number   1
_chemical_formula_structural   Y20Co3Bi8Ru
_chemical_formula_sum   'Y20 Co3 Bi8 Ru1'
_cell_volume   898.18657981
_cell_formula_units_Z   1
loop_
 _symmetry_equiv_pos_site_id
 _symmetry_equiv_pos_as_xyz
  1  'x, y, z'
loop_
 _atom_site_type_symbol
 _atom_site_label
 _atom_site_symmetry_multiplicity
 _atom_site_fract_x
 _atom_site_fract_y
 _atom_site_fract_z
 _atom_site_occupancy
  Y  Y0  1  0.847219  0.750000  0.800049  1
  Y  Y1  1  0.152104  0.250000  0.198774  1
  Y  Y2  1  0.347764  0.250000  0.699808  1
  Y  Y3  1  0.653427  0.750000  0.296043  1
  Y  Y4  1  0.376666  0.750000  0.693680  1
  Y  Y5  1  0.620217  0.250000  0.309478  1
  Y  Y6  1  0.879858  0.250000  0.810434  1
  Y  Y7  1  0.119850  0.750000  0.188558  1
  Y  Y8  1  0.952476  0.750000  0.503283  1
  Y  Y9  1  0.047514  0.250000  0.497218  1
  Y  Y10  1  0.453902  0.250000  0.997359  1
  Y  Y11  1  0.546360  0.750000  0.002316  1
  Y  Y12  1  0.677259  0.040045  0.564993  1
  Y  Y13  1  0.323327  0.967108  0.435670  1
  Y  Y14  1  0.175867  0.966852  0.936567  1
  Y  Y15  1  0.323327  0.532892  0.435670  1
  Y  Y16  1  0.823559  0.034915  0.063584  1
  Y  Y17  1  0.677259  0.459955  0.564993  1
  Y  Y18  1  0.823559  0.465085  0.063584  1
  Y  Y19  1  0.175867  0.533148  0.936567  1
  Co  Co20  1  0.435978  0.250000  0.491018  1
  Co  Co21  1  0.059645  0.250000  0.992126  1
  Co  Co22  1  0.939325  0.750000  0.007426  1
  Bi  Bi23  1  0.570700  0.492279  0.827029  1
  Bi  Bi24  1  0.428956  0.507362  0.173061  1
  Bi  Bi25  1  0.070691  0.507222  0.673977  1
  Bi  Bi26  1  0.428956  0.992638  0.173061  1
  Bi  Bi27  1  0.930173  0.492494  0.326304  1
  Bi  Bi28  1  0.570700  0.007721  0.827029  1
  Bi  Bi29  1  0.930173  0.007506  0.326304  1
  Bi  Bi30  1  0.070691  0.992778  0.673977  1
  Ru  Ru31  1  0.566632  0.750000  0.510060  1
