# generated using pymatgen
data_Rb5Pb9
_symmetry_space_group_name_H-M   'P 1'
_cell_length_a   14.11954854
_cell_length_b   14.11954825
_cell_length_c   14.11954741
_cell_angle_alpha   28.71483856
_cell_angle_beta   28.71483887
_cell_angle_gamma   28.71484068
_symmetry_Int_Tables_number   1
_chemical_formula_structural   Rb5Pb9
_chemical_formula_sum   'Rb5 Pb9'
_cell_volume   574.48152539
_cell_formula_units_Z   1
loop_
 _symmetry_equiv_pos_site_id
 _symmetry_equiv_pos_as_xyz
  1  'x, y, z'
loop_
 _atom_site_type_symbol
 _atom_site_label
 _atom_site_symmetry_multiplicity
 _atom_site_fract_x
 _atom_site_fract_y
 _atom_site_fract_z
 _atom_site_occupancy
  Rb  Rb0  1  0.217463  0.217463  0.217463  1
  Rb  Rb1  1  0.316895  0.316895  0.316895  1
  Rb  Rb2  1  0.500000  0.500000  0.500000  1
  Rb  Rb3  1  0.683105  0.683105  0.683105  1
  Rb  Rb4  1  0.782537  0.782537  0.782537  1
  Pb  Pb5  1  0.000000  0.000000  0.000000  1
  Pb  Pb6  1  0.124175  0.124175  0.124175  1
  Pb  Pb7  1  0.730153  0.234273  0.234274  1
  Pb  Pb8  1  0.234273  0.730153  0.234274  1
  Pb  Pb9  1  0.765726  0.765726  0.269848  1
  Pb  Pb10  1  0.234274  0.234274  0.730152  1
  Pb  Pb11  1  0.765727  0.269846  0.765726  1
  Pb  Pb12  1  0.269846  0.765727  0.765726  1
  Pb  Pb13  1  0.875825  0.875825  0.875825  1
