# generated using pymatgen
data_La3Nd2SnBi2Cl
_symmetry_space_group_name_H-M   'P 1'
_cell_length_a   9.67077700
_cell_length_b   9.69403315
_cell_length_c   6.72890800
_cell_angle_alpha   90.00000000
_cell_angle_beta   90.00000000
_cell_angle_gamma   119.92066944
_symmetry_Int_Tables_number   1
_chemical_formula_structural   La3Nd2SnBi2Cl
_chemical_formula_sum   'La6 Nd4 Sn2 Bi4 Cl2'
_cell_volume   546.74863347
_cell_formula_units_Z   2
loop_
 _symmetry_equiv_pos_site_id
 _symmetry_equiv_pos_as_xyz
  1  'x, y, z'
loop_
 _atom_site_type_symbol
 _atom_site_label
 _atom_site_symmetry_multiplicity
 _atom_site_fract_x
 _atom_site_fract_y
 _atom_site_fract_z
 _atom_site_occupancy
  La  La0  1  0.740091  0.003811  0.750000  1
  La  La1  1  0.734375  0.734073  0.250000  1
  La  La2  1  0.004113  0.265590  0.250000  1
  La  La3  1  0.999696  0.734073  0.750000  1
  La  La4  1  0.261477  0.265590  0.750000  1
  La  La5  1  0.263721  0.003811  0.250000  1
  Nd  Nd6  1  0.667057  0.334114  0.000000  1
  Nd  Nd7  1  0.331616  0.663233  0.500000  1
  Nd  Nd8  1  0.667057  0.334114  0.500000  1
  Nd  Nd9  1  0.331616  0.663233  0.000000  1
  Sn  Sn10  1  0.999798  0.387232  0.750000  1
  Sn  Sn11  1  0.387434  0.387232  0.250000  1
  Bi  Bi12  1  0.612900  0.613540  0.750000  1
  Bi  Bi13  1  0.000639  0.613540  0.250000  1
  Bi  Bi14  1  0.614229  0.000581  0.250000  1
  Bi  Bi15  1  0.386353  0.000581  0.750000  1
  Cl  Cl16  1  0.998913  0.997827  0.500000  1
  Cl  Cl17  1  0.998913  0.997827  0.000000  1
