# generated using pymatgen
data_Nd4Al24Pt5(RhAu)2
_symmetry_space_group_name_H-M   'P 1'
_cell_length_a   7.54506553
_cell_length_b   7.58106237
_cell_length_c   13.21352500
_cell_angle_alpha   84.56716607
_cell_angle_beta   79.09490763
_cell_angle_gamma   59.86247509
_symmetry_Int_Tables_number   1
_chemical_formula_structural   Nd4Al24Pt5(RhAu)2
_chemical_formula_sum   'Nd4 Al24 Pt5 Rh2 Au2'
_cell_volume   641.83687012
_cell_formula_units_Z   1
loop_
 _symmetry_equiv_pos_site_id
 _symmetry_equiv_pos_as_xyz
  1  'x, y, z'
loop_
 _atom_site_type_symbol
 _atom_site_label
 _atom_site_symmetry_multiplicity
 _atom_site_fract_x
 _atom_site_fract_y
 _atom_site_fract_z
 _atom_site_occupancy
  Nd  Nd0  1  0.391610  0.168608  0.809547  1
  Nd  Nd1  1  0.607880  0.830103  0.190281  1
  Nd  Nd2  1  0.733700  0.499225  0.810321  1
  Nd  Nd3  1  0.265757  0.502526  0.189791  1
  Al  Al4  1  0.686492  0.834766  0.948435  1
  Al  Al5  1  0.316781  0.169040  0.051940  1
  Al  Al6  1  0.146359  0.838793  0.561016  1
  Al  Al7  1  0.853909  0.161082  0.439082  1
  Al  Al8  1  0.487940  0.158845  0.558272  1
  Al  Al9  1  0.512670  0.840633  0.441643  1
  Al  Al10  1  0.220727  0.161022  0.327068  1
  Al  Al11  1  0.780144  0.839135  0.673146  1
  Al  Al12  1  0.438589  0.508459  0.673290  1
  Al  Al13  1  0.562484  0.490478  0.326530  1
  Al  Al14  1  0.108616  0.152589  0.671713  1
  Al  Al15  1  0.891197  0.847565  0.328264  1
  Al  Al16  1  0.351612  0.496541  0.947816  1
  Al  Al17  1  0.651955  0.496233  0.051807  1
  Al  Al18  1  0.010147  0.169986  0.959968  1
  Al  Al19  1  0.983457  0.833152  0.039952  1
  Al  Al20  1  0.195543  0.499672  0.438737  1
  Al  Al21  1  0.805221  0.500146  0.561265  1
  Al  Al22  1  0.734389  0.163202  0.180437  1
  Al  Al23  1  0.263161  0.836107  0.817339  1
  Al  Al24  1  0.059666  0.633792  0.820783  1
  Al  Al25  1  0.940960  0.365905  0.179217  1
  Al  Al26  1  0.853393  0.043323  0.819344  1
  Al  Al27  1  0.142764  0.960641  0.182967  1
  Pt  Pt28  1  0.342274  0.828791  0.000094  1
  Pt  Pt29  1  0.538432  0.166678  0.363464  1
  Pt  Pt30  1  0.462308  0.832984  0.636369  1
  Pt  Pt31  1  0.780736  0.173803  0.635302  1
  Pt  Pt32  1  0.219976  0.825784  0.364883  1
  Rh  Rh33  1  0.658513  0.170769  0.999932  1
  Rh  Rh34  1  0.000071  0.499879  0.999956  1
  Au  Au35  1  0.120806  0.491873  0.637012  1
  Au  Au36  1  0.879761  0.507867  0.363023  1
