# generated using pymatgen
data_Tb6Nb2Co16(SiP3)3
_symmetry_space_group_name_H-M   'P 1'
_cell_length_a   3.73896700
_cell_length_b   10.70076900
_cell_length_c   12.42639100
_cell_angle_alpha   90.00000000
_cell_angle_beta   90.00000000
_cell_angle_gamma   90.00000000
_symmetry_Int_Tables_number   1
_chemical_formula_structural   Tb6Nb2Co16(SiP3)3
_chemical_formula_sum   'Tb6 Nb2 Co16 Si3 P9'
_cell_volume   497.17769407
_cell_formula_units_Z   1
loop_
 _symmetry_equiv_pos_site_id
 _symmetry_equiv_pos_as_xyz
  1  'x, y, z'
loop_
 _atom_site_type_symbol
 _atom_site_label
 _atom_site_symmetry_multiplicity
 _atom_site_fract_x
 _atom_site_fract_y
 _atom_site_fract_z
 _atom_site_occupancy
  Tb  Tb0  1  0.000000  0.500000  0.528763  1
  Tb  Tb1  1  0.500000  0.000000  0.474864  1
  Tb  Tb2  1  0.500000  0.819283  0.207228  1
  Tb  Tb3  1  0.500000  0.180717  0.207228  1
  Tb  Tb4  1  0.000000  0.680934  0.793492  1
  Tb  Tb5  1  0.000000  0.319066  0.793492  1
  Nb  Nb6  1  0.500000  0.500000  0.151539  1
  Nb  Nb7  1  0.000000  0.000000  0.844267  1
  Co  Co8  1  0.500000  0.500000  0.698179  1
  Co  Co9  1  0.000000  0.000000  0.301995  1
  Co  Co10  1  0.000000  0.500000  0.989969  1
  Co  Co11  1  0.500000  0.000000  0.009191  1
  Co  Co12  1  0.500000  0.329786  0.994441  1
  Co  Co13  1  0.500000  0.670214  0.994441  1
  Co  Co14  1  0.000000  0.169571  0.004296  1
  Co  Co15  1  0.000000  0.830429  0.004296  1
  Co  Co16  1  0.500000  0.292557  0.434103  1
  Co  Co17  1  0.500000  0.707443  0.434103  1
  Co  Co18  1  0.000000  0.203522  0.568662  1
  Co  Co19  1  0.000000  0.796478  0.568662  1
  Co  Co20  1  0.500000  0.878584  0.704109  1
  Co  Co21  1  0.500000  0.121416  0.704109  1
  Co  Co22  1  0.000000  0.622916  0.294895  1
  Co  Co23  1  0.000000  0.377084  0.294895  1
  Si  Si24  1  0.500000  0.500000  0.883589  1
  Si  Si25  1  0.000000  0.000000  0.115967  1
  Si  Si26  1  0.500000  0.500000  0.355302  1
  P  P27  1  0.000000  0.000000  0.644787  1
  P  P28  1  0.500000  0.308258  0.615017  1
  P  P29  1  0.500000  0.691742  0.615017  1
  P  P30  1  0.000000  0.191677  0.385325  1
  P  P31  1  0.000000  0.808323  0.385325  1
  P  P32  1  0.500000  0.841312  0.893852  1
  P  P33  1  0.500000  0.158688  0.893852  1
  P  P34  1  0.000000  0.659757  0.105373  1
  P  P35  1  0.000000  0.340243  0.105373  1
