# generated using pymatgen
data_Tb6Ho9ErCdIn3Pt4
_symmetry_space_group_name_H-M   'P 1'
_cell_length_a   9.67643782
_cell_length_b   9.67643790
_cell_length_c   9.66251700
_cell_angle_alpha   60.04758182
_cell_angle_beta   60.04758153
_cell_angle_gamma   60.05255256
_symmetry_Int_Tables_number   1
_chemical_formula_structural   Tb6Ho9ErCdIn3Pt4
_chemical_formula_sum   'Tb6 Ho9 Er1 Cd1 In3 Pt4'
_cell_volume   640.45807304
_cell_formula_units_Z   1
loop_
 _symmetry_equiv_pos_site_id
 _symmetry_equiv_pos_as_xyz
  1  'x, y, z'
loop_
 _atom_site_type_symbol
 _atom_site_label
 _atom_site_symmetry_multiplicity
 _atom_site_fract_x
 _atom_site_fract_y
 _atom_site_fract_z
 _atom_site_occupancy
  Tb  Tb0  1  0.937671  0.563131  0.563192  1
  Tb  Tb1  1  0.563400  0.936981  0.936794  1
  Tb  Tb2  1  0.563400  0.936981  0.562826  1
  Tb  Tb3  1  0.937671  0.563131  0.936006  1
  Tb  Tb4  1  0.564616  0.563685  0.935849  1
  Tb  Tb5  1  0.938685  0.937505  0.561905  1
  Ho  Ho6  1  0.350916  0.351393  0.350069  1
  Ho  Ho7  1  0.350916  0.351393  0.947624  1
  Ho  Ho8  1  0.353080  0.943540  0.351690  1
  Ho  Ho9  1  0.943677  0.353000  0.351661  1
  Ho  Ho10  1  0.810776  0.189553  0.189777  1
  Ho  Ho11  1  0.189185  0.811167  0.810391  1
  Ho  Ho12  1  0.189185  0.811167  0.189257  1
  Ho  Ho13  1  0.810776  0.189553  0.809894  1
  Ho  Ho14  1  0.189629  0.189398  0.810487  1
  Er  Er15  1  0.810520  0.810500  0.189490  1
  Cd  Cd16  1  0.254063  0.581229  0.582354  1
  In  In17  1  0.581221  0.581870  0.582783  1
  In  In18  1  0.581221  0.581870  0.254124  1
  In  In19  1  0.580645  0.254124  0.582615  1
  Pt  Pt20  1  0.142920  0.142891  0.144435  1
  Pt  Pt21  1  0.142920  0.142891  0.569754  1
  Pt  Pt22  1  0.141102  0.571956  0.143471  1
  Pt  Pt23  1  0.571807  0.141091  0.143551  1
