# generated using pymatgen
data_Al(Si5Ir4)3
_symmetry_space_group_name_H-M   'P 1'
_cell_length_a   3.72123200
_cell_length_b   5.85978957
_cell_length_c   19.10150911
_cell_angle_alpha   89.91616702
_cell_angle_beta   90.00000000
_cell_angle_gamma   90.00000000
_symmetry_Int_Tables_number   1
_chemical_formula_structural   Al(Si5Ir4)3
_chemical_formula_sum   'Al1 Si15 Ir12'
_cell_volume   416.52011756
_cell_formula_units_Z   1
loop_
 _symmetry_equiv_pos_site_id
 _symmetry_equiv_pos_as_xyz
  1  'x, y, z'
loop_
 _atom_site_type_symbol
 _atom_site_label
 _atom_site_symmetry_multiplicity
 _atom_site_fract_x
 _atom_site_fract_y
 _atom_site_fract_z
 _atom_site_occupancy
  Al  Al0  1  0.250000  0.972703  0.450594  1
  Si  Si1  1  0.750000  0.026257  0.548748  1
  Si  Si2  1  0.750000  0.473648  0.049831  1
  Si  Si3  1  0.250000  0.526431  0.950259  1
  Si  Si4  1  0.250000  0.075955  0.909206  1
  Si  Si5  1  0.750000  0.924024  0.090785  1
  Si  Si6  1  0.750000  0.576152  0.590333  1
  Si  Si7  1  0.250000  0.421423  0.410336  1
  Si  Si8  1  0.250000  0.719952  0.270621  1
  Si  Si9  1  0.750000  0.282749  0.729891  1
  Si  Si10  1  0.750000  0.214686  0.230805  1
  Si  Si11  1  0.250000  0.785141  0.769455  1
  Si  Si12  1  0.250000  0.386960  0.144066  1
  Si  Si13  1  0.750000  0.612490  0.856191  1
  Si  Si14  1  0.750000  0.890285  0.357541  1
  Si  Si15  1  0.250000  0.112103  0.642993  1
  Ir  Ir16  1  0.250000  0.393268  0.826534  1
  Ir  Ir17  1  0.750000  0.605798  0.173406  1
  Ir  Ir18  1  0.750000  0.892382  0.674420  1
  Ir  Ir19  1  0.250000  0.111757  0.322789  1
  Ir  Ir20  1  0.250000  0.499514  0.677890  1
  Ir  Ir21  1  0.750000  0.502952  0.322582  1
  Ir  Ir22  1  0.750000  0.999907  0.824217  1
  Ir  Ir23  1  0.250000  0.998623  0.174497  1
  Ir  Ir24  1  0.250000  0.311516  0.534050  1
  Ir  Ir25  1  0.750000  0.682730  0.468373  1
  Ir  Ir26  1  0.750000  0.803929  0.968590  1
  Ir  Ir27  1  0.250000  0.196668  0.030997  1
