# generated using pymatgen
data_Cs6Lu3RhBr18
_symmetry_space_group_name_H-M   'P 1'
_cell_length_a   7.94082200
_cell_length_b   7.94082186
_cell_length_c   20.10965400
_cell_angle_alpha   90.00000000
_cell_angle_beta   90.00000000
_cell_angle_gamma   119.99999223
_symmetry_Int_Tables_number   1
_chemical_formula_structural   Cs6Lu3RhBr18
_chemical_formula_sum   'Cs6 Lu3 Rh1 Br18'
_cell_volume   1098.16141116
_cell_formula_units_Z   1
loop_
 _symmetry_equiv_pos_site_id
 _symmetry_equiv_pos_as_xyz
  1  'x, y, z'
loop_
 _atom_site_type_symbol
 _atom_site_label
 _atom_site_symmetry_multiplicity
 _atom_site_fract_x
 _atom_site_fract_y
 _atom_site_fract_z
 _atom_site_occupancy
  Cs  Cs0  1  0.333333  0.666667  0.069784  1
  Cs  Cs1  1  0.666667  0.333333  0.931498  1
  Cs  Cs2  1  0.666667  0.333333  0.574070  1
  Cs  Cs3  1  0.333333  0.666667  0.434621  1
  Cs  Cs4  1  0.000000  0.000000  0.250591  1
  Cs  Cs5  1  0.000000  0.000000  0.745643  1
  Lu  Lu6  1  0.666667  0.333333  0.344754  1
  Lu  Lu7  1  0.666667  0.333333  0.156388  1
  Lu  Lu8  1  0.333333  0.666667  0.837717  1
  Rh  Rh9  1  0.333333  0.666667  0.667005  1
  Br  Br10  1  0.184656  0.369312  0.595964  1
  Br  Br11  1  0.832695  0.665391  0.412222  1
  Br  Br12  1  0.630688  0.815344  0.595964  1
  Br  Br13  1  0.832428  0.664856  0.088357  1
  Br  Br14  1  0.334609  0.167305  0.412222  1
  Br  Br15  1  0.168512  0.337022  0.907375  1
  Br  Br16  1  0.184656  0.815344  0.595964  1
  Br  Br17  1  0.335144  0.167572  0.088357  1
  Br  Br18  1  0.832695  0.167305  0.412222  1
  Br  Br19  1  0.662978  0.831488  0.907375  1
  Br  Br20  1  0.832428  0.167572  0.088357  1
  Br  Br21  1  0.168512  0.831488  0.907375  1
  Br  Br22  1  0.510606  0.021212  0.250260  1
  Br  Br23  1  0.485338  0.970674  0.741799  1
  Br  Br24  1  0.978788  0.489394  0.250260  1
  Br  Br25  1  0.029326  0.514662  0.741799  1
  Br  Br26  1  0.510606  0.489394  0.250260  1
  Br  Br27  1  0.485338  0.514662  0.741799  1
