# generated using pymatgen
data_DyEr3Al13Ga5Ir6
_symmetry_space_group_name_H-M   'P 1'
_cell_length_a   7.53087908
_cell_length_b   7.52750923
_cell_length_c   9.53758400
_cell_angle_alpha   90.00000000
_cell_angle_beta   90.00000000
_cell_angle_gamma   119.53742361
_symmetry_Int_Tables_number   1
_chemical_formula_structural   DyEr3Al13Ga5Ir6
_chemical_formula_sum   'Dy1 Er3 Al13 Ga5 Ir6'
_cell_volume   470.40454602
_cell_formula_units_Z   1
loop_
 _symmetry_equiv_pos_site_id
 _symmetry_equiv_pos_as_xyz
  1  'x, y, z'
loop_
 _atom_site_type_symbol
 _atom_site_label
 _atom_site_symmetry_multiplicity
 _atom_site_fract_x
 _atom_site_fract_y
 _atom_site_fract_z
 _atom_site_occupancy
  Dy  Dy0  1  0.329034  0.004190  0.250000  1
  Er  Er1  1  0.998150  0.674061  0.750000  1
  Er  Er2  1  0.005463  0.328912  0.250000  1
  Er  Er3  1  0.671052  0.993440  0.750000  1
  Al  Al4  1  0.000410  0.335058  0.573557  1
  Al  Al5  1  0.997577  0.664308  0.427320  1
  Al  Al6  1  0.997577  0.664308  0.072680  1
  Al  Al7  1  0.335578  0.001763  0.925697  1
  Al  Al8  1  0.000410  0.335058  0.926443  1
  Al  Al9  1  0.665191  0.998646  0.072441  1
  Al  Al10  1  0.665191  0.998646  0.427559  1
  Al  Al11  1  0.335578  0.001763  0.574303  1
  Al  Al12  1  0.333544  0.333826  0.052146  1
  Al  Al13  1  0.666703  0.666323  0.943735  1
  Al  Al14  1  0.666703  0.666323  0.556265  1
  Al  Al15  1  0.333544  0.333826  0.447854  1
  Al  Al16  1  0.550279  0.339348  0.750000  1
  Ga  Ga17  1  0.130620  0.131563  0.750000  1
  Ga  Ga18  1  0.870071  0.870249  0.250000  1
  Ga  Ga19  1  0.339358  0.547538  0.750000  1
  Ga  Ga20  1  0.660840  0.451666  0.250000  1
  Ga  Ga21  1  0.451064  0.659132  0.250000  1
  Ir  Ir22  1  0.671023  0.328043  0.502347  1
  Ir  Ir23  1  0.327524  0.672266  0.499938  1
  Ir  Ir24  1  0.327524  0.672266  0.000062  1
  Ir  Ir25  1  0.671023  0.328043  0.997653  1
  Ir  Ir26  1  0.999482  0.999717  0.500160  1
  Ir  Ir27  1  0.999482  0.999717  0.999840  1
