# generated using pymatgen
data_Yb3ThReOs7
_symmetry_space_group_name_H-M   'P 1'
_cell_length_a   5.39317600
_cell_length_b   5.27084269
_cell_length_c   8.95426645
_cell_angle_alpha   89.94323103
_cell_angle_beta   90.00000000
_cell_angle_gamma   120.77079124
_symmetry_Int_Tables_number   1
_chemical_formula_structural   Yb3ThReOs7
_chemical_formula_sum   'Yb3 Th1 Re1 Os7'
_cell_volume   218.70522770
_cell_formula_units_Z   1
loop_
 _symmetry_equiv_pos_site_id
 _symmetry_equiv_pos_as_xyz
  1  'x, y, z'
loop_
 _atom_site_type_symbol
 _atom_site_label
 _atom_site_symmetry_multiplicity
 _atom_site_fract_x
 _atom_site_fract_y
 _atom_site_fract_z
 _atom_site_occupancy
  Yb  Yb0  1  0.335475  0.670950  0.061661  1
  Yb  Yb1  1  0.669349  0.338698  0.569784  1
  Yb  Yb2  1  0.668120  0.336240  0.936327  1
  Th  Th3  1  0.337286  0.674573  0.432066  1
  Re  Re4  1  0.159032  0.318063  0.753749  1
  Os  Os5  1  0.006462  0.012924  0.000977  1
  Os  Os6  1  0.010642  0.021286  0.501044  1
  Os  Os7  1  0.825546  0.651093  0.246614  1
  Os  Os8  1  0.169398  0.819072  0.752336  1
  Os  Os9  1  0.649675  0.819072  0.752336  1
  Os  Os10  1  0.337740  0.169015  0.246553  1
  Os  Os11  1  0.831273  0.169015  0.246553  1
