# generated using pymatgen
data_Cs4BaPr3(SiSe4)4
_symmetry_space_group_name_H-M   'P 1'
_cell_length_a   6.83889196
_cell_length_b   7.18791154
_cell_length_c   18.85318700
_cell_angle_alpha   90.10669364
_cell_angle_beta   90.03043703
_cell_angle_gamma   90.04348960
_symmetry_Int_Tables_number   1
_chemical_formula_structural   Cs4BaPr3(SiSe4)4
_chemical_formula_sum   'Cs4 Ba1 Pr3 Si4 Se16'
_cell_volume   926.77071546
_cell_formula_units_Z   1
loop_
 _symmetry_equiv_pos_site_id
 _symmetry_equiv_pos_as_xyz
  1  'x, y, z'
loop_
 _atom_site_type_symbol
 _atom_site_label
 _atom_site_symmetry_multiplicity
 _atom_site_fract_x
 _atom_site_fract_y
 _atom_site_fract_z
 _atom_site_occupancy
  Cs  Cs0  1  0.501196  0.492719  0.967217  1
  Cs  Cs1  1  0.997499  0.505730  0.466924  1
  Cs  Cs2  1  0.491999  0.993443  0.531805  1
  Cs  Cs3  1  0.993554  0.004703  0.038734  1
  Ba  Ba4  1  0.204784  0.503327  0.728284  1
  Pr  Pr5  1  0.706283  0.979091  0.272188  1
  Pr  Pr6  1  0.293432  0.478823  0.228008  1
  Pr  Pr7  1  0.795770  0.023667  0.768907  1
  Si  Si8  1  0.292793  0.988762  0.841963  1
  Si  Si9  1  0.789511  0.514237  0.165760  1
  Si  Si10  1  0.210671  0.014581  0.334190  1
  Si  Si11  1  0.713631  0.479864  0.657522  1
  Se  Se12  1  0.567748  0.988065  0.908593  1
  Se  Se13  1  0.062541  0.762413  0.865911  1
  Se  Se14  1  0.372930  0.970154  0.724877  1
  Se  Se15  1  0.116797  0.067860  0.219580  1
  Se  Se16  1  0.053291  0.510866  0.092971  1
  Se  Se17  1  0.947012  0.011066  0.406838  1
  Se  Se18  1  0.393328  0.747771  0.348457  1
  Se  Se19  1  0.659631  0.439428  0.776893  1
  Se  Se20  1  0.606209  0.247446  0.151353  1
  Se  Se21  1  0.090830  0.238401  0.866052  1
  Se  Se22  1  0.882204  0.756672  0.643631  1
  Se  Se23  1  0.459795  0.488448  0.581325  1
  Se  Se24  1  0.913128  0.230492  0.631870  1
  Se  Se25  1  0.566959  0.746664  0.142686  1
  Se  Se26  1  0.433277  0.247459  0.356960  1
  Se  Se27  1  0.883200  0.567848  0.280499  1
