# generated using pymatgen
data_Fe2Sb12PtAu
_symmetry_space_group_name_H-M   'P 1'
_cell_length_a   8.10412091
_cell_length_b   8.07961697
_cell_length_c   9.39277820
_cell_angle_alpha   55.10704804
_cell_angle_beta   54.96938288
_cell_angle_gamma   70.58191808
_symmetry_Int_Tables_number   1
_chemical_formula_structural   Fe2Sb12PtAu
_chemical_formula_sum   'Fe2 Sb12 Pt1 Au1'
_cell_volume   413.06285729
_cell_formula_units_Z   1
loop_
 _symmetry_equiv_pos_site_id
 _symmetry_equiv_pos_as_xyz
  1  'x, y, z'
loop_
 _atom_site_type_symbol
 _atom_site_label
 _atom_site_symmetry_multiplicity
 _atom_site_fract_x
 _atom_site_fract_y
 _atom_site_fract_z
 _atom_site_occupancy
  Fe  Fe0  1  0.500000  0.000000  0.500000  1
  Fe  Fe1  1  0.000000  0.500000  0.500000  1
  Sb  Sb2  1  0.674336  0.674746  0.485477  1
  Sb  Sb3  1  0.325664  0.325254  0.514523  1
  Sb  Sb4  1  0.641495  0.651749  0.203281  1
  Sb  Sb5  1  0.358505  0.348251  0.796719  1
  Sb  Sb6  1  0.171415  0.860586  0.642034  1
  Sb  Sb7  1  0.828585  0.139414  0.357966  1
  Sb  Sb8  1  0.852781  0.168324  0.651241  1
  Sb  Sb9  1  0.147219  0.831676  0.348759  1
  Sb  Sb10  1  0.813171  0.494752  0.829470  1
  Sb  Sb11  1  0.186829  0.505248  0.170530  1
  Sb  Sb12  1  0.507070  0.180114  0.167270  1
  Sb  Sb13  1  0.492930  0.819886  0.832730  1
  Pt  Pt14  1  0.500000  0.000000  0.000000  1
  Au  Au15  1  0.000000  0.500000  0.000000  1
