# generated using pymatgen
data_Lu4Co4Si3Ge
_symmetry_space_group_name_H-M   'P 1'
_cell_length_a   4.12149700
_cell_length_b   6.70530338
_cell_length_c   7.00899443
_cell_angle_alpha   89.84339239
_cell_angle_beta   90.00000000
_cell_angle_gamma   90.00000000
_symmetry_Int_Tables_number   1
_chemical_formula_structural   Lu4Co4Si3Ge
_chemical_formula_sum   'Lu4 Co4 Si3 Ge1'
_cell_volume   193.69905966
_cell_formula_units_Z   1
loop_
 _symmetry_equiv_pos_site_id
 _symmetry_equiv_pos_as_xyz
  1  'x, y, z'
loop_
 _atom_site_type_symbol
 _atom_site_label
 _atom_site_symmetry_multiplicity
 _atom_site_fract_x
 _atom_site_fract_y
 _atom_site_fract_z
 _atom_site_occupancy
  Lu  Lu0  1  0.750000  0.512064  0.805434  1
  Lu  Lu1  1  0.750000  0.010037  0.692966  1
  Lu  Lu2  1  0.250000  0.494144  0.193919  1
  Lu  Lu3  1  0.250000  0.988333  0.306627  1
  Co  Co4  1  0.750000  0.350420  0.442212  1
  Co  Co5  1  0.750000  0.837981  0.066599  1
  Co  Co6  1  0.250000  0.651332  0.563958  1
  Co  Co7  1  0.250000  0.150725  0.925787  1
  Si  Si8  1  0.750000  0.700438  0.398327  1
  Si  Si9  1  0.250000  0.800266  0.895614  1
  Si  Si10  1  0.250000  0.300216  0.604611  1
  Ge  Ge11  1  0.750000  0.204044  0.103947  1
