# generated using pymatgen
data_YbTh3(AuBr6)4
_symmetry_space_group_name_H-M   'P 1'
_cell_length_a   8.51391413
_cell_length_b   10.44976656
_cell_length_c   14.55002300
_cell_angle_alpha   102.50114883
_cell_angle_beta   96.84086084
_cell_angle_gamma   113.21348034
_symmetry_Int_Tables_number   1
_chemical_formula_structural   YbTh3(AuBr6)4
_chemical_formula_sum   'Yb1 Th3 Au4 Br24'
_cell_volume   1130.93905098
_cell_formula_units_Z   1
loop_
 _symmetry_equiv_pos_site_id
 _symmetry_equiv_pos_as_xyz
  1  'x, y, z'
loop_
 _atom_site_type_symbol
 _atom_site_label
 _atom_site_symmetry_multiplicity
 _atom_site_fract_x
 _atom_site_fract_y
 _atom_site_fract_z
 _atom_site_occupancy
  Yb  Yb0  1  0.018816  0.689308  0.129337  1
  Th  Th1  1  0.569329  0.902653  0.624136  1
  Th  Th2  1  0.421178  0.086510  0.373615  1
  Th  Th3  1  0.985035  0.322826  0.874162  1
  Au  Au4  1  0.298120  0.627006  0.764778  1
  Au  Au5  1  0.703978  0.374987  0.235555  1
  Au  Au6  1  0.501223  0.501434  0.501020  1
  Au  Au7  1  0.997475  0.995037  0.999039  1
  Br  Br8  1  0.621937  0.728900  0.753037  1
  Br  Br9  1  0.386854  0.271339  0.243991  1
  Br  Br10  1  0.293578  0.861112  0.739861  1
  Br  Br11  1  0.709707  0.146348  0.259027  1
  Br  Br12  1  0.971199  0.529438  0.767625  1
  Br  Br13  1  0.019565  0.476160  0.234218  1
  Br  Br14  1  0.308283  0.396443  0.793428  1
  Br  Br15  1  0.688874  0.595766  0.207356  1
  Br  Br16  1  0.701264  0.373170  0.503345  1
  Br  Br17  1  0.293862  0.623642  0.493744  1
  Br  Br18  1  0.758108  0.743336  0.519063  1
  Br  Br19  1  0.244495  0.260237  0.481331  1
  Br  Br20  1  0.792586  0.111116  0.979243  1
  Br  Br21  1  0.206565  0.886851  0.020535  1
  Br  Br22  1  0.766534  0.790869  0.037126  1
  Br  Br23  1  0.227715  0.202213  0.959711  1
  Br  Br24  1  0.625041  0.189612  0.738050  1
  Br  Br25  1  0.383843  0.812606  0.262708  1
  Br  Br26  1  0.941683  0.053576  0.724528  1
  Br  Br27  1  0.059361  0.953389  0.278188  1
  Br  Br28  1  0.720602  0.052647  0.485328  1
  Br  Br29  1  0.278229  0.949490  0.518820  1
  Br  Br30  1  0.766093  0.429510  0.971026  1
  Br  Br31  1  0.238864  0.562466  0.027071  1
