# generated using pymatgen
data_Y8Cu3Si12Rh
_symmetry_space_group_name_H-M   'P 1'
_cell_length_a   8.03766000
_cell_length_b   8.03765976
_cell_length_c   8.13083600
_cell_angle_alpha   89.99995584
_cell_angle_beta   90.00004253
_cell_angle_gamma   120.00010029
_symmetry_Int_Tables_number   1
_chemical_formula_structural   Y8Cu3Si12Rh
_chemical_formula_sum   'Y8 Cu3 Si12 Rh1'
_cell_volume   454.90911970
_cell_formula_units_Z   1
loop_
 _symmetry_equiv_pos_site_id
 _symmetry_equiv_pos_as_xyz
  1  'x, y, z'
loop_
 _atom_site_type_symbol
 _atom_site_label
 _atom_site_symmetry_multiplicity
 _atom_site_fract_x
 _atom_site_fract_y
 _atom_site_fract_z
 _atom_site_occupancy
  Y  Y0  1  0.000000  0.000000  0.249932  1
  Y  Y1  1  0.000000  0.000000  0.749742  1
  Y  Y2  1  0.999267  0.499633  0.251642  1
  Y  Y3  1  0.500366  0.499634  0.251642  1
  Y  Y4  1  0.500687  0.001372  0.748434  1
  Y  Y5  1  0.500367  0.000733  0.251642  1
  Y  Y6  1  0.500686  0.499314  0.748435  1
  Y  Y7  1  0.998628  0.499313  0.748434  1
  Cu  Cu8  1  0.333332  0.666668  0.998428  1
  Cu  Cu9  1  0.333333  0.666667  0.500307  1
  Cu  Cu10  1  0.666667  0.333333  0.001626  1
  Si  Si11  1  0.169124  0.338248  0.000066  1
  Si  Si12  1  0.661752  0.830876  0.000066  1
  Si  Si13  1  0.167993  0.335985  0.500840  1
  Si  Si14  1  0.337950  0.168975  0.999791  1
  Si  Si15  1  0.169124  0.830876  0.000066  1
  Si  Si16  1  0.664015  0.832007  0.500840  1
  Si  Si17  1  0.831025  0.662050  0.999791  1
  Si  Si18  1  0.335921  0.167960  0.498867  1
  Si  Si19  1  0.167993  0.832007  0.500840  1
  Si  Si20  1  0.832040  0.664079  0.498867  1
  Si  Si21  1  0.831026  0.168974  0.999792  1
  Si  Si22  1  0.832040  0.167960  0.498867  1
  Rh  Rh23  1  0.666667  0.333333  0.501043  1
