# generated using pymatgen
data_HfZr3B4(Ru5W)2
_symmetry_space_group_name_H-M   'P 1'
_cell_length_a   9.48616434
_cell_length_b   9.48616434
_cell_length_c   3.07892400
_cell_angle_alpha   90.00000000
_cell_angle_beta   90.00000000
_cell_angle_gamma   90.09616780
_symmetry_Int_Tables_number   1
_chemical_formula_structural   HfZr3B4(Ru5W)2
_chemical_formula_sum   'Hf1 Zr3 B4 Ru10 W2'
_cell_volume   277.06371018
_cell_formula_units_Z   1
loop_
 _symmetry_equiv_pos_site_id
 _symmetry_equiv_pos_as_xyz
  1  'x, y, z'
loop_
 _atom_site_type_symbol
 _atom_site_label
 _atom_site_symmetry_multiplicity
 _atom_site_fract_x
 _atom_site_fract_y
 _atom_site_fract_z
 _atom_site_occupancy
  Hf  Hf0  1  0.676675  0.176675  0.000000  1
  Zr  Zr1  1  0.323366  0.823366  0.000000  1
  Zr  Zr2  1  0.176785  0.323037  0.000000  1
  Zr  Zr3  1  0.823037  0.676785  0.000000  1
  B  B4  1  0.120655  0.620655  0.000000  1
  B  B5  1  0.879056  0.379056  0.000000  1
  B  B6  1  0.620583  0.879507  0.000000  1
  B  B7  1  0.379507  0.120583  0.000000  1
  Ru  Ru8  1  0.216657  0.071306  0.500000  1
  Ru  Ru9  1  0.783667  0.930420  0.500000  1
  Ru  Ru10  1  0.070727  0.783739  0.500000  1
  Ru  Ru11  1  0.715790  0.427322  0.500000  1
  Ru  Ru12  1  0.927322  0.215790  0.500000  1
  Ru  Ru13  1  0.283739  0.570727  0.500000  1
  Ru  Ru14  1  0.571306  0.716657  0.500000  1
  Ru  Ru15  1  0.430420  0.283667  0.500000  1
  Ru  Ru16  1  0.501398  0.001398  0.500000  1
  Ru  Ru17  1  0.999628  0.499628  0.500000  1
  W  W18  1  0.999629  0.000054  0.000000  1
  W  W19  1  0.500054  0.499629  0.000000  1
