# generated using pymatgen
data_Cs3VSO3
_symmetry_space_group_name_H-M   'P 1'
_cell_length_a   6.44658600
_cell_length_b   7.18907016
_cell_length_c   9.66759354
_cell_angle_alpha   100.89773773
_cell_angle_beta   90.00000000
_cell_angle_gamma   90.00000000
_symmetry_Int_Tables_number   1
_chemical_formula_structural   Cs3VSO3
_chemical_formula_sum   'Cs6 V2 S2 O6'
_cell_volume   439.96427716
_cell_formula_units_Z   2
loop_
 _symmetry_equiv_pos_site_id
 _symmetry_equiv_pos_as_xyz
  1  'x, y, z'
loop_
 _atom_site_type_symbol
 _atom_site_label
 _atom_site_symmetry_multiplicity
 _atom_site_fract_x
 _atom_site_fract_y
 _atom_site_fract_z
 _atom_site_occupancy
  Cs  Cs0  1  0.250001  0.751343  0.005091  1
  Cs  Cs1  1  0.750001  0.780294  0.270466  1
  Cs  Cs2  1  0.750001  0.310944  0.469577  1
  Cs  Cs3  1  0.250001  0.689054  0.530442  1
  Cs  Cs4  1  0.250001  0.219723  0.729551  1
  Cs  Cs5  1  0.750001  0.248644  0.994908  1
  V  V6  1  0.250001  0.305477  0.210653  1
  V  V7  1  0.750001  0.694531  0.789339  1
  S  S8  1  0.250001  0.077845  0.344380  1
  S  S9  1  0.750001  0.922134  0.655624  1
  O  O10  1  0.250001  0.202009  0.034029  1
  O  O11  1  0.031084  0.444045  0.251152  1
  O  O12  1  0.468917  0.444045  0.251152  1
  O  O13  1  0.531098  0.555957  0.748849  1
  O  O14  1  0.968904  0.555957  0.748849  1
  O  O15  1  0.750001  0.797994  0.965941  1
