# generated using pymatgen
data_Tb7Y3(HoRh2)2
_symmetry_space_group_name_H-M   'P 1'
_cell_length_a   6.27532344
_cell_length_b   7.19045736
_cell_length_c   9.55777771
_cell_angle_alpha   90.00297998
_cell_angle_beta   89.79187395
_cell_angle_gamma   89.89128243
_symmetry_Int_Tables_number   1
_chemical_formula_structural   Tb7Y3(HoRh2)2
_chemical_formula_sum   'Tb7 Y3 Ho2 Rh4'
_cell_volume   431.26668199
_cell_formula_units_Z   1
loop_
 _symmetry_equiv_pos_site_id
 _symmetry_equiv_pos_as_xyz
  1  'x, y, z'
loop_
 _atom_site_type_symbol
 _atom_site_label
 _atom_site_symmetry_multiplicity
 _atom_site_fract_x
 _atom_site_fract_y
 _atom_site_fract_z
 _atom_site_occupancy
  Tb  Tb0  1  0.669576  0.322512  0.563412  1
  Tb  Tb1  1  0.829823  0.823101  0.936981  1
  Tb  Tb2  1  0.669421  0.322947  0.936631  1
  Tb  Tb3  1  0.829972  0.823353  0.562877  1
  Tb  Tb4  1  0.330323  0.676754  0.436345  1
  Tb  Tb5  1  0.170014  0.176750  0.063789  1
  Tb  Tb6  1  0.363646  0.966968  0.750057  1
  Y  Y7  1  0.865293  0.532611  0.249872  1
  Y  Y8  1  0.634698  0.032772  0.250148  1
  Y  Y9  1  0.135662  0.467808  0.749965  1
  Ho  Ho10  1  0.330269  0.676546  0.064039  1
  Ho  Ho11  1  0.170008  0.176902  0.435922  1
  Rh  Rh12  1  0.063329  0.882993  0.250381  1
  Rh  Rh13  1  0.436563  0.382691  0.249588  1
  Rh  Rh14  1  0.940014  0.116822  0.748959  1
  Rh  Rh15  1  0.561389  0.618471  0.751035  1
