# generated using pymatgen
data_Sc3PaPt4
_symmetry_space_group_name_H-M   'P 1'
_cell_length_a   4.45481700
_cell_length_b   5.41177262
_cell_length_c   6.59453828
_cell_angle_alpha   90.76800433
_cell_angle_beta   90.00000000
_cell_angle_gamma   90.00000000
_symmetry_Int_Tables_number   1
_chemical_formula_structural   Sc3PaPt4
_chemical_formula_sum   'Sc3 Pa1 Pt4'
_cell_volume   158.96985784
_cell_formula_units_Z   1
loop_
 _symmetry_equiv_pos_site_id
 _symmetry_equiv_pos_as_xyz
  1  'x, y, z'
loop_
 _atom_site_type_symbol
 _atom_site_label
 _atom_site_symmetry_multiplicity
 _atom_site_fract_x
 _atom_site_fract_y
 _atom_site_fract_z
 _atom_site_occupancy
  Sc  Sc0  1  0.750000  0.350998  0.810979  1
  Sc  Sc1  1  0.750000  0.144370  0.325850  1
  Sc  Sc2  1  0.250000  0.859593  0.680689  1
  Pa  Pa3  1  0.250000  0.646934  0.181908  1
  Pt  Pt4  1  0.250000  0.160972  0.046782  1
  Pt  Pt5  1  0.750000  0.837033  0.946745  1
  Pt  Pt6  1  0.750000  0.663380  0.463549  1
  Pt  Pt7  1  0.250000  0.336719  0.543500  1
