# generated using pymatgen
data_DyYMo2O7
_symmetry_space_group_name_H-M   'P 1'
_cell_length_a   7.37042385
_cell_length_b   7.37042371
_cell_length_c   7.29671900
_cell_angle_alpha   60.33025625
_cell_angle_beta   60.33025688
_cell_angle_gamma   60.70581870
_symmetry_Int_Tables_number   1
_chemical_formula_structural   DyYMo2O7
_chemical_formula_sum   'Dy2 Y2 Mo4 O14'
_cell_volume   283.16127815
_cell_formula_units_Z   2
loop_
 _symmetry_equiv_pos_site_id
 _symmetry_equiv_pos_as_xyz
  1  'x, y, z'
loop_
 _atom_site_type_symbol
 _atom_site_label
 _atom_site_symmetry_multiplicity
 _atom_site_fract_x
 _atom_site_fract_y
 _atom_site_fract_z
 _atom_site_occupancy
  Dy  Dy0  1  0.125000  0.125000  0.625000  1
  Dy  Dy1  1  0.125000  0.125000  0.125000  1
  Y  Y2  1  0.625000  0.125000  0.125000  1
  Y  Y3  1  0.125000  0.625000  0.125000  1
  Mo  Mo4  1  0.125000  0.625000  0.625000  1
  Mo  Mo5  1  0.625000  0.125000  0.625000  1
  Mo  Mo6  1  0.625000  0.625000  0.125000  1
  Mo  Mo7  1  0.625000  0.625000  0.625000  1
  O  O8  1  0.712212  0.712212  0.287788  1
  O  O9  1  0.282553  0.282553  0.717447  1
  O  O10  1  0.718646  0.286120  0.709689  1
  O  O11  1  0.286120  0.718646  0.285545  1
  O  O12  1  0.286120  0.718646  0.709689  1
  O  O13  1  0.718646  0.286120  0.285545  1
  O  O14  1  0.537788  0.537788  0.962212  1
  O  O15  1  0.967447  0.967447  0.532553  1
  O  O16  1  0.531354  0.963880  0.540311  1
  O  O17  1  0.963880  0.531354  0.964455  1
  O  O18  1  0.963880  0.531354  0.540311  1
  O  O19  1  0.531354  0.963880  0.964455  1
  O  O20  1  0.253455  0.253455  0.246545  1
  O  O21  1  0.996545  0.996545  0.003455  1
