# generated using pymatgen
data_Pa2Zn14Cu3
_symmetry_space_group_name_H-M   'P 1'
_cell_length_a   6.73200206
_cell_length_b   6.73200173
_cell_length_c   6.73200074
_cell_angle_alpha   82.51366556
_cell_angle_beta   82.51366818
_cell_angle_gamma   82.51367692
_symmetry_Int_Tables_number   1
_chemical_formula_structural   Pa2Zn14Cu3
_chemical_formula_sum   'Pa2 Zn14 Cu3'
_cell_volume   297.91497891
_cell_formula_units_Z   1
loop_
 _symmetry_equiv_pos_site_id
 _symmetry_equiv_pos_as_xyz
  1  'x, y, z'
loop_
 _atom_site_type_symbol
 _atom_site_label
 _atom_site_symmetry_multiplicity
 _atom_site_fract_x
 _atom_site_fract_y
 _atom_site_fract_z
 _atom_site_occupancy
  Pa  Pa0  1  0.658535  0.658535  0.658535  1
  Pa  Pa1  1  0.341465  0.341465  0.341465  1
  Zn  Zn2  1  0.349387  0.349387  0.847765  1
  Zn  Zn3  1  0.847765  0.349387  0.349387  1
  Zn  Zn4  1  0.105116  0.105116  0.105116  1
  Zn  Zn5  1  0.894884  0.894884  0.894884  1
  Zn  Zn6  1  0.294885  0.705115  0.000000  1
  Zn  Zn7  1  0.705115  0.000000  0.294885  1
  Zn  Zn8  1  0.000000  0.294885  0.705115  1
  Zn  Zn9  1  0.705115  0.294885  0.000000  1
  Zn  Zn10  1  0.294885  0.000000  0.705115  1
  Zn  Zn11  1  0.000000  0.705115  0.294885  1
  Zn  Zn12  1  0.152235  0.650613  0.650613  1
  Zn  Zn13  1  0.650613  0.650613  0.152235  1
  Zn  Zn14  1  0.650613  0.152235  0.650613  1
  Zn  Zn15  1  0.349387  0.847765  0.349387  1
  Cu  Cu16  1  0.000000  0.000000  0.500000  1
  Cu  Cu17  1  0.000000  0.500000  0.000000  1
  Cu  Cu18  1  0.500000  0.000000  0.000000  1
