# generated using pymatgen
data_Ti8Co11Si16Pt
_symmetry_space_group_name_H-M   'P 1'
_cell_length_a   5.15124073
_cell_length_b   6.62826105
_cell_length_c   13.46264713
_cell_angle_alpha   90.03096639
_cell_angle_beta   90.01497981
_cell_angle_gamma   89.94132303
_symmetry_Int_Tables_number   1
_chemical_formula_structural   Ti8Co11Si16Pt
_chemical_formula_sum   'Ti8 Co11 Si16 Pt1'
_cell_volume   459.66517962
_cell_formula_units_Z   1
loop_
 _symmetry_equiv_pos_site_id
 _symmetry_equiv_pos_as_xyz
  1  'x, y, z'
loop_
 _atom_site_type_symbol
 _atom_site_label
 _atom_site_symmetry_multiplicity
 _atom_site_fract_x
 _atom_site_fract_y
 _atom_site_fract_z
 _atom_site_occupancy
  Ti  Ti0  1  0.234788  0.397609  0.157534  1
  Ti  Ti1  1  0.727420  0.101959  0.155346  1
  Ti  Ti2  1  0.270920  0.100793  0.648511  1
  Ti  Ti3  1  0.766706  0.399694  0.648446  1
  Ti  Ti4  1  0.230067  0.601974  0.350089  1
  Ti  Ti5  1  0.731978  0.897373  0.349859  1
  Ti  Ti6  1  0.267143  0.898871  0.846384  1
  Ti  Ti7  1  0.772645  0.603027  0.844363  1
  Co  Co8  1  0.504952  0.221797  0.483966  1
  Co  Co9  1  0.775221  0.999126  0.748656  1
  Co  Co10  1  0.493978  0.217842  0.983687  1
  Co  Co11  1  0.722921  0.500051  0.251605  1
  Co  Co12  1  0.495942  0.778024  0.515857  1
  Co  Co13  1  0.004723  0.278422  0.483777  1
  Co  Co14  1  0.005146  0.724402  0.016829  1
  Co  Co15  1  0.221962  0.999026  0.252268  1
  Co  Co16  1  0.279693  0.502421  0.749299  1
  Co  Co17  1  0.505642  0.778075  0.018020  1
  Co  Co18  1  0.995955  0.721634  0.516086  1
  Si  Si19  1  0.223453  0.014392  0.076367  1
  Si  Si20  1  0.712418  0.522183  0.430938  1
  Si  Si21  1  0.788901  0.021649  0.568510  1
  Si  Si22  1  0.480751  0.755017  0.190568  1
  Si  Si23  1  0.020030  0.254870  0.802551  1
  Si  Si24  1  0.517728  0.245144  0.811003  1
  Si  Si25  1  0.211593  0.978050  0.431472  1
  Si  Si26  1  0.301152  0.532688  0.927760  1
  Si  Si27  1  0.979626  0.744807  0.188471  1
  Si  Si28  1  0.699005  0.485483  0.074316  1
  Si  Si29  1  0.287861  0.478382  0.568807  1
  Si  Si30  1  0.480501  0.245028  0.314445  1
  Si  Si31  1  0.020656  0.746104  0.685953  1
  Si  Si32  1  0.775603  0.966065  0.925513  1
  Si  Si33  1  0.519772  0.755056  0.685893  1
  Si  Si34  1  0.979878  0.254329  0.313860  1
  Pt  Pt35  1  0.993268  0.278632  0.982990  1
