# generated using pymatgen
data_Lu3AlHg2Au3
_symmetry_space_group_name_H-M   'P 1'
_cell_length_a   7.69885233
_cell_length_b   7.52381395
_cell_length_c   3.83617200
_cell_angle_alpha   90.00000000
_cell_angle_beta   90.00000000
_cell_angle_gamma   119.25071371
_symmetry_Int_Tables_number   1
_chemical_formula_structural   Lu3AlHg2Au3
_chemical_formula_sum   'Lu3 Al1 Hg2 Au3'
_cell_volume   193.87531954
_cell_formula_units_Z   1
loop_
 _symmetry_equiv_pos_site_id
 _symmetry_equiv_pos_as_xyz
  1  'x, y, z'
loop_
 _atom_site_type_symbol
 _atom_site_label
 _atom_site_symmetry_multiplicity
 _atom_site_fract_x
 _atom_site_fract_y
 _atom_site_fract_z
 _atom_site_occupancy
  Lu  Lu0  1  0.410244  0.401099  0.500000  1
  Lu  Lu1  1  0.589756  0.990855  0.500000  1
  Lu  Lu2  1  0.000000  0.606068  0.500000  1
  Al  Al3  1  0.000000  0.262633  0.000000  1
  Hg  Hg4  1  0.730998  0.734435  0.000000  1
  Hg  Hg5  1  0.269002  0.003437  0.000000  1
  Au  Au6  1  0.688375  0.326796  0.000000  1
  Au  Au7  1  0.311625  0.638422  0.000000  1
  Au  Au8  1  0.000000  0.036253  0.500000  1
