# generated using pymatgen
data_LaNbP7Ru12
_symmetry_space_group_name_H-M   'P 1'
_cell_length_a   9.43859700
_cell_length_b   9.43859644
_cell_length_c   3.91641800
_cell_angle_alpha   90.00000000
_cell_angle_beta   90.00000000
_cell_angle_gamma   119.99999751
_symmetry_Int_Tables_number   1
_chemical_formula_structural   LaNbP7Ru12
_chemical_formula_sum   'La1 Nb1 P7 Ru12'
_cell_volume   302.15830922
_cell_formula_units_Z   1
loop_
 _symmetry_equiv_pos_site_id
 _symmetry_equiv_pos_as_xyz
  1  'x, y, z'
loop_
 _atom_site_type_symbol
 _atom_site_label
 _atom_site_symmetry_multiplicity
 _atom_site_fract_x
 _atom_site_fract_y
 _atom_site_fract_z
 _atom_site_occupancy
  La  La0  1  0.333333  0.666667  0.000000  1
  Nb  Nb1  1  0.666667  0.333333  0.500000  1
  P  P2  1  0.604535  0.718706  0.500000  1
  P  P3  1  0.000000  0.000000  0.000000  1
  P  P4  1  0.281294  0.885829  0.500000  1
  P  P5  1  0.114171  0.395465  0.500000  1
  P  P6  1  0.887201  0.571961  0.000000  1
  P  P7  1  0.428039  0.315239  0.000000  1
  P  P8  1  0.684761  0.112799  0.000000  1
  Ru  Ru9  1  0.562584  0.963267  0.500000  1
  Ru  Ru10  1  0.400683  0.437416  0.500000  1
  Ru  Ru11  1  0.913049  0.120824  0.500000  1
  Ru  Ru12  1  0.207775  0.086951  0.500000  1
  Ru  Ru13  1  0.879176  0.792225  0.500000  1
  Ru  Ru14  1  0.726953  0.888760  0.000000  1
  Ru  Ru15  1  0.111240  0.838192  0.000000  1
  Ru  Ru16  1  0.161808  0.273047  0.000000  1
  Ru  Ru17  1  0.429194  0.080047  0.000000  1
  Ru  Ru18  1  0.919953  0.349148  0.000000  1
  Ru  Ru19  1  0.650852  0.570806  0.000000  1
  Ru  Ru20  1  0.036733  0.599317  0.500000  1
