# generated using pymatgen
data_ErCo5Si4Ni
_symmetry_space_group_name_H-M   'P 1'
_cell_length_a   6.58139200
_cell_length_b   6.61483825
_cell_length_c   3.59286700
_cell_angle_alpha   90.00000000
_cell_angle_beta   90.00000000
_cell_angle_gamma   119.83289120
_symmetry_Int_Tables_number   1
_chemical_formula_structural   ErCo5Si4Ni
_chemical_formula_sum   'Er1 Co5 Si4 Ni1'
_cell_volume   135.68680251
_cell_formula_units_Z   1
loop_
 _symmetry_equiv_pos_site_id
 _symmetry_equiv_pos_as_xyz
  1  'x, y, z'
loop_
 _atom_site_type_symbol
 _atom_site_label
 _atom_site_symmetry_multiplicity
 _atom_site_fract_x
 _atom_site_fract_y
 _atom_site_fract_z
 _atom_site_occupancy
  Er  Er0  1  0.997862  0.995724  0.000000  1
  Co  Co1  1  0.534524  0.069047  0.000000  1
  Co  Co2  1  0.532903  0.466272  0.000000  1
  Co  Co3  1  0.933369  0.466272  0.000000  1
  Co  Co4  1  0.203965  0.796587  0.500001  1
  Co  Co5  1  0.592621  0.796587  0.500001  1
  Si  Si6  1  0.336233  0.672464  0.000000  1
  Si  Si7  1  0.399448  0.197261  0.500001  1
  Si  Si8  1  0.797813  0.197261  0.500001  1
  Si  Si9  1  0.801175  0.602351  0.500001  1
  Ni  Ni10  1  0.203421  0.406844  0.500001  1
