# generated using pymatgen
data_Tm4ReTc3B16
_symmetry_space_group_name_H-M   'P 1'
_cell_length_a   3.57832100
_cell_length_b   5.93768132
_cell_length_c   11.48891230
_cell_angle_alpha   89.99275293
_cell_angle_beta   90.00000000
_cell_angle_gamma   90.00000000
_symmetry_Int_Tables_number   1
_chemical_formula_structural   Tm4ReTc3B16
_chemical_formula_sum   'Tm4 Re1 Tc3 B16'
_cell_volume   244.10411082
_cell_formula_units_Z   1
loop_
 _symmetry_equiv_pos_site_id
 _symmetry_equiv_pos_as_xyz
  1  'x, y, z'
loop_
 _atom_site_type_symbol
 _atom_site_label
 _atom_site_symmetry_multiplicity
 _atom_site_fract_x
 _atom_site_fract_y
 _atom_site_fract_z
 _atom_site_occupancy
  Tm  Tm0  1  0.500000  0.372325  0.150712  1
  Tm  Tm1  1  0.500000  0.626865  0.849543  1
  Tm  Tm2  1  0.500000  0.128073  0.649061  1
  Tm  Tm3  1  0.500000  0.871868  0.351027  1
  Re  Re4  1  0.500000  0.866282  0.087836  1
  Tc  Tc5  1  0.500000  0.365713  0.411265  1
  Tc  Tc6  1  0.500000  0.634983  0.588728  1
  Tc  Tc7  1  0.500000  0.133512  0.912608  1
  B  B8  1  0.000000  0.114526  0.047750  1
  B  B9  1  0.000000  0.885990  0.951811  1
  B  B10  1  0.000000  0.386082  0.547592  1
  B  B11  1  0.000000  0.613848  0.452343  1
  B  B12  1  0.000000  0.134963  0.468850  1
  B  B13  1  0.000000  0.865178  0.530992  1
  B  B14  1  0.000000  0.365039  0.968677  1
  B  B15  1  0.000000  0.634904  0.031108  1
  B  B16  1  0.000000  0.022350  0.193223  1
  B  B17  1  0.000000  0.977998  0.806759  1
  B  B18  1  0.000000  0.476973  0.693023  1
  B  B19  1  0.000000  0.522334  0.306944  1
  B  B20  1  0.000000  0.211340  0.314744  1
  B  B21  1  0.000000  0.788939  0.685188  1
  B  B22  1  0.000000  0.288613  0.814782  1
  B  B23  1  0.000000  0.711303  0.185433  1
