# generated using pymatgen
data_CsNpSbO6
_symmetry_space_group_name_H-M   'P 1'
_cell_length_a   7.66747529
_cell_length_b   7.66747452
_cell_length_c   7.66747492
_cell_angle_alpha   122.33065169
_cell_angle_beta   117.94853070
_cell_angle_gamma   89.80045442
_symmetry_Int_Tables_number   1
_chemical_formula_structural   CsNpSbO6
_chemical_formula_sum   'Cs2 Np2 Sb2 O12'
_cell_volume   317.48529742
_cell_formula_units_Z   2
loop_
 _symmetry_equiv_pos_site_id
 _symmetry_equiv_pos_as_xyz
  1  'x, y, z'
loop_
 _atom_site_type_symbol
 _atom_site_label
 _atom_site_symmetry_multiplicity
 _atom_site_fract_x
 _atom_site_fract_y
 _atom_site_fract_z
 _atom_site_occupancy
  Cs  Cs0  1  0.621069  0.883005  0.238064  1
  Cs  Cs1  1  0.355059  0.116995  0.738064  1
  Np  Np2  1  0.998338  0.499753  0.998585  1
  Np  Np3  1  0.498832  0.500247  0.498585  1
  Sb  Sb4  1  0.998735  0.500000  0.498735  1
  Sb  Sb5  1  0.998735  0.000000  0.998735  1
  O  O6  1  0.069113  0.818835  0.750278  1
  O  O7  1  0.681680  0.433176  0.748504  1
  O  O8  1  0.691767  0.819645  0.760927  1
  O  O9  1  0.056857  0.431579  0.737510  1
  O  O10  1  0.056857  0.819347  0.125278  1
  O  O11  1  0.691767  0.430839  0.372122  1
  O  O12  1  0.931443  0.181165  0.250278  1
  O  O13  1  0.315328  0.566824  0.248504  1
  O  O14  1  0.305930  0.180653  0.237510  1
  O  O15  1  0.941282  0.569161  0.260927  1
  O  O16  1  0.941282  0.180355  0.872122  1
  O  O17  1  0.305930  0.568421  0.625278  1
