# generated using pymatgen
data_Hf2TaOsBr18
_symmetry_space_group_name_H-M   'P 1'
_cell_length_a   12.38428400
_cell_length_b   7.22457834
_cell_length_c   9.91597425
_cell_angle_alpha   75.56907904
_cell_angle_beta   90.00000000
_cell_angle_gamma   90.00000000
_symmetry_Int_Tables_number   1
_chemical_formula_structural   Hf2TaOsBr18
_chemical_formula_sum   'Hf2 Ta1 Os1 Br18'
_cell_volume   859.20237149
_cell_formula_units_Z   1
loop_
 _symmetry_equiv_pos_site_id
 _symmetry_equiv_pos_as_xyz
  1  'x, y, z'
loop_
 _atom_site_type_symbol
 _atom_site_label
 _atom_site_symmetry_multiplicity
 _atom_site_fract_x
 _atom_site_fract_y
 _atom_site_fract_z
 _atom_site_occupancy
  Hf  Hf0  1  0.250000  0.757455  0.469374  1
  Hf  Hf1  1  0.750000  0.242563  0.531104  1
  Ta  Ta2  1  0.750000  0.355071  0.143091  1
  Os  Os3  1  0.250000  0.647014  0.849088  1
  Br  Br4  1  0.609858  0.441872  0.321746  1
  Br  Br5  1  0.111482  0.558553  0.681916  1
  Br  Br6  1  0.388518  0.558553  0.681916  1
  Br  Br7  1  0.890142  0.441872  0.321746  1
  Br  Br8  1  0.750000  0.686984  0.009312  1
  Br  Br9  1  0.250000  0.321725  0.988853  1
  Br  Br10  1  0.750000  0.517787  0.639909  1
  Br  Br11  1  0.250000  0.482062  0.360531  1
  Br  Br12  1  0.750000  0.023045  0.333528  1
  Br  Br13  1  0.250000  0.972997  0.670020  1
  Br  Br14  1  0.897642  0.244825  0.021164  1
  Br  Br15  1  0.393377  0.751632  0.977286  1
  Br  Br16  1  0.106623  0.751632  0.977286  1
  Br  Br17  1  0.602358  0.244825  0.021164  1
  Br  Br18  1  0.904220  0.054675  0.655665  1
  Br  Br19  1  0.404173  0.945091  0.344817  1
  Br  Br20  1  0.095827  0.945091  0.344817  1
  Br  Br21  1  0.595780  0.054675  0.655665  1
