# generated using pymatgen
data_CeDy(MgIr)2
_symmetry_space_group_name_H-M   'P 1'
_cell_length_a   7.07087500
_cell_length_b   4.12979900
_cell_length_c   8.65164700
_cell_angle_alpha   90.00000000
_cell_angle_beta   90.00000000
_cell_angle_gamma   90.00000000
_symmetry_Int_Tables_number   1
_chemical_formula_structural   CeDy(MgIr)2
_chemical_formula_sum   'Ce2 Dy2 Mg4 Ir4'
_cell_volume   252.63927469
_cell_formula_units_Z   2
loop_
 _symmetry_equiv_pos_site_id
 _symmetry_equiv_pos_as_xyz
  1  'x, y, z'
loop_
 _atom_site_type_symbol
 _atom_site_label
 _atom_site_symmetry_multiplicity
 _atom_site_fract_x
 _atom_site_fract_y
 _atom_site_fract_z
 _atom_site_occupancy
  Ce  Ce0  1  0.035782  0.750000  0.825627  1
  Ce  Ce1  1  0.535782  0.750000  0.674373  1
  Dy  Dy2  1  0.958705  0.250000  0.179946  1
  Dy  Dy3  1  0.458705  0.250000  0.320054  1
  Mg  Mg4  1  0.866821  0.250000  0.554734  1
  Mg  Mg5  1  0.366821  0.250000  0.945266  1
  Mg  Mg6  1  0.135078  0.750000  0.438262  1
  Mg  Mg7  1  0.635078  0.750000  0.061738  1
  Ir  Ir8  1  0.758369  0.250000  0.865667  1
  Ir  Ir9  1  0.258369  0.250000  0.634333  1
  Ir  Ir10  1  0.245246  0.750000  0.125423  1
  Ir  Ir11  1  0.745246  0.750000  0.374577  1
