# generated using pymatgen
data_Sm5YCoBr10
_symmetry_space_group_name_H-M   'P 1'
_cell_length_a   7.47559907
_cell_length_b   9.26464252
_cell_length_c   9.45206716
_cell_angle_alpha   108.27829488
_cell_angle_beta   96.62557028
_cell_angle_gamma   105.22763613
_symmetry_Int_Tables_number   1
_chemical_formula_structural   Sm5YCoBr10
_chemical_formula_sum   'Sm5 Y1 Co1 Br10'
_cell_volume   585.64528471
_cell_formula_units_Z   1
loop_
 _symmetry_equiv_pos_site_id
 _symmetry_equiv_pos_as_xyz
  1  'x, y, z'
loop_
 _atom_site_type_symbol
 _atom_site_label
 _atom_site_symmetry_multiplicity
 _atom_site_fract_x
 _atom_site_fract_y
 _atom_site_fract_z
 _atom_site_occupancy
  Sm  Sm0  1  0.466709  0.784876  0.587568  1
  Sm  Sm1  1  0.530341  0.214129  0.410743  1
  Sm  Sm2  1  0.372151  0.451016  0.743790  1
  Sm  Sm3  1  0.623492  0.546581  0.254896  1
  Sm  Sm4  1  0.859239  0.635085  0.678872  1
  Y  Y5  1  0.145152  0.368605  0.325282  1
  Co  Co6  1  0.500062  0.499952  0.500579  1
  Br  Br7  1  0.412894  0.128943  0.669836  1
  Br  Br8  1  0.585116  0.869267  0.327857  1
  Br  Br9  1  0.048706  0.675740  0.415116  1
  Br  Br10  1  0.952500  0.320230  0.579153  1
  Br  Br11  1  0.287728  0.756229  0.847267  1
  Br  Br12  1  0.726396  0.247692  0.159072  1
  Br  Br13  1  0.245819  0.413186  0.049252  1
  Br  Br14  1  0.747734  0.581828  0.952980  1
  Br  Br15  1  0.847996  0.954507  0.769170  1
  Br  Br16  1  0.147966  0.052133  0.228566  1
