# generated using pymatgen
data_Ta3Mn4Si4Mo
_symmetry_space_group_name_H-M   'P 1'
_cell_length_a   3.53257800
_cell_length_b   6.30899731
_cell_length_c   7.41176648
_cell_angle_alpha   90.37151086
_cell_angle_beta   90.00000000
_cell_angle_gamma   90.00000000
_symmetry_Int_Tables_number   1
_chemical_formula_structural   Ta3Mn4Si4Mo
_chemical_formula_sum   'Ta3 Mn4 Si4 Mo1'
_cell_volume   165.18275300
_cell_formula_units_Z   1
loop_
 _symmetry_equiv_pos_site_id
 _symmetry_equiv_pos_as_xyz
  1  'x, y, z'
loop_
 _atom_site_type_symbol
 _atom_site_label
 _atom_site_symmetry_multiplicity
 _atom_site_fract_x
 _atom_site_fract_y
 _atom_site_fract_z
 _atom_site_occupancy
  Ta  Ta0  1  0.250000  0.467421  0.173650  1
  Ta  Ta1  1  0.750000  0.032687  0.672708  1
  Ta  Ta2  1  0.750000  0.535248  0.828111  1
  Mn  Mn3  1  0.250000  0.359088  0.561241  1
  Mn  Mn4  1  0.250000  0.863186  0.937707  1
  Mn  Mn5  1  0.750000  0.634809  0.437913  1
  Mn  Mn6  1  0.750000  0.141345  0.059729  1
  Si  Si7  1  0.250000  0.733360  0.626982  1
  Si  Si8  1  0.250000  0.235696  0.869635  1
  Si  Si9  1  0.750000  0.259251  0.368387  1
  Si  Si10  1  0.750000  0.772284  0.133402  1
  Mo  Mo11  1  0.250000  0.965625  0.330536  1
