# generated using pymatgen
data_Dy6Sc4Al12Ir7
_symmetry_space_group_name_H-M   'P 1'
_cell_length_a   9.08815516
_cell_length_b   9.08815556
_cell_length_c   9.08815600
_cell_angle_alpha   59.99999842
_cell_angle_beta   59.99999694
_cell_angle_gamma   60.00000154
_symmetry_Int_Tables_number   1
_chemical_formula_structural   Dy6Sc4Al12Ir7
_chemical_formula_sum   'Dy6 Sc4 Al12 Ir7'
_cell_volume   530.77718962
_cell_formula_units_Z   1
loop_
 _symmetry_equiv_pos_site_id
 _symmetry_equiv_pos_as_xyz
  1  'x, y, z'
loop_
 _atom_site_type_symbol
 _atom_site_label
 _atom_site_symmetry_multiplicity
 _atom_site_fract_x
 _atom_site_fract_y
 _atom_site_fract_z
 _atom_site_occupancy
  Dy  Dy0  1  0.702789  0.702789  0.297211  1
  Dy  Dy1  1  0.297211  0.702789  0.297211  1
  Dy  Dy2  1  0.702789  0.297211  0.297211  1
  Dy  Dy3  1  0.297211  0.297211  0.702789  1
  Dy  Dy4  1  0.702789  0.297211  0.702789  1
  Dy  Dy5  1  0.297211  0.702789  0.702789  1
  Sc  Sc6  1  0.881023  0.881023  0.356930  1
  Sc  Sc7  1  0.881023  0.356930  0.881023  1
  Sc  Sc8  1  0.356930  0.881023  0.881023  1
  Sc  Sc9  1  0.881023  0.881023  0.881023  1
  Al  Al10  1  0.120074  0.120074  0.639777  1
  Al  Al11  1  0.120074  0.639777  0.120074  1
  Al  Al12  1  0.639777  0.120074  0.120074  1
  Al  Al13  1  0.120074  0.120074  0.120074  1
  Al  Al14  1  0.668980  0.668980  0.993060  1
  Al  Al15  1  0.668980  0.993060  0.668980  1
  Al  Al16  1  0.993060  0.668980  0.668980  1
  Al  Al17  1  0.668980  0.668980  0.668980  1
  Al  Al18  1  0.329016  0.329016  0.012952  1
  Al  Al19  1  0.329016  0.012952  0.329016  1
  Al  Al20  1  0.012952  0.329016  0.329016  1
  Al  Al21  1  0.329016  0.329016  0.329016  1
  Ir  Ir22  1  0.000000  0.000000  0.000000  1
  Ir  Ir23  1  0.001903  0.001903  0.498097  1
  Ir  Ir24  1  0.498097  0.001903  0.498097  1
  Ir  Ir25  1  0.001903  0.498097  0.498097  1
  Ir  Ir26  1  0.498097  0.498097  0.001903  1
  Ir  Ir27  1  0.001903  0.498097  0.001903  1
  Ir  Ir28  1  0.498097  0.001903  0.001903  1
