# generated using pymatgen
data_Tm6MnAl24Os6Ru
_symmetry_space_group_name_H-M   'P 1'
_cell_length_a   8.76826100
_cell_length_b   8.76826231
_cell_length_c   9.51747600
_cell_angle_alpha   90.00000000
_cell_angle_beta   90.00000000
_cell_angle_gamma   119.99999882
_symmetry_Int_Tables_number   1
_chemical_formula_structural   Tm6MnAl24Os6Ru
_chemical_formula_sum   'Tm6 Mn1 Al24 Os6 Ru1'
_cell_volume   633.69375861
_cell_formula_units_Z   1
loop_
 _symmetry_equiv_pos_site_id
 _symmetry_equiv_pos_as_xyz
  1  'x, y, z'
loop_
 _atom_site_type_symbol
 _atom_site_label
 _atom_site_symmetry_multiplicity
 _atom_site_fract_x
 _atom_site_fract_y
 _atom_site_fract_z
 _atom_site_occupancy
  Tm  Tm0  1  0.194406  0.388811  0.250006  1
  Tm  Tm1  1  0.805594  0.611189  0.749994  1
  Tm  Tm2  1  0.611189  0.805594  0.250006  1
  Tm  Tm3  1  0.388811  0.194406  0.749994  1
  Tm  Tm4  1  0.194406  0.805594  0.250006  1
  Tm  Tm5  1  0.805594  0.194406  0.749994  1
  Mn  Mn6  1  0.000000  0.000000  0.500000  1
  Al  Al7  1  0.333333  0.666667  0.017168  1
  Al  Al8  1  0.666667  0.333333  0.982832  1
  Al  Al9  1  0.666667  0.333333  0.515570  1
  Al  Al10  1  0.333333  0.666667  0.484430  1
  Al  Al11  1  0.159789  0.319578  0.576163  1
  Al  Al12  1  0.840211  0.680422  0.423837  1
  Al  Al13  1  0.680422  0.840211  0.576163  1
  Al  Al14  1  0.837460  0.674920  0.076826  1
  Al  Al15  1  0.319578  0.159789  0.423837  1
  Al  Al16  1  0.162540  0.325080  0.923174  1
  Al  Al17  1  0.159789  0.840211  0.576163  1
  Al  Al18  1  0.325080  0.162540  0.076826  1
  Al  Al19  1  0.840211  0.159789  0.423837  1
  Al  Al20  1  0.674920  0.837460  0.923174  1
  Al  Al21  1  0.837460  0.162540  0.076826  1
  Al  Al22  1  0.162540  0.837460  0.923174  1
  Al  Al23  1  0.561250  0.122500  0.250386  1
  Al  Al24  1  0.438750  0.877500  0.749614  1
  Al  Al25  1  0.877500  0.438750  0.250386  1
  Al  Al26  1  0.122500  0.561250  0.749614  1
  Al  Al27  1  0.561250  0.438750  0.250386  1
  Al  Al28  1  0.438750  0.561250  0.749614  1
  Al  Al29  1  0.000000  0.000000  0.254526  1
  Al  Al30  1  0.000000  0.000000  0.745474  1
  Os  Os31  1  0.500000  0.000000  0.000000  1
  Os  Os32  1  0.000000  0.500000  0.000000  1
  Os  Os33  1  0.500000  0.000000  0.500000  1
  Os  Os34  1  0.500000  0.500000  0.000000  1
  Os  Os35  1  0.000000  0.500000  0.500000  1
  Os  Os36  1  0.500000  0.500000  0.500000  1
  Ru  Ru37  1  0.000000  0.000000  0.000000  1
