# generated using pymatgen
data_CaEu2N2
_symmetry_space_group_name_H-M   'P 1'
_cell_length_a   3.62959801
_cell_length_b   3.62889358
_cell_length_c   9.66853505
_cell_angle_alpha   89.98846664
_cell_angle_beta   90.00517360
_cell_angle_gamma   120.01363974
_symmetry_Int_Tables_number   1
_chemical_formula_structural   CaEu2N2
_chemical_formula_sum   'Ca1 Eu2 N2'
_cell_volume   110.27177170
_cell_formula_units_Z   1
loop_
 _symmetry_equiv_pos_site_id
 _symmetry_equiv_pos_as_xyz
  1  'x, y, z'
loop_
 _atom_site_type_symbol
 _atom_site_label
 _atom_site_symmetry_multiplicity
 _atom_site_fract_x
 _atom_site_fract_y
 _atom_site_fract_z
 _atom_site_occupancy
  Ca  Ca0  1  0.000000  0.000000  0.500000  1
  Eu  Eu1  1  0.666692  0.333318  0.215283  1
  Eu  Eu2  1  0.333308  0.666682  0.784717  1
  N  N3  1  0.666661  0.333333  0.667409  1
  N  N4  1  0.333339  0.666667  0.332591  1
