# generated using pymatgen
data_Pr2Al4Si2PdAu
_symmetry_space_group_name_H-M   'P 1'
_cell_length_a   4.22762300
_cell_length_b   4.22762300
_cell_length_c   10.74885200
_cell_angle_alpha   90.00000000
_cell_angle_beta   90.00000000
_cell_angle_gamma   90.00000000
_symmetry_Int_Tables_number   1
_chemical_formula_structural   Pr2Al4Si2PdAu
_chemical_formula_sum   'Pr2 Al4 Si2 Pd1 Au1'
_cell_volume   192.11204150
_cell_formula_units_Z   1
loop_
 _symmetry_equiv_pos_site_id
 _symmetry_equiv_pos_as_xyz
  1  'x, y, z'
loop_
 _atom_site_type_symbol
 _atom_site_label
 _atom_site_symmetry_multiplicity
 _atom_site_fract_x
 _atom_site_fract_y
 _atom_site_fract_z
 _atom_site_occupancy
  Pr  Pr0  1  0.000000  0.000000  0.986385  1
  Pr  Pr1  1  0.500000  0.500000  0.480846  1
  Al  Al2  1  0.000000  0.500000  0.243361  1
  Al  Al3  1  0.500000  0.000000  0.751805  1
  Al  Al4  1  0.500000  0.000000  0.243361  1
  Al  Al5  1  0.000000  0.500000  0.751805  1
  Si  Si6  1  0.000000  0.000000  0.393418  1
  Si  Si7  1  0.500000  0.500000  0.901636  1
  Pd  Pd8  1  0.500000  0.500000  0.125421  1
  Au  Au9  1  0.000000  0.000000  0.621964  1
