# generated using pymatgen
data_Tm2Si2PdRu
_symmetry_space_group_name_H-M   'P 1'
_cell_length_a   4.26471200
_cell_length_b   6.87325727
_cell_length_c   7.35852025
_cell_angle_alpha   90.15203932
_cell_angle_beta   90.00000000
_cell_angle_gamma   90.00000000
_symmetry_Int_Tables_number   1
_chemical_formula_structural   Tm2Si2PdRu
_chemical_formula_sum   'Tm4 Si4 Pd2 Ru2'
_cell_volume   215.69559123
_cell_formula_units_Z   2
loop_
 _symmetry_equiv_pos_site_id
 _symmetry_equiv_pos_as_xyz
  1  'x, y, z'
loop_
 _atom_site_type_symbol
 _atom_site_label
 _atom_site_symmetry_multiplicity
 _atom_site_fract_x
 _atom_site_fract_y
 _atom_site_fract_z
 _atom_site_occupancy
  Tm  Tm0  1  0.250000  0.993446  0.807767  1
  Tm  Tm1  1  0.750000  0.006554  0.192233  1
  Tm  Tm2  1  0.250000  0.499590  0.689030  1
  Tm  Tm3  1  0.750000  0.500410  0.310970  1
  Si  Si4  1  0.250000  0.299365  0.091788  1
  Si  Si5  1  0.750000  0.700635  0.908212  1
  Si  Si6  1  0.250000  0.788270  0.380103  1
  Si  Si7  1  0.750000  0.211730  0.619897  1
  Pd  Pd8  1  0.750000  0.835318  0.572932  1
  Pd  Pd9  1  0.250000  0.164682  0.427068  1
  Ru  Ru10  1  0.750000  0.345106  0.935209  1
  Ru  Ru11  1  0.250000  0.654894  0.064791  1
