# generated using pymatgen
data_V13Ir3
_symmetry_space_group_name_H-M   'P 1'
_cell_length_a   4.77572000
_cell_length_b   4.78747000
_cell_length_c   9.56684700
_cell_angle_alpha   90.00000000
_cell_angle_beta   90.00000000
_cell_angle_gamma   90.00000000
_symmetry_Int_Tables_number   1
_chemical_formula_structural   V13Ir3
_chemical_formula_sum   'V13 Ir3'
_cell_volume   218.73271832
_cell_formula_units_Z   1
loop_
 _symmetry_equiv_pos_site_id
 _symmetry_equiv_pos_as_xyz
  1  'x, y, z'
loop_
 _atom_site_type_symbol
 _atom_site_label
 _atom_site_symmetry_multiplicity
 _atom_site_fract_x
 _atom_site_fract_y
 _atom_site_fract_z
 _atom_site_occupancy
  V  V0  1  0.000000  0.500000  0.127006  1
  V  V1  1  0.000000  0.500000  0.621841  1
  V  V2  1  0.500000  0.250603  0.751985  1
  V  V3  1  0.500000  0.250603  0.248015  1
  V  V4  1  0.747411  0.000000  0.000000  1
  V  V5  1  0.749700  0.000000  0.500000  1
  V  V6  1  0.000000  0.500000  0.872994  1
  V  V7  1  0.000000  0.500000  0.378159  1
  V  V8  1  0.500000  0.749397  0.751985  1
  V  V9  1  0.500000  0.749397  0.248015  1
  V  V10  1  0.252589  0.000000  0.000000  1
  V  V11  1  0.250300  0.000000  0.500000  1
  V  V12  1  0.500000  0.500000  0.000000  1
  Ir  Ir13  1  0.500000  0.500000  0.500000  1
  Ir  Ir14  1  0.000000  0.000000  0.749881  1
  Ir  Ir15  1  0.000000  0.000000  0.250119  1
