# generated using pymatgen
data_Pa2PtRhPb
_symmetry_space_group_name_H-M   'P 1'
_cell_length_a   7.86604100
_cell_length_b   7.86627400
_cell_length_c   3.62630800
_cell_angle_alpha   90.00000000
_cell_angle_beta   90.00000000
_cell_angle_gamma   90.00000000
_symmetry_Int_Tables_number   1
_chemical_formula_structural   Pa2PtRhPb
_chemical_formula_sum   'Pa4 Pt2 Rh2 Pb2'
_cell_volume   224.38300690
_cell_formula_units_Z   2
loop_
 _symmetry_equiv_pos_site_id
 _symmetry_equiv_pos_as_xyz
  1  'x, y, z'
loop_
 _atom_site_type_symbol
 _atom_site_label
 _atom_site_symmetry_multiplicity
 _atom_site_fract_x
 _atom_site_fract_y
 _atom_site_fract_z
 _atom_site_occupancy
  Pa  Pa0  1  0.329773  0.166015  0.500001  1
  Pa  Pa1  1  0.829772  0.333986  0.500001  1
  Pa  Pa2  1  0.171916  0.675442  0.500001  1
  Pa  Pa3  1  0.671915  0.824557  0.500001  1
  Pt  Pt4  1  0.628050  0.127183  0.000000  1
  Pt  Pt5  1  0.128051  0.372817  0.000000  1
  Rh  Rh6  1  0.868713  0.631304  0.000000  1
  Rh  Rh7  1  0.368712  0.868696  0.000000  1
  Pb  Pb8  1  0.001548  0.995356  0.000000  1
  Pb  Pb9  1  0.501549  0.504645  0.000000  1
