# generated using pymatgen
data_Yb2Sb2S3O2
_symmetry_space_group_name_H-M   'P 1'
_cell_length_a   9.05562849
_cell_length_b   3.78560200
_cell_length_c   12.48236240
_cell_angle_alpha   90.00000000
_cell_angle_beta   122.89132613
_cell_angle_gamma   90.00000000
_symmetry_Int_Tables_number   1
_chemical_formula_structural   Yb2Sb2S3O2
_chemical_formula_sum   'Yb4 Sb4 S6 O4'
_cell_volume   359.31518255
_cell_formula_units_Z   2
loop_
 _symmetry_equiv_pos_site_id
 _symmetry_equiv_pos_as_xyz
  1  'x, y, z'
loop_
 _atom_site_type_symbol
 _atom_site_label
 _atom_site_symmetry_multiplicity
 _atom_site_fract_x
 _atom_site_fract_y
 _atom_site_fract_z
 _atom_site_occupancy
  Yb  Yb0  1  0.100275  0.490790  0.393367  1
  Yb  Yb1  1  0.899725  0.990790  0.106633  1
  Yb  Yb2  1  0.899725  0.509210  0.606633  1
  Yb  Yb3  1  0.100275  0.009210  0.893367  1
  Sb  Sb4  1  0.639660  0.493148  0.196241  1
  Sb  Sb5  1  0.360340  0.993148  0.303759  1
  Sb  Sb6  1  0.360340  0.506852  0.803759  1
  Sb  Sb7  1  0.639660  0.006852  0.696241  1
  S  S8  1  0.500000  0.500000  0.500000  1
  S  S9  1  0.500000  0.000000  0.000000  1
  S  S10  1  0.196203  0.495353  0.123613  1
  S  S11  1  0.803797  0.995353  0.376387  1
  S  S12  1  0.803797  0.504647  0.876387  1
  S  S13  1  0.196203  0.004647  0.623613  1
  O  O14  1  0.147268  0.508164  0.813721  1
  O  O15  1  0.852732  0.008164  0.686279  1
  O  O16  1  0.852732  0.491836  0.186279  1
  O  O17  1  0.147268  0.991836  0.313721  1
