# generated using pymatgen
data_Hf4Cu3Si4Rh
_symmetry_space_group_name_H-M   'P 1'
_cell_length_a   3.85652500
_cell_length_b   6.50413052
_cell_length_c   7.38920556
_cell_angle_alpha   88.89053841
_cell_angle_beta   90.00000000
_cell_angle_gamma   90.00000000
_symmetry_Int_Tables_number   1
_chemical_formula_structural   Hf4Cu3Si4Rh
_chemical_formula_sum   'Hf4 Cu3 Si4 Rh1'
_cell_volume   185.31122260
_cell_formula_units_Z   1
loop_
 _symmetry_equiv_pos_site_id
 _symmetry_equiv_pos_as_xyz
  1  'x, y, z'
loop_
 _atom_site_type_symbol
 _atom_site_label
 _atom_site_symmetry_multiplicity
 _atom_site_fract_x
 _atom_site_fract_y
 _atom_site_fract_z
 _atom_site_occupancy
  Hf  Hf0  1  0.250000  0.522061  0.683924  1
  Hf  Hf1  1  0.750000  0.476495  0.314262  1
  Hf  Hf2  1  0.250000  0.014943  0.818881  1
  Hf  Hf3  1  0.750000  0.981822  0.185353  1
  Cu  Cu4  1  0.250000  0.150621  0.437460  1
  Cu  Cu5  1  0.750000  0.341116  0.929020  1
  Cu  Cu6  1  0.250000  0.659829  0.070494  1
  Si  Si7  1  0.250000  0.274826  0.112706  1
  Si  Si8  1  0.750000  0.725324  0.886973  1
  Si  Si9  1  0.250000  0.763080  0.381676  1
  Si  Si10  1  0.750000  0.231296  0.618416  1
  Rh  Rh11  1  0.750000  0.858588  0.560836  1
