# generated using pymatgen
data_Hf6Be2Re3As4Ru3
_symmetry_space_group_name_H-M   'P 1'
_cell_length_a   7.65257842
_cell_length_b   7.64334996
_cell_length_c   7.65311741
_cell_angle_alpha   127.06418279
_cell_angle_beta   125.26904286
_cell_angle_gamma   79.65549930
_symmetry_Int_Tables_number   1
_chemical_formula_structural   Hf6Be2Re3As4Ru3
_chemical_formula_sum   'Hf6 Be2 Re3 As4 Ru3'
_cell_volume   281.71914337
_cell_formula_units_Z   1
loop_
 _symmetry_equiv_pos_site_id
 _symmetry_equiv_pos_as_xyz
  1  'x, y, z'
loop_
 _atom_site_type_symbol
 _atom_site_label
 _atom_site_symmetry_multiplicity
 _atom_site_fract_x
 _atom_site_fract_y
 _atom_site_fract_z
 _atom_site_occupancy
  Hf  Hf0  1  0.444319  0.645855  0.699173  1
  Hf  Hf1  1  0.554619  0.256044  0.200175  1
  Hf  Hf2  1  0.751778  0.862935  0.613911  1
  Hf  Hf3  1  0.249169  0.863181  0.111143  1
  Hf  Hf4  1  0.056213  0.256076  0.701154  1
  Hf  Hf5  1  0.946242  0.645256  0.201160  1
  Be  Be6  1  0.250746  0.248723  0.501985  1
  Be  Be7  1  0.746017  0.247872  0.997994  1
  Re  Re8  1  0.499895  0.492732  0.992784  1
  Re  Re9  1  0.000292  0.493102  0.492889  1
  Re  Re10  1  0.120013  0.253690  0.132959  1
  As  As11  1  0.333813  0.588773  0.254657  1
  As  As12  1  0.667451  0.921453  0.254171  1
  As  As13  1  0.167401  0.921701  0.754015  1
  As  As14  1  0.832922  0.587062  0.754368  1
  Ru  Ru15  1  0.879376  0.011409  0.132826  1
  Ru  Ru16  1  0.379133  0.011374  0.631351  1
  Ru  Ru17  1  0.620603  0.252360  0.632884  1
