# generated using pymatgen
data_Na8Li4Sc3AlBi8
_symmetry_space_group_name_H-M   'P 1'
_cell_length_a   10.22208725
_cell_length_b   10.22208699
_cell_length_c   6.67531767
_cell_angle_alpha   89.87777620
_cell_angle_beta   90.12222033
_cell_angle_gamma   98.60607151
_symmetry_Int_Tables_number   1
_chemical_formula_structural   Na8Li4Sc3AlBi8
_chemical_formula_sum   'Na8 Li4 Sc3 Al1 Bi8'
_cell_volume   689.65471865
_cell_formula_units_Z   1
loop_
 _symmetry_equiv_pos_site_id
 _symmetry_equiv_pos_as_xyz
  1  'x, y, z'
loop_
 _atom_site_type_symbol
 _atom_site_label
 _atom_site_symmetry_multiplicity
 _atom_site_fract_x
 _atom_site_fract_y
 _atom_site_fract_z
 _atom_site_occupancy
  Na  Na0  1  0.572271  0.923226  0.254406  1
  Na  Na1  1  0.675284  0.329130  0.224395  1
  Na  Na2  1  0.329130  0.675284  0.775605  1
  Na  Na3  1  0.070566  0.426114  0.253308  1
  Na  Na4  1  0.923226  0.572271  0.745594  1
  Na  Na5  1  0.426114  0.070566  0.746692  1
  Na  Na6  1  0.826470  0.174928  0.718714  1
  Na  Na7  1  0.174928  0.826470  0.281286  1
  Li  Li8  1  0.876539  0.876539  0.500000  1
  Li  Li9  1  0.120410  0.120410  0.500000  1
  Li  Li10  1  0.620597  0.620597  0.000000  1
  Li  Li11  1  0.381649  0.381649  0.000000  1
  Sc  Sc12  1  0.870606  0.870606  0.000000  1
  Sc  Sc13  1  0.129748  0.129748  0.000000  1
  Sc  Sc14  1  0.374849  0.374849  0.500000  1
  Al  Al15  1  0.626587  0.626587  0.500000  1
  Bi  Bi16  1  0.113791  0.883332  0.767816  1
  Bi  Bi17  1  0.616750  0.389592  0.732501  1
  Bi  Bi18  1  0.883332  0.113791  0.232184  1
  Bi  Bi19  1  0.389592  0.616750  0.267499  1
  Bi  Bi20  1  0.365342  0.139109  0.248412  1
  Bi  Bi21  1  0.139109  0.365342  0.751588  1
  Bi  Bi22  1  0.635412  0.857697  0.746000  1
  Bi  Bi23  1  0.857697  0.635412  0.254000  1
