# generated using pymatgen
data_Sc4BeB12Ir
_symmetry_space_group_name_H-M   'P 1'
_cell_length_a   3.41382400
_cell_length_b   8.87299666
_cell_length_c   11.15613333
_cell_angle_alpha   89.91135211
_cell_angle_beta   90.00000000
_cell_angle_gamma   90.00000000
_symmetry_Int_Tables_number   1
_chemical_formula_structural   Sc4BeB12Ir
_chemical_formula_sum   'Sc8 Be2 B24 Ir2'
_cell_volume   337.92834515
_cell_formula_units_Z   2
loop_
 _symmetry_equiv_pos_site_id
 _symmetry_equiv_pos_as_xyz
  1  'x, y, z'
loop_
 _atom_site_type_symbol
 _atom_site_label
 _atom_site_symmetry_multiplicity
 _atom_site_fract_x
 _atom_site_fract_y
 _atom_site_fract_z
 _atom_site_occupancy
  Sc  Sc0  1  0.500000  0.315234  0.409939  1
  Sc  Sc1  1  0.500000  0.684766  0.590061  1
  Sc  Sc2  1  0.500000  0.174369  0.916728  1
  Sc  Sc3  1  0.500000  0.825631  0.083272  1
  Sc  Sc4  1  0.500000  0.438990  0.127298  1
  Sc  Sc5  1  0.500000  0.561010  0.872702  1
  Sc  Sc6  1  0.500000  0.052170  0.630612  1
  Sc  Sc7  1  0.500000  0.947830  0.369388  1
  Be  Be8  1  0.500000  0.139439  0.180038  1
  Be  Be9  1  0.500000  0.860561  0.819962  1
  B  B10  1  0.000000  0.100967  0.471718  1
  B  B11  1  0.000000  0.899033  0.528282  1
  B  B12  1  0.000000  0.397941  0.972773  1
  B  B13  1  0.000000  0.602059  0.027227  1
  B  B14  1  0.000000  0.131328  0.317528  1
  B  B15  1  0.000000  0.868672  0.682472  1
  B  B16  1  0.000000  0.368525  0.819048  1
  B  B17  1  0.000000  0.631475  0.180952  1
  B  B18  1  0.000000  0.052513  0.064144  1
  B  B19  1  0.000000  0.947487  0.935856  1
  B  B20  1  0.000000  0.447633  0.564502  1
  B  B21  1  0.000000  0.552367  0.435498  1
  B  B22  1  0.000000  0.477139  0.286923  1
  B  B23  1  0.000000  0.522861  0.713077  1
  B  B24  1  0.000000  0.016639  0.789464  1
  B  B25  1  0.000000  0.983361  0.210536  1
  B  B26  1  0.000000  0.249650  0.078963  1
  B  B27  1  0.000000  0.750350  0.921037  1
  B  B28  1  0.000000  0.244954  0.578575  1
  B  B29  1  0.000000  0.755046  0.421425  1
  B  B30  1  0.000000  0.293907  0.236177  1
  B  B31  1  0.000000  0.706093  0.763823  1
  B  B32  1  0.000000  0.202158  0.738104  1
  B  B33  1  0.000000  0.797842  0.261896  1
  Ir  Ir34  1  0.500000  0.359169  0.679503  1
  Ir  Ir35  1  0.500000  0.640831  0.320497  1
