# generated using pymatgen
data_ErSc7Ti7Nb5(Si7Ge)2
_symmetry_space_group_name_H-M   'P 1'
_cell_length_a   6.91981302
_cell_length_b   6.91703772
_cell_length_c   12.69554000
_cell_angle_alpha   89.99179127
_cell_angle_beta   89.99573582
_cell_angle_gamma   89.94984411
_symmetry_Int_Tables_number   1
_chemical_formula_structural   ErSc7Ti7Nb5(Si7Ge)2
_chemical_formula_sum   'Er1 Sc7 Ti7 Nb5 Si14 Ge2'
_cell_volume   607.66680061
_cell_formula_units_Z   1
loop_
 _symmetry_equiv_pos_site_id
 _symmetry_equiv_pos_as_xyz
  1  'x, y, z'
loop_
 _atom_site_type_symbol
 _atom_site_label
 _atom_site_symmetry_multiplicity
 _atom_site_fract_x
 _atom_site_fract_y
 _atom_site_fract_z
 _atom_site_occupancy
  Er  Er0  1  0.996861  0.661620  0.033506  1
  Sc  Sc1  1  0.343317  0.998109  0.465294  1
  Sc  Sc2  1  0.502659  0.841476  0.715500  1
  Sc  Sc3  1  0.498321  0.159311  0.218866  1
  Sc  Sc4  1  0.841898  0.501820  0.283982  1
  Sc  Sc5  1  0.157124  0.497900  0.781722  1
  Sc  Sc6  1  0.656230  0.002909  0.966586  1
  Sc  Sc7  1  0.995774  0.344684  0.531192  1
  Ti  Ti8  1  0.493623  0.649677  0.125259  1
  Ti  Ti9  1  0.509330  0.352187  0.623038  1
  Ti  Ti10  1  0.654169  0.487645  0.874650  1
  Ti  Ti11  1  0.350109  0.507678  0.377529  1
  Ti  Ti12  1  0.849742  0.993347  0.374774  1
  Ti  Ti13  1  0.007616  0.150491  0.127482  1
  Ti  Ti14  1  0.989874  0.846854  0.625342  1
  Nb  Nb15  1  0.328039  0.323227  0.000664  1
  Nb  Nb16  1  0.172070  0.829158  0.251781  1
  Nb  Nb17  1  0.825958  0.171493  0.749490  1
  Nb  Nb18  1  0.671985  0.672384  0.499761  1
  Nb  Nb19  1  0.151264  0.008386  0.873614  1
  Si  Si20  1  0.634894  0.293223  0.428397  1
  Si  Si21  1  0.703768  0.361133  0.071716  1
  Si  Si22  1  0.292606  0.635662  0.571265  1
  Si  Si23  1  0.789939  0.869979  0.182797  1
  Si  Si24  1  0.135049  0.207394  0.322375  1
  Si  Si25  1  0.861042  0.792938  0.819186  1
  Si  Si26  1  0.301341  0.956699  0.067089  1
  Si  Si27  1  0.545695  0.797352  0.313940  1
  Si  Si28  1  0.456818  0.203287  0.812857  1
  Si  Si29  1  0.798966  0.545458  0.685971  1
  Si  Si30  1  0.204766  0.452007  0.189001  1
  Si  Si31  1  0.702147  0.047118  0.562718  1
  Si  Si32  1  0.952193  0.295551  0.936812  1
  Si  Si33  1  0.046476  0.703450  0.437037  1
  Ge  Ge34  1  0.206930  0.135187  0.672805  1
  Ge  Ge35  1  0.371407  0.703207  0.926002  1
