# generated using pymatgen
data_TbU7(B6W)4
_symmetry_space_group_name_H-M   'P 1'
_cell_length_a   3.68704100
_cell_length_b   9.29457637
_cell_length_c   11.38723645
_cell_angle_alpha   89.96764851
_cell_angle_beta   90.00000000
_cell_angle_gamma   90.00000000
_symmetry_Int_Tables_number   1
_chemical_formula_structural   TbU7(B6W)4
_chemical_formula_sum   'Tb1 U7 B24 W4'
_cell_volume   390.23465702
_cell_formula_units_Z   1
loop_
 _symmetry_equiv_pos_site_id
 _symmetry_equiv_pos_as_xyz
  1  'x, y, z'
loop_
 _atom_site_type_symbol
 _atom_site_label
 _atom_site_symmetry_multiplicity
 _atom_site_fract_x
 _atom_site_fract_y
 _atom_site_fract_z
 _atom_site_occupancy
  Tb  Tb0  1  0.000000  0.335058  0.407960  1
  U  U1  1  0.000000  0.664594  0.592198  1
  U  U2  1  0.000000  0.834345  0.092524  1
  U  U3  1  0.000000  0.165465  0.907496  1
  U  U4  1  0.000000  0.956541  0.394803  1
  U  U5  1  0.000000  0.044374  0.604890  1
  U  U6  1  0.000000  0.456192  0.105158  1
  U  U7  1  0.000000  0.543712  0.894926  1
  B  B8  1  0.500000  0.553047  0.433609  1
  B  B9  1  0.500000  0.451381  0.569059  1
  B  B10  1  0.500000  0.049572  0.066403  1
  B  B11  1  0.500000  0.949953  0.932889  1
  B  B12  1  0.500000  0.743441  0.424805  1
  B  B13  1  0.500000  0.255318  0.576993  1
  B  B14  1  0.500000  0.243746  0.075616  1
  B  B15  1  0.500000  0.756387  0.924205  1
  B  B16  1  0.500000  0.803889  0.272892  1
  B  B17  1  0.500000  0.196242  0.727595  1
  B  B18  1  0.500000  0.302747  0.224977  1
  B  B19  1  0.500000  0.696227  0.772437  1
  B  B20  1  0.500000  0.644433  0.187477  1
  B  B21  1  0.500000  0.355311  0.812879  1
  B  B22  1  0.500000  0.142658  0.311767  1
  B  B23  1  0.500000  0.855290  0.687434  1
  B  B24  1  0.500000  0.985669  0.218168  1
  B  B25  1  0.500000  0.014268  0.781351  1
  B  B26  1  0.500000  0.487818  0.280007  1
  B  B27  1  0.500000  0.515162  0.718360  1
  B  B28  1  0.500000  0.642207  0.039280  1
  B  B29  1  0.500000  0.358267  0.960826  1
  B  B30  1  0.500000  0.137426  0.461740  1
  B  B31  1  0.500000  0.857792  0.539730  1
  W  W32  1  0.000000  0.648485  0.319249  1
  W  W33  1  0.000000  0.355130  0.682749  1
  W  W34  1  0.000000  0.142946  0.177317  1
  W  W35  1  0.000000  0.854907  0.820229  1
