# generated using pymatgen
data_LiEr6Zn22Se
_symmetry_space_group_name_H-M   'P 1'
_cell_length_a   9.03972122
_cell_length_b   9.03972111
_cell_length_c   9.03972200
_cell_angle_alpha   59.99999673
_cell_angle_beta   59.99999716
_cell_angle_gamma   59.99999557
_symmetry_Int_Tables_number   1
_chemical_formula_structural   LiEr6Zn22Se
_chemical_formula_sum   'Li1 Er6 Zn22 Se1'
_cell_volume   522.33618375
_cell_formula_units_Z   1
loop_
 _symmetry_equiv_pos_site_id
 _symmetry_equiv_pos_as_xyz
  1  'x, y, z'
loop_
 _atom_site_type_symbol
 _atom_site_label
 _atom_site_symmetry_multiplicity
 _atom_site_fract_x
 _atom_site_fract_y
 _atom_site_fract_z
 _atom_site_occupancy
  Li  Li0  1  0.000000  0.000000  0.000000  1
  Er  Er1  1  0.716871  0.283129  0.283129  1
  Er  Er2  1  0.716871  0.283129  0.716871  1
  Er  Er3  1  0.716871  0.716871  0.283129  1
  Er  Er4  1  0.283129  0.716871  0.716871  1
  Er  Er5  1  0.283129  0.716871  0.283129  1
  Er  Er6  1  0.283129  0.283129  0.716871  1
  Zn  Zn7  1  0.623977  0.125342  0.125342  1
  Zn  Zn8  1  0.125342  0.623977  0.125342  1
  Zn  Zn9  1  0.125342  0.125342  0.623977  1
  Zn  Zn10  1  0.125342  0.125342  0.125342  1
  Zn  Zn11  1  0.376023  0.874658  0.874658  1
  Zn  Zn12  1  0.874658  0.376023  0.874658  1
  Zn  Zn13  1  0.874658  0.874658  0.376023  1
  Zn  Zn14  1  0.874658  0.874658  0.874658  1
  Zn  Zn15  1  0.500000  0.000000  0.000000  1
  Zn  Zn16  1  0.500000  0.000000  0.500000  1
  Zn  Zn17  1  0.500000  0.500000  0.000000  1
  Zn  Zn18  1  0.000000  0.500000  0.500000  1
  Zn  Zn19  1  0.000000  0.500000  0.000000  1
  Zn  Zn20  1  0.000000  0.000000  0.500000  1
  Zn  Zn21  1  0.011452  0.329516  0.329516  1
  Zn  Zn22  1  0.329516  0.011452  0.329516  1
  Zn  Zn23  1  0.329516  0.329516  0.011452  1
  Zn  Zn24  1  0.329516  0.329516  0.329516  1
  Zn  Zn25  1  0.988548  0.670484  0.670484  1
  Zn  Zn26  1  0.670484  0.988548  0.670484  1
  Zn  Zn27  1  0.670484  0.670484  0.988548  1
  Zn  Zn28  1  0.670484  0.670484  0.670484  1
  Se  Se29  1  0.500000  0.500000  0.500000  1
