# generated using pymatgen
data_Tm6Zr4AlSb5
_symmetry_space_group_name_H-M   'P 1'
_cell_length_a   8.69434000
_cell_length_b   8.71415584
_cell_length_c   5.96831300
_cell_angle_alpha   90.00000000
_cell_angle_beta   90.00000000
_cell_angle_gamma   119.92480574
_symmetry_Int_Tables_number   1
_chemical_formula_structural   Tm6Zr4AlSb5
_chemical_formula_sum   'Tm6 Zr4 Al1 Sb5'
_cell_volume   391.89771766
_cell_formula_units_Z   1
loop_
 _symmetry_equiv_pos_site_id
 _symmetry_equiv_pos_as_xyz
  1  'x, y, z'
loop_
 _atom_site_type_symbol
 _atom_site_label
 _atom_site_symmetry_multiplicity
 _atom_site_fract_x
 _atom_site_fract_y
 _atom_site_fract_z
 _atom_site_occupancy
  Tm  Tm0  1  0.249127  0.000000  0.250000  1
  Tm  Tm1  1  0.756431  0.000000  0.750000  1
  Tm  Tm2  1  0.991499  0.240108  0.250000  1
  Tm  Tm3  1  0.751391  0.759892  0.250000  1
  Tm  Tm4  1  0.247682  0.245605  0.750000  1
  Tm  Tm5  1  0.002076  0.754395  0.750000  1
  Zr  Zr6  1  0.336000  0.669762  0.002688  1
  Zr  Zr7  1  0.666238  0.330238  0.497312  1
  Zr  Zr8  1  0.666238  0.330238  0.002688  1
  Zr  Zr9  1  0.336000  0.669762  0.497312  1
  Al  Al10  1  0.598136  0.000000  0.250000  1
  Sb  Sb11  1  0.400420  0.000000  0.750000  1
  Sb  Sb12  1  0.998370  0.605756  0.250000  1
  Sb  Sb13  1  0.392613  0.394244  0.250000  1
  Sb  Sb14  1  0.605949  0.604121  0.750000  1
  Sb  Sb15  1  0.001828  0.395879  0.750000  1
