# generated using pymatgen
data_Ho5Er5(In2Bi)2
_symmetry_space_group_name_H-M   'P 1'
_cell_length_a   8.99651717
_cell_length_b   8.99452066
_cell_length_c   6.56843300
_cell_angle_alpha   90.00000000
_cell_angle_beta   90.00000000
_cell_angle_gamma   119.99265612
_symmetry_Int_Tables_number   1
_chemical_formula_structural   Ho5Er5(In2Bi)2
_chemical_formula_sum   'Ho5 Er5 In4 Bi2'
_cell_volume   460.33815913
_cell_formula_units_Z   1
loop_
 _symmetry_equiv_pos_site_id
 _symmetry_equiv_pos_as_xyz
  1  'x, y, z'
loop_
 _atom_site_type_symbol
 _atom_site_label
 _atom_site_symmetry_multiplicity
 _atom_site_fract_x
 _atom_site_fract_y
 _atom_site_fract_z
 _atom_site_occupancy
  Ho  Ho0  1  0.769889  0.760965  0.750000  1
  Ho  Ho1  1  0.230111  0.991076  0.750000  1
  Ho  Ho2  1  0.000000  0.241644  0.750000  1
  Ho  Ho3  1  0.236956  0.237435  0.250000  1
  Ho  Ho4  1  0.763044  0.000478  0.250000  1
  Er  Er5  1  0.670920  0.338224  0.006656  1
  Er  Er6  1  0.329080  0.667305  0.006656  1
  Er  Er7  1  0.329080  0.667305  0.493344  1
  Er  Er8  1  0.670920  0.338224  0.493344  1
  Er  Er9  1  0.000000  0.761536  0.250000  1
  In  In10  1  0.000000  0.597558  0.750000  1
  In  In11  1  0.604860  0.606668  0.250000  1
  In  In12  1  0.395140  0.001808  0.250000  1
  In  In13  1  0.000000  0.396065  0.250000  1
  Bi  Bi14  1  0.395304  0.394506  0.750000  1
  Bi  Bi15  1  0.604696  0.999202  0.750000  1
