# generated using pymatgen
data_Sm2YCoSn6
_symmetry_space_group_name_H-M   'P 1'
_cell_length_a   8.53748317
_cell_length_b   8.53748386
_cell_length_c   13.27714500
_cell_angle_alpha   90.00000000
_cell_angle_beta   90.00000000
_cell_angle_gamma   148.79264935
_symmetry_Int_Tables_number   1
_chemical_formula_structural   Sm2YCoSn6
_chemical_formula_sum   'Sm4 Y2 Co2 Sn12'
_cell_volume   501.42830355
_cell_formula_units_Z   2
loop_
 _symmetry_equiv_pos_site_id
 _symmetry_equiv_pos_as_xyz
  1  'x, y, z'
loop_
 _atom_site_type_symbol
 _atom_site_label
 _atom_site_symmetry_multiplicity
 _atom_site_fract_x
 _atom_site_fract_y
 _atom_site_fract_z
 _atom_site_occupancy
  Sm  Sm0  1  0.899758  0.100242  0.092158  1
  Sm  Sm1  1  0.100242  0.899758  0.592158  1
  Sm  Sm2  1  0.100242  0.899758  0.907842  1
  Sm  Sm3  1  0.899758  0.100242  0.407842  1
  Y  Y4  1  0.899659  0.100341  0.750000  1
  Y  Y5  1  0.100341  0.899659  0.250000  1
  Co  Co6  1  0.298056  0.701944  0.250000  1
  Co  Co7  1  0.701944  0.298056  0.750000  1
  Sn  Sn8  1  0.754758  0.245242  0.571794  1
  Sn  Sn9  1  0.428170  0.571830  0.578035  1
  Sn  Sn10  1  0.571830  0.428170  0.421965  1
  Sn  Sn11  1  0.733812  0.266188  0.250000  1
  Sn  Sn12  1  0.266188  0.733812  0.750000  1
  Sn  Sn13  1  0.245242  0.754758  0.071794  1
  Sn  Sn14  1  0.245242  0.754758  0.428206  1
  Sn  Sn15  1  0.571830  0.428170  0.078035  1
  Sn  Sn16  1  0.452969  0.547031  0.250000  1
  Sn  Sn17  1  0.547031  0.452969  0.750000  1
  Sn  Sn18  1  0.754758  0.245242  0.928206  1
  Sn  Sn19  1  0.428170  0.571830  0.921965  1
