# generated using pymatgen
data_HoTmZr4(SnRh)6
_symmetry_space_group_name_H-M   'P 1'
_cell_length_a   7.50593139
_cell_length_b   7.50572082
_cell_length_c   7.33039100
_cell_angle_alpha   90.00000000
_cell_angle_beta   90.00000000
_cell_angle_gamma   119.94501279
_symmetry_Int_Tables_number   1
_chemical_formula_structural   HoTmZr4(SnRh)6
_chemical_formula_sum   'Ho1 Tm1 Zr4 Sn6 Rh6'
_cell_volume   357.84515317
_cell_formula_units_Z   1
loop_
 _symmetry_equiv_pos_site_id
 _symmetry_equiv_pos_as_xyz
  1  'x, y, z'
loop_
 _atom_site_type_symbol
 _atom_site_label
 _atom_site_symmetry_multiplicity
 _atom_site_fract_x
 _atom_site_fract_y
 _atom_site_fract_z
 _atom_site_occupancy
  Ho  Ho0  1  0.404761  0.401183  0.250000  1
  Tm  Tm1  1  0.598431  0.001194  0.250000  1
  Zr  Zr2  1  0.607639  0.000804  0.750000  1
  Zr  Zr3  1  0.389369  0.396267  0.750000  1
  Zr  Zr4  1  0.003439  0.604813  0.750000  1
  Zr  Zr5  1  0.002442  0.601904  0.250000  1
  Sn  Sn6  1  0.268198  0.000162  0.993868  1
  Sn  Sn7  1  0.732982  0.731381  0.506561  1
  Sn  Sn8  1  0.998127  0.267836  0.496458  1
  Sn  Sn9  1  0.998127  0.267836  0.003542  1
  Sn  Sn10  1  0.732982  0.731381  0.993439  1
  Sn  Sn11  1  0.268198  0.000162  0.506132  1
  Rh  Rh12  1  0.669498  0.334893  0.972638  1
  Rh  Rh13  1  0.669498  0.334893  0.527362  1
  Rh  Rh14  1  0.329029  0.666350  0.982917  1
  Rh  Rh15  1  0.329029  0.666350  0.517083  1
  Rh  Rh16  1  0.999727  0.003528  0.750000  1
  Rh  Rh17  1  0.998528  0.989059  0.250000  1
