# generated using pymatgen
data_La2SmLu3Ta2O14
_symmetry_space_group_name_H-M   'P 1'
_cell_length_a   6.49139919
_cell_length_b   6.49511722
_cell_length_c   7.60668100
_cell_angle_alpha   90.00000000
_cell_angle_beta   90.00000000
_cell_angle_gamma   108.96168003
_symmetry_Int_Tables_number   1
_chemical_formula_structural   La2SmLu3Ta2O14
_chemical_formula_sum   'La2 Sm1 Lu3 Ta2 O14'
_cell_volume   303.31262235
_cell_formula_units_Z   1
loop_
 _symmetry_equiv_pos_site_id
 _symmetry_equiv_pos_as_xyz
  1  'x, y, z'
loop_
 _atom_site_type_symbol
 _atom_site_label
 _atom_site_symmetry_multiplicity
 _atom_site_fract_x
 _atom_site_fract_y
 _atom_site_fract_z
 _atom_site_occupancy
  La  La0  1  0.504397  0.503728  0.497753  1
  La  La1  1  0.504397  0.503728  0.002247  1
  Sm  Sm2  1  0.000690  0.465298  0.750000  1
  Lu  Lu3  1  0.527245  0.003199  0.750000  1
  Lu  Lu4  1  0.002138  0.531950  0.250000  1
  Lu  Lu5  1  0.470271  0.997959  0.250000  1
  Ta  Ta6  1  0.999982  0.000428  0.497482  1
  Ta  Ta7  1  0.999982  0.000428  0.002518  1
  O  O8  1  0.679594  0.938676  0.464386  1
  O  O9  1  0.926239  0.676283  0.522056  1
  O  O10  1  0.679594  0.938676  0.035614  1
  O  O11  1  0.926239  0.676283  0.977944  1
  O  O12  1  0.317394  0.060619  0.536789  1
  O  O13  1  0.067599  0.318065  0.459133  1
  O  O14  1  0.317394  0.060619  0.963211  1
  O  O15  1  0.067599  0.318065  0.040867  1
  O  O16  1  0.934719  0.059797  0.750000  1
  O  O17  1  0.071402  0.938135  0.250000  1
  O  O18  1  0.374269  0.648927  0.750000  1
  O  O19  1  0.641008  0.356900  0.250000  1
  O  O20  1  0.636838  0.351249  0.750000  1
  O  O21  1  0.351010  0.650988  0.250000  1
