# generated using pymatgen
data_Dy10Ga3Bi2Os
_symmetry_space_group_name_H-M   'P 1'
_cell_length_a   8.72166717
_cell_length_b   8.72166696
_cell_length_c   8.82780310
_cell_angle_alpha   125.49865827
_cell_angle_beta   125.49865523
_cell_angle_gamma   79.89220570
_symmetry_Int_Tables_number   1
_chemical_formula_structural   Dy10Ga3Bi2Os
_chemical_formula_sum   'Dy10 Ga3 Bi2 Os1'
_cell_volume   431.63305916
_cell_formula_units_Z   1
loop_
 _symmetry_equiv_pos_site_id
 _symmetry_equiv_pos_as_xyz
  1  'x, y, z'
loop_
 _atom_site_type_symbol
 _atom_site_label
 _atom_site_symmetry_multiplicity
 _atom_site_fract_x
 _atom_site_fract_y
 _atom_site_fract_z
 _atom_site_occupancy
  Dy  Dy0  1  0.006599  0.003810  0.010410  1
  Dy  Dy1  1  0.496190  0.493401  0.989590  1
  Dy  Dy2  1  0.783183  0.298539  0.799581  1
  Dy  Dy3  1  0.201461  0.716817  0.200419  1
  Dy  Dy4  1  0.483601  0.998956  0.200419  1
  Dy  Dy5  1  0.307854  0.458848  0.500000  1
  Dy  Dy6  1  0.041152  0.192146  0.500000  1
  Dy  Dy7  1  0.501044  0.016399  0.799581  1
  Dy  Dy8  1  0.705929  0.518869  0.500000  1
  Dy  Dy9  1  0.981131  0.794071  0.500000  1
  Ga  Ga10  1  0.140123  0.644163  0.784286  1
  Ga  Ga11  1  0.855837  0.359877  0.215714  1
  Ga  Ga12  1  0.633205  0.866795  0.500000  1
  Bi  Bi13  1  0.244233  0.255767  0.000000  1
  Bi  Bi14  1  0.744233  0.755767  0.000000  1
  Os  Os15  1  0.374228  0.125772  0.500000  1
