# generated using pymatgen
data_Y3Mg4PaIr4
_symmetry_space_group_name_H-M   'P 1'
_cell_length_a   4.06688800
_cell_length_b   7.08575631
_cell_length_c   8.66751166
_cell_angle_alpha   90.98018244
_cell_angle_beta   90.00000000
_cell_angle_gamma   90.00000000
_symmetry_Int_Tables_number   1
_chemical_formula_structural   Y3Mg4PaIr4
_chemical_formula_sum   'Y3 Mg4 Pa1 Ir4'
_cell_volume   249.73493834
_cell_formula_units_Z   1
loop_
 _symmetry_equiv_pos_site_id
 _symmetry_equiv_pos_as_xyz
  1  'x, y, z'
loop_
 _atom_site_type_symbol
 _atom_site_label
 _atom_site_symmetry_multiplicity
 _atom_site_fract_x
 _atom_site_fract_y
 _atom_site_fract_z
 _atom_site_occupancy
  Y  Y0  1  0.250000  0.463029  0.172681  1
  Y  Y1  1  0.750000  0.037636  0.678930  1
  Y  Y2  1  0.750000  0.542019  0.823202  1
  Mg  Mg3  1  0.250000  0.360428  0.562187  1
  Mg  Mg4  1  0.250000  0.869988  0.939861  1
  Mg  Mg5  1  0.750000  0.622908  0.440949  1
  Mg  Mg6  1  0.750000  0.142610  0.054349  1
  Pa  Pa7  1  0.250000  0.958834  0.322476  1
  Ir  Ir8  1  0.250000  0.259151  0.871101  1
  Ir  Ir9  1  0.250000  0.753833  0.615910  1
  Ir  Ir10  1  0.750000  0.766664  0.147176  1
  Ir  Ir11  1  0.750000  0.222898  0.371180  1
