# generated using pymatgen
data_Hf4Zr4Co11Si16Pd
_symmetry_space_group_name_H-M   'P 1'
_cell_length_a   5.24870202
_cell_length_b   6.79365841
_cell_length_c   13.81873254
_cell_angle_alpha   89.95768751
_cell_angle_beta   89.99700756
_cell_angle_gamma   89.86261018
_symmetry_Int_Tables_number   1
_chemical_formula_structural   Hf4Zr4Co11Si16Pd
_chemical_formula_sum   'Hf4 Zr4 Co11 Si16 Pd1'
_cell_volume   492.74527448
_cell_formula_units_Z   1
loop_
 _symmetry_equiv_pos_site_id
 _symmetry_equiv_pos_as_xyz
  1  'x, y, z'
loop_
 _atom_site_type_symbol
 _atom_site_label
 _atom_site_symmetry_multiplicity
 _atom_site_fract_x
 _atom_site_fract_y
 _atom_site_fract_z
 _atom_site_occupancy
  Hf  Hf0  1  0.230863  0.601204  0.354995  1
  Hf  Hf1  1  0.732761  0.898400  0.354877  1
  Hf  Hf2  1  0.265367  0.898913  0.852186  1
  Hf  Hf3  1  0.771270  0.602885  0.850176  1
  Zr  Zr4  1  0.234878  0.399803  0.150912  1
  Zr  Zr5  1  0.731118  0.100921  0.149645  1
  Zr  Zr6  1  0.269089  0.099200  0.644353  1
  Zr  Zr7  1  0.765743  0.400805  0.644177  1
  Co  Co8  1  0.507153  0.225018  0.479671  1
  Co  Co9  1  0.772562  0.996399  0.750541  1
  Co  Co10  1  0.490748  0.220284  0.980927  1
  Co  Co11  1  0.724307  0.503580  0.252994  1
  Co  Co12  1  0.495825  0.773153  0.517784  1
  Co  Co13  1  0.006548  0.274801  0.479714  1
  Co  Co14  1  0.004192  0.729530  0.018203  1
  Co  Co15  1  0.225902  0.996393  0.253754  1
  Co  Co16  1  0.277199  0.504337  0.751716  1
  Co  Co17  1  0.504787  0.774406  0.019473  1
  Co  Co18  1  0.995794  0.726084  0.517928  1
  Si  Si19  1  0.228223  0.011500  0.075022  1
  Si  Si20  1  0.719225  0.519389  0.431947  1
  Si  Si21  1  0.782418  0.018591  0.566506  1
  Si  Si22  1  0.481693  0.754651  0.189720  1
  Si  Si23  1  0.019630  0.253331  0.803047  1
  Si  Si24  1  0.517734  0.245858  0.812261  1
  Si  Si25  1  0.218996  0.980768  0.432474  1
  Si  Si26  1  0.294961  0.528295  0.931939  1
  Si  Si27  1  0.980685  0.745988  0.188655  1
  Si  Si28  1  0.710907  0.489594  0.072605  1
  Si  Si29  1  0.280937  0.480835  0.566675  1
  Si  Si30  1  0.481703  0.246208  0.313521  1
  Si  Si31  1  0.019697  0.746266  0.686195  1
  Si  Si32  1  0.766958  0.970257  0.928072  1
  Si  Si33  1  0.518723  0.754008  0.686418  1
  Si  Si34  1  0.980938  0.254053  0.313376  1
  Pd  Pd35  1  0.990470  0.274290  0.977537  1
