# generated using pymatgen
data_HoPaC2
_symmetry_space_group_name_H-M   'P 1'
_cell_length_a   6.17520191
_cell_length_b   6.17520276
_cell_length_c   6.17520193
_cell_angle_alpha   34.19692690
_cell_angle_beta   34.19691353
_cell_angle_gamma   34.19693028
_symmetry_Int_Tables_number   1
_chemical_formula_structural   HoPaC2
_chemical_formula_sum   'Ho1 Pa1 C2'
_cell_volume   66.32696282
_cell_formula_units_Z   1
loop_
 _symmetry_equiv_pos_site_id
 _symmetry_equiv_pos_as_xyz
  1  'x, y, z'
loop_
 _atom_site_type_symbol
 _atom_site_label
 _atom_site_symmetry_multiplicity
 _atom_site_fract_x
 _atom_site_fract_y
 _atom_site_fract_z
 _atom_site_occupancy
  Ho  Ho0  1  0.500000  0.500000  0.500000  1
  Pa  Pa1  1  0.000000  0.000000  0.000000  1
  C  C2  1  0.257447  0.257447  0.257447  1
  C  C3  1  0.742553  0.742553  0.742553  1
