# generated using pymatgen
data_Tm3Al2Ga3Ir
_symmetry_space_group_name_H-M   'P 1'
_cell_length_a   6.89571907
_cell_length_b   6.89571841
_cell_length_c   4.25605600
_cell_angle_alpha   90.00000000
_cell_angle_beta   90.00000000
_cell_angle_gamma   119.68820843
_symmetry_Int_Tables_number   1
_chemical_formula_structural   Tm3Al2Ga3Ir
_chemical_formula_sum   'Tm3 Al2 Ga3 Ir1'
_cell_volume   175.81380070
_cell_formula_units_Z   1
loop_
 _symmetry_equiv_pos_site_id
 _symmetry_equiv_pos_as_xyz
  1  'x, y, z'
loop_
 _atom_site_type_symbol
 _atom_site_label
 _atom_site_symmetry_multiplicity
 _atom_site_fract_x
 _atom_site_fract_y
 _atom_site_fract_z
 _atom_site_occupancy
  Tm  Tm0  1  0.586095  0.998989  0.000000  1
  Tm  Tm1  1  0.998989  0.586095  0.000000  1
  Tm  Tm2  1  0.416400  0.416400  0.000000  1
  Al  Al3  1  0.231820  0.002269  0.500000  1
  Al  Al4  1  0.002269  0.231820  0.500000  1
  Ga  Ga5  1  0.761647  0.761647  0.500000  1
  Ga  Ga6  1  0.329913  0.666476  0.500000  1
  Ga  Ga7  1  0.666476  0.329913  0.500000  1
  Ir  Ir8  1  0.006389  0.006389  0.000000  1
