# generated using pymatgen
data_CaCd2Sb4PbO14
_symmetry_space_group_name_H-M   'P 1'
_cell_length_a   7.43052976
_cell_length_b   7.43052995
_cell_length_c   7.48783919
_cell_angle_alpha   120.15453964
_cell_angle_beta   119.93205491
_cell_angle_gamma   89.48265805
_symmetry_Int_Tables_number   1
_chemical_formula_structural   CaCd2Sb4PbO14
_chemical_formula_sum   'Ca1 Cd2 Sb4 Pb1 O14'
_cell_volume   293.24923110
_cell_formula_units_Z   1
loop_
 _symmetry_equiv_pos_site_id
 _symmetry_equiv_pos_as_xyz
  1  'x, y, z'
loop_
 _atom_site_type_symbol
 _atom_site_label
 _atom_site_symmetry_multiplicity
 _atom_site_fract_x
 _atom_site_fract_y
 _atom_site_fract_z
 _atom_site_occupancy
  Ca  Ca0  1  0.000000  0.000000  0.500000  1
  Cd  Cd1  1  0.000000  0.000000  0.000000  1
  Cd  Cd2  1  0.500000  0.500000  0.000000  1
  Sb  Sb3  1  0.500000  0.000000  0.000000  1
  Sb  Sb4  1  0.500000  0.500000  0.500000  1
  Sb  Sb5  1  0.500000  0.000000  0.500000  1
  Sb  Sb6  1  0.000000  0.500000  0.500000  1
  Pb  Pb7  1  0.000000  0.500000  0.000000  1
  O  O8  1  0.439182  0.084964  0.764874  1
  O  O9  1  0.558131  0.323966  0.643495  1
  O  O10  1  0.180471  0.414636  0.356505  1
  O  O11  1  0.820089  0.174307  0.235126  1
  O  O12  1  0.560818  0.915036  0.235126  1
  O  O13  1  0.441869  0.676034  0.356505  1
  O  O14  1  0.819529  0.585364  0.643495  1
  O  O15  1  0.179911  0.825693  0.764874  1
  O  O16  1  0.599103  0.748757  0.847860  1
  O  O17  1  0.400897  0.251243  0.152140  1
  O  O18  1  0.175541  0.922258  0.273457  1
  O  O19  1  0.824459  0.077742  0.726543  1
  O  O20  1  0.851198  0.597916  0.273457  1
  O  O21  1  0.148802  0.402084  0.726543  1
