# generated using pymatgen
data_TmSc11Co5Sn
_symmetry_space_group_name_H-M   'P 1'
_cell_length_a   7.72794245
_cell_length_b   7.74219589
_cell_length_c   7.74219434
_cell_angle_alpha   106.38990959
_cell_angle_beta   111.28114905
_cell_angle_gamma   110.86743136
_symmetry_Int_Tables_number   1
_chemical_formula_structural   TmSc11Co5Sn
_chemical_formula_sum   'Tm1 Sc11 Co5 Sn1'
_cell_volume   355.44976298
_cell_formula_units_Z   1
loop_
 _symmetry_equiv_pos_site_id
 _symmetry_equiv_pos_as_xyz
  1  'x, y, z'
loop_
 _atom_site_type_symbol
 _atom_site_label
 _atom_site_symmetry_multiplicity
 _atom_site_fract_x
 _atom_site_fract_y
 _atom_site_fract_z
 _atom_site_occupancy
  Tm  Tm0  1  0.468585  0.282529  0.186056  1
  Sc  Sc1  1  0.093488  0.281671  0.811816  1
  Sc  Sc2  1  0.904662  0.719576  0.185087  1
  Sc  Sc3  1  0.534140  0.719622  0.814517  1
  Sc  Sc4  1  0.302761  0.618941  0.314473  1
  Sc  Sc5  1  0.302761  0.988289  0.683820  1
  Sc  Sc6  1  0.697982  0.383785  0.689684  1
  Sc  Sc7  1  0.697982  0.008297  0.314196  1
  Sc  Sc8  1  0.193733  0.216659  0.415102  1
  Sc  Sc9  1  0.807135  0.785780  0.590152  1
  Sc  Sc10  1  0.193733  0.778630  0.977073  1
  Sc  Sc11  1  0.807135  0.216984  0.021356  1
  Co  Co12  1  0.498822  0.620656  0.115552  1
  Co  Co13  1  0.498822  0.383269  0.878166  1
  Co  Co14  1  0.362703  0.996861  0.365841  1
  Co  Co15  1  0.636322  0.000938  0.635384  1
  Co  Co16  1  0.996404  0.996431  0.999972  1
  Sn  Sn17  1  0.002832  0.501081  0.501751  1
