# generated using pymatgen
data_Ho8Lu2Sn5Bi
_symmetry_space_group_name_H-M   'P 1'
_cell_length_a   8.94008400
_cell_length_b   8.93190081
_cell_length_c   6.45646124
_cell_angle_alpha   89.97327371
_cell_angle_beta   90.00000000
_cell_angle_gamma   120.03031147
_symmetry_Int_Tables_number   1
_chemical_formula_structural   Ho8Lu2Sn5Bi
_chemical_formula_sum   'Ho8 Lu2 Sn5 Bi1'
_cell_volume   446.35240192
_cell_formula_units_Z   1
loop_
 _symmetry_equiv_pos_site_id
 _symmetry_equiv_pos_as_xyz
  1  'x, y, z'
loop_
 _atom_site_type_symbol
 _atom_site_label
 _atom_site_symmetry_multiplicity
 _atom_site_fract_x
 _atom_site_fract_y
 _atom_site_fract_z
 _atom_site_occupancy
  Ho  Ho0  1  0.994481  0.757470  0.749977  1
  Ho  Ho1  1  0.000442  0.239222  0.249942  1
  Ho  Ho2  1  0.761220  0.760778  0.250058  1
  Ho  Ho3  1  0.764781  0.000000  0.750000  1
  Ho  Ho4  1  0.237011  0.242530  0.750023  1
  Ho  Ho5  1  0.237749  0.000000  0.250000  1
  Ho  Ho6  1  0.669880  0.337330  0.498370  1
  Ho  Ho7  1  0.332548  0.662670  0.001630  1
  Lu  Lu8  1  0.332472  0.662378  0.498187  1
  Lu  Lu9  1  0.670095  0.337622  0.001813  1
  Sn  Sn10  1  0.395963  0.394576  0.249990  1
  Sn  Sn11  1  0.001387  0.605424  0.250010  1
  Sn  Sn12  1  0.999545  0.396275  0.750035  1
  Sn  Sn13  1  0.603270  0.603725  0.749965  1
  Sn  Sn14  1  0.604852  0.000000  0.250000  1
  Bi  Bi15  1  0.394303  0.000000  0.750000  1
