# generated using pymatgen
data_NdSm2In3Ga2Pt
_symmetry_space_group_name_H-M   'P 1'
_cell_length_a   7.40473152
_cell_length_b   7.39024628
_cell_length_c   4.48990500
_cell_angle_alpha   90.00000000
_cell_angle_beta   90.00000000
_cell_angle_gamma   119.93531421
_symmetry_Int_Tables_number   1
_chemical_formula_structural   NdSm2In3Ga2Pt
_chemical_formula_sum   'Nd1 Sm2 In3 Ga2 Pt1'
_cell_volume   212.92111084
_cell_formula_units_Z   1
loop_
 _symmetry_equiv_pos_site_id
 _symmetry_equiv_pos_as_xyz
  1  'x, y, z'
loop_
 _atom_site_type_symbol
 _atom_site_label
 _atom_site_symmetry_multiplicity
 _atom_site_fract_x
 _atom_site_fract_y
 _atom_site_fract_z
 _atom_site_occupancy
  Nd  Nd0  1  0.000000  0.591898  0.500000  1
  Sm  Sm1  1  0.406635  0.406257  0.500000  1
  Sm  Sm2  1  0.593365  0.999621  0.500000  1
  In  In3  1  0.751701  0.752112  0.000000  1
  In  In4  1  0.248299  0.000411  0.000000  1
  In  In5  1  0.000000  0.247631  0.000000  1
  Ga  Ga6  1  0.664529  0.331866  0.000000  1
  Ga  Ga7  1  0.335471  0.667338  0.000000  1
  Pt  Pt8  1  0.000000  0.002864  0.500000  1
