# generated using pymatgen
data_TbY2Mg3CuGe2
_symmetry_space_group_name_H-M   'P 1'
_cell_length_a   7.24151281
_cell_length_b   7.23265068
_cell_length_c   4.27354500
_cell_angle_alpha   90.00000000
_cell_angle_beta   90.00000000
_cell_angle_gamma   119.95951720
_symmetry_Int_Tables_number   1
_chemical_formula_structural   TbY2Mg3CuGe2
_chemical_formula_sum   'Tb1 Y2 Mg3 Cu1 Ge2'
_cell_volume   193.92005440
_cell_formula_units_Z   1
loop_
 _symmetry_equiv_pos_site_id
 _symmetry_equiv_pos_as_xyz
  1  'x, y, z'
loop_
 _atom_site_type_symbol
 _atom_site_label
 _atom_site_symmetry_multiplicity
 _atom_site_fract_x
 _atom_site_fract_y
 _atom_site_fract_z
 _atom_site_occupancy
  Tb  Tb0  1  0.000000  0.585884  0.000000  1
  Y  Y1  1  0.585708  0.999783  0.000000  1
  Y  Y2  1  0.414292  0.414075  0.000000  1
  Mg  Mg3  1  0.000000  0.240816  0.500000  1
  Mg  Mg4  1  0.758939  0.759096  0.500000  1
  Mg  Mg5  1  0.241061  0.000157  0.500000  1
  Cu  Cu6  1  0.000000  0.000054  0.000000  1
  Ge  Ge7  1  0.333351  0.666743  0.500000  1
  Ge  Ge8  1  0.666649  0.333392  0.500000  1
