# generated using pymatgen
data_Ho2Th(SnRh)3
_symmetry_space_group_name_H-M   'P 1'
_cell_length_a   7.57294776
_cell_length_b   7.65501349
_cell_length_c   3.91335300
_cell_angle_alpha   90.00000000
_cell_angle_beta   90.00000000
_cell_angle_gamma   120.35913272
_symmetry_Int_Tables_number   1
_chemical_formula_structural   Ho2Th(SnRh)3
_chemical_formula_sum   'Ho2 Th1 Sn3 Rh3'
_cell_volume   195.75259338
_cell_formula_units_Z   1
loop_
 _symmetry_equiv_pos_site_id
 _symmetry_equiv_pos_as_xyz
  1  'x, y, z'
loop_
 _atom_site_type_symbol
 _atom_site_label
 _atom_site_symmetry_multiplicity
 _atom_site_fract_x
 _atom_site_fract_y
 _atom_site_fract_z
 _atom_site_occupancy
  Ho  Ho0  1  0.594345  0.593841  0.000000  1
  Ho  Ho1  1  0.405655  0.999496  0.000000  1
  Th  Th2  1  0.000000  0.412872  0.000000  1
  Sn  Sn3  1  0.269643  0.258140  0.500000  1
  Sn  Sn4  1  0.000000  0.753513  0.500000  1
  Sn  Sn5  1  0.730357  0.988497  0.500000  1
  Rh  Rh6  1  0.680638  0.333475  0.500000  1
  Rh  Rh7  1  0.319362  0.652838  0.500000  1
  Rh  Rh8  1  0.000000  0.007328  0.000000  1
