# generated using pymatgen
data_Hf2Zr2Mn3Si4Au
_symmetry_space_group_name_H-M   'P 1'
_cell_length_a   3.78974600
_cell_length_b   6.60402625
_cell_length_c   7.66618389
_cell_angle_alpha   89.72916545
_cell_angle_beta   90.00000000
_cell_angle_gamma   90.00000000
_symmetry_Int_Tables_number   1
_chemical_formula_structural   Hf2Zr2Mn3Si4Au
_chemical_formula_sum   'Hf2 Zr2 Mn3 Si4 Au1'
_cell_volume   191.86390298
_cell_formula_units_Z   1
loop_
 _symmetry_equiv_pos_site_id
 _symmetry_equiv_pos_as_xyz
  1  'x, y, z'
loop_
 _atom_site_type_symbol
 _atom_site_label
 _atom_site_symmetry_multiplicity
 _atom_site_fract_x
 _atom_site_fract_y
 _atom_site_fract_z
 _atom_site_occupancy
  Hf  Hf0  1  0.250000  0.968141  0.318498  1
  Hf  Hf1  1  0.250000  0.477272  0.174483  1
  Zr  Zr2  1  0.750000  0.022524  0.682882  1
  Zr  Zr3  1  0.750000  0.530222  0.829173  1
  Mn  Mn4  1  0.250000  0.863121  0.939254  1
  Mn  Mn5  1  0.750000  0.648196  0.434718  1
  Mn  Mn6  1  0.750000  0.136019  0.061653  1
  Si  Si7  1  0.250000  0.738814  0.629217  1
  Si  Si8  1  0.250000  0.225713  0.889816  1
  Si  Si9  1  0.750000  0.264322  0.358379  1
  Si  Si10  1  0.750000  0.771560  0.121078  1
  Au  Au11  1  0.250000  0.354094  0.560849  1
