# generated using pymatgen
data_Eu10Si5Pb
_symmetry_space_group_name_H-M   'P 1'
_cell_length_a   9.44636750
_cell_length_b   9.44636781
_cell_length_c   9.44636706
_cell_angle_alpha   130.49544741
_cell_angle_beta   130.49544234
_cell_angle_gamma   72.61594586
_symmetry_Int_Tables_number   1
_chemical_formula_structural   Eu10Si5Pb
_chemical_formula_sum   'Eu10 Si5 Pb1'
_cell_volume   476.32544243
_cell_formula_units_Z   1
loop_
 _symmetry_equiv_pos_site_id
 _symmetry_equiv_pos_as_xyz
  1  'x, y, z'
loop_
 _atom_site_type_symbol
 _atom_site_label
 _atom_site_symmetry_multiplicity
 _atom_site_fract_x
 _atom_site_fract_y
 _atom_site_fract_z
 _atom_site_occupancy
  Eu  Eu0  1  0.806775  0.327630  0.853448  1
  Eu  Eu1  1  0.474183  0.953326  0.146553  1
  Eu  Eu2  1  0.693226  0.546674  0.520856  1
  Eu  Eu3  1  0.025817  0.172370  0.479144  1
  Eu  Eu4  1  0.172370  0.693226  0.146553  1
  Eu  Eu5  1  0.546675  0.025817  0.853448  1
  Eu  Eu6  1  0.953326  0.806773  0.479144  1
  Eu  Eu7  1  0.327630  0.474183  0.520856  1
  Eu  Eu8  1  0.011309  0.011309  0.000000  1
  Eu  Eu9  1  0.488691  0.488691  0.000000  1
  Si  Si10  1  0.750000  0.750000  0.000000  1
  Si  Si11  1  0.889582  0.389582  0.279165  1
  Si  Si12  1  0.110418  0.610417  0.720833  1
  Si  Si13  1  0.610418  0.889582  0.500000  1
  Si  Si14  1  0.389582  0.110418  0.500000  1
  Pb  Pb15  1  0.250000  0.250000  0.000000  1
