# generated using pymatgen
data_Ho9Er3CoTc3
_symmetry_space_group_name_H-M   'P 1'
_cell_length_a   6.25332048
_cell_length_b   7.30149569
_cell_length_c   9.11174617
_cell_angle_alpha   90.00678534
_cell_angle_beta   90.07868349
_cell_angle_gamma   90.15258952
_symmetry_Int_Tables_number   1
_chemical_formula_structural   Ho9Er3CoTc3
_chemical_formula_sum   'Ho9 Er3 Co1 Tc3'
_cell_volume   416.02763493
_cell_formula_units_Z   1
loop_
 _symmetry_equiv_pos_site_id
 _symmetry_equiv_pos_as_xyz
  1  'x, y, z'
loop_
 _atom_site_type_symbol
 _atom_site_label
 _atom_site_symmetry_multiplicity
 _atom_site_fract_x
 _atom_site_fract_y
 _atom_site_fract_z
 _atom_site_occupancy
  Ho  Ho0  1  0.372760  0.540429  0.249832  1
  Ho  Ho1  1  0.125840  0.040961  0.249749  1
  Ho  Ho2  1  0.164461  0.327148  0.564943  1
  Ho  Ho3  1  0.662161  0.175971  0.438226  1
  Ho  Ho4  1  0.164597  0.326664  0.935035  1
  Ho  Ho5  1  0.332751  0.821190  0.563785  1
  Ho  Ho6  1  0.875111  0.951131  0.750257  1
  Ho  Ho7  1  0.641570  0.458260  0.750115  1
  Ho  Ho8  1  0.831405  0.678100  0.064150  1
  Er  Er9  1  0.661952  0.175632  0.061275  1
  Er  Er10  1  0.831331  0.677678  0.435853  1
  Er  Er11  1  0.333146  0.821849  0.936781  1
  Co  Co12  1  0.039192  0.616452  0.749644  1
  Tc  Tc13  1  0.959787  0.388636  0.249888  1
  Tc  Tc14  1  0.464732  0.113503  0.750666  1
  Tc  Tc15  1  0.539206  0.886398  0.249802  1
