# generated using pymatgen
data_TiAl2CuRh4
_symmetry_space_group_name_H-M   'P 1'
_cell_length_a   6.03986264
_cell_length_b   6.04476361
_cell_length_c   6.04348914
_cell_angle_alpha   89.98425992
_cell_angle_beta   89.98110562
_cell_angle_gamma   89.95100293
_symmetry_Int_Tables_number   1
_chemical_formula_structural   TiAl2CuRh4
_chemical_formula_sum   'Ti2 Al4 Cu2 Rh8'
_cell_volume   220.64491871
_cell_formula_units_Z   2
loop_
 _symmetry_equiv_pos_site_id
 _symmetry_equiv_pos_as_xyz
  1  'x, y, z'
loop_
 _atom_site_type_symbol
 _atom_site_label
 _atom_site_symmetry_multiplicity
 _atom_site_fract_x
 _atom_site_fract_y
 _atom_site_fract_z
 _atom_site_occupancy
  Ti  Ti0  1  0.250000  0.750001  0.500005  1
  Ti  Ti1  1  0.750001  0.249999  0.499995  1
  Al  Al2  1  0.250014  0.250006  0.999996  1
  Al  Al3  1  0.749985  0.749995  0.000004  1
  Al  Al4  1  0.749999  0.750000  0.499995  1
  Al  Al5  1  0.250002  0.250001  0.500005  1
  Cu  Cu6  1  0.749995  0.250003  0.000006  1
  Cu  Cu7  1  0.250004  0.749997  0.999994  1
  Rh  Rh8  1  0.999974  0.999968  0.248741  1
  Rh  Rh9  1  0.000026  0.500032  0.248796  1
  Rh  Rh10  1  0.500010  0.000032  0.248785  1
  Rh  Rh11  1  0.499962  0.499972  0.248736  1
  Rh  Rh12  1  0.499990  0.999968  0.751215  1
  Rh  Rh13  1  0.500038  0.500028  0.751264  1
  Rh  Rh14  1  0.000026  0.000032  0.751259  1
  Rh  Rh15  1  0.999974  0.499968  0.751204  1
