# generated using pymatgen
data_Tb3Dy(Fe2Br)2
_symmetry_space_group_name_H-M   'P 1'
_cell_length_a   3.91771500
_cell_length_b   3.91771500
_cell_length_c   16.60943300
_cell_angle_alpha   90.00000000
_cell_angle_beta   90.00000000
_cell_angle_gamma   119.99999158
_symmetry_Int_Tables_number   1
_chemical_formula_structural   Tb3Dy(Fe2Br)2
_chemical_formula_sum   'Tb3 Dy1 Fe4 Br2'
_cell_volume   220.77564087
_cell_formula_units_Z   1
loop_
 _symmetry_equiv_pos_site_id
 _symmetry_equiv_pos_as_xyz
  1  'x, y, z'
loop_
 _atom_site_type_symbol
 _atom_site_label
 _atom_site_symmetry_multiplicity
 _atom_site_fract_x
 _atom_site_fract_y
 _atom_site_fract_z
 _atom_site_occupancy
  Tb  Tb0  1  0.000000  0.000000  0.110352  1
  Tb  Tb1  1  0.000000  0.000000  0.889986  1
  Tb  Tb2  1  0.000000  0.000000  0.609268  1
  Dy  Dy3  1  0.000000  0.000000  0.390749  1
  Fe  Fe4  1  0.333333  0.666667  0.505260  1
  Fe  Fe5  1  0.666667  0.333333  0.493640  1
  Fe  Fe6  1  0.666667  0.333333  0.005494  1
  Fe  Fe7  1  0.333333  0.666667  0.994833  1
  Br  Br8  1  0.333333  0.666667  0.250711  1
  Br  Br9  1  0.666667  0.333333  0.749708  1
