# generated using pymatgen
data_Yb3Sn3HgIrPt
_symmetry_space_group_name_H-M   'P 1'
_cell_length_a   7.71304500
_cell_length_b   7.71304533
_cell_length_c   3.99776000
_cell_angle_alpha   90.00000000
_cell_angle_beta   90.00000000
_cell_angle_gamma   120.00000288
_symmetry_Int_Tables_number   1
_chemical_formula_structural   Yb3Sn3HgIrPt
_chemical_formula_sum   'Yb3 Sn3 Hg1 Ir1 Pt1'
_cell_volume   205.96768425
_cell_formula_units_Z   1
loop_
 _symmetry_equiv_pos_site_id
 _symmetry_equiv_pos_as_xyz
  1  'x, y, z'
loop_
 _atom_site_type_symbol
 _atom_site_label
 _atom_site_symmetry_multiplicity
 _atom_site_fract_x
 _atom_site_fract_y
 _atom_site_fract_z
 _atom_site_occupancy
  Yb  Yb0  1  0.981816  0.395717  0.500000  1
  Yb  Yb1  1  0.604283  0.586099  0.500000  1
  Yb  Yb2  1  0.413901  0.018184  0.500000  1
  Sn  Sn3  1  0.989163  0.744251  0.000000  1
  Sn  Sn4  1  0.255749  0.244910  0.000000  1
  Sn  Sn5  1  0.755090  0.010837  0.000000  1
  Hg  Hg6  1  0.333333  0.666667  0.000000  1
  Ir  Ir7  1  0.000000  0.000000  0.500000  1
  Pt  Pt8  1  0.666667  0.333333  0.000000  1
