# generated using pymatgen
data_Na2AgP2O7
_symmetry_space_group_name_H-M   'P 1'
_cell_length_a   5.97703911
_cell_length_b   9.03787541
_cell_length_c   8.49200496
_cell_angle_alpha   125.22113551
_cell_angle_beta   90.00675977
_cell_angle_gamma   109.32339976
_symmetry_Int_Tables_number   1
_chemical_formula_structural   Na2AgP2O7
_chemical_formula_sum   'Na4 Ag2 P4 O14'
_cell_volume   342.62332676
_cell_formula_units_Z   2
loop_
 _symmetry_equiv_pos_site_id
 _symmetry_equiv_pos_as_xyz
  1  'x, y, z'
loop_
 _atom_site_type_symbol
 _atom_site_label
 _atom_site_symmetry_multiplicity
 _atom_site_fract_x
 _atom_site_fract_y
 _atom_site_fract_z
 _atom_site_occupancy
  Na  Na0  1  0.591513  0.970285  0.164557  1
  Na  Na1  1  0.121276  0.029908  0.335554  1
  Na  Na2  1  0.878725  0.970092  0.664446  1
  Na  Na3  1  0.408487  0.029715  0.835443  1
  Ag  Ag4  1  0.499999  0.499999  0.000000  1
  Ag  Ag5  1  0.499999  0.499999  0.499999  1
  P  P6  1  0.046347  0.282468  0.131523  1
  P  P7  1  0.263825  0.717537  0.368489  1
  P  P8  1  0.736176  0.282463  0.631512  1
  P  P9  1  0.953653  0.717532  0.868477  1
  O  O10  1  0.206468  0.260325  0.980826  1
  O  O11  1  0.785159  0.130680  0.026293  1
  O  O12  1  0.381724  0.724697  0.209461  1
  O  O13  1  0.039251  0.499904  0.249797  1
  O  O14  1  0.156601  0.275419  0.290710  1
  O  O15  1  0.154367  0.869040  0.473293  1
  O  O16  1  0.445821  0.739679  0.519391  1
  O  O17  1  0.554180  0.260321  0.480610  1
  O  O18  1  0.845633  0.130960  0.526708  1
  O  O19  1  0.843400  0.724581  0.709290  1
  O  O20  1  0.960749  0.500096  0.750202  1
  O  O21  1  0.618277  0.275303  0.790539  1
  O  O22  1  0.214841  0.869320  0.973708  1
  O  O23  1  0.793533  0.739675  0.019175  1
