# generated using pymatgen
data_HoLu9AlSb5
_symmetry_space_group_name_H-M   'P 1'
_cell_length_a   8.75274175
_cell_length_b   8.76395160
_cell_length_c   6.25070800
_cell_angle_alpha   90.00000000
_cell_angle_beta   90.00000000
_cell_angle_gamma   120.08886677
_symmetry_Int_Tables_number   1
_chemical_formula_structural   HoLu9AlSb5
_chemical_formula_sum   'Ho1 Lu9 Al1 Sb5'
_cell_volume   414.87219481
_cell_formula_units_Z   1
loop_
 _symmetry_equiv_pos_site_id
 _symmetry_equiv_pos_as_xyz
  1  'x, y, z'
loop_
 _atom_site_type_symbol
 _atom_site_label
 _atom_site_symmetry_multiplicity
 _atom_site_fract_x
 _atom_site_fract_y
 _atom_site_fract_z
 _atom_site_occupancy
  Ho  Ho0  1  0.245107  0.235604  0.750000  1
  Lu  Lu1  1  0.334733  0.673512  0.998115  1
  Lu  Lu2  1  0.661167  0.326395  0.501790  1
  Lu  Lu3  1  0.661167  0.326395  0.998210  1
  Lu  Lu4  1  0.334733  0.673512  0.501885  1
  Lu  Lu5  1  0.753177  0.999910  0.750000  1
  Lu  Lu6  1  0.756934  0.757995  0.250000  1
  Lu  Lu7  1  0.998578  0.242398  0.250000  1
  Lu  Lu8  1  0.010222  0.764612  0.750000  1
  Lu  Lu9  1  0.241429  0.999676  0.250000  1
  Al  Al10  1  0.398064  0.998759  0.750000  1
  Sb  Sb11  1  0.390762  0.394368  0.250000  1
  Sb  Sb12  1  0.996217  0.605495  0.250000  1
  Sb  Sb13  1  0.000354  0.391690  0.750000  1
  Sb  Sb14  1  0.611782  0.609527  0.750000  1
  Sb  Sb15  1  0.605574  0.000150  0.250000  1
