# generated using pymatgen
data_Ho3Lu(InGa2)2
_symmetry_space_group_name_H-M   'P 1'
_cell_length_a   7.17970432
_cell_length_b   7.17970432
_cell_length_c   4.40828000
_cell_angle_alpha   90.00000000
_cell_angle_beta   90.00000000
_cell_angle_gamma   89.64566072
_symmetry_Int_Tables_number   1
_chemical_formula_structural   Ho3Lu(InGa2)2
_chemical_formula_sum   'Ho3 Lu1 In2 Ga4'
_cell_volume   227.23435162
_cell_formula_units_Z   1
loop_
 _symmetry_equiv_pos_site_id
 _symmetry_equiv_pos_as_xyz
  1  'x, y, z'
loop_
 _atom_site_type_symbol
 _atom_site_label
 _atom_site_symmetry_multiplicity
 _atom_site_fract_x
 _atom_site_fract_y
 _atom_site_fract_z
 _atom_site_occupancy
  Ho  Ho0  1  0.672010  0.171556  0.500000  1
  Ho  Ho1  1  0.328444  0.827990  0.500000  1
  Ho  Ho2  1  0.170986  0.329014  0.500000  1
  Lu  Lu3  1  0.828534  0.671466  0.500000  1
  In  In4  1  0.500429  0.500428  0.000000  1
  In  In5  1  0.999572  0.999571  0.000000  1
  Ga  Ga6  1  0.125540  0.626903  0.000000  1
  Ga  Ga7  1  0.873097  0.374460  0.000000  1
  Ga  Ga8  1  0.627991  0.872009  0.000000  1
  Ga  Ga9  1  0.373398  0.126602  0.000000  1
