# generated using pymatgen
data_Ba2BeReN4
_symmetry_space_group_name_H-M   'P 1'
_cell_length_a   5.85334000
_cell_length_b   6.55396981
_cell_length_c   7.78716749
_cell_angle_alpha   65.86257511
_cell_angle_beta   90.00000000
_cell_angle_gamma   90.00000000
_symmetry_Int_Tables_number   1
_chemical_formula_structural   Ba2BeReN4
_chemical_formula_sum   'Ba4 Be2 Re2 N8'
_cell_volume   272.61678405
_cell_formula_units_Z   2
loop_
 _symmetry_equiv_pos_site_id
 _symmetry_equiv_pos_as_xyz
  1  'x, y, z'
loop_
 _atom_site_type_symbol
 _atom_site_label
 _atom_site_symmetry_multiplicity
 _atom_site_fract_x
 _atom_site_fract_y
 _atom_site_fract_z
 _atom_site_occupancy
  Ba  Ba0  1  0.250000  0.259212  0.051465  1
  Ba  Ba1  1  0.750000  0.740788  0.948535  1
  Ba  Ba2  1  0.750000  0.853000  0.407124  1
  Ba  Ba3  1  0.250000  0.147000  0.592876  1
  Be  Be4  1  0.750000  0.373761  0.393145  1
  Be  Be5  1  0.250000  0.626239  0.606855  1
  Re  Re6  1  0.250000  0.676267  0.235161  1
  Re  Re7  1  0.750000  0.323733  0.764839  1
  N  N8  1  0.485030  0.494933  0.708024  1
  N  N9  1  0.985030  0.505067  0.291976  1
  N  N10  1  0.514970  0.505067  0.291976  1
  N  N11  1  0.014970  0.494933  0.708024  1
  N  N12  1  0.750000  0.153534  0.610288  1
  N  N13  1  0.250000  0.846466  0.389712  1
  N  N14  1  0.750000  0.138912  0.012598  1
  N  N15  1  0.250000  0.861088  0.987402  1
