# generated using pymatgen
data_Sm3Th(Pt2Pb)2
_symmetry_space_group_name_H-M   'P 1'
_cell_length_a   8.13052357
_cell_length_b   8.13052357
_cell_length_c   3.68281100
_cell_angle_alpha   90.00000000
_cell_angle_beta   90.00000000
_cell_angle_gamma   88.88836099
_symmetry_Int_Tables_number   1
_chemical_formula_structural   Sm3Th(Pt2Pb)2
_chemical_formula_sum   'Sm3 Th1 Pt4 Pb2'
_cell_volume   243.40792389
_cell_formula_units_Z   1
loop_
 _symmetry_equiv_pos_site_id
 _symmetry_equiv_pos_as_xyz
  1  'x, y, z'
loop_
 _atom_site_type_symbol
 _atom_site_label
 _atom_site_symmetry_multiplicity
 _atom_site_fract_x
 _atom_site_fract_y
 _atom_site_fract_z
 _atom_site_occupancy
  Sm  Sm0  1  0.830263  0.332328  0.500000  1
  Sm  Sm1  1  0.167672  0.669738  0.500000  1
  Sm  Sm2  1  0.671910  0.828091  0.500000  1
  Th  Th3  1  0.331915  0.168085  0.500000  1
  Pt  Pt4  1  0.622244  0.129522  0.000000  1
  Pt  Pt5  1  0.131809  0.368191  0.000000  1
  Pt  Pt6  1  0.876067  0.623934  0.000000  1
  Pt  Pt7  1  0.370478  0.877757  0.000000  1
  Pb  Pb8  1  0.994722  0.997078  0.000000  1
  Pb  Pb9  1  0.502922  0.505278  0.000000  1
