# generated using pymatgen
data_Ti2GaPtRh4
_symmetry_space_group_name_H-M   'P 1'
_cell_length_a   4.00651100
_cell_length_b   5.43302164
_cell_length_c   10.71979558
_cell_angle_alpha   90.77516705
_cell_angle_beta   90.00000000
_cell_angle_gamma   90.00000000
_symmetry_Int_Tables_number   1
_chemical_formula_structural   Ti2GaPtRh4
_chemical_formula_sum   'Ti4 Ga2 Pt2 Rh8'
_cell_volume   233.32137681
_cell_formula_units_Z   2
loop_
 _symmetry_equiv_pos_site_id
 _symmetry_equiv_pos_as_xyz
  1  'x, y, z'
loop_
 _atom_site_type_symbol
 _atom_site_label
 _atom_site_symmetry_multiplicity
 _atom_site_fract_x
 _atom_site_fract_y
 _atom_site_fract_z
 _atom_site_occupancy
  Ti  Ti0  1  0.500000  0.324104  0.137048  1
  Ti  Ti1  1  0.500000  0.675896  0.862952  1
  Ti  Ti2  1  0.500000  0.808710  0.363912  1
  Ti  Ti3  1  0.500000  0.191290  0.636088  1
  Ga  Ga4  1  0.000000  0.000000  0.000000  1
  Ga  Ga5  1  0.000000  0.500000  0.500000  1
  Pt  Pt6  1  0.000000  0.063561  0.246034  1
  Pt  Pt7  1  0.000000  0.936439  0.753966  1
  Rh  Rh8  1  0.000000  0.000000  0.500000  1
  Rh  Rh9  1  0.000000  0.500000  0.000000  1
  Rh  Rh10  1  0.000000  0.563643  0.255034  1
  Rh  Rh11  1  0.000000  0.436357  0.744966  1
  Rh  Rh12  1  0.500000  0.300036  0.387432  1
  Rh  Rh13  1  0.500000  0.699964  0.612568  1
  Rh  Rh14  1  0.500000  0.802242  0.111001  1
  Rh  Rh15  1  0.500000  0.197758  0.888999  1
