# generated using pymatgen
data_Y2Ho6In3Os
_symmetry_space_group_name_H-M   'P 1'
_cell_length_a   10.34809200
_cell_length_b   10.35498883
_cell_length_c   7.08800967
_cell_angle_alpha   89.95659137
_cell_angle_beta   90.00000000
_cell_angle_gamma   119.97797642
_symmetry_Int_Tables_number   1
_chemical_formula_structural   Y2Ho6In3Os
_chemical_formula_sum   'Y4 Ho12 In6 Os2'
_cell_volume   657.90171823
_cell_formula_units_Z   2
loop_
 _symmetry_equiv_pos_site_id
 _symmetry_equiv_pos_as_xyz
  1  'x, y, z'
loop_
 _atom_site_type_symbol
 _atom_site_label
 _atom_site_symmetry_multiplicity
 _atom_site_fract_x
 _atom_site_fract_y
 _atom_site_fract_z
 _atom_site_occupancy
  Y  Y0  1  0.532679  0.065356  0.507525  1
  Y  Y1  1  0.934833  0.467439  0.507474  1
  Y  Y2  1  0.532607  0.467439  0.507474  1
  Y  Y3  1  0.467361  0.934722  0.007437  1
  Ho  Ho4  1  0.066468  0.533251  0.006971  1
  Ho  Ho5  1  0.466782  0.533251  0.006971  1
  Ho  Ho6  1  0.177137  0.354273  0.713268  1
  Ho  Ho7  1  0.645575  0.822532  0.712936  1
  Ho  Ho8  1  0.176959  0.822532  0.712936  1
  Ho  Ho9  1  0.822740  0.645481  0.212045  1
  Ho  Ho10  1  0.354363  0.177495  0.212373  1
  Ho  Ho11  1  0.823131  0.177495  0.212373  1
  Ho  Ho12  1  0.666883  0.333765  0.884044  1
  Ho  Ho13  1  0.333182  0.666365  0.383646  1
  Ho  Ho14  1  0.000019  0.000038  0.491977  1
  Ho  Ho15  1  0.999980  0.999960  0.991877  1
  In  In16  1  0.837198  0.674396  0.754486  1
  In  In17  1  0.325690  0.162785  0.754522  1
  In  In18  1  0.837095  0.162785  0.754522  1
  In  In19  1  0.163174  0.326347  0.253673  1
  In  In20  1  0.673919  0.836739  0.254069  1
  In  In21  1  0.162820  0.836739  0.254069  1
  Os  Os22  1  0.666636  0.333272  0.279784  1
  Os  Os23  1  0.332769  0.665540  0.781596  1
