# generated using pymatgen
data_Ti6Al5Os12W
_symmetry_space_group_name_H-M   'P 1'
_cell_length_a   4.33550100
_cell_length_b   6.17313800
_cell_length_c   13.00136101
_cell_angle_alpha   90.00000000
_cell_angle_beta   89.99641349
_cell_angle_gamma   90.00000000
_symmetry_Int_Tables_number   1
_chemical_formula_structural   Ti6Al5Os12W
_chemical_formula_sum   'Ti6 Al5 Os12 W1'
_cell_volume   347.96382262
_cell_formula_units_Z   1
loop_
 _symmetry_equiv_pos_site_id
 _symmetry_equiv_pos_as_xyz
  1  'x, y, z'
loop_
 _atom_site_type_symbol
 _atom_site_label
 _atom_site_symmetry_multiplicity
 _atom_site_fract_x
 _atom_site_fract_y
 _atom_site_fract_z
 _atom_site_occupancy
  Ti  Ti0  1  0.000000  0.500000  0.000000  1
  Ti  Ti1  1  0.499887  0.000000  0.173119  1
  Ti  Ti2  1  0.999870  0.500000  0.335678  1
  Ti  Ti3  1  0.499999  0.000000  0.500000  1
  Ti  Ti4  1  0.000131  0.500000  0.664322  1
  Ti  Ti5  1  0.500112  0.000000  0.826881  1
  Al  Al6  1  0.499845  0.500000  0.168072  1
  Al  Al7  1  0.999856  0.000000  0.334120  1
  Al  Al8  1  0.499999  0.500000  0.500000  1
  Al  Al9  1  0.000144  0.000000  0.665881  1
  Al  Al10  1  0.500153  0.500000  0.831928  1
  Os  Os11  1  0.499999  0.249350  0.000000  1
  Os  Os12  1  0.499999  0.750650  0.000000  1
  Os  Os13  1  0.999887  0.249455  0.164536  1
  Os  Os14  1  0.999887  0.750544  0.164536  1
  Os  Os15  1  0.499872  0.251324  0.333100  1
  Os  Os16  1  0.499872  0.748677  0.333100  1
  Os  Os17  1  0.000000  0.250175  0.500000  1
  Os  Os18  1  0.000000  0.749826  0.500000  1
  Os  Os19  1  0.500129  0.251324  0.666900  1
  Os  Os20  1  0.500129  0.748677  0.666900  1
  Os  Os21  1  0.000113  0.249455  0.835464  1
  Os  Os22  1  0.000113  0.750544  0.835464  1
  W  W23  1  0.000000  0.000000  0.000000  1
