# generated using pymatgen
data_Ba6TmPd4O15
_symmetry_space_group_name_H-M   'P 1'
_cell_length_a   7.46322241
_cell_length_b   7.53370924
_cell_length_c   7.60096734
_cell_angle_alpha   85.23037376
_cell_angle_beta   86.37028528
_cell_angle_gamma   86.15226471
_symmetry_Int_Tables_number   1
_chemical_formula_structural   Ba6TmPd4O15
_chemical_formula_sum   'Ba6 Tm1 Pd4 O15'
_cell_volume   424.21331407
_cell_formula_units_Z   1
loop_
 _symmetry_equiv_pos_site_id
 _symmetry_equiv_pos_as_xyz
  1  'x, y, z'
loop_
 _atom_site_type_symbol
 _atom_site_label
 _atom_site_symmetry_multiplicity
 _atom_site_fract_x
 _atom_site_fract_y
 _atom_site_fract_z
 _atom_site_occupancy
  Ba  Ba0  1  0.329566  0.668242  0.995686  1
  Ba  Ba1  1  0.001679  0.330106  0.676304  1
  Ba  Ba2  1  0.671846  0.005597  0.331707  1
  Ba  Ba3  1  0.141025  0.863010  0.497152  1
  Ba  Ba4  1  0.496066  0.140706  0.861072  1
  Ba  Ba5  1  0.864694  0.499291  0.149243  1
  Tm  Tm6  1  0.500974  0.500823  0.497608  1
  Pd  Pd7  1  0.293070  0.296082  0.300034  1
  Pd  Pd8  1  0.703115  0.703815  0.704426  1
  Pd  Pd9  1  0.099066  0.095269  0.097585  1
  Pd  Pd10  1  0.903655  0.901141  0.898060  1
  O  O11  1  0.149644  0.989923  0.822853  1
  O  O12  1  0.847969  0.145598  0.994655  1
  O  O13  1  0.003015  0.843530  0.141646  1
  O  O14  1  0.032207  0.214413  0.363849  1
  O  O15  1  0.344281  0.039177  0.209892  1
  O  O16  1  0.202335  0.344449  0.042352  1
  O  O17  1  0.793403  0.961927  0.657388  1
  O  O18  1  0.655283  0.794745  0.960340  1
  O  O19  1  0.962638  0.656948  0.799230  1
  O  O20  1  0.377994  0.238098  0.549339  1
  O  O21  1  0.550136  0.374937  0.239124  1
  O  O22  1  0.236915  0.549499  0.372817  1
  O  O23  1  0.764794  0.629949  0.454464  1
  O  O24  1  0.451794  0.761432  0.621659  1
  O  O25  1  0.622837  0.451294  0.761514  1
