# generated using pymatgen
data_NdEu3B16
_symmetry_space_group_name_H-M   'P 1'
_cell_length_a   7.25420329
_cell_length_b   7.25420329
_cell_length_c   4.13789100
_cell_angle_alpha   90.00000000
_cell_angle_beta   90.00000000
_cell_angle_gamma   90.09101987
_symmetry_Int_Tables_number   1
_chemical_formula_structural   NdEu3B16
_chemical_formula_sum   'Nd1 Eu3 B16'
_cell_volume   217.74988890
_cell_formula_units_Z   1
loop_
 _symmetry_equiv_pos_site_id
 _symmetry_equiv_pos_as_xyz
  1  'x, y, z'
loop_
 _atom_site_type_symbol
 _atom_site_label
 _atom_site_symmetry_multiplicity
 _atom_site_fract_x
 _atom_site_fract_y
 _atom_site_fract_z
 _atom_site_occupancy
  Nd  Nd0  1  0.815683  0.315683  0.000000  1
  Eu  Eu1  1  0.184233  0.684233  0.000000  1
  Eu  Eu2  1  0.684306  0.815822  0.000000  1
  Eu  Eu3  1  0.315822  0.184306  0.000000  1
  B  B4  1  0.912644  0.587291  0.500000  1
  B  B5  1  0.587731  0.087731  0.500000  1
  B  B6  1  0.412686  0.912686  0.500000  1
  B  B7  1  0.087291  0.412644  0.500000  1
  B  B8  1  0.038317  0.173818  0.500000  1
  B  B9  1  0.174945  0.962180  0.500000  1
  B  B10  1  0.826022  0.037321  0.500000  1
  B  B11  1  0.961814  0.825662  0.500000  1
  B  B12  1  0.462180  0.674945  0.500000  1
  B  B13  1  0.537321  0.326022  0.500000  1
  B  B14  1  0.673818  0.538317  0.500000  1
  B  B15  1  0.325662  0.461814  0.500000  1
  B  B16  1  0.000803  0.998960  0.204426  1
  B  B17  1  0.498960  0.500803  0.795574  1
  B  B18  1  0.000803  0.998960  0.795574  1
  B  B19  1  0.498960  0.500803  0.204426  1
