# generated using pymatgen
data_Ce3P4(IrRh)2
_symmetry_space_group_name_H-M   'P 1'
_cell_length_a   4.00100219
_cell_length_b   4.07031379
_cell_length_c   12.44772750
_cell_angle_alpha   80.59011567
_cell_angle_beta   80.75177267
_cell_angle_gamma   90.00000600
_symmetry_Int_Tables_number   1
_chemical_formula_structural   Ce3P4(IrRh)2
_chemical_formula_sum   'Ce3 P4 Ir2 Rh2'
_cell_volume   197.31620716
_cell_formula_units_Z   1
loop_
 _symmetry_equiv_pos_site_id
 _symmetry_equiv_pos_as_xyz
  1  'x, y, z'
loop_
 _atom_site_type_symbol
 _atom_site_label
 _atom_site_symmetry_multiplicity
 _atom_site_fract_x
 _atom_site_fract_y
 _atom_site_fract_z
 _atom_site_occupancy
  Ce  Ce0  1  0.000000  0.000000  0.000000  1
  Ce  Ce1  1  0.855444  0.355444  0.289113  1
  Ce  Ce2  1  0.144556  0.644556  0.710887  1
  P  P3  1  0.693371  0.193371  0.613258  1
  P  P4  1  0.306629  0.806629  0.386742  1
  P  P5  1  0.451915  0.451915  0.096171  1
  P  P6  1  0.548085  0.548085  0.903829  1
  Ir  Ir7  1  0.596360  0.096360  0.807281  1
  Ir  Ir8  1  0.403640  0.903640  0.192719  1
  Rh  Rh9  1  0.249149  0.249149  0.501702  1
  Rh  Rh10  1  0.750851  0.750851  0.498298  1
