# generated using pymatgen
data_YbRhIO6
_symmetry_space_group_name_H-M   'P 1'
_cell_length_a   5.23387300
_cell_length_b   5.23387413
_cell_length_c   4.95819400
_cell_angle_alpha   90.00000000
_cell_angle_beta   90.00000000
_cell_angle_gamma   119.99999915
_symmetry_Int_Tables_number   1
_chemical_formula_structural   YbRhIO6
_chemical_formula_sum   'Yb1 Rh1 I1 O6'
_cell_volume   117.62526249
_cell_formula_units_Z   1
loop_
 _symmetry_equiv_pos_site_id
 _symmetry_equiv_pos_as_xyz
  1  'x, y, z'
loop_
 _atom_site_type_symbol
 _atom_site_label
 _atom_site_symmetry_multiplicity
 _atom_site_fract_x
 _atom_site_fract_y
 _atom_site_fract_z
 _atom_site_occupancy
  Yb  Yb0  1  0.000000  0.000000  0.000000  1
  Rh  Rh1  1  0.333334  0.666667  0.499999  1
  I  I2  1  0.666667  0.333334  0.499999  1
  O  O3  1  0.644481  0.013491  0.282359  1
  O  O4  1  0.369009  0.355520  0.282359  1
  O  O5  1  0.986510  0.630991  0.282359  1
  O  O6  1  0.369010  0.013491  0.717642  1
  O  O7  1  0.986511  0.355520  0.717642  1
  O  O8  1  0.644481  0.630991  0.717642  1
