# generated using pymatgen
data_HoEr5ScFeO12
_symmetry_space_group_name_H-M   'P 1'
_cell_length_a   6.51681584
_cell_length_b   6.52003614
_cell_length_c   6.51664638
_cell_angle_alpha   92.71433264
_cell_angle_beta   92.72939434
_cell_angle_gamma   92.71988738
_symmetry_Int_Tables_number   1
_chemical_formula_structural   HoEr5ScFeO12
_chemical_formula_sum   'Ho1 Er5 Sc1 Fe1 O12'
_cell_volume   275.92400023
_cell_formula_units_Z   1
loop_
 _symmetry_equiv_pos_site_id
 _symmetry_equiv_pos_as_xyz
  1  'x, y, z'
loop_
 _atom_site_type_symbol
 _atom_site_label
 _atom_site_symmetry_multiplicity
 _atom_site_fract_x
 _atom_site_fract_y
 _atom_site_fract_z
 _atom_site_occupancy
  Ho  Ho0  1  0.564276  0.256846  0.073346  1
  Er  Er1  1  0.743225  0.926314  0.436063  1
  Er  Er2  1  0.926961  0.435729  0.743119  1
  Er  Er3  1  0.435582  0.743564  0.926517  1
  Er  Er4  1  0.256255  0.073126  0.564067  1
  Er  Er5  1  0.073333  0.564414  0.256557  1
  Sc  Sc6  1  0.999896  0.999680  0.999805  1
  Fe  Fe7  1  0.499880  0.500310  0.500200  1
  O  O8  1  0.589829  0.462213  0.802017  1
  O  O9  1  0.460693  0.802285  0.589194  1
  O  O10  1  0.802239  0.589136  0.460553  1
  O  O11  1  0.410361  0.540222  0.198288  1
  O  O12  1  0.539323  0.197801  0.412077  1
  O  O13  1  0.197750  0.410535  0.539132  1
  O  O14  1  0.068652  0.914496  0.309228  1
  O  O15  1  0.916038  0.309032  0.068456  1
  O  O16  1  0.690815  0.930434  0.085737  1
  O  O17  1  0.085314  0.690557  0.931068  1
  O  O18  1  0.930845  0.085306  0.690717  1
  O  O19  1  0.308733  0.068002  0.913859  1
