# generated using pymatgen
data_Cs6SmUBr12
_symmetry_space_group_name_H-M   'P 1'
_cell_length_a   10.11831000
_cell_length_b   10.14585400
_cell_length_c   8.44328400
_cell_angle_alpha   90.00000000
_cell_angle_beta   90.00000000
_cell_angle_gamma   89.99943854
_symmetry_Int_Tables_number   1
_chemical_formula_structural   Cs6SmUBr12
_chemical_formula_sum   'Cs6 Sm1 U1 Br12'
_cell_volume   866.77821402
_cell_formula_units_Z   1
loop_
 _symmetry_equiv_pos_site_id
 _symmetry_equiv_pos_as_xyz
  1  'x, y, z'
loop_
 _atom_site_type_symbol
 _atom_site_label
 _atom_site_symmetry_multiplicity
 _atom_site_fract_x
 _atom_site_fract_y
 _atom_site_fract_z
 _atom_site_occupancy
  Cs  Cs0  1  0.000000  0.000000  0.500000  1
  Cs  Cs1  1  0.000000  0.000000  0.000000  1
  Cs  Cs2  1  0.235200  0.584355  0.500000  1
  Cs  Cs3  1  0.764800  0.415645  0.500000  1
  Cs  Cs4  1  0.415566  0.235023  0.000000  1
  Cs  Cs5  1  0.584434  0.764977  0.000000  1
  Sm  Sm6  1  0.000000  0.500000  0.000000  1
  U  U7  1  0.500000  0.000000  0.500000  1
  Br  Br8  1  0.696188  0.058711  0.744906  1
  Br  Br9  1  0.303812  0.941289  0.744906  1
  Br  Br10  1  0.942000  0.693595  0.241759  1
  Br  Br11  1  0.058000  0.306405  0.241759  1
  Br  Br12  1  0.303812  0.941289  0.255094  1
  Br  Br13  1  0.696188  0.058711  0.255094  1
  Br  Br14  1  0.058000  0.306405  0.758241  1
  Br  Br15  1  0.942000  0.693595  0.758241  1
  Br  Br16  1  0.570256  0.722191  0.500000  1
  Br  Br17  1  0.429744  0.277809  0.500000  1
  Br  Br18  1  0.274036  0.569776  0.000000  1
  Br  Br19  1  0.725964  0.430224  0.000000  1
