# generated using pymatgen
data_Ho5Tm4Pa3Ga20
_symmetry_space_group_name_H-M   'P 1'
_cell_length_a   6.04059271
_cell_length_b   9.54431903
_cell_length_c   11.61581191
_cell_angle_alpha   90.10556206
_cell_angle_beta   90.15746411
_cell_angle_gamma   90.00037774
_symmetry_Int_Tables_number   1
_chemical_formula_structural   Ho5Tm4Pa3Ga20
_chemical_formula_sum   'Ho5 Tm4 Pa3 Ga20'
_cell_volume   669.68673342
_cell_formula_units_Z   1
loop_
 _symmetry_equiv_pos_site_id
 _symmetry_equiv_pos_as_xyz
  1  'x, y, z'
loop_
 _atom_site_type_symbol
 _atom_site_label
 _atom_site_symmetry_multiplicity
 _atom_site_fract_x
 _atom_site_fract_y
 _atom_site_fract_z
 _atom_site_occupancy
  Ho  Ho0  1  0.882024  0.502598  0.351492  1
  Ho  Ho1  1  0.616904  0.999136  0.850818  1
  Ho  Ho2  1  0.117287  0.001928  0.649338  1
  Ho  Ho3  1  0.381527  0.497530  0.148519  1
  Ho  Ho4  1  0.117257  0.497852  0.648702  1
  Tm  Tm5  1  0.857254  0.752923  0.071541  1
  Tm  Tm6  1  0.644476  0.748396  0.572341  1
  Tm  Tm7  1  0.142514  0.252371  0.927644  1
  Tm  Tm8  1  0.358678  0.246487  0.427502  1
  Pa  Pa9  1  0.378776  0.002366  0.148419  1
  Pa  Pa10  1  0.879635  0.996231  0.352096  1
  Pa  Pa11  1  0.620091  0.502544  0.852260  1
  Ga  Ga12  1  0.871109  0.054212  0.091605  1
  Ga  Ga13  1  0.630990  0.445971  0.591677  1
  Ga  Ga14  1  0.128930  0.553543  0.907818  1
  Ga  Ga15  1  0.372863  0.944803  0.408852  1
  Ga  Ga16  1  0.131783  0.948269  0.908793  1
  Ga  Ga17  1  0.369769  0.550928  0.406644  1
  Ga  Ga18  1  0.867921  0.448821  0.091955  1
  Ga  Ga19  1  0.631064  0.053093  0.591373  1
  Ga  Ga20  1  0.156206  0.749288  0.261958  1
  Ga  Ga21  1  0.344859  0.749259  0.760570  1
  Ga  Ga22  1  0.843054  0.250557  0.739011  1
  Ga  Ga23  1  0.656005  0.249532  0.238312  1
  Ga  Ga24  1  0.389442  0.750318  0.996347  1
  Ga  Ga25  1  0.110048  0.749498  0.497075  1
  Ga  Ga26  1  0.609589  0.250796  0.003831  1
  Ga  Ga27  1  0.890285  0.248648  0.501286  1
  Ga  Ga28  1  0.600861  0.750904  0.293595  1
  Ga  Ga29  1  0.896964  0.750682  0.797290  1
  Ga  Ga30  1  0.401182  0.251564  0.705898  1
  Ga  Ga31  1  0.100653  0.248953  0.205435  1
