# generated using pymatgen
data_LaTbGaNi9
_symmetry_space_group_name_H-M   'P 1'
_cell_length_a   3.97012200
_cell_length_b   4.98558800
_cell_length_c   8.52881800
_cell_angle_alpha   90.00000000
_cell_angle_beta   90.00000000
_cell_angle_gamma   90.00000000
_symmetry_Int_Tables_number   1
_chemical_formula_structural   LaTbGaNi9
_chemical_formula_sum   'La1 Tb1 Ga1 Ni9'
_cell_volume   168.81424310
_cell_formula_units_Z   1
loop_
 _symmetry_equiv_pos_site_id
 _symmetry_equiv_pos_as_xyz
  1  'x, y, z'
loop_
 _atom_site_type_symbol
 _atom_site_label
 _atom_site_symmetry_multiplicity
 _atom_site_fract_x
 _atom_site_fract_y
 _atom_site_fract_z
 _atom_site_occupancy
  La  La0  1  0.000000  0.500000  0.000000  1
  Tb  Tb1  1  0.000000  0.000000  0.500000  1
  Ga  Ga2  1  0.500000  0.500000  0.500000  1
  Ni  Ni3  1  0.000000  0.500000  0.331355  1
  Ni  Ni4  1  0.000000  0.000000  0.829787  1
  Ni  Ni5  1  0.000000  0.000000  0.170213  1
  Ni  Ni6  1  0.000000  0.500000  0.668645  1
  Ni  Ni7  1  0.500000  0.000000  0.000000  1
  Ni  Ni8  1  0.500000  0.757488  0.255636  1
  Ni  Ni9  1  0.500000  0.242512  0.744364  1
  Ni  Ni10  1  0.500000  0.242512  0.255636  1
  Ni  Ni11  1  0.500000  0.757488  0.744364  1
