# generated using pymatgen
data_Sm8Sc12Sn15Pb
_symmetry_space_group_name_H-M   'P 1'
_cell_length_a   7.80186409
_cell_length_b   7.98314386
_cell_length_c   14.93948500
_cell_angle_alpha   90.05424449
_cell_angle_beta   89.43741474
_cell_angle_gamma   90.17087300
_symmetry_Int_Tables_number   1
_chemical_formula_structural   Sm8Sc12Sn15Pb
_chemical_formula_sum   'Sm8 Sc12 Sn15 Pb1'
_cell_volume   930.43258778
_cell_formula_units_Z   1
loop_
 _symmetry_equiv_pos_site_id
 _symmetry_equiv_pos_as_xyz
  1  'x, y, z'
loop_
 _atom_site_type_symbol
 _atom_site_label
 _atom_site_symmetry_multiplicity
 _atom_site_fract_x
 _atom_site_fract_y
 _atom_site_fract_z
 _atom_site_occupancy
  Sm  Sm0  1  0.995198  0.174638  0.094601  1
  Sm  Sm1  1  0.004609  0.826152  0.905490  1
  Sm  Sm2  1  0.504937  0.674319  0.905454  1
  Sm  Sm3  1  0.005605  0.825074  0.594629  1
  Sm  Sm4  1  0.495252  0.326347  0.094681  1
  Sm  Sm5  1  0.993129  0.174951  0.404686  1
  Sm  Sm6  1  0.493922  0.323654  0.403649  1
  Sm  Sm7  1  0.509900  0.676486  0.595914  1
  Sc  Sc8  1  0.168617  0.495500  0.750531  1
  Sc  Sc9  1  0.830982  0.504455  0.251086  1
  Sc  Sc10  1  0.331571  0.995556  0.250799  1
  Sc  Sc11  1  0.668251  0.004319  0.749496  1
  Sc  Sc12  1  0.342832  0.159024  0.628569  1
  Sc  Sc13  1  0.659159  0.838569  0.372104  1
  Sc  Sc14  1  0.158130  0.662061  0.372964  1
  Sc  Sc15  1  0.663004  0.837291  0.127187  1
  Sc  Sc16  1  0.838311  0.339428  0.626401  1
  Sc  Sc17  1  0.335908  0.162141  0.872565  1
  Sc  Sc18  1  0.837588  0.337230  0.873054  1
  Sc  Sc19  1  0.163352  0.662709  0.126720  1
  Sn  Sn20  1  0.030030  0.128537  0.749184  1
  Sn  Sn21  1  0.969469  0.872084  0.249671  1
  Sn  Sn22  1  0.467704  0.627948  0.249394  1
  Sn  Sn23  1  0.531740  0.372288  0.750910  1
  Sn  Sn24  1  0.308839  0.853395  0.750759  1
  Sn  Sn25  1  0.690961  0.145733  0.248965  1
  Sn  Sn26  1  0.190102  0.354478  0.249447  1
  Sn  Sn27  1  0.810560  0.645783  0.750820  1
  Sn  Sn28  1  0.815656  0.544668  0.456627  1
  Sn  Sn29  1  0.320587  0.955847  0.457447  1
  Sn  Sn30  1  0.824042  0.542983  0.043401  1
  Sn  Sn31  1  0.679735  0.043718  0.542680  1
  Sn  Sn32  1  0.176057  0.457227  0.956696  1
  Sn  Sn33  1  0.675403  0.042678  0.956838  1
  Sn  Sn34  1  0.324125  0.958002  0.043253  1
  Pb  Pb35  1  0.184735  0.454728  0.543331  1
