# generated using pymatgen
data_Yb3Y(Si5Os3)2
_symmetry_space_group_name_H-M   'P 1'
_cell_length_a   8.26057571
_cell_length_b   8.26582680
_cell_length_c   5.65277251
_cell_angle_alpha   70.02818913
_cell_angle_beta   70.02645151
_cell_angle_gamma   95.22142427
_symmetry_Int_Tables_number   1
_chemical_formula_structural   Yb3Y(Si5Os3)2
_chemical_formula_sum   'Yb3 Y1 Si10 Os6'
_cell_volume   331.38516595
_cell_formula_units_Z   1
loop_
 _symmetry_equiv_pos_site_id
 _symmetry_equiv_pos_as_xyz
  1  'x, y, z'
loop_
 _atom_site_type_symbol
 _atom_site_label
 _atom_site_symmetry_multiplicity
 _atom_site_fract_x
 _atom_site_fract_y
 _atom_site_fract_z
 _atom_site_occupancy
  Yb  Yb0  1  0.868712  0.598125  0.766955  1
  Yb  Yb1  1  0.400888  0.131673  0.733927  1
  Yb  Yb2  1  0.130865  0.402569  0.232850  1
  Y  Y3  1  0.599261  0.868095  0.266073  1
  Si  Si4  1  0.073753  0.265662  0.828867  1
  Si  Si5  1  0.734304  0.925884  0.670630  1
  Si  Si6  1  0.926983  0.732475  0.171148  1
  Si  Si7  1  0.266949  0.075279  0.328629  1
  Si  Si8  1  0.209865  0.793069  0.744859  1
  Si  Si9  1  0.792594  0.209674  0.250524  1
  Si  Si10  1  0.497795  0.498253  0.753660  1
  Si  Si11  1  0.497680  0.497999  0.250602  1
  Si  Si12  1  0.792334  0.209562  0.747133  1
  Si  Si13  1  0.209465  0.793254  0.252356  1
  Os  Os14  1  0.260851  0.551891  0.593153  1
  Os  Os15  1  0.446725  0.741150  0.906809  1
  Os  Os16  1  0.738029  0.447725  0.407384  1
  Os  Os17  1  0.554770  0.260196  0.092365  1
  Os  Os18  1  0.999763  0.997927  0.751416  1
  Os  Os19  1  0.998413  0.999538  0.250659  1
