# generated using pymatgen
data_Er2Tm2Ti3Nb3Si8
_symmetry_space_group_name_H-M   'P 1'
_cell_length_a   7.02746630
_cell_length_b   7.02763820
_cell_length_c   12.92571301
_cell_angle_alpha   90.08490602
_cell_angle_beta   89.98303986
_cell_angle_gamma   90.00604197
_symmetry_Int_Tables_number   1
_chemical_formula_structural   Er2Tm2Ti3Nb3Si8
_chemical_formula_sum   'Er4 Tm4 Ti6 Nb6 Si16'
_cell_volume   638.35487164
_cell_formula_units_Z   2
loop_
 _symmetry_equiv_pos_site_id
 _symmetry_equiv_pos_as_xyz
  1  'x, y, z'
loop_
 _atom_site_type_symbol
 _atom_site_label
 _atom_site_symmetry_multiplicity
 _atom_site_fract_x
 _atom_site_fract_y
 _atom_site_fract_z
 _atom_site_occupancy
  Er  Er0  1  0.158780  0.500821  0.782750  1
  Er  Er1  1  0.657735  0.998464  0.966697  1
  Er  Er2  1  0.000535  0.341256  0.532951  1
  Er  Er3  1  0.998984  0.660025  0.033323  1
  Tm  Tm4  1  0.341715  0.000668  0.466244  1
  Tm  Tm5  1  0.498984  0.841810  0.716104  1
  Tm  Tm6  1  0.501181  0.157462  0.216975  1
  Tm  Tm7  1  0.840386  0.499646  0.283709  1
  Ti  Ti8  1  0.508029  0.347715  0.624562  1
  Ti  Ti9  1  0.652750  0.491317  0.875723  1
  Ti  Ti10  1  0.348702  0.508107  0.375957  1
  Ti  Ti11  1  0.847508  0.991577  0.373888  1
  Ti  Ti12  1  0.008056  0.151710  0.125822  1
  Ti  Ti13  1  0.991645  0.847457  0.626088  1
  Nb  Nb14  1  0.327891  0.327907  0.000343  1
  Nb  Nb15  1  0.172128  0.827981  0.250481  1
  Nb  Nb16  1  0.828371  0.172223  0.749917  1
  Nb  Nb17  1  0.671917  0.671605  0.500090  1
  Nb  Nb18  1  0.151899  0.007747  0.874218  1
  Nb  Nb19  1  0.492166  0.651896  0.123587  1
  Si  Si20  1  0.205622  0.132168  0.681798  1
  Si  Si21  1  0.368759  0.704637  0.931546  1
  Si  Si22  1  0.630981  0.295882  0.433511  1
  Si  Si23  1  0.706241  0.365310  0.067567  1
  Si  Si24  1  0.295885  0.631195  0.566549  1
  Si  Si25  1  0.796601  0.869578  0.183579  1
  Si  Si26  1  0.131163  0.204254  0.317301  1
  Si  Si27  1  0.865512  0.794118  0.816854  1
  Si  Si28  1  0.292822  0.954373  0.064215  1
  Si  Si29  1  0.546902  0.793521  0.314513  1
  Si  Si30  1  0.454288  0.209039  0.812606  1
  Si  Si31  1  0.792834  0.546083  0.686213  1
  Si  Si32  1  0.205546  0.451916  0.187459  1
  Si  Si33  1  0.708207  0.046684  0.563215  1
  Si  Si34  1  0.952657  0.295734  0.936717  1
  Si  Si35  1  0.046623  0.708114  0.436930  1
