# generated using pymatgen
data_Nd3Th11TcRu5
_symmetry_space_group_name_H-M   'P 1'
_cell_length_a   9.87146124
_cell_length_b   9.98858956
_cell_length_c   6.41744934
_cell_angle_alpha   89.72037824
_cell_angle_beta   90.16243331
_cell_angle_gamma   120.36135561
_symmetry_Int_Tables_number   1
_chemical_formula_structural   Nd3Th11TcRu5
_chemical_formula_sum   'Nd3 Th11 Tc1 Ru5'
_cell_volume   545.98480778
_cell_formula_units_Z   1
loop_
 _symmetry_equiv_pos_site_id
 _symmetry_equiv_pos_as_xyz
  1  'x, y, z'
loop_
 _atom_site_type_symbol
 _atom_site_label
 _atom_site_symmetry_multiplicity
 _atom_site_fract_x
 _atom_site_fract_y
 _atom_site_fract_z
 _atom_site_occupancy
  Nd  Nd0  1  0.463397  0.537315  0.294653  1
  Nd  Nd1  1  0.073750  0.537385  0.295064  1
  Nd  Nd2  1  0.924525  0.459695  0.795272  1
  Th  Th3  1  0.249286  0.125577  0.509278  1
  Th  Th4  1  0.540886  0.079704  0.801680  1
  Th  Th5  1  0.750848  0.873477  0.010082  1
  Th  Th6  1  0.666007  0.333449  0.277923  1
  Th  Th7  1  0.124050  0.872393  0.004749  1
  Th  Th8  1  0.461827  0.922121  0.302052  1
  Th  Th9  1  0.538596  0.461517  0.797175  1
  Th  Th10  1  0.875708  0.126970  0.507580  1
  Th  Th11  1  0.124471  0.249322  0.006470  1
  Th  Th12  1  0.874829  0.751427  0.508434  1
  Th  Th13  1  0.334553  0.666865  0.777308  1
  Tc  Tc14  1  0.810132  0.636112  0.045565  1
  Ru  Ru15  1  0.807579  0.173442  0.051041  1
  Ru  Ru16  1  0.632043  0.822700  0.551810  1
  Ru  Ru17  1  0.369921  0.184286  0.042667  1
  Ru  Ru18  1  0.183392  0.360572  0.558074  1
  Ru  Ru19  1  0.194200  0.825671  0.547120  1
