# generated using pymatgen
data_LuPa3Co4
_symmetry_space_group_name_H-M   'P 1'
_cell_length_a   3.70580100
_cell_length_b   5.60985370
_cell_length_c   7.11461867
_cell_angle_alpha   89.85555956
_cell_angle_beta   90.00000000
_cell_angle_gamma   90.00000000
_symmetry_Int_Tables_number   1
_chemical_formula_structural   LuPa3Co4
_chemical_formula_sum   'Lu1 Pa3 Co4'
_cell_volume   147.90534785
_cell_formula_units_Z   1
loop_
 _symmetry_equiv_pos_site_id
 _symmetry_equiv_pos_as_xyz
  1  'x, y, z'
loop_
 _atom_site_type_symbol
 _atom_site_label
 _atom_site_symmetry_multiplicity
 _atom_site_fract_x
 _atom_site_fract_y
 _atom_site_fract_z
 _atom_site_occupancy
  Lu  Lu0  1  0.250000  0.835213  0.673723  1
  Pa  Pa1  1  0.250000  0.681171  0.173472  1
  Pa  Pa2  1  0.750000  0.328631  0.820154  1
  Pa  Pa3  1  0.750000  0.175784  0.328444  1
  Co  Co4  1  0.250000  0.178268  0.057214  1
  Co  Co5  1  0.750000  0.839835  0.963633  1
  Co  Co6  1  0.750000  0.635056  0.424010  1
  Co  Co7  1  0.250000  0.326041  0.559350  1
