# generated using pymatgen
data_Cu2SiIr3S8
_symmetry_space_group_name_H-M   'P 1'
_cell_length_a   6.92676669
_cell_length_b   6.92676764
_cell_length_c   6.92676685
_cell_angle_alpha   61.25272578
_cell_angle_beta   61.25272218
_cell_angle_gamma   61.25272593
_symmetry_Int_Tables_number   1
_chemical_formula_structural   Cu2SiIr3S8
_chemical_formula_sum   'Cu2 Si1 Ir3 S8'
_cell_volume   241.62461612
_cell_formula_units_Z   1
loop_
 _symmetry_equiv_pos_site_id
 _symmetry_equiv_pos_as_xyz
  1  'x, y, z'
loop_
 _atom_site_type_symbol
 _atom_site_label
 _atom_site_symmetry_multiplicity
 _atom_site_fract_x
 _atom_site_fract_y
 _atom_site_fract_z
 _atom_site_occupancy
  Cu  Cu0  1  0.999696  0.999696  0.999696  1
  Cu  Cu1  1  0.250304  0.250304  0.250304  1
  Si  Si2  1  0.625000  0.625000  0.625000  1
  Ir  Ir3  1  0.625000  0.625000  0.125000  1
  Ir  Ir4  1  0.125000  0.625000  0.625000  1
  Ir  Ir5  1  0.625000  0.125000  0.625000  1
  S  S6  1  0.388063  0.388063  0.842656  1
  S  S7  1  0.386129  0.386129  0.386129  1
  S  S8  1  0.863871  0.863871  0.863871  1
  S  S9  1  0.861937  0.861937  0.407344  1
  S  S10  1  0.388063  0.842656  0.388063  1
  S  S11  1  0.842656  0.388063  0.388063  1
  S  S12  1  0.407344  0.861937  0.861937  1
  S  S13  1  0.861937  0.407344  0.861937  1
