# generated using pymatgen
data_Tb5SmCo17ReP12
_symmetry_space_group_name_H-M   'P 1'
_cell_length_a   3.71965800
_cell_length_b   10.54638300
_cell_length_c   12.25263600
_cell_angle_alpha   90.00000000
_cell_angle_beta   90.00000000
_cell_angle_gamma   90.00000000
_symmetry_Int_Tables_number   1
_chemical_formula_structural   Tb5SmCo17ReP12
_chemical_formula_sum   'Tb5 Sm1 Co17 Re1 P12'
_cell_volume   480.65789672
_cell_formula_units_Z   1
loop_
 _symmetry_equiv_pos_site_id
 _symmetry_equiv_pos_as_xyz
  1  'x, y, z'
loop_
 _atom_site_type_symbol
 _atom_site_label
 _atom_site_symmetry_multiplicity
 _atom_site_fract_x
 _atom_site_fract_y
 _atom_site_fract_z
 _atom_site_occupancy
  Tb  Tb0  1  0.000000  0.500000  0.523857  1
  Tb  Tb1  1  0.500000  0.817600  0.206514  1
  Tb  Tb2  1  0.500000  0.182400  0.206514  1
  Tb  Tb3  1  0.000000  0.683008  0.795146  1
  Tb  Tb4  1  0.000000  0.316992  0.795146  1
  Sm  Sm5  1  0.500000  0.000000  0.477979  1
  Co  Co6  1  0.000000  0.000000  0.840621  1
  Co  Co7  1  0.500000  0.500000  0.702955  1
  Co  Co8  1  0.000000  0.000000  0.295157  1
  Co  Co9  1  0.000000  0.500000  0.988222  1
  Co  Co10  1  0.500000  0.000000  0.014425  1
  Co  Co11  1  0.500000  0.332515  0.991492  1
  Co  Co12  1  0.500000  0.667485  0.991492  1
  Co  Co13  1  0.000000  0.166494  0.005453  1
  Co  Co14  1  0.000000  0.833506  0.005453  1
  Co  Co15  1  0.500000  0.297445  0.430438  1
  Co  Co16  1  0.500000  0.702555  0.430438  1
  Co  Co17  1  0.000000  0.204394  0.569552  1
  Co  Co18  1  0.000000  0.795606  0.569552  1
  Co  Co19  1  0.500000  0.879336  0.709747  1
  Co  Co20  1  0.500000  0.120664  0.709747  1
  Co  Co21  1  0.000000  0.619928  0.290674  1
  Co  Co22  1  0.000000  0.380072  0.290674  1
  Re  Re23  1  0.500000  0.500000  0.156511  1
  P  P24  1  0.500000  0.500000  0.881254  1
  P  P25  1  0.000000  0.000000  0.116444  1
  P  P26  1  0.500000  0.500000  0.348718  1
  P  P27  1  0.000000  0.000000  0.658099  1
  P  P28  1  0.500000  0.310543  0.616213  1
  P  P29  1  0.500000  0.689457  0.616213  1
  P  P30  1  0.000000  0.190620  0.384208  1
  P  P31  1  0.000000  0.809380  0.384208  1
  P  P32  1  0.500000  0.849754  0.892458  1
  P  P33  1  0.500000  0.150246  0.892458  1
  P  P34  1  0.000000  0.655699  0.105985  1
  P  P35  1  0.000000  0.344301  0.105985  1
