# generated using pymatgen
data_La12Al3Ga5Rh8
_symmetry_space_group_name_H-M   'P 1'
_cell_length_a   5.82621500
_cell_length_b   8.32693106
_cell_length_c   13.74769709
_cell_angle_alpha   90.01351464
_cell_angle_beta   90.00000000
_cell_angle_gamma   90.00000000
_symmetry_Int_Tables_number   1
_chemical_formula_structural   La12Al3Ga5Rh8
_chemical_formula_sum   'La12 Al3 Ga5 Rh8'
_cell_volume   666.96250343
_cell_formula_units_Z   1
loop_
 _symmetry_equiv_pos_site_id
 _symmetry_equiv_pos_as_xyz
  1  'x, y, z'
loop_
 _atom_site_type_symbol
 _atom_site_label
 _atom_site_symmetry_multiplicity
 _atom_site_fract_x
 _atom_site_fract_y
 _atom_site_fract_z
 _atom_site_occupancy
  La  La0  1  0.642610  0.254099  0.250718  1
  La  La1  1  0.357496  0.746387  0.749403  1
  La  La2  1  0.357496  0.753613  0.250597  1
  La  La3  1  0.642610  0.245901  0.749282  1
  La  La4  1  0.151533  0.398434  0.095853  1
  La  La5  1  0.848539  0.601325  0.904352  1
  La  La6  1  0.847076  0.600526  0.595600  1
  La  La7  1  0.847076  0.899474  0.404400  1
  La  La8  1  0.153482  0.397237  0.405178  1
  La  La9  1  0.153482  0.102763  0.594822  1
  La  La10  1  0.151533  0.101566  0.904147  1
  La  La11  1  0.848539  0.898675  0.095648  1
  Al  Al12  1  0.631461  0.250000  0.000000  1
  Al  Al13  1  0.368575  0.750000  0.000000  1
  Al  Al14  1  0.367720  0.750000  0.500000  1
  Ga  Ga15  1  0.145445  0.105458  0.250006  1
  Ga  Ga16  1  0.854597  0.894173  0.749697  1
  Ga  Ga17  1  0.854597  0.605827  0.250303  1
  Ga  Ga18  1  0.145445  0.394542  0.749994  1
  Ga  Ga19  1  0.641536  0.250000  0.500000  1
  Rh  Rh20  1  0.372542  0.033129  0.091134  1
  Rh  Rh21  1  0.627191  0.967208  0.908698  1
  Rh  Rh22  1  0.625235  0.964561  0.591889  1
  Rh  Rh23  1  0.625235  0.535439  0.408111  1
  Rh  Rh24  1  0.369609  0.030892  0.408726  1
  Rh  Rh25  1  0.369609  0.469108  0.591274  1
  Rh  Rh26  1  0.372542  0.466871  0.908866  1
  Rh  Rh27  1  0.627191  0.532792  0.091302  1
