# generated using pymatgen
data_Ca3Th(Ru2O7)2
_symmetry_space_group_name_H-M   'P 1'
_cell_length_a   7.31408804
_cell_length_b   7.30796204
_cell_length_c   7.30796300
_cell_angle_alpha   60.00000016
_cell_angle_beta   60.02770262
_cell_angle_gamma   60.02769900
_symmetry_Int_Tables_number   1
_chemical_formula_structural   Ca3Th(Ru2O7)2
_chemical_formula_sum   'Ca3 Th1 Ru4 O14'
_cell_volume   276.32458080
_cell_formula_units_Z   1
loop_
 _symmetry_equiv_pos_site_id
 _symmetry_equiv_pos_as_xyz
  1  'x, y, z'
loop_
 _atom_site_type_symbol
 _atom_site_label
 _atom_site_symmetry_multiplicity
 _atom_site_fract_x
 _atom_site_fract_y
 _atom_site_fract_z
 _atom_site_occupancy
  Ca  Ca0  1  0.625000  0.125000  0.625000  1
  Ca  Ca1  1  0.625000  0.625000  0.125000  1
  Ca  Ca2  1  0.625000  0.625000  0.625000  1
  Th  Th3  1  0.125000  0.625000  0.625000  1
  Ru  Ru4  1  0.625000  0.125000  0.125000  1
  Ru  Ru5  1  0.125000  0.625000  0.125000  1
  Ru  Ru6  1  0.125000  0.125000  0.625000  1
  Ru  Ru7  1  0.125000  0.125000  0.125000  1
  O  O8  1  0.201914  0.204317  0.796885  1
  O  O9  1  0.201914  0.796885  0.204317  1
  O  O10  1  0.442799  0.055318  0.055318  1
  O  O11  1  0.201914  0.796885  0.796885  1
  O  O12  1  0.048086  0.453115  0.453115  1
  O  O13  1  0.807201  0.803435  0.194682  1
  O  O14  1  0.442799  0.446565  0.055318  1
  O  O15  1  0.490903  0.503032  0.503032  1
  O  O16  1  0.048086  0.045683  0.453115  1
  O  O17  1  0.442799  0.055318  0.446565  1
  O  O18  1  0.048086  0.453115  0.045683  1
  O  O19  1  0.759097  0.746968  0.746968  1
  O  O20  1  0.807201  0.194682  0.803435  1
  O  O21  1  0.807201  0.194682  0.194682  1
