# generated using pymatgen
data_Er3ZnNiHg4
_symmetry_space_group_name_H-M   'P 1'
_cell_length_a   7.89907600
_cell_length_b   7.89907645
_cell_length_c   3.66776200
_cell_angle_alpha   90.00000000
_cell_angle_beta   90.00000000
_cell_angle_gamma   119.99999812
_symmetry_Int_Tables_number   1
_chemical_formula_structural   Er3ZnNiHg4
_chemical_formula_sum   'Er3 Zn1 Ni1 Hg4'
_cell_volume   198.19121311
_cell_formula_units_Z   1
loop_
 _symmetry_equiv_pos_site_id
 _symmetry_equiv_pos_as_xyz
  1  'x, y, z'
loop_
 _atom_site_type_symbol
 _atom_site_label
 _atom_site_symmetry_multiplicity
 _atom_site_fract_x
 _atom_site_fract_y
 _atom_site_fract_z
 _atom_site_occupancy
  Er  Er0  1  0.704174  0.944763  0.500000  1
  Er  Er1  1  0.240589  0.295826  0.500000  1
  Er  Er2  1  0.055237  0.759411  0.500000  1
  Zn  Zn3  1  0.666667  0.333333  0.500000  1
  Ni  Ni4  1  0.000000  0.000000  0.000000  1
  Hg  Hg5  1  0.930959  0.328285  0.000000  1
  Hg  Hg6  1  0.397327  0.069041  0.000000  1
  Hg  Hg7  1  0.671715  0.602673  0.000000  1
  Hg  Hg8  1  0.333333  0.666667  0.000000  1
