# generated using pymatgen
data_Gd6ScVO12
_symmetry_space_group_name_H-M   'P 1'
_cell_length_a   6.65771089
_cell_length_b   6.65771020
_cell_length_c   6.65771062
_cell_angle_alpha   92.75831441
_cell_angle_beta   92.75831663
_cell_angle_gamma   92.75831816
_symmetry_Int_Tables_number   1
_chemical_formula_structural   Gd6ScVO12
_chemical_formula_sum   'Gd6 Sc1 V1 O12'
_cell_volume   294.04384604
_cell_formula_units_Z   1
loop_
 _symmetry_equiv_pos_site_id
 _symmetry_equiv_pos_as_xyz
  1  'x, y, z'
loop_
 _atom_site_type_symbol
 _atom_site_label
 _atom_site_symmetry_multiplicity
 _atom_site_fract_x
 _atom_site_fract_y
 _atom_site_fract_z
 _atom_site_occupancy
  Gd  Gd0  1  0.742980  0.927178  0.436550  1
  Gd  Gd1  1  0.927178  0.436550  0.742980  1
  Gd  Gd2  1  0.436550  0.742980  0.927178  1
  Gd  Gd3  1  0.257020  0.072822  0.563450  1
  Gd  Gd4  1  0.072822  0.563450  0.257020  1
  Gd  Gd5  1  0.563450  0.257020  0.072822  1
  Sc  Sc6  1  0.000000  0.000000  0.000000  1
  V  V7  1  0.500000  0.500000  0.500000  1
  O  O8  1  0.587103  0.458986  0.798100  1
  O  O9  1  0.458986  0.798100  0.587103  1
  O  O10  1  0.798100  0.587103  0.458986  1
  O  O11  1  0.412897  0.541014  0.201900  1
  O  O12  1  0.541014  0.201900  0.412897  1
  O  O13  1  0.201900  0.412897  0.541014  1
  O  O14  1  0.067111  0.917169  0.304787  1
  O  O15  1  0.917169  0.304787  0.067111  1
  O  O16  1  0.695213  0.932889  0.082831  1
  O  O17  1  0.082831  0.695213  0.932889  1
  O  O18  1  0.932889  0.082831  0.695213  1
  O  O19  1  0.304787  0.067111  0.917169  1
