# generated using pymatgen
data_Ba4GdReWO12
_symmetry_space_group_name_H-M   'P 1'
_cell_length_a   10.19816507
_cell_length_b   10.19816541
_cell_length_c   10.19816518
_cell_angle_alpha   33.90838050
_cell_angle_beta   33.90837902
_cell_angle_gamma   33.90837535
_symmetry_Int_Tables_number   1
_chemical_formula_structural   Ba4GdReWO12
_chemical_formula_sum   'Ba4 Gd1 Re1 W1 O12'
_cell_volume   294.18567124
_cell_formula_units_Z   1
loop_
 _symmetry_equiv_pos_site_id
 _symmetry_equiv_pos_as_xyz
  1  'x, y, z'
loop_
 _atom_site_type_symbol
 _atom_site_label
 _atom_site_symmetry_multiplicity
 _atom_site_fract_x
 _atom_site_fract_y
 _atom_site_fract_z
 _atom_site_occupancy
  Ba  Ba0  1  0.709366  0.709366  0.709366  1
  Ba  Ba1  1  0.286649  0.286649  0.286649  1
  Ba  Ba2  1  0.868628  0.868628  0.868628  1
  Ba  Ba3  1  0.137917  0.137917  0.137917  1
  Gd  Gd4  1  0.999866  0.999866  0.999866  1
  Re  Re5  1  0.421641  0.421641  0.421641  1
  W  W6  1  0.577855  0.577855  0.577855  1
  O  O7  1  0.385426  0.385426  0.863281  1
  O  O8  1  0.863281  0.385426  0.385426  1
  O  O9  1  0.385426  0.863281  0.385426  1
  O  O10  1  0.608302  0.608302  0.144883  1
  O  O11  1  0.144883  0.608302  0.608302  1
  O  O12  1  0.608302  0.144883  0.608302  1
  O  O13  1  0.228015  0.228015  0.680511  1
  O  O14  1  0.680511  0.228015  0.228015  1
  O  O15  1  0.228015  0.680511  0.228015  1
  O  O16  1  0.776154  0.776154  0.313608  1
  O  O17  1  0.313608  0.776154  0.776154  1
  O  O18  1  0.776154  0.313608  0.776154  1
