# generated using pymatgen
data_YbLu(CuO2)4
_symmetry_space_group_name_H-M   'P 1'
_cell_length_a   6.20668072
_cell_length_b   6.20668092
_cell_length_c   6.20668015
_cell_angle_alpha   126.02283725
_cell_angle_beta   126.02284107
_cell_angle_gamma   79.85059905
_symmetry_Int_Tables_number   1
_chemical_formula_structural   YbLu(CuO2)4
_chemical_formula_sum   'Yb1 Lu1 Cu4 O8'
_cell_volume   151.04985674
_cell_formula_units_Z   1
loop_
 _symmetry_equiv_pos_site_id
 _symmetry_equiv_pos_as_xyz
  1  'x, y, z'
loop_
 _atom_site_type_symbol
 _atom_site_label
 _atom_site_symmetry_multiplicity
 _atom_site_fract_x
 _atom_site_fract_y
 _atom_site_fract_z
 _atom_site_occupancy
  Yb  Yb0  1  0.000000  0.000000  0.000000  1
  Lu  Lu1  1  0.750000  0.250000  0.500000  1
  Cu  Cu2  1  0.873793  0.618879  0.243704  1
  Cu  Cu3  1  0.375175  0.630089  0.756296  1
  Cu  Cu4  1  0.369911  0.126207  0.745086  1
  Cu  Cu5  1  0.381121  0.624825  0.254914  1
  O  O6  1  0.416054  0.845787  0.155223  1
  O  O7  1  0.690565  0.260832  0.844777  1
  O  O8  1  0.357779  0.413736  0.371087  1
  O  O9  1  0.042649  0.986692  0.628913  1
  O  O10  1  0.013308  0.642221  0.055957  1
  O  O11  1  0.586264  0.957351  0.944043  1
  O  O12  1  0.154213  0.309435  0.570268  1
  O  O13  1  0.739168  0.583946  0.429732  1
