# generated using pymatgen
data_Pu6ScTaSb10
_symmetry_space_group_name_H-M   'P 1'
_cell_length_a   9.23753000
_cell_length_b   9.23752857
_cell_length_c   6.22401300
_cell_angle_alpha   90.00000000
_cell_angle_beta   90.00000000
_cell_angle_gamma   120.00000511
_symmetry_Int_Tables_number   1
_chemical_formula_structural   Pu6ScTaSb10
_chemical_formula_sum   'Pu6 Sc1 Ta1 Sb10'
_cell_volume   459.95225983
_cell_formula_units_Z   1
loop_
 _symmetry_equiv_pos_site_id
 _symmetry_equiv_pos_as_xyz
  1  'x, y, z'
loop_
 _atom_site_type_symbol
 _atom_site_label
 _atom_site_symmetry_multiplicity
 _atom_site_fract_x
 _atom_site_fract_y
 _atom_site_fract_z
 _atom_site_occupancy
  Pu  Pu0  1  0.615523  0.000000  0.750006  1
  Pu  Pu1  1  0.384477  0.000000  0.249994  1
  Pu  Pu2  1  0.000000  0.615523  0.750006  1
  Pu  Pu3  1  0.000000  0.384477  0.249994  1
  Pu  Pu4  1  0.384477  0.384477  0.750006  1
  Pu  Pu5  1  0.615523  0.615523  0.249994  1
  Sc  Sc6  1  0.000000  0.000000  0.500000  1
  Ta  Ta7  1  0.000000  0.000000  0.000000  1
  Sb  Sb8  1  0.264399  0.000000  0.755452  1
  Sb  Sb9  1  0.735601  0.000000  0.244548  1
  Sb  Sb10  1  0.000000  0.264399  0.755452  1
  Sb  Sb11  1  0.000000  0.735601  0.244548  1
  Sb  Sb12  1  0.735601  0.735601  0.755452  1
  Sb  Sb13  1  0.264399  0.264399  0.244548  1
  Sb  Sb14  1  0.333333  0.666667  0.500000  1
  Sb  Sb15  1  0.666667  0.333333  0.500000  1
  Sb  Sb16  1  0.666667  0.333333  0.000000  1
  Sb  Sb17  1  0.333333  0.666667  0.000000  1
