# generated using pymatgen
data_Hf8Mn3MoIr4
_symmetry_space_group_name_H-M   'P 1'
_cell_length_a   6.46322900
_cell_length_b   4.57983500
_cell_length_c   9.14464400
_cell_angle_alpha   90.00000000
_cell_angle_beta   89.99978084
_cell_angle_gamma   90.00000000
_symmetry_Int_Tables_number   1
_chemical_formula_structural   Hf8Mn3MoIr4
_chemical_formula_sum   'Hf8 Mn3 Mo1 Ir4'
_cell_volume   270.68623944
_cell_formula_units_Z   1
loop_
 _symmetry_equiv_pos_site_id
 _symmetry_equiv_pos_as_xyz
  1  'x, y, z'
loop_
 _atom_site_type_symbol
 _atom_site_label
 _atom_site_symmetry_multiplicity
 _atom_site_fract_x
 _atom_site_fract_y
 _atom_site_fract_z
 _atom_site_occupancy
  Hf  Hf0  1  0.002533  0.750000  0.124982  1
  Hf  Hf1  1  0.497475  0.750000  0.124982  1
  Hf  Hf2  1  0.000567  0.250001  0.377309  1
  Hf  Hf3  1  0.499431  0.250001  0.377310  1
  Hf  Hf4  1  0.500858  0.750000  0.625029  1
  Hf  Hf5  1  0.999137  0.750000  0.625029  1
  Hf  Hf6  1  0.499384  0.250001  0.872671  1
  Hf  Hf7  1  0.000626  0.250001  0.872672  1
  Mn  Mn8  1  0.250007  0.750000  0.376719  1
  Mn  Mn9  1  0.749980  0.250001  0.624994  1
  Mn  Mn10  1  0.249996  0.750000  0.873319  1
  Mo  Mo11  1  0.750009  0.250001  0.125007  1
  Ir  Ir12  1  0.250003  0.250001  0.124975  1
  Ir  Ir13  1  0.749999  0.750000  0.377644  1
  Ir  Ir14  1  0.249989  0.250001  0.624995  1
  Ir  Ir15  1  0.750006  0.750000  0.872364  1
