# generated using pymatgen
data_Tb3Tm2InSb2
_symmetry_space_group_name_H-M   'P 1'
_cell_length_a   8.96798100
_cell_length_b   8.94769849
_cell_length_c   6.44516900
_cell_angle_alpha   90.00000000
_cell_angle_beta   90.00000000
_cell_angle_gamma   120.07501671
_symmetry_Int_Tables_number   1
_chemical_formula_structural   Tb3Tm2InSb2
_chemical_formula_sum   'Tb6 Tm4 In2 Sb4'
_cell_volume   447.55063173
_cell_formula_units_Z   2
loop_
 _symmetry_equiv_pos_site_id
 _symmetry_equiv_pos_as_xyz
  1  'x, y, z'
loop_
 _atom_site_type_symbol
 _atom_site_label
 _atom_site_symmetry_multiplicity
 _atom_site_fract_x
 _atom_site_fract_y
 _atom_site_fract_z
 _atom_site_occupancy
  Tb  Tb0  1  0.238056  0.000000  0.250000  1
  Tb  Tb1  1  0.761944  0.000000  0.750000  1
  Tb  Tb2  1  0.993627  0.240005  0.250000  1
  Tb  Tb3  1  0.753622  0.759995  0.250000  1
  Tb  Tb4  1  0.246378  0.240005  0.750000  1
  Tb  Tb5  1  0.006373  0.759995  0.750000  1
  Tm  Tm6  1  0.334711  0.669425  0.000000  1
  Tm  Tm7  1  0.665289  0.330575  0.500000  1
  Tm  Tm8  1  0.665289  0.330575  0.000000  1
  Tm  Tm9  1  0.334711  0.669425  0.500000  1
  In  In10  1  0.598919  0.000000  0.250000  1
  In  In11  1  0.401081  0.000000  0.750000  1
  Sb  Sb12  1  0.998089  0.607197  0.250000  1
  Sb  Sb13  1  0.390892  0.392803  0.250000  1
  Sb  Sb14  1  0.609108  0.607197  0.750000  1
  Sb  Sb15  1  0.001911  0.392803  0.750000  1
