# generated using pymatgen
data_Tl6Cr3IrCl18
_symmetry_space_group_name_H-M   'P 1'
_cell_length_a   6.98678500
_cell_length_b   6.98678586
_cell_length_c   17.69855600
_cell_angle_alpha   90.00000000
_cell_angle_beta   90.00000000
_cell_angle_gamma   120.00000068
_symmetry_Int_Tables_number   1
_chemical_formula_structural   Tl6Cr3IrCl18
_chemical_formula_sum   'Tl6 Cr3 Ir1 Cl18'
_cell_volume   748.20959728
_cell_formula_units_Z   1
loop_
 _symmetry_equiv_pos_site_id
 _symmetry_equiv_pos_as_xyz
  1  'x, y, z'
loop_
 _atom_site_type_symbol
 _atom_site_label
 _atom_site_symmetry_multiplicity
 _atom_site_fract_x
 _atom_site_fract_y
 _atom_site_fract_z
 _atom_site_occupancy
  Tl  Tl0  1  0.666667  0.333333  0.564532  1
  Tl  Tl1  1  0.333333  0.666667  0.063951  1
  Tl  Tl2  1  0.333333  0.666667  0.436827  1
  Tl  Tl3  1  0.666667  0.333333  0.938244  1
  Tl  Tl4  1  0.000000  0.000000  0.250638  1
  Tl  Tl5  1  0.000000  0.000000  0.748523  1
  Cr  Cr6  1  0.666667  0.333333  0.338692  1
  Cr  Cr7  1  0.333333  0.666667  0.838076  1
  Cr  Cr8  1  0.666667  0.333333  0.161487  1
  Ir  Ir9  1  0.333333  0.666667  0.665950  1
  Cl  Cl10  1  0.825398  0.650796  0.409019  1
  Cl  Cl11  1  0.175594  0.824406  0.590170  1
  Cl  Cl12  1  0.648813  0.824406  0.590170  1
  Cl  Cl13  1  0.825398  0.174602  0.409019  1
  Cl  Cl14  1  0.349204  0.174602  0.409019  1
  Cl  Cl15  1  0.174813  0.349626  0.908516  1
  Cl  Cl16  1  0.022770  0.511386  0.749417  1
  Cl  Cl17  1  0.650374  0.825187  0.908516  1
  Cl  Cl18  1  0.825249  0.650499  0.090692  1
  Cl  Cl19  1  0.175594  0.351187  0.590170  1
  Cl  Cl20  1  0.488614  0.977230  0.749417  1
  Cl  Cl21  1  0.513569  0.486431  0.249880  1
  Cl  Cl22  1  0.488614  0.511386  0.749417  1
  Cl  Cl23  1  0.174813  0.825187  0.908516  1
  Cl  Cl24  1  0.349501  0.174751  0.090692  1
  Cl  Cl25  1  0.972863  0.486431  0.249880  1
  Cl  Cl26  1  0.513569  0.027137  0.249880  1
  Cl  Cl27  1  0.825249  0.174751  0.090692  1
