# generated using pymatgen
data_Dy2Pa2H15
_symmetry_space_group_name_H-M   'P 1'
_cell_length_a   7.57009422
_cell_length_b   7.57009393
_cell_length_c   7.57009500
_cell_angle_alpha   109.48012659
_cell_angle_beta   109.48012581
_cell_angle_gamma   109.48013430
_symmetry_Int_Tables_number   1
_chemical_formula_structural   Dy2Pa2H15
_chemical_formula_sum   'Dy4 Pa4 H30'
_cell_volume   333.84022984
_cell_formula_units_Z   2
loop_
 _symmetry_equiv_pos_site_id
 _symmetry_equiv_pos_as_xyz
  1  'x, y, z'
loop_
 _atom_site_type_symbol
 _atom_site_label
 _atom_site_symmetry_multiplicity
 _atom_site_fract_x
 _atom_site_fract_y
 _atom_site_fract_z
 _atom_site_occupancy
  Dy  Dy0  1  0.000262  0.584670  0.494965  1
  Dy  Dy1  1  0.584670  0.494965  0.000262  1
  Dy  Dy2  1  0.494965  0.000262  0.584670  1
  Dy  Dy3  1  0.420589  0.420589  0.420589  1
  Pa  Pa4  1  0.916041  0.916041  0.916041  1
  Pa  Pa5  1  0.500086  0.001885  0.083846  1
  Pa  Pa6  1  0.001885  0.083846  0.500086  1
  Pa  Pa7  1  0.083846  0.500086  0.001885  1
  H  H8  1  0.654540  0.970185  0.367804  1
  H  H9  1  0.215461  0.317698  0.847101  1
  H  H10  1  0.179514  0.396170  0.529834  1
  H  H11  1  0.092010  0.277671  0.121170  1
  H  H12  1  0.277671  0.121170  0.092010  1
  H  H13  1  0.121170  0.092010  0.277671  1
  H  H14  1  0.464127  0.149610  0.876924  1
  H  H15  1  0.725530  0.345816  0.813673  1
  H  H16  1  0.619969  0.361862  0.243753  1
  H  H17  1  0.243753  0.619969  0.361862  1
  H  H18  1  0.754818  0.885950  0.130157  1
  H  H19  1  0.130157  0.754818  0.885950  1
  H  H20  1  0.361862  0.243753  0.619969  1
  H  H21  1  0.885950  0.130157  0.754818  1
  H  H22  1  0.787852  0.600846  0.635763  1
  H  H23  1  0.317698  0.847101  0.215461  1
  H  H24  1  0.367804  0.654540  0.970185  1
  H  H25  1  0.970185  0.367804  0.654540  1
  H  H26  1  0.529834  0.179514  0.396170  1
  H  H27  1  0.396170  0.529834  0.179514  1
  H  H28  1  0.847101  0.215461  0.317698  1
  H  H29  1  0.909574  0.687878  0.034394  1
  H  H30  1  0.813673  0.725530  0.345816  1
  H  H31  1  0.149610  0.876924  0.464127  1
  H  H32  1  0.687878  0.034394  0.909574  1
  H  H33  1  0.345816  0.813673  0.725530  1
  H  H34  1  0.876924  0.464127  0.149610  1
  H  H35  1  0.635763  0.787852  0.600846  1
  H  H36  1  0.600846  0.635763  0.787852  1
  H  H37  1  0.034394  0.909574  0.687878  1
