# generated using pymatgen
data_Ti2Cr3MoP3
_symmetry_space_group_name_H-M   'P 1'
_cell_length_a   6.37633861
_cell_length_b   6.37633874
_cell_length_c   3.24173900
_cell_angle_alpha   90.00000000
_cell_angle_beta   90.00000000
_cell_angle_gamma   119.04892851
_symmetry_Int_Tables_number   1
_chemical_formula_structural   Ti2Cr3MoP3
_chemical_formula_sum   'Ti2 Cr3 Mo1 P3'
_cell_volume   115.22169837
_cell_formula_units_Z   1
loop_
 _symmetry_equiv_pos_site_id
 _symmetry_equiv_pos_as_xyz
  1  'x, y, z'
loop_
 _atom_site_type_symbol
 _atom_site_label
 _atom_site_symmetry_multiplicity
 _atom_site_fract_x
 _atom_site_fract_y
 _atom_site_fract_z
 _atom_site_occupancy
  Ti  Ti0  1  0.594206  0.995403  0.500000  1
  Ti  Ti1  1  0.995403  0.594206  0.500000  1
  Cr  Cr2  1  0.001121  0.254532  0.000000  1
  Cr  Cr3  1  0.254532  0.001121  0.000000  1
  Cr  Cr4  1  0.748201  0.748201  0.000000  1
  Mo  Mo5  1  0.404811  0.404811  0.500000  1
  P  P6  1  0.668302  0.331250  0.000000  1
  P  P7  1  0.331250  0.668302  0.000000  1
  P  P8  1  0.002174  0.002174  0.500000  1
