# generated using pymatgen
data_Sc2Be2NbIr2Rh3
_symmetry_space_group_name_H-M   'P 1'
_cell_length_a   9.47677000
_cell_length_b   9.51748156
_cell_length_c   3.14925000
_cell_angle_alpha   90.00000000
_cell_angle_beta   90.00000000
_cell_angle_gamma   89.91071650
_symmetry_Int_Tables_number   1
_chemical_formula_structural   Sc2Be2NbIr2Rh3
_chemical_formula_sum   'Sc4 Be4 Nb2 Ir4 Rh6'
_cell_volume   284.04620749
_cell_formula_units_Z   2
loop_
 _symmetry_equiv_pos_site_id
 _symmetry_equiv_pos_as_xyz
  1  'x, y, z'
loop_
 _atom_site_type_symbol
 _atom_site_label
 _atom_site_symmetry_multiplicity
 _atom_site_fract_x
 _atom_site_fract_y
 _atom_site_fract_z
 _atom_site_occupancy
  Sc  Sc0  1  0.671906  0.174105  0.000000  1
  Sc  Sc1  1  0.328094  0.825895  0.000000  1
  Sc  Sc2  1  0.174371  0.327067  0.000000  1
  Sc  Sc3  1  0.825629  0.672933  0.000000  1
  Be  Be4  1  0.121598  0.623072  0.000000  1
  Be  Be5  1  0.878402  0.376928  0.000000  1
  Be  Be6  1  0.623761  0.879060  0.000000  1
  Be  Be7  1  0.376239  0.120940  0.000000  1
  Nb  Nb8  1  0.000000  0.000000  0.000000  1
  Nb  Nb9  1  0.500000  0.500000  0.000000  1
  Ir  Ir10  1  0.571442  0.712700  0.500000  1
  Ir  Ir11  1  0.428558  0.287300  0.500000  1
  Ir  Ir12  1  0.500000  0.000000  0.500000  1
  Ir  Ir13  1  0.000000  0.500000  0.500000  1
  Rh  Rh14  1  0.211118  0.070548  0.500000  1
  Rh  Rh15  1  0.788882  0.929452  0.500000  1
  Rh  Rh16  1  0.071274  0.788088  0.500000  1
  Rh  Rh17  1  0.712655  0.428656  0.500000  1
  Rh  Rh18  1  0.928726  0.211912  0.500000  1
  Rh  Rh19  1  0.287345  0.571344  0.500000  1
