# generated using pymatgen
data_Np2Cd17Ru4
_symmetry_space_group_name_H-M   'P 1'
_cell_length_a   8.63040030
_cell_length_b   8.62056526
_cell_length_c   8.62056360
_cell_angle_alpha   108.39386921
_cell_angle_beta   109.99269744
_cell_angle_gamma   109.99269889
_symmetry_Int_Tables_number   1
_chemical_formula_structural   Np2Cd17Ru4
_chemical_formula_sum   'Np2 Cd17 Ru4'
_cell_volume   493.83342230
_cell_formula_units_Z   1
loop_
 _symmetry_equiv_pos_site_id
 _symmetry_equiv_pos_as_xyz
  1  'x, y, z'
loop_
 _atom_site_type_symbol
 _atom_site_label
 _atom_site_symmetry_multiplicity
 _atom_site_fract_x
 _atom_site_fract_y
 _atom_site_fract_z
 _atom_site_occupancy
  Np  Np0  1  0.000021  0.374964  0.374964  1
  Np  Np1  1  0.999962  0.623978  0.623978  1
  Cd  Cd2  1  0.000017  0.999984  0.999984  1
  Cd  Cd3  1  0.345158  0.499868  0.845491  1
  Cd  Cd4  1  0.654862  0.500347  0.154712  1
  Cd  Cd5  1  0.654862  0.154712  0.500347  1
  Cd  Cd6  1  0.345158  0.845491  0.499868  1
  Cd  Cd7  1  0.437341  0.146013  0.146013  1
  Cd  Cd8  1  0.562676  0.708710  0.708710  1
  Cd  Cd9  1  0.000007  0.854221  0.291468  1
  Cd  Cd10  1  0.000007  0.291468  0.854221  1
  Cd  Cd11  1  0.342382  0.246215  0.482230  1
  Cd  Cd12  1  0.657616  0.139828  0.903856  1
  Cd  Cd13  1  0.236283  0.754096  0.096342  1
  Cd  Cd14  1  0.763724  0.860056  0.517820  1
  Cd  Cd15  1  0.763724  0.517820  0.860056  1
  Cd  Cd16  1  0.236283  0.096342  0.754096  1
  Cd  Cd17  1  0.342382  0.482230  0.246215  1
  Cd  Cd18  1  0.657616  0.903856  0.139828  1
  Ru  Ru19  1  0.678239  0.497741  0.497741  1
  Ru  Ru20  1  0.321674  0.819453  0.819453  1
  Ru  Ru21  1  0.000002  0.502392  0.180215  1
  Ru  Ru22  1  0.000002  0.180215  0.502392  1
