# generated using pymatgen
data_EuMgCdCu9
_symmetry_space_group_name_H-M   'P 1'
_cell_length_a   5.09484200
_cell_length_b   5.09484148
_cell_length_c   16.02767500
_cell_angle_alpha   90.00000000
_cell_angle_beta   90.00000000
_cell_angle_gamma   120.00000338
_symmetry_Int_Tables_number   1
_chemical_formula_structural   EuMgCdCu9
_chemical_formula_sum   'Eu2 Mg2 Cd2 Cu18'
_cell_volume   360.29857189
_cell_formula_units_Z   2
loop_
 _symmetry_equiv_pos_site_id
 _symmetry_equiv_pos_as_xyz
  1  'x, y, z'
loop_
 _atom_site_type_symbol
 _atom_site_label
 _atom_site_symmetry_multiplicity
 _atom_site_fract_x
 _atom_site_fract_y
 _atom_site_fract_z
 _atom_site_occupancy
  Eu  Eu0  1  0.666667  0.333333  0.252006  1
  Eu  Eu1  1  0.333333  0.666667  0.752006  1
  Mg  Mg2  1  0.666667  0.333333  0.030387  1
  Mg  Mg3  1  0.333333  0.666667  0.530387  1
  Cd  Cd4  1  0.666667  0.333333  0.467761  1
  Cd  Cd5  1  0.333333  0.666667  0.967761  1
  Cu  Cu6  1  0.333333  0.666667  0.249815  1
  Cu  Cu7  1  0.666667  0.333333  0.749815  1
  Cu  Cu8  1  0.168419  0.831581  0.377088  1
  Cu  Cu9  1  0.168419  0.336839  0.377088  1
  Cu  Cu10  1  0.000000  0.000000  0.749569  1
  Cu  Cu11  1  0.000000  0.000000  0.249569  1
  Cu  Cu12  1  0.000000  0.000000  0.000305  1
  Cu  Cu13  1  0.000000  0.000000  0.500305  1
  Cu  Cu14  1  0.168272  0.336543  0.122964  1
  Cu  Cu15  1  0.831728  0.168272  0.622964  1
  Cu  Cu16  1  0.336543  0.168272  0.622964  1
  Cu  Cu17  1  0.663457  0.831728  0.122964  1
  Cu  Cu18  1  0.168272  0.831728  0.122964  1
  Cu  Cu19  1  0.831581  0.663161  0.877088  1
  Cu  Cu20  1  0.831581  0.168419  0.877088  1
  Cu  Cu21  1  0.831728  0.663457  0.622964  1
  Cu  Cu22  1  0.336839  0.168419  0.877088  1
  Cu  Cu23  1  0.663161  0.831581  0.377088  1
