# generated using pymatgen
data_TmZr4Re19Tc5
_symmetry_space_group_name_H-M   'P 1'
_cell_length_a   8.49793312
_cell_length_b   8.49845158
_cell_length_c   8.49292347
_cell_angle_alpha   109.48465012
_cell_angle_beta   109.42234228
_cell_angle_gamma   109.50298059
_symmetry_Int_Tables_number   1
_chemical_formula_structural   TmZr4Re19Tc5
_chemical_formula_sum   'Tm1 Zr4 Re19 Tc5'
_cell_volume   472.18047649
_cell_formula_units_Z   1
loop_
 _symmetry_equiv_pos_site_id
 _symmetry_equiv_pos_as_xyz
  1  'x, y, z'
loop_
 _atom_site_type_symbol
 _atom_site_label
 _atom_site_symmetry_multiplicity
 _atom_site_fract_x
 _atom_site_fract_y
 _atom_site_fract_z
 _atom_site_occupancy
  Tm  Tm0  1  0.999964  0.999984  0.000061  1
  Zr  Zr1  1  0.627098  0.000200  0.000185  1
  Zr  Zr2  1  0.998856  0.626654  0.998816  1
  Zr  Zr3  1  0.000116  0.000183  0.628533  1
  Zr  Zr4  1  0.371760  0.371518  0.371710  1
  Re  Re5  1  0.324055  0.720437  0.323594  1
  Re  Re6  1  0.324138  0.323994  0.720497  1
  Re  Re7  1  0.999930  0.675524  0.396266  1
  Re  Re8  1  0.675526  0.000321  0.396315  1
  Re  Re9  1  0.603696  0.603454  0.279621  1
  Re  Re10  1  0.279485  0.603913  0.603651  1
  Re  Re11  1  0.604067  0.279784  0.603559  1
  Re  Re12  1  0.377869  0.195831  0.000043  1
  Re  Re13  1  0.182068  0.805239  0.804779  1
  Re  Re14  1  0.376978  0.999952  0.195077  1
  Re  Re15  1  0.195629  0.377799  0.999925  1
  Re  Re16  1  0.000243  0.377302  0.194948  1
  Re  Re17  1  0.805708  0.182765  0.805318  1
  Re  Re18  1  0.805957  0.806029  0.183629  1
  Re  Re19  1  0.000323  0.194957  0.378556  1
  Re  Re20  1  0.194843  0.999944  0.378080  1
  Re  Re21  1  0.622399  0.622363  0.816632  1
  Re  Re22  1  0.816731  0.621856  0.621561  1
  Re  Re23  1  0.622906  0.817085  0.622606  1
  Tc  Tc24  1  0.396213  0.676077  0.999334  1
  Tc  Tc25  1  0.719893  0.323306  0.322972  1
  Tc  Tc26  1  0.396926  0.000390  0.676835  1
  Tc  Tc27  1  0.676185  0.396271  0.000000  1
  Tc  Tc28  1  0.000438  0.396867  0.676898  1
