# generated using pymatgen
data_LuTh2In3Fe2
_symmetry_space_group_name_H-M   'P 1'
_cell_length_a   8.05636759
_cell_length_b   8.05636750
_cell_length_c   5.02801100
_cell_angle_alpha   80.46548880
_cell_angle_beta   80.46548891
_cell_angle_gamma   34.40871539
_symmetry_Int_Tables_number   1
_chemical_formula_structural   LuTh2In3Fe2
_chemical_formula_sum   'Lu1 Th2 In3 Fe2'
_cell_volume   181.62056798
_cell_formula_units_Z   1
loop_
 _symmetry_equiv_pos_site_id
 _symmetry_equiv_pos_as_xyz
  1  'x, y, z'
loop_
 _atom_site_type_symbol
 _atom_site_label
 _atom_site_symmetry_multiplicity
 _atom_site_fract_x
 _atom_site_fract_y
 _atom_site_fract_z
 _atom_site_occupancy
  Lu  Lu0  1  0.000000  0.000000  0.000000  1
  Th  Th1  1  0.831011  0.831011  0.585291  1
  Th  Th2  1  0.168989  0.168989  0.414709  1
  In  In3  1  0.367811  0.367811  0.051143  1
  In  In4  1  0.500000  0.500000  0.500000  1
  In  In5  1  0.632189  0.632189  0.948857  1
  Fe  Fe6  1  0.795415  0.795415  0.110668  1
  Fe  Fe7  1  0.204585  0.204585  0.889332  1
