# generated using pymatgen
data_Li4Al8Pt3Rh
_symmetry_space_group_name_H-M   'P 1'
_cell_length_a   6.03630800
_cell_length_b   4.29221700
_cell_length_c   8.64844000
_cell_angle_alpha   90.00000000
_cell_angle_beta   90.00014881
_cell_angle_gamma   90.00000000
_symmetry_Int_Tables_number   1
_chemical_formula_structural   Li4Al8Pt3Rh
_chemical_formula_sum   'Li4 Al8 Pt3 Rh1'
_cell_volume   224.07367573
_cell_formula_units_Z   1
loop_
 _symmetry_equiv_pos_site_id
 _symmetry_equiv_pos_as_xyz
  1  'x, y, z'
loop_
 _atom_site_type_symbol
 _atom_site_label
 _atom_site_symmetry_multiplicity
 _atom_site_fract_x
 _atom_site_fract_y
 _atom_site_fract_z
 _atom_site_occupancy
  Li  Li0  1  0.250008  0.250001  0.124327  1
  Li  Li1  1  0.750007  0.750001  0.375033  1
  Li  Li2  1  0.249989  0.250001  0.625633  1
  Li  Li3  1  0.749996  0.750001  0.875027  1
  Al  Al4  1  0.005950  0.750001  0.121295  1
  Al  Al5  1  0.494070  0.750001  0.121300  1
  Al  Al6  1  0.997661  0.250001  0.374985  1
  Al  Al7  1  0.502333  0.250001  0.374990  1
  Al  Al8  1  0.494064  0.750001  0.628721  1
  Al  Al9  1  0.005948  0.750001  0.628724  1
  Al  Al10  1  0.495421  0.250001  0.874981  1
  Al  Al11  1  0.004554  0.250001  0.874986  1
  Pt  Pt12  1  0.749994  0.250001  0.125668  1
  Pt  Pt13  1  0.249996  0.750001  0.375014  1
  Pt  Pt14  1  0.750004  0.250001  0.624299  1
  Rh  Rh15  1  0.250003  0.750001  0.875012  1
