# generated using pymatgen
data_LiZr5(GaRh2)6
_symmetry_space_group_name_H-M   'P 1'
_cell_length_a   4.34594900
_cell_length_b   6.66167700
_cell_length_c   12.89461600
_cell_angle_alpha   90.00145563
_cell_angle_beta   90.00005820
_cell_angle_gamma   90.00002179
_symmetry_Int_Tables_number   1
_chemical_formula_structural   LiZr5(GaRh2)6
_chemical_formula_sum   'Li1 Zr5 Ga6 Rh12'
_cell_volume   373.31600570
_cell_formula_units_Z   1
loop_
 _symmetry_equiv_pos_site_id
 _symmetry_equiv_pos_as_xyz
  1  'x, y, z'
loop_
 _atom_site_type_symbol
 _atom_site_label
 _atom_site_symmetry_multiplicity
 _atom_site_fract_x
 _atom_site_fract_y
 _atom_site_fract_z
 _atom_site_occupancy
  Li  Li0  1  0.000000  0.500000  0.000000  1
  Zr  Zr1  1  0.500009  0.999998  0.160846  1
  Zr  Zr2  1  0.000009  0.499998  0.330233  1
  Zr  Zr3  1  0.500000  0.000000  0.500000  1
  Zr  Zr4  1  0.999991  0.500002  0.669767  1
  Zr  Zr5  1  0.499990  0.000002  0.839153  1
  Ga  Ga6  1  0.000000  0.000000  0.000000  1
  Ga  Ga7  1  0.500012  0.499999  0.159821  1
  Ga  Ga8  1  0.000009  0.000000  0.327817  1
  Ga  Ga9  1  0.500000  0.500000  0.500000  1
  Ga  Ga10  1  0.999991  0.000000  0.672183  1
  Ga  Ga11  1  0.499988  0.500001  0.840179  1
  Rh  Rh12  1  0.500000  0.259271  0.999999  1
  Rh  Rh13  1  0.500000  0.740730  0.000001  1
  Rh  Rh14  1  0.000009  0.255997  0.162339  1
  Rh  Rh15  1  0.000011  0.743993  0.162340  1
  Rh  Rh16  1  0.500009  0.249575  0.331990  1
  Rh  Rh17  1  0.500009  0.750422  0.331992  1
  Rh  Rh18  1  0.000000  0.250458  0.500002  1
  Rh  Rh19  1  0.000000  0.749542  0.499998  1
  Rh  Rh20  1  0.499991  0.249578  0.668008  1
  Rh  Rh21  1  0.499991  0.750425  0.668010  1
  Rh  Rh22  1  0.999989  0.256006  0.837660  1
  Rh  Rh23  1  0.999991  0.744002  0.837661  1
