# generated using pymatgen
data_Ho5Er3B24(IrRu)2
_symmetry_space_group_name_H-M   'P 1'
_cell_length_a   3.63926100
_cell_length_b   9.14909348
_cell_length_c   11.47429000
_cell_angle_alpha   90.06358100
_cell_angle_beta   90.00000000
_cell_angle_gamma   90.00000000
_symmetry_Int_Tables_number   1
_chemical_formula_structural   Ho5Er3B24(IrRu)2
_chemical_formula_sum   'Ho5 Er3 B24 Ir2 Ru2'
_cell_volume   382.04702555
_cell_formula_units_Z   1
loop_
 _symmetry_equiv_pos_site_id
 _symmetry_equiv_pos_as_xyz
  1  'x, y, z'
loop_
 _atom_site_type_symbol
 _atom_site_label
 _atom_site_symmetry_multiplicity
 _atom_site_fract_x
 _atom_site_fract_y
 _atom_site_fract_z
 _atom_site_occupancy
  Ho  Ho0  1  0.000000  0.319108  0.411988  1
  Ho  Ho1  1  0.000000  0.680927  0.588151  1
  Ho  Ho2  1  0.000000  0.823113  0.085083  1
  Ho  Ho3  1  0.000000  0.176900  0.914816  1
  Ho  Ho4  1  0.000000  0.945882  0.372890  1
  Er  Er5  1  0.000000  0.054153  0.627292  1
  Er  Er6  1  0.000000  0.442505  0.125643  1
  Er  Er7  1  0.000000  0.557517  0.874285  1
  B  B8  1  0.500000  0.552886  0.433770  1
  B  B9  1  0.500000  0.446980  0.566303  1
  B  B10  1  0.500000  0.054126  0.066709  1
  B  B11  1  0.500000  0.945932  0.933179  1
  B  B12  1  0.500000  0.750230  0.420423  1
  B  B13  1  0.500000  0.249453  0.579687  1
  B  B14  1  0.500000  0.248228  0.079853  1
  B  B15  1  0.500000  0.751824  0.920100  1
  B  B16  1  0.500000  0.792719  0.265737  1
  B  B17  1  0.500000  0.206995  0.734163  1
  B  B18  1  0.500000  0.292149  0.234068  1
  B  B19  1  0.500000  0.707973  0.765905  1
  B  B20  1  0.500000  0.631676  0.184086  1
  B  B21  1  0.500000  0.368268  0.815868  1
  B  B22  1  0.500000  0.132391  0.314706  1
  B  B23  1  0.500000  0.867869  0.685221  1
  B  B24  1  0.500000  0.983695  0.212690  1
  B  B25  1  0.500000  0.016479  0.787074  1
  B  B26  1  0.500000  0.481674  0.286356  1
  B  B27  1  0.500000  0.518265  0.713621  1
  B  B28  1  0.500000  0.609993  0.030480  1
  B  B29  1  0.500000  0.390001  0.969467  1
  B  B30  1  0.500000  0.109950  0.470375  1
  B  B31  1  0.500000  0.890239  0.530108  1
  Ir  Ir32  1  0.000000  0.637273  0.322046  1
  Ir  Ir33  1  0.000000  0.362389  0.677984  1
  Ru  Ru34  1  0.000000  0.138376  0.178850  1
  Ru  Ru35  1  0.000000  0.861863  0.821021  1
