# generated using pymatgen
data_NdY5(Ni3P2)6
_symmetry_space_group_name_H-M   'P 1'
_cell_length_a   3.80702700
_cell_length_b   10.51703300
_cell_length_c   12.38101200
_cell_angle_alpha   90.00000000
_cell_angle_beta   90.00000000
_cell_angle_gamma   90.00000000
_symmetry_Int_Tables_number   1
_chemical_formula_structural   NdY5(Ni3P2)6
_chemical_formula_sum   'Nd1 Y5 Ni18 P12'
_cell_volume   495.71874105
_cell_formula_units_Z   1
loop_
 _symmetry_equiv_pos_site_id
 _symmetry_equiv_pos_as_xyz
  1  'x, y, z'
loop_
 _atom_site_type_symbol
 _atom_site_label
 _atom_site_symmetry_multiplicity
 _atom_site_fract_x
 _atom_site_fract_y
 _atom_site_fract_z
 _atom_site_occupancy
  Nd  Nd0  1  0.000000  0.500000  0.520380  1
  Y  Y1  1  0.500000  0.000000  0.479583  1
  Y  Y2  1  0.500000  0.816607  0.205402  1
  Y  Y3  1  0.500000  0.183393  0.205402  1
  Y  Y4  1  0.000000  0.684383  0.795367  1
  Y  Y5  1  0.000000  0.315617  0.795367  1
  Ni  Ni6  1  0.500000  0.500000  0.156119  1
  Ni  Ni7  1  0.000000  0.000000  0.841986  1
  Ni  Ni8  1  0.500000  0.500000  0.701886  1
  Ni  Ni9  1  0.000000  0.000000  0.300226  1
  Ni  Ni10  1  0.000000  0.500000  0.984536  1
  Ni  Ni11  1  0.500000  0.000000  0.016216  1
  Ni  Ni12  1  0.500000  0.332333  0.995712  1
  Ni  Ni13  1  0.500000  0.667667  0.995712  1
  Ni  Ni14  1  0.000000  0.166491  0.004117  1
  Ni  Ni15  1  0.000000  0.833509  0.004117  1
  Ni  Ni16  1  0.500000  0.298323  0.427275  1
  Ni  Ni17  1  0.500000  0.701677  0.427275  1
  Ni  Ni18  1  0.000000  0.197508  0.572248  1
  Ni  Ni19  1  0.000000  0.802492  0.572248  1
  Ni  Ni20  1  0.500000  0.880323  0.712437  1
  Ni  Ni21  1  0.500000  0.119677  0.712437  1
  Ni  Ni22  1  0.000000  0.620611  0.286831  1
  Ni  Ni23  1  0.000000  0.379389  0.286831  1
  P  P24  1  0.500000  0.500000  0.877879  1
  P  P25  1  0.000000  0.000000  0.123292  1
  P  P26  1  0.500000  0.500000  0.339178  1
  P  P27  1  0.000000  0.000000  0.657435  1
  P  P28  1  0.500000  0.309909  0.615634  1
  P  P29  1  0.500000  0.690091  0.615634  1
  P  P30  1  0.000000  0.187181  0.386039  1
  P  P31  1  0.000000  0.812819  0.386039  1
  P  P32  1  0.500000  0.848548  0.893558  1
  P  P33  1  0.500000  0.151452  0.893558  1
  P  P34  1  0.000000  0.652689  0.106019  1
  P  P35  1  0.000000  0.347311  0.106019  1
