# generated using pymatgen
data_TbDy4RuRhO12
_symmetry_space_group_name_H-M   'P 1'
_cell_length_a   6.87223997
_cell_length_b   6.87151777
_cell_length_c   7.34819106
_cell_angle_alpha   74.28836699
_cell_angle_beta   74.28197457
_cell_angle_gamma   50.34773497
_symmetry_Int_Tables_number   1
_chemical_formula_structural   TbDy4RuRhO12
_chemical_formula_sum   'Tb1 Dy4 Ru1 Rh1 O12'
_cell_volume   254.92236439
_cell_formula_units_Z   1
loop_
 _symmetry_equiv_pos_site_id
 _symmetry_equiv_pos_as_xyz
  1  'x, y, z'
loop_
 _atom_site_type_symbol
 _atom_site_label
 _atom_site_symmetry_multiplicity
 _atom_site_fract_x
 _atom_site_fract_y
 _atom_site_fract_z
 _atom_site_occupancy
  Tb  Tb0  1  0.307321  0.310922  0.331027  1
  Dy  Dy1  1  0.688966  0.692602  0.669281  1
  Dy  Dy2  1  0.694049  0.702829  0.140453  1
  Dy  Dy3  1  0.998046  0.002075  0.999822  1
  Dy  Dy4  1  0.297199  0.305997  0.858971  1
  Ru  Ru5  1  0.766175  0.233826  0.500172  1
  Rh  Rh6  1  0.245714  0.754180  0.500286  1
  O  O7  1  0.401227  0.905724  0.925232  1
  O  O8  1  0.576315  0.095812  0.585047  1
  O  O9  1  0.902737  0.424751  0.415848  1
  O  O10  1  0.093653  0.599457  0.073687  1
  O  O11  1  0.996768  0.002411  0.309550  1
  O  O12  1  0.506527  0.492458  0.685306  1
  O  O13  1  0.899553  0.404311  0.927293  1
  O  O14  1  0.092534  0.570101  0.586134  1
  O  O15  1  0.431173  0.905700  0.414889  1
  O  O16  1  0.596350  0.099847  0.071646  1
  O  O17  1  0.507816  0.493845  0.315062  1
  O  O18  1  0.997876  0.003152  0.690294  1
