# generated using pymatgen
data_Tm5CdIn(HgPd)2
_symmetry_space_group_name_H-M   'P 1'
_cell_length_a   7.88004241
_cell_length_b   18.23979595
_cell_length_c   3.59417900
_cell_angle_alpha   90.00000000
_cell_angle_beta   90.00000000
_cell_angle_gamma   89.65306081
_symmetry_Int_Tables_number   1
_chemical_formula_structural   Tm5CdIn(HgPd)2
_chemical_formula_sum   'Tm10 Cd2 In2 Hg4 Pd4'
_cell_volume   516.58319119
_cell_formula_units_Z   2
loop_
 _symmetry_equiv_pos_site_id
 _symmetry_equiv_pos_as_xyz
  1  'x, y, z'
loop_
 _atom_site_type_symbol
 _atom_site_label
 _atom_site_symmetry_multiplicity
 _atom_site_fract_x
 _atom_site_fract_y
 _atom_site_fract_z
 _atom_site_occupancy
  Tm  Tm0  1  0.500000  0.500000  0.000000  1
  Tm  Tm1  1  0.000000  0.000000  0.000000  1
  Tm  Tm2  1  0.743889  0.283054  0.000000  1
  Tm  Tm3  1  0.256111  0.716946  0.000000  1
  Tm  Tm4  1  0.753841  0.782193  0.000000  1
  Tm  Tm5  1  0.246159  0.217807  0.000000  1
  Tm  Tm6  1  0.613112  0.083186  0.000000  1
  Tm  Tm7  1  0.386888  0.916814  0.000000  1
  Tm  Tm8  1  0.887850  0.582941  0.000000  1
  Tm  Tm9  1  0.112150  0.417059  0.000000  1
  Cd  Cd10  1  0.576603  0.648740  0.500000  1
  Cd  Cd11  1  0.423397  0.351260  0.500000  1
  In  In12  1  0.924076  0.149203  0.500000  1
  In  In13  1  0.075924  0.850797  0.500000  1
  Hg  Hg14  1  0.713949  0.932770  0.500000  1
  Hg  Hg15  1  0.286051  0.067230  0.500000  1
  Hg  Hg16  1  0.784021  0.432687  0.500000  1
  Hg  Hg17  1  0.215979  0.567313  0.500000  1
  Pd  Pd18  1  0.533010  0.196542  0.500000  1
  Pd  Pd19  1  0.466990  0.803458  0.500000  1
  Pd  Pd20  1  0.967582  0.696753  0.500000  1
  Pd  Pd21  1  0.032418  0.303247  0.500000  1
