# generated using pymatgen
data_Yb4VB16Os3
_symmetry_space_group_name_H-M   'P 1'
_cell_length_a   3.52185400
_cell_length_b   5.96479953
_cell_length_c   11.54214235
_cell_angle_alpha   89.89286735
_cell_angle_beta   90.00000000
_cell_angle_gamma   90.00000000
_symmetry_Int_Tables_number   1
_chemical_formula_structural   Yb4VB16Os3
_chemical_formula_sum   'Yb4 V1 B16 Os3'
_cell_volume   242.46712721
_cell_formula_units_Z   1
loop_
 _symmetry_equiv_pos_site_id
 _symmetry_equiv_pos_as_xyz
  1  'x, y, z'
loop_
 _atom_site_type_symbol
 _atom_site_label
 _atom_site_symmetry_multiplicity
 _atom_site_fract_x
 _atom_site_fract_y
 _atom_site_fract_z
 _atom_site_occupancy
  Yb  Yb0  1  0.000000  0.128092  0.651645  1
  Yb  Yb1  1  0.000000  0.870941  0.348485  1
  Yb  Yb2  1  0.000000  0.625314  0.850415  1
  Yb  Yb3  1  0.000000  0.373933  0.150237  1
  V  V4  1  0.000000  0.128350  0.917814  1
  B  B5  1  0.500000  0.474398  0.692361  1
  B  B6  1  0.500000  0.525536  0.307924  1
  B  B7  1  0.500000  0.978220  0.807798  1
  B  B8  1  0.500000  0.022897  0.192021  1
  B  B9  1  0.500000  0.285274  0.815243  1
  B  B10  1  0.500000  0.715090  0.183771  1
  B  B11  1  0.500000  0.785234  0.685210  1
  B  B12  1  0.500000  0.214790  0.314402  1
  B  B13  1  0.500000  0.364348  0.967190  1
  B  B14  1  0.500000  0.635962  0.031953  1
  B  B15  1  0.500000  0.863916  0.530799  1
  B  B16  1  0.500000  0.135630  0.469284  1
  B  B17  1  0.500000  0.386138  0.547576  1
  B  B18  1  0.500000  0.613281  0.452286  1
  B  B19  1  0.500000  0.885001  0.952680  1
  B  B20  1  0.500000  0.114354  0.047570  1
  Os  Os21  1  0.000000  0.872694  0.084336  1
  Os  Os22  1  0.000000  0.635122  0.586241  1
  Os  Os23  1  0.000000  0.365485  0.412758  1
