# generated using pymatgen
data_Sc4CrTc7
_symmetry_space_group_name_H-M   'P 1'
_cell_length_a   5.20342735
_cell_length_b   5.20342780
_cell_length_c   8.54113800
_cell_angle_alpha   90.00000000
_cell_angle_beta   90.00000000
_cell_angle_gamma   119.29906612
_symmetry_Int_Tables_number   1
_chemical_formula_structural   Sc4CrTc7
_chemical_formula_sum   'Sc4 Cr1 Tc7'
_cell_volume   201.67391234
_cell_formula_units_Z   1
loop_
 _symmetry_equiv_pos_site_id
 _symmetry_equiv_pos_as_xyz
  1  'x, y, z'
loop_
 _atom_site_type_symbol
 _atom_site_label
 _atom_site_symmetry_multiplicity
 _atom_site_fract_x
 _atom_site_fract_y
 _atom_site_fract_z
 _atom_site_occupancy
  Sc  Sc0  1  0.332740  0.667260  0.439096  1
  Sc  Sc1  1  0.667576  0.332424  0.561699  1
  Sc  Sc2  1  0.667576  0.332424  0.938301  1
  Sc  Sc3  1  0.332740  0.667260  0.060904  1
  Cr  Cr4  1  0.829242  0.170758  0.250000  1
  Tc  Tc5  1  0.997726  0.002274  0.492053  1
  Tc  Tc6  1  0.997726  0.002274  0.007947  1
  Tc  Tc7  1  0.826484  0.649664  0.250000  1
  Tc  Tc8  1  0.350336  0.173516  0.250000  1
  Tc  Tc9  1  0.169498  0.830502  0.750000  1
  Tc  Tc10  1  0.171166  0.342809  0.750000  1
  Tc  Tc11  1  0.657191  0.828834  0.750000  1
