# generated using pymatgen
data_Tb2Dy6Hf11Si16Au
_symmetry_space_group_name_H-M   'P 1'
_cell_length_a   7.29279914
_cell_length_b   7.29226781
_cell_length_c   13.26443210
_cell_angle_alpha   89.77295811
_cell_angle_beta   90.22985279
_cell_angle_gamma   89.82033271
_symmetry_Int_Tables_number   1
_chemical_formula_structural   Tb2Dy6Hf11Si16Au
_chemical_formula_sum   'Tb2 Dy6 Hf11 Si16 Au1'
_cell_volume   705.40163436
_cell_formula_units_Z   1
loop_
 _symmetry_equiv_pos_site_id
 _symmetry_equiv_pos_as_xyz
  1  'x, y, z'
loop_
 _atom_site_type_symbol
 _atom_site_label
 _atom_site_symmetry_multiplicity
 _atom_site_fract_x
 _atom_site_fract_y
 _atom_site_fract_z
 _atom_site_occupancy
  Tb  Tb0  1  0.345738  0.997896  0.789495  1
  Tb  Tb1  1  0.655089  0.005129  0.283436  1
  Dy  Dy2  1  0.998031  0.345884  0.210504  1
  Dy  Dy3  1  0.004933  0.654867  0.716554  1
  Dy  Dy4  1  0.154944  0.495570  0.464808  1
  Dy  Dy5  1  0.498228  0.848387  0.032673  1
  Dy  Dy6  1  0.848435  0.498191  0.967241  1
  Dy  Dy7  1  0.495554  0.154995  0.535271  1
  Hf  Hf8  1  0.824801  0.824704  0.500045  1
  Hf  Hf9  1  0.322783  0.676943  0.249038  1
  Hf  Hf10  1  0.677113  0.322984  0.750948  1
  Hf  Hf11  1  0.145480  0.996621  0.373910  1
  Hf  Hf12  1  0.857140  0.003139  0.878956  1
  Hf  Hf13  1  0.504261  0.646647  0.626450  1
  Hf  Hf14  1  0.355458  0.491708  0.877754  1
  Hf  Hf15  1  0.491688  0.355500  0.122213  1
  Hf  Hf16  1  0.646706  0.504221  0.373560  1
  Hf  Hf17  1  0.996590  0.145518  0.626103  1
  Hf  Hf18  1  0.003135  0.857161  0.121001  1
  Si  Si19  1  0.359464  0.296195  0.316398  1
  Si  Si20  1  0.640166  0.704135  0.819873  1
  Si  Si21  1  0.206996  0.861087  0.568667  1
  Si  Si22  1  0.131402  0.774541  0.927128  1
  Si  Si23  1  0.774860  0.131613  0.072830  1
  Si  Si24  1  0.861268  0.207169  0.431481  1
  Si  Si25  1  0.296065  0.359805  0.683559  1
  Si  Si26  1  0.704381  0.639823  0.180050  1
  Si  Si27  1  0.294950  0.052266  0.188762  1
  Si  Si28  1  0.705074  0.950323  0.686818  1
  Si  Si29  1  0.449888  0.795414  0.435663  1
  Si  Si30  1  0.210125  0.566458  0.064208  1
  Si  Si31  1  0.566662  0.210290  0.935805  1
  Si  Si32  1  0.795543  0.450059  0.564471  1
  Si  Si33  1  0.052044  0.295350  0.811124  1
  Si  Si34  1  0.950451  0.704757  0.313130  1
  Au  Au35  1  0.174553  0.174648  0.000074  1
