# generated using pymatgen
data_PrHo(ZnPb)2
_symmetry_space_group_name_H-M   'P 1'
_cell_length_a   4.64513700
_cell_length_b   4.64513756
_cell_length_c   16.32959200
_cell_angle_alpha   90.00000000
_cell_angle_beta   90.00000000
_cell_angle_gamma   120.00000316
_symmetry_Int_Tables_number   1
_chemical_formula_structural   PrHo(ZnPb)2
_chemical_formula_sum   'Pr2 Ho2 Zn4 Pb4'
_cell_volume   305.14275173
_cell_formula_units_Z   2
loop_
 _symmetry_equiv_pos_site_id
 _symmetry_equiv_pos_as_xyz
  1  'x, y, z'
loop_
 _atom_site_type_symbol
 _atom_site_label
 _atom_site_symmetry_multiplicity
 _atom_site_fract_x
 _atom_site_fract_y
 _atom_site_fract_z
 _atom_site_occupancy
  Pr  Pr0  1  0.000000  0.000000  0.500000  1
  Pr  Pr1  1  0.000000  0.000000  0.000000  1
  Ho  Ho2  1  0.000000  0.000000  0.250000  1
  Ho  Ho3  1  0.000000  0.000000  0.750000  1
  Zn  Zn4  1  0.333333  0.666667  0.332474  1
  Zn  Zn5  1  0.666667  0.333333  0.667526  1
  Zn  Zn6  1  0.666667  0.333333  0.832474  1
  Zn  Zn7  1  0.333333  0.666667  0.167526  1
  Pb  Pb8  1  0.333333  0.666667  0.883204  1
  Pb  Pb9  1  0.666667  0.333333  0.116796  1
  Pb  Pb10  1  0.666667  0.333333  0.383204  1
  Pb  Pb11  1  0.333333  0.666667  0.616796  1
