# generated using pymatgen
data_Er20Ir8Ru3Au
_symmetry_space_group_name_H-M   'P 1'
_cell_length_a   10.79018933
_cell_length_b   10.78266260
_cell_length_c   6.39753834
_cell_angle_alpha   90.03198682
_cell_angle_beta   90.01956048
_cell_angle_gamma   89.76243564
_symmetry_Int_Tables_number   1
_chemical_formula_structural   Er20Ir8Ru3Au
_chemical_formula_sum   'Er20 Ir8 Ru3 Au1'
_cell_volume   744.32765087
_cell_formula_units_Z   1
loop_
 _symmetry_equiv_pos_site_id
 _symmetry_equiv_pos_as_xyz
  1  'x, y, z'
loop_
 _atom_site_type_symbol
 _atom_site_label
 _atom_site_symmetry_multiplicity
 _atom_site_fract_x
 _atom_site_fract_y
 _atom_site_fract_z
 _atom_site_occupancy
  Er  Er0  1  0.292530  0.086045  0.377342  1
  Er  Er1  1  0.295015  0.913506  0.877420  1
  Er  Er2  1  0.701600  0.083039  0.866109  1
  Er  Er3  1  0.703510  0.907100  0.380562  1
  Er  Er4  1  0.585890  0.793242  0.878714  1
  Er  Er5  1  0.578420  0.207196  0.378800  1
  Er  Er6  1  0.412528  0.793250  0.377807  1
  Er  Er7  1  0.413189  0.206417  0.878701  1
  Er  Er8  1  0.208652  0.412935  0.622830  1
  Er  Er9  1  0.208004  0.588373  0.120954  1
  Er  Er10  1  0.791214  0.420896  0.119258  1
  Er  Er11  1  0.791669  0.588060  0.622927  1
  Er  Er12  1  0.912909  0.708594  0.121430  1
  Er  Er13  1  0.916034  0.296785  0.636323  1
  Er  Er14  1  0.087805  0.706825  0.624649  1
  Er  Er15  1  0.094312  0.295241  0.117733  1
  Er  Er16  1  0.003989  0.995568  0.502043  1
  Er  Er17  1  0.004408  0.995937  0.995755  1
  Er  Er18  1  0.499331  0.500395  0.997783  1
  Er  Er19  1  0.499563  0.500632  0.499716  1
  Ir  Ir20  1  0.847768  0.848257  0.750059  1
  Ir  Ir21  1  0.151249  0.152699  0.749444  1
  Ir  Ir22  1  0.153075  0.846142  0.249723  1
  Ir  Ir23  1  0.654305  0.346101  0.749884  1
  Ir  Ir24  1  0.652878  0.652145  0.249780  1
  Ir  Ir25  1  0.347330  0.347823  0.249898  1
  Ir  Ir26  1  0.346589  0.653117  0.749739  1
  Ir  Ir27  1  0.999978  0.499157  0.376493  1
  Ru  Ru28  1  0.500546  0.999976  0.126257  1
  Ru  Ru29  1  0.500003  0.999954  0.623737  1
  Ru  Ru30  1  0.999944  0.499835  0.878132  1
  Au  Au31  1  0.845764  0.154760  0.249994  1
