# generated using pymatgen
data_Ta3Ti12VAs12
_symmetry_space_group_name_H-M   'P 1'
_cell_length_a   7.34329715
_cell_length_b   7.34329688
_cell_length_c   18.89888568
_cell_angle_alpha   89.99445736
_cell_angle_beta   90.00554296
_cell_angle_gamma   152.40667365
_symmetry_Int_Tables_number   1
_chemical_formula_structural   Ta3Ti12VAs12
_chemical_formula_sum   'Ta3 Ti12 V1 As12'
_cell_volume   472.04151306
_cell_formula_units_Z   1
loop_
 _symmetry_equiv_pos_site_id
 _symmetry_equiv_pos_as_xyz
  1  'x, y, z'
loop_
 _atom_site_type_symbol
 _atom_site_label
 _atom_site_symmetry_multiplicity
 _atom_site_fract_x
 _atom_site_fract_y
 _atom_site_fract_z
 _atom_site_occupancy
  Ta  Ta0  1  0.000000  0.000000  0.000000  1
  Ta  Ta1  1  0.060211  0.939789  0.748255  1
  Ta  Ta2  1  0.939789  0.060211  0.251745  1
  Ti  Ti3  1  0.732661  0.267339  0.162315  1
  Ti  Ti4  1  0.267339  0.732661  0.837685  1
  Ti  Ti5  1  0.266568  0.733432  0.658078  1
  Ti  Ti6  1  0.733432  0.266568  0.341922  1
  Ti  Ti7  1  0.533786  0.466214  0.121792  1
  Ti  Ti8  1  0.466214  0.533786  0.878208  1
  Ti  Ti9  1  0.466533  0.533467  0.616886  1
  Ti  Ti10  1  0.533467  0.466533  0.383114  1
  Ti  Ti11  1  0.663976  0.336024  0.973565  1
  Ti  Ti12  1  0.336024  0.663976  0.026435  1
  Ti  Ti13  1  0.335607  0.664393  0.473789  1
  Ti  Ti14  1  0.664393  0.335607  0.526211  1
  V  V15  1  0.000000  0.000000  0.500000  1
  As  As16  1  0.417256  0.582744  0.747695  1
  As  As17  1  0.582744  0.417256  0.252305  1
  As  As18  1  0.702604  0.297396  0.748026  1
  As  As19  1  0.297396  0.702604  0.251974  1
  As  As20  1  0.899831  0.100169  0.118043  1
  As  As21  1  0.100169  0.899831  0.881957  1
  As  As22  1  0.098267  0.901733  0.614001  1
  As  As23  1  0.901733  0.098267  0.385999  1
  As  As24  1  0.839604  0.160396  0.923463  1
  As  As25  1  0.160396  0.839604  0.076537  1
  As  As26  1  0.158212  0.841788  0.426256  1
  As  As27  1  0.841788  0.158212  0.573744  1
