# generated using pymatgen
data_Sm2Co17Si8Ni
_symmetry_space_group_name_H-M   'P 1'
_cell_length_a   7.92022964
_cell_length_b   7.92023047
_cell_length_c   7.94504117
_cell_angle_alpha   121.63067791
_cell_angle_beta   121.63067872
_cell_angle_gamma   87.27096097
_symmetry_Int_Tables_number   1
_chemical_formula_structural   Sm2Co17Si8Ni
_chemical_formula_sum   'Sm2 Co17 Si8 Ni1'
_cell_volume   343.07572153
_cell_formula_units_Z   1
loop_
 _symmetry_equiv_pos_site_id
 _symmetry_equiv_pos_as_xyz
  1  'x, y, z'
loop_
 _atom_site_type_symbol
 _atom_site_label
 _atom_site_symmetry_multiplicity
 _atom_site_fract_x
 _atom_site_fract_y
 _atom_site_fract_z
 _atom_site_occupancy
  Sm  Sm0  1  0.251024  0.249768  0.999866  1
  Sm  Sm1  1  0.749768  0.751024  0.999866  1
  Co  Co2  1  0.688702  0.188702  0.237740  1
  Co  Co3  1  0.000310  0.500310  0.500172  1
  Co  Co4  1  0.930850  0.199271  0.128822  1
  Co  Co5  1  0.801026  0.931145  0.732462  1
  Co  Co6  1  0.449417  0.688404  0.499798  1
  Co  Co7  1  0.068903  0.801361  0.871012  1
  Co  Co8  1  0.810723  0.049613  0.499550  1
  Co  Co9  1  0.549613  0.310723  0.499550  1
  Co  Co10  1  0.949643  0.449643  0.758241  1
  Co  Co11  1  0.188404  0.949417  0.499798  1
  Co  Co12  1  0.301361  0.568903  0.871012  1
  Co  Co13  1  0.568906  0.697467  0.267633  1
  Co  Co14  1  0.431145  0.301026  0.732462  1
  Co  Co15  1  0.197467  0.068906  0.267633  1
  Co  Co16  1  0.699271  0.430850  0.128822  1
  Co  Co17  1  0.499055  0.999055  0.499379  1
  Co  Co18  1  0.312135  0.812135  0.764433  1
  Si  Si19  1  0.046153  0.209112  0.499320  1
  Si  Si20  1  0.209588  0.709588  0.160974  1
  Si  Si21  1  0.789480  0.289480  0.834274  1
  Si  Si22  1  0.453942  0.953942  0.164114  1
  Si  Si23  1  0.545962  0.045962  0.836150  1
  Si  Si24  1  0.954064  0.792318  0.503893  1
  Si  Si25  1  0.292318  0.454064  0.503893  1
  Si  Si26  1  0.709112  0.546153  0.499320  1
  Ni  Ni27  1  0.051658  0.551658  0.239812  1
