# generated using pymatgen
data_Zr10SnHg2Bi5
_symmetry_space_group_name_H-M   'P 1'
_cell_length_a   8.90512200
_cell_length_b   8.92931988
_cell_length_c   6.05773700
_cell_angle_alpha   90.00000000
_cell_angle_beta   90.00000000
_cell_angle_gamma   119.91040387
_symmetry_Int_Tables_number   1
_chemical_formula_structural   Zr10SnHg2Bi5
_chemical_formula_sum   'Zr10 Sn1 Hg2 Bi5'
_cell_volume   417.53288615
_cell_formula_units_Z   1
loop_
 _symmetry_equiv_pos_site_id
 _symmetry_equiv_pos_as_xyz
  1  'x, y, z'
loop_
 _atom_site_type_symbol
 _atom_site_label
 _atom_site_symmetry_multiplicity
 _atom_site_fract_x
 _atom_site_fract_y
 _atom_site_fract_z
 _atom_site_occupancy
  Zr  Zr0  1  0.333812  0.669499  0.998439  1
  Zr  Zr1  1  0.664314  0.330501  0.501561  1
  Zr  Zr2  1  0.664314  0.330501  0.998439  1
  Zr  Zr3  1  0.333812  0.669499  0.501561  1
  Zr  Zr4  1  0.279877  0.000000  0.250000  1
  Zr  Zr5  1  0.281160  0.276695  0.750000  1
  Zr  Zr6  1  0.004465  0.723305  0.750000  1
  Zr  Zr7  1  0.999662  0.278847  0.250000  1
  Zr  Zr8  1  0.720815  0.721153  0.250000  1
  Zr  Zr9  1  0.717618  0.000000  0.750000  1
  Sn  Sn10  1  0.381366  0.000000  0.750000  1
  Hg  Hg11  1  0.000334  0.000000  0.999007  1
  Hg  Hg12  1  0.000334  0.000000  0.500993  1
  Bi  Bi13  1  0.617485  0.000000  0.250000  1
  Bi  Bi14  1  0.619047  0.618435  0.750000  1
  Bi  Bi15  1  0.000612  0.381565  0.750000  1
  Bi  Bi16  1  0.999439  0.617903  0.250000  1
  Bi  Bi17  1  0.381536  0.382097  0.250000  1
