# generated using pymatgen
data_Hf3Zr3Zn2(Pd2N)2
_symmetry_space_group_name_H-M   'P 1'
_cell_length_a   8.59257641
_cell_length_b   8.59257655
_cell_length_c   8.59257700
_cell_angle_alpha   59.99999442
_cell_angle_beta   59.99999389
_cell_angle_gamma   59.99999646
_symmetry_Int_Tables_number   1
_chemical_formula_structural   Hf3Zr3Zn2(Pd2N)2
_chemical_formula_sum   'Hf6 Zr6 Zn4 Pd8 N4'
_cell_volume   448.59579444
_cell_formula_units_Z   2
loop_
 _symmetry_equiv_pos_site_id
 _symmetry_equiv_pos_as_xyz
  1  'x, y, z'
loop_
 _atom_site_type_symbol
 _atom_site_label
 _atom_site_symmetry_multiplicity
 _atom_site_fract_x
 _atom_site_fract_y
 _atom_site_fract_z
 _atom_site_occupancy
  Hf  Hf0  1  0.437319  0.062681  0.062681  1
  Hf  Hf1  1  0.062681  0.437319  0.062681  1
  Hf  Hf2  1  0.437319  0.437319  0.062681  1
  Hf  Hf3  1  0.062681  0.437319  0.437319  1
  Hf  Hf4  1  0.437319  0.062681  0.437319  1
  Hf  Hf5  1  0.062681  0.062681  0.437319  1
  Zr  Zr6  1  0.810476  0.189524  0.189524  1
  Zr  Zr7  1  0.189524  0.810476  0.189524  1
  Zr  Zr8  1  0.810476  0.810476  0.189524  1
  Zr  Zr9  1  0.189524  0.810476  0.810476  1
  Zr  Zr10  1  0.810476  0.189524  0.810476  1
  Zr  Zr11  1  0.189524  0.189524  0.810476  1
  Zn  Zn12  1  0.624920  0.624920  0.125239  1
  Zn  Zn13  1  0.624920  0.624920  0.624920  1
  Zn  Zn14  1  0.125239  0.624920  0.624920  1
  Zn  Zn15  1  0.624920  0.125239  0.624920  1
  Pd  Pd16  1  0.411660  0.411660  0.765020  1
  Pd  Pd17  1  0.411660  0.411660  0.411660  1
  Pd  Pd18  1  0.765020  0.411660  0.411660  1
  Pd  Pd19  1  0.411660  0.765020  0.411660  1
  Pd  Pd20  1  0.836839  0.836839  0.489483  1
  Pd  Pd21  1  0.836839  0.836839  0.836839  1
  Pd  Pd22  1  0.489483  0.836839  0.836839  1
  Pd  Pd23  1  0.836839  0.489483  0.836839  1
  N  N24  1  0.127189  0.127189  0.618432  1
  N  N25  1  0.127189  0.127189  0.127189  1
  N  N26  1  0.618432  0.127189  0.127189  1
  N  N27  1  0.127189  0.618432  0.127189  1
