# generated using pymatgen
data_Sr(Pr2Au3)2
_symmetry_space_group_name_H-M   'P 1'
_cell_length_a   16.63619579
_cell_length_b   16.63619645
_cell_length_c   4.28658400
_cell_angle_alpha   90.00000000
_cell_angle_beta   90.00000000
_cell_angle_gamma   165.31750158
_symmetry_Int_Tables_number   1
_chemical_formula_structural   Sr(Pr2Au3)2
_chemical_formula_sum   'Sr1 Pr4 Au6'
_cell_volume   300.69974921
_cell_formula_units_Z   1
loop_
 _symmetry_equiv_pos_site_id
 _symmetry_equiv_pos_as_xyz
  1  'x, y, z'
loop_
 _atom_site_type_symbol
 _atom_site_label
 _atom_site_symmetry_multiplicity
 _atom_site_fract_x
 _atom_site_fract_y
 _atom_site_fract_z
 _atom_site_occupancy
  Sr  Sr0  1  0.000000  0.000000  0.000000  1
  Pr  Pr1  1  0.614916  0.385084  0.000000  1
  Pr  Pr2  1  0.385084  0.614916  0.000000  1
  Pr  Pr3  1  0.802374  0.197625  0.500000  1
  Pr  Pr4  1  0.197625  0.802374  0.500000  1
  Au  Au5  1  0.719186  0.280814  0.000000  1
  Au  Au6  1  0.280814  0.719186  0.000000  1
  Au  Au7  1  0.898667  0.101333  0.500000  1
  Au  Au8  1  0.542824  0.457175  0.500000  1
  Au  Au9  1  0.457175  0.542824  0.500000  1
  Au  Au10  1  0.101333  0.898667  0.500000  1
