# generated using pymatgen
data_Ho3In3AgIrRh
_symmetry_space_group_name_H-M   'P 1'
_cell_length_a   7.77656100
_cell_length_b   7.77656129
_cell_length_c   3.79604000
_cell_angle_alpha   90.00000000
_cell_angle_beta   90.00000000
_cell_angle_gamma   119.99999453
_symmetry_Int_Tables_number   1
_chemical_formula_structural   Ho3In3AgIrRh
_chemical_formula_sum   'Ho3 In3 Ag1 Ir1 Rh1'
_cell_volume   198.80926408
_cell_formula_units_Z   1
loop_
 _symmetry_equiv_pos_site_id
 _symmetry_equiv_pos_as_xyz
  1  'x, y, z'
loop_
 _atom_site_type_symbol
 _atom_site_label
 _atom_site_symmetry_multiplicity
 _atom_site_fract_x
 _atom_site_fract_y
 _atom_site_fract_z
 _atom_site_occupancy
  Ho  Ho0  1  0.970385  0.385584  0.500000  1
  Ho  Ho1  1  0.614416  0.584801  0.500000  1
  Ho  Ho2  1  0.415199  0.029615  0.500000  1
  In  In3  1  0.257195  0.261196  0.000000  1
  In  In4  1  0.004001  0.742805  0.000000  1
  In  In5  1  0.738804  0.995999  0.000000  1
  Ag  Ag6  1  0.333333  0.666667  0.000000  1
  Ir  Ir7  1  0.666667  0.333333  0.000000  1
  Rh  Rh8  1  0.000000  0.000000  0.500000  1
