# generated using pymatgen
data_Sc12Mn3Si12W
_symmetry_space_group_name_H-M   'P 1'
_cell_length_a   3.91105000
_cell_length_b   10.43166374
_cell_length_c   11.83220971
_cell_angle_alpha   89.67888327
_cell_angle_beta   89.99997074
_cell_angle_gamma   89.99994320
_symmetry_Int_Tables_number   1
_chemical_formula_structural   Sc12Mn3Si12W
_chemical_formula_sum   'Sc12 Mn3 Si12 W1'
_cell_volume   482.73188434
_cell_formula_units_Z   1
loop_
 _symmetry_equiv_pos_site_id
 _symmetry_equiv_pos_as_xyz
  1  'x, y, z'
loop_
 _atom_site_type_symbol
 _atom_site_label
 _atom_site_symmetry_multiplicity
 _atom_site_fract_x
 _atom_site_fract_y
 _atom_site_fract_z
 _atom_site_occupancy
  Sc  Sc0  1  0.250000  0.877807  0.019420  1
  Sc  Sc1  1  0.250000  0.618951  0.518586  1
  Sc  Sc2  1  0.750000  0.124370  0.980953  1
  Sc  Sc3  1  0.750001  0.377877  0.478570  1
  Sc  Sc4  1  0.249999  0.923150  0.607428  1
  Sc  Sc5  1  0.250001  0.575165  0.105100  1
  Sc  Sc6  1  0.750000  0.076089  0.396721  1
  Sc  Sc7  1  0.750001  0.424875  0.898265  1
  Sc  Sc8  1  0.249999  0.655841  0.798574  1
  Sc  Sc9  1  0.249999  0.839386  0.298846  1
  Sc  Sc10  1  0.750000  0.339307  0.201181  1
  Sc  Sc11  1  0.750000  0.168708  0.700499  1
  Mn  Mn12  1  0.250000  0.383824  0.675226  1
  Mn  Mn13  1  0.250000  0.114706  0.178847  1
  Mn  Mn14  1  0.750001  0.613975  0.322485  1
  Si  Si15  1  0.250000  0.029043  0.824081  1
  Si  Si16  1  0.250000  0.482882  0.323795  1
  Si  Si17  1  0.750000  0.983488  0.176325  1
  Si  Si18  1  0.750000  0.512804  0.675359  1
  Si  Si19  1  0.250000  0.258662  0.843137  1
  Si  Si20  1  0.249999  0.247761  0.342229  1
  Si  Si21  1  0.750001  0.746683  0.158435  1
  Si  Si22  1  0.749999  0.746119  0.651927  1
  Si  Si23  1  0.249999  0.195123  0.542678  1
  Si  Si24  1  0.249999  0.305492  0.044371  1
  Si  Si25  1  0.749999  0.802864  0.455415  1
  Si  Si26  1  0.750000  0.689843  0.959890  1
  W  W27  1  0.750000  0.885205  0.821655  1
