# generated using pymatgen
data_Er7Tm2ZrIr6
_symmetry_space_group_name_H-M   'P 1'
_cell_length_a   10.78465005
_cell_length_b   10.78156300
_cell_length_c   6.27665603
_cell_angle_alpha   90.00000000
_cell_angle_beta   90.01128345
_cell_angle_gamma   90.00000000
_symmetry_Int_Tables_number   1
_chemical_formula_structural   Er7Tm2ZrIr6
_chemical_formula_sum   'Er14 Tm4 Zr2 Ir12'
_cell_volume   729.82057584
_cell_formula_units_Z   2
loop_
 _symmetry_equiv_pos_site_id
 _symmetry_equiv_pos_as_xyz
  1  'x, y, z'
loop_
 _atom_site_type_symbol
 _atom_site_label
 _atom_site_symmetry_multiplicity
 _atom_site_fract_x
 _atom_site_fract_y
 _atom_site_fract_z
 _atom_site_occupancy
  Er  Er0  1  0.289449  0.086402  0.374491  1
  Er  Er1  1  0.289449  0.913598  0.874491  1
  Er  Er2  1  0.710412  0.086251  0.874681  1
  Er  Er3  1  0.710412  0.913749  0.374681  1
  Er  Er4  1  0.587590  0.792637  0.874989  1
  Er  Er5  1  0.587590  0.207363  0.374989  1
  Er  Er6  1  0.412376  0.792614  0.375029  1
  Er  Er7  1  0.412376  0.207386  0.875029  1
  Er  Er8  1  0.207309  0.412468  0.625030  1
  Er  Er9  1  0.207309  0.587532  0.125030  1
  Er  Er10  1  0.792781  0.412384  0.125025  1
  Er  Er11  1  0.792781  0.587616  0.625025  1
  Er  Er12  1  0.913871  0.710414  0.125315  1
  Er  Er13  1  0.913871  0.289586  0.625315  1
  Tm  Tm14  1  0.086159  0.710166  0.625096  1
  Tm  Tm15  1  0.086159  0.289834  0.125096  1
  Tm  Tm16  1  0.499970  0.499992  0.000064  1
  Tm  Tm17  1  0.499970  0.500008  0.500064  1
  Zr  Zr18  1  0.000157  0.999812  0.500157  1
  Zr  Zr19  1  0.000157  0.000188  0.000157  1
  Ir  Ir20  1  0.854322  0.145991  0.249856  1
  Ir  Ir21  1  0.854322  0.854009  0.749856  1
  Ir  Ir22  1  0.145753  0.146085  0.750459  1
  Ir  Ir23  1  0.145753  0.853915  0.250459  1
  Ir  Ir24  1  0.654136  0.345833  0.749977  1
  Ir  Ir25  1  0.654136  0.654167  0.249977  1
  Ir  Ir26  1  0.345522  0.345783  0.249827  1
  Ir  Ir27  1  0.345522  0.654217  0.749827  1
  Ir  Ir28  1  0.499988  0.999987  0.122434  1
  Ir  Ir29  1  0.499988  0.000013  0.622434  1
  Ir  Ir30  1  0.000205  0.500000  0.877570  1
  Ir  Ir31  1  0.000205  0.500000  0.377570  1
