# generated using pymatgen
data_Ce4Ho7(Tm3Ir4)3
_symmetry_space_group_name_H-M   'P 1'
_cell_length_a   10.91466205
_cell_length_b   10.88074306
_cell_length_c   6.28443303
_cell_angle_alpha   90.00883810
_cell_angle_beta   89.99195473
_cell_angle_gamma   89.99210339
_symmetry_Int_Tables_number   1
_chemical_formula_structural   Ce4Ho7(Tm3Ir4)3
_chemical_formula_sum   'Ce4 Ho7 Tm9 Ir12'
_cell_volume   746.33693971
_cell_formula_units_Z   1
loop_
 _symmetry_equiv_pos_site_id
 _symmetry_equiv_pos_as_xyz
  1  'x, y, z'
loop_
 _atom_site_type_symbol
 _atom_site_label
 _atom_site_symmetry_multiplicity
 _atom_site_fract_x
 _atom_site_fract_y
 _atom_site_fract_z
 _atom_site_occupancy
  Ce  Ce0  1  0.293280  0.092690  0.381364  1
  Ce  Ce1  1  0.293333  0.907443  0.881383  1
  Ce  Ce2  1  0.706690  0.092574  0.881369  1
  Ce  Ce3  1  0.706695  0.907434  0.381313  1
  Ho  Ho4  1  0.207967  0.586769  0.121776  1
  Ho  Ho5  1  0.792091  0.413086  0.121850  1
  Ho  Ho6  1  0.792097  0.586936  0.621830  1
  Ho  Ho7  1  0.912892  0.708733  0.117404  1
  Ho  Ho8  1  0.913184  0.291309  0.617435  1
  Ho  Ho9  1  0.087224  0.708536  0.617428  1
  Ho  Ho10  1  0.087365  0.291330  0.117338  1
  Tm  Tm11  1  0.588358  0.786065  0.879230  1
  Tm  Tm12  1  0.588316  0.213936  0.379157  1
  Tm  Tm13  1  0.411625  0.786061  0.379281  1
  Tm  Tm14  1  0.411419  0.214103  0.879067  1
  Tm  Tm15  1  0.207298  0.413154  0.621290  1
  Tm  Tm16  1  0.000073  0.000023  0.496281  1
  Tm  Tm17  1  0.000015  0.000009  0.996201  1
  Tm  Tm18  1  0.499952  0.499983  0.010414  1
  Tm  Tm19  1  0.499665  0.499855  0.510543  1
  Ir  Ir20  1  0.844728  0.153097  0.243761  1
  Ir  Ir21  1  0.844750  0.846931  0.743833  1
  Ir  Ir22  1  0.155385  0.153520  0.743495  1
  Ir  Ir23  1  0.155287  0.846946  0.243771  1
  Ir  Ir24  1  0.652151  0.346810  0.755496  1
  Ir  Ir25  1  0.652138  0.653170  0.255446  1
  Ir  Ir26  1  0.347515  0.347003  0.256415  1
  Ir  Ir27  1  0.347700  0.652807  0.755230  1
  Ir  Ir28  1  0.499979  0.000006  0.119965  1
  Ir  Ir29  1  0.499959  0.000061  0.620024  1
  Ir  Ir30  1  0.000408  0.499829  0.874949  1
  Ir  Ir31  1  0.000461  0.499792  0.375663  1
