# generated using pymatgen
data_Ba4Tb3Dy3(BiS8)2
_symmetry_space_group_name_H-M   'P 1'
_cell_length_a   4.08313700
_cell_length_b   12.38665902
_cell_length_c   14.71079503
_cell_angle_alpha   89.99276304
_cell_angle_beta   90.00000000
_cell_angle_gamma   90.00000000
_symmetry_Int_Tables_number   1
_chemical_formula_structural   Ba4Tb3Dy3(BiS8)2
_chemical_formula_sum   'Ba4 Tb3 Dy3 Bi2 S16'
_cell_volume   744.01942689
_cell_formula_units_Z   1
loop_
 _symmetry_equiv_pos_site_id
 _symmetry_equiv_pos_as_xyz
  1  'x, y, z'
loop_
 _atom_site_type_symbol
 _atom_site_label
 _atom_site_symmetry_multiplicity
 _atom_site_fract_x
 _atom_site_fract_y
 _atom_site_fract_z
 _atom_site_occupancy
  Ba  Ba0  1  0.250000  0.760719  0.337040  1
  Ba  Ba1  1  0.250000  0.260550  0.163290  1
  Ba  Ba2  1  0.750000  0.240072  0.662023  1
  Ba  Ba3  1  0.750000  0.740379  0.837675  1
  Tb  Tb4  1  0.750000  0.566583  0.611011  1
  Tb  Tb5  1  0.750000  0.065925  0.888682  1
  Tb  Tb6  1  0.250000  0.419744  0.898572  1
  Dy  Dy7  1  0.250000  0.919924  0.601383  1
  Dy  Dy8  1  0.750000  0.578455  0.099364  1
  Dy  Dy9  1  0.750000  0.078204  0.400890  1
  Bi  Bi10  1  0.250000  0.435244  0.390601  1
  Bi  Bi11  1  0.250000  0.935239  0.109429  1
  S  S12  1  0.250000  0.206176  0.834733  1
  S  S13  1  0.250000  0.707213  0.664784  1
  S  S14  1  0.750000  0.788039  0.166377  1
  S  S15  1  0.750000  0.287962  0.333754  1
  S  S16  1  0.250000  0.122330  0.524791  1
  S  S17  1  0.250000  0.623248  0.975639  1
  S  S18  1  0.750000  0.876118  0.477442  1
  S  S19  1  0.750000  0.375898  0.023539  1
  S  S20  1  0.250000  0.524616  0.212738  1
  S  S21  1  0.250000  0.024522  0.287339  1
  S  S22  1  0.750000  0.475856  0.783757  1
  S  S23  1  0.750000  0.975304  0.715361  1
  S  S24  1  0.250000  0.417741  0.580528  1
  S  S25  1  0.250000  0.917679  0.919422  1
  S  S26  1  0.750000  0.588129  0.426026  1
  S  S27  1  0.750000  0.088139  0.073809  1
