# generated using pymatgen
data_Na2GaPd3
_symmetry_space_group_name_H-M   'P 1'
_cell_length_a   5.59292900
_cell_length_b   5.59292960
_cell_length_c   8.02767900
_cell_angle_alpha   90.00000000
_cell_angle_beta   90.00000000
_cell_angle_gamma   120.00000236
_symmetry_Int_Tables_number   1
_chemical_formula_structural   Na2GaPd3
_chemical_formula_sum   'Na4 Ga2 Pd6'
_cell_volume   217.46996195
_cell_formula_units_Z   2
loop_
 _symmetry_equiv_pos_site_id
 _symmetry_equiv_pos_as_xyz
  1  'x, y, z'
loop_
 _atom_site_type_symbol
 _atom_site_label
 _atom_site_symmetry_multiplicity
 _atom_site_fract_x
 _atom_site_fract_y
 _atom_site_fract_z
 _atom_site_occupancy
  Na  Na0  1  0.333333  0.666666  0.069352  1
  Na  Na1  1  0.333333  0.666666  0.430648  1
  Na  Na2  1  0.666666  0.333333  0.569352  1
  Na  Na3  1  0.666666  0.333333  0.930648  1
  Ga  Ga4  1  0.000000  0.000000  0.000000  1
  Ga  Ga5  1  0.000000  0.000000  0.500000  1
  Pd  Pd6  1  0.337154  0.168577  0.250000  1
  Pd  Pd7  1  0.831423  0.168577  0.250000  1
  Pd  Pd8  1  0.831422  0.662845  0.250000  1
  Pd  Pd9  1  0.168577  0.337154  0.750000  1
  Pd  Pd10  1  0.168577  0.831423  0.750000  1
  Pd  Pd11  1  0.662846  0.831423  0.750000  1
