# generated using pymatgen
data_ErSc(PaGa5)3
_symmetry_space_group_name_H-M   'P 1'
_cell_length_a   12.41346612
_cell_length_b   12.41346641
_cell_length_c   12.41346600
_cell_angle_alpha   28.66393121
_cell_angle_beta   28.66392876
_cell_angle_gamma   28.66393070
_symmetry_Int_Tables_number   1
_chemical_formula_structural   ErSc(PaGa5)3
_chemical_formula_sum   'Er1 Sc1 Pa3 Ga15'
_cell_volume   389.09097770
_cell_formula_units_Z   1
loop_
 _symmetry_equiv_pos_site_id
 _symmetry_equiv_pos_as_xyz
  1  'x, y, z'
loop_
 _atom_site_type_symbol
 _atom_site_label
 _atom_site_symmetry_multiplicity
 _atom_site_fract_x
 _atom_site_fract_y
 _atom_site_fract_z
 _atom_site_occupancy
  Er  Er0  1  0.399497  0.399497  0.399497  1
  Sc  Sc1  1  0.599952  0.599952  0.599952  1
  Pa  Pa2  1  0.131009  0.131009  0.131009  1
  Pa  Pa3  1  0.869635  0.869635  0.869635  1
  Pa  Pa4  1  0.999819  0.999819  0.999819  1
  Ga  Ga5  1  0.434282  0.881463  0.881463  1
  Ga  Ga6  1  0.881463  0.881463  0.434282  1
  Ga  Ga7  1  0.881463  0.434282  0.881463  1
  Ga  Ga8  1  0.118266  0.566037  0.118266  1
  Ga  Ga9  1  0.118266  0.118266  0.566037  1
  Ga  Ga10  1  0.566037  0.118266  0.118266  1
  Ga  Ga11  1  0.129632  0.634864  0.634864  1
  Ga  Ga12  1  0.634864  0.634864  0.129632  1
  Ga  Ga13  1  0.634864  0.129632  0.634864  1
  Ga  Ga14  1  0.368185  0.867514  0.368185  1
  Ga  Ga15  1  0.368185  0.368185  0.867514  1
  Ga  Ga16  1  0.867514  0.368185  0.368185  1
  Ga  Ga17  1  0.501183  0.501183  0.994699  1
  Ga  Ga18  1  0.501183  0.994699  0.501183  1
  Ga  Ga19  1  0.994699  0.501183  0.501183  1
