# generated using pymatgen
data_ZnCr3(AuO2)4
_symmetry_space_group_name_H-M   'P 1'
_cell_length_a   5.33642784
_cell_length_b   6.19198695
_cell_length_c   7.10254711
_cell_angle_alpha   64.15836869
_cell_angle_beta   75.52455700
_cell_angle_gamma   89.99941313
_symmetry_Int_Tables_number   1
_chemical_formula_structural   ZnCr3(AuO2)4
_chemical_formula_sum   'Zn1 Cr3 Au4 O8'
_cell_volume   202.91180816
_cell_formula_units_Z   1
loop_
 _symmetry_equiv_pos_site_id
 _symmetry_equiv_pos_as_xyz
  1  'x, y, z'
loop_
 _atom_site_type_symbol
 _atom_site_label
 _atom_site_symmetry_multiplicity
 _atom_site_fract_x
 _atom_site_fract_y
 _atom_site_fract_z
 _atom_site_occupancy
  Zn  Zn0  1  0.500024  0.749985  0.000004  1
  Cr  Cr1  1  0.000034  0.500450  0.999972  1
  Cr  Cr2  1  0.499915  0.250168  0.999960  1
  Cr  Cr3  1  0.999949  0.999535  0.000054  1
  Au  Au4  1  0.006797  0.000106  0.499796  1
  Au  Au5  1  0.993235  0.499906  0.500220  1
  Au  Au6  1  0.500017  0.749958  0.499972  1
  Au  Au7  1  0.500002  0.249937  0.500017  1
  O  O8  1  0.901577  0.832813  0.834332  1
  O  O9  1  0.887628  0.331189  0.837595  1
  O  O10  1  0.382800  0.573229  0.834919  1
  O  O11  1  0.382780  0.091820  0.834972  1
  O  O12  1  0.112364  0.168824  0.162415  1
  O  O13  1  0.098458  0.667159  0.165677  1
  O  O14  1  0.617176  0.926781  0.165052  1
  O  O15  1  0.617245  0.408137  0.165043  1
