# generated using pymatgen
data_Ce2Lu2TcB12Ru
_symmetry_space_group_name_H-M   'P 1'
_cell_length_a   3.68738500
_cell_length_b   9.12367553
_cell_length_c   11.51522205
_cell_angle_alpha   89.86986931
_cell_angle_beta   90.00000000
_cell_angle_gamma   90.00000000
_symmetry_Int_Tables_number   1
_chemical_formula_structural   Ce2Lu2TcB12Ru
_chemical_formula_sum   'Ce4 Lu4 Tc2 B24 Ru2'
_cell_volume   387.39990806
_cell_formula_units_Z   2
loop_
 _symmetry_equiv_pos_site_id
 _symmetry_equiv_pos_as_xyz
  1  'x, y, z'
loop_
 _atom_site_type_symbol
 _atom_site_label
 _atom_site_symmetry_multiplicity
 _atom_site_fract_x
 _atom_site_fract_y
 _atom_site_fract_z
 _atom_site_occupancy
  Ce  Ce0  1  0.000000  0.323240  0.415231  1
  Ce  Ce1  1  0.000000  0.676760  0.584769  1
  Ce  Ce2  1  0.000000  0.820379  0.086988  1
  Ce  Ce3  1  0.000000  0.179621  0.913012  1
  Lu  Lu4  1  0.000000  0.943511  0.373222  1
  Lu  Lu5  1  0.000000  0.056489  0.626778  1
  Lu  Lu6  1  0.000000  0.445339  0.127172  1
  Lu  Lu7  1  0.000000  0.554661  0.872828  1
  Tc  Tc8  1  0.000000  0.639467  0.319268  1
  Tc  Tc9  1  0.000000  0.360533  0.680732  1
  B  B10  1  0.500000  0.554843  0.431305  1
  B  B11  1  0.500000  0.445157  0.568695  1
  B  B12  1  0.500000  0.055097  0.068044  1
  B  B13  1  0.500000  0.944903  0.931956  1
  B  B14  1  0.500000  0.749914  0.418377  1
  B  B15  1  0.500000  0.250086  0.581623  1
  B  B16  1  0.500000  0.250800  0.081377  1
  B  B17  1  0.500000  0.749200  0.918623  1
  B  B18  1  0.500000  0.792362  0.265247  1
  B  B19  1  0.500000  0.207638  0.734753  1
  B  B20  1  0.500000  0.291372  0.234160  1
  B  B21  1  0.500000  0.708628  0.765840  1
  B  B22  1  0.500000  0.630978  0.184271  1
  B  B23  1  0.500000  0.369022  0.815729  1
  B  B24  1  0.500000  0.130260  0.315729  1
  B  B25  1  0.500000  0.869740  0.684271  1
  B  B26  1  0.500000  0.983791  0.213859  1
  B  B27  1  0.500000  0.016209  0.786141  1
  B  B28  1  0.500000  0.483182  0.285875  1
  B  B29  1  0.500000  0.516818  0.714125  1
  B  B30  1  0.500000  0.603301  0.027773  1
  B  B31  1  0.500000  0.396699  0.972227  1
  B  B32  1  0.500000  0.103043  0.471348  1
  B  B33  1  0.500000  0.896957  0.528652  1
  Ru  Ru34  1  0.000000  0.139165  0.179909  1
  Ru  Ru35  1  0.000000  0.860835  0.820091  1
