# generated using pymatgen
data_Tb6PtI10
_symmetry_space_group_name_H-M   'P 1'
_cell_length_a   7.75239269
_cell_length_b   9.76571646
_cell_length_c   9.79215204
_cell_angle_alpha   107.40394506
_cell_angle_beta   97.01801948
_cell_angle_gamma   104.91489293
_symmetry_Int_Tables_number   1
_chemical_formula_structural   Tb6PtI10
_chemical_formula_sum   'Tb6 Pt1 I10'
_cell_volume   667.43262046
_cell_formula_units_Z   1
loop_
 _symmetry_equiv_pos_site_id
 _symmetry_equiv_pos_as_xyz
  1  'x, y, z'
loop_
 _atom_site_type_symbol
 _atom_site_label
 _atom_site_symmetry_multiplicity
 _atom_site_fract_x
 _atom_site_fract_y
 _atom_site_fract_z
 _atom_site_occupancy
  Tb  Tb0  1  0.885428  0.960486  0.243255  1
  Tb  Tb1  1  0.114572  0.039514  0.756745  1
  Tb  Tb2  1  0.351494  0.127305  0.166992  1
  Tb  Tb3  1  0.648506  0.872695  0.833008  1
  Tb  Tb4  1  0.972261  0.288620  0.087455  1
  Tb  Tb5  1  0.027739  0.711380  0.912545  1
  Pt  Pt6  1  0.000000  0.000000  0.000000  1
  I  I7  1  0.358615  0.456103  0.273993  1
  I  I8  1  0.641385  0.543897  0.726007  1
  I  I9  1  0.913793  0.627653  0.180419  1
  I  I10  1  0.086207  0.372347  0.819581  1
  I  I11  1  0.452856  0.816740  0.092361  1
  I  I12  1  0.547144  0.183260  0.907639  1
  I  I13  1  0.262176  0.088631  0.464477  1
  I  I14  1  0.737824  0.911369  0.535523  1
  I  I15  1  0.783310  0.261633  0.350368  1
  I  I16  1  0.216690  0.738367  0.649632  1
