# generated using pymatgen
data_Ho5TaPbO12
_symmetry_space_group_name_H-M   'P 1'
_cell_length_a   6.39250959
_cell_length_b   6.55018474
_cell_length_c   6.49336432
_cell_angle_alpha   99.69369228
_cell_angle_beta   99.02136105
_cell_angle_gamma   98.16097251
_symmetry_Int_Tables_number   1
_chemical_formula_structural   Ho5TaPbO12
_chemical_formula_sum   'Ho5 Ta1 Pb1 O12'
_cell_volume   260.70550320
_cell_formula_units_Z   1
loop_
 _symmetry_equiv_pos_site_id
 _symmetry_equiv_pos_as_xyz
  1  'x, y, z'
loop_
 _atom_site_type_symbol
 _atom_site_label
 _atom_site_symmetry_multiplicity
 _atom_site_fract_x
 _atom_site_fract_y
 _atom_site_fract_z
 _atom_site_occupancy
  Ho  Ho0  1  0.388788  0.862024  0.692755  1
  Ho  Ho1  1  0.698007  0.389274  0.869424  1
  Ho  Ho2  1  0.309885  0.613378  0.138414  1
  Ho  Ho3  1  0.610566  0.138301  0.299507  1
  Ho  Ho4  1  0.852939  0.693364  0.386844  1
  Ta  Ta5  1  0.001594  0.993114  0.994406  1
  Pb  Pb6  1  0.145691  0.326226  0.600930  1
  O  O7  1  0.077716  0.296145  0.948404  1
  O  O8  1  0.031400  0.894722  0.702288  1
  O  O9  1  0.418414  0.573561  0.820968  1
  O  O10  1  0.178573  0.585906  0.425864  1
  O  O11  1  0.694283  0.047412  0.931844  1
  O  O12  1  0.421673  0.182608  0.591138  1
  O  O13  1  0.563851  0.831686  0.413134  1
  O  O14  1  0.304918  0.958031  0.074822  1
  O  O15  1  0.827688  0.405264  0.569827  1
  O  O16  1  0.588451  0.434695  0.183075  1
  O  O17  1  0.962897  0.076338  0.309828  1
  O  O18  1  0.922665  0.697950  0.046528  1
