# generated using pymatgen
data_DyHoEr3Ru2
_symmetry_space_group_name_H-M   'P 1'
_cell_length_a   6.29737828
_cell_length_b   7.25686269
_cell_length_c   8.41105167
_cell_angle_alpha   96.75658302
_cell_angle_beta   111.98423446
_cell_angle_gamma   90.00000246
_symmetry_Int_Tables_number   1
_chemical_formula_structural   DyHoEr3Ru2
_chemical_formula_sum   'Dy2 Ho2 Er6 Ru4'
_cell_volume   353.54856139
_cell_formula_units_Z   2
loop_
 _symmetry_equiv_pos_site_id
 _symmetry_equiv_pos_as_xyz
  1  'x, y, z'
loop_
 _atom_site_type_symbol
 _atom_site_label
 _atom_site_symmetry_multiplicity
 _atom_site_fract_x
 _atom_site_fract_y
 _atom_site_fract_z
 _atom_site_occupancy
  Dy  Dy0  1  0.208949  0.415824  0.186802  1
  Dy  Dy1  1  0.022147  0.084176  0.813198  1
  Ho  Ho2  1  0.791035  0.584245  0.813215  1
  Ho  Ho3  1  0.977819  0.915755  0.186785  1
  Er  Er4  1  0.205746  0.684735  0.565380  1
  Er  Er5  1  0.640365  0.815265  0.434620  1
  Er  Er6  1  0.794331  0.315263  0.434692  1
  Er  Er7  1  0.359639  0.184737  0.565308  1
  Er  Er8  1  0.419477  0.750000  0.000000  1
  Er  Er9  1  0.580638  0.250000  0.000000  1
  Ru  Ru10  1  0.602108  0.923797  0.779266  1
  Ru  Ru11  1  0.822841  0.576203  0.220734  1
  Ru  Ru12  1  0.397806  0.076099  0.220706  1
  Ru  Ru13  1  0.177101  0.423901  0.779294  1
