# generated using pymatgen
data_Li12Pr11Sm(WO6)8
_symmetry_space_group_name_H-M   'P 1'
_cell_length_a   10.97702370
_cell_length_b   10.96651523
_cell_length_c   10.96651997
_cell_angle_alpha   109.38688230
_cell_angle_beta   109.49417126
_cell_angle_gamma   109.49401069
_symmetry_Int_Tables_number   1
_chemical_formula_structural   Li12Pr11Sm(WO6)8
_chemical_formula_sum   'Li12 Pr11 Sm1 W8 O48'
_cell_volume   1016.73204888
_cell_formula_units_Z   1
loop_
 _symmetry_equiv_pos_site_id
 _symmetry_equiv_pos_as_xyz
  1  'x, y, z'
loop_
 _atom_site_type_symbol
 _atom_site_label
 _atom_site_symmetry_multiplicity
 _atom_site_fract_x
 _atom_site_fract_y
 _atom_site_fract_z
 _atom_site_occupancy
  Li  Li0  1  0.250001  0.875070  0.125069  1
  Li  Li1  1  0.375445  0.250080  0.124941  1
  Li  Li2  1  0.124555  0.375060  0.249920  1
  Li  Li3  1  0.625056  0.875054  0.249955  1
  Li  Li4  1  0.124551  0.749494  0.374633  1
  Li  Li5  1  0.750001  0.624200  0.374200  1
  Li  Li6  1  0.249999  0.374932  0.624931  1
  Li  Li7  1  0.874945  0.250046  0.624947  1
  Li  Li8  1  0.375448  0.125366  0.750506  1
  Li  Li9  1  0.874942  0.624896  0.749996  1
  Li  Li10  1  0.625058  0.750005  0.875105  1
  Li  Li11  1  0.749998  0.125800  0.875800  1
  Pr  Pr12  1  0.874717  0.749310  0.125240  1
  Pr  Pr13  1  0.375069  0.625031  0.250144  1
  Pr  Pr14  1  0.874715  0.125405  0.249478  1
  Pr  Pr15  1  0.250000  0.125000  0.375000  1
  Pr  Pr16  1  0.625284  0.250521  0.374595  1
  Pr  Pr17  1  0.750001  0.875000  0.625001  1
  Pr  Pr18  1  0.375066  0.750034  0.624923  1
  Pr  Pr19  1  0.124933  0.875076  0.749965  1
  Pr  Pr20  1  0.625284  0.374761  0.750690  1
  Pr  Pr21  1  0.250000  0.625001  0.874999  1
  Pr  Pr22  1  0.124933  0.249856  0.874970  1
  Sm  Sm23  1  0.750000  0.375001  0.124999  1
  W  W24  1  0.999915  0.999985  0.000092  1
  W  W25  1  0.500592  0.001497  0.000123  1
  W  W26  1  0.500592  0.499099  0.000467  1
  W  W27  1  0.999409  0.499533  0.000903  1
  W  W28  1  0.999916  0.999930  0.499824  1
  W  W29  1  0.500084  0.000175  0.500070  1
  W  W30  1  0.999408  0.499876  0.498502  1
  W  W31  1  0.500084  0.499908  0.500014  1
  O  O32  1  0.827988  0.907983  0.022608  1
  O  O33  1  0.695471  0.118694  0.024252  1
  O  O34  1  0.193726  0.671688  0.079967  1
  O  O35  1  0.385206  0.407675  0.080000  1
  O  O36  1  0.478546  0.671501  0.092601  1
  O  O37  1  0.114794  0.420000  0.092327  1
  O  O38  1  0.524443  0.196784  0.114831  1
  O  O39  1  0.091989  0.920059  0.114760  1
  O  O40  1  0.975559  0.590389  0.172341  1
  O  O41  1  0.695469  0.576775  0.171217  1
  O  O42  1  0.079706  0.171918  0.194454  1
  O  O43  1  0.614673  0.022836  0.194202  1
  O  O44  1  0.827989  0.920004  0.305380  1
  O  O45  1  0.975557  0.385168  0.303215  1
  O  O46  1  0.408009  0.022769  0.328069  1
  O  O47  1  0.420294  0.305546  0.328082  1
  O  O48  1  0.079705  0.907787  0.385252  1
  O  O49  1  0.804529  0.475747  0.381305  1
  O  O50  1  0.328069  0.522502  0.407850  1
  O  O51  1  0.579715  0.885388  0.407903  1
  O  O52  1  0.592176  0.614710  0.420083  1
  O  O53  1  0.328070  0.805567  0.420220  1
  O  O54  1  0.091990  0.171931  0.477230  1
  O  O55  1  0.885327  0.305798  0.477165  1
  O  O56  1  0.114794  0.694795  0.522467  1
  O  O57  1  0.907823  0.827905  0.522533  1
  O  O58  1  0.408011  0.385240  0.579940  1
  O  O59  1  0.672011  0.194620  0.579995  1
  O  O60  1  0.672012  0.477392  0.592017  1
  O  O61  1  0.420294  0.114747  0.592213  1
  O  O62  1  0.193725  0.522038  0.613758  1
  O  O63  1  0.920286  0.092097  0.614612  1
  O  O64  1  0.579715  0.694327  0.671812  1
  O  O65  1  0.592177  0.977467  0.672095  1
  O  O66  1  0.171930  0.079780  0.694433  1
  O  O67  1  0.021455  0.614054  0.692951  1
  O  O68  1  0.385206  0.977533  0.805205  1
  O  O69  1  0.920285  0.828188  0.805673  1
  O  O70  1  0.306274  0.420034  0.828312  1
  O  O71  1  0.021455  0.407400  0.828501  1
  O  O72  1  0.478544  0.807048  0.885945  1
  O  O73  1  0.907823  0.079917  0.885291  1
  O  O74  1  0.524442  0.327660  0.909611  1
  O  O75  1  0.885326  0.579529  0.908161  1
  O  O76  1  0.614674  0.591839  0.920471  1
  O  O77  1  0.804531  0.328784  0.923225  1
  O  O78  1  0.306276  0.886242  0.977962  1
  O  O79  1  0.171931  0.092150  0.977498  1
