# generated using pymatgen
data_Lu4C2Cl3
_symmetry_space_group_name_H-M   'P 1'
_cell_length_a   3.57131200
_cell_length_b   10.18900400
_cell_length_c   19.21069400
_cell_angle_alpha   90.00000000
_cell_angle_beta   90.00000000
_cell_angle_gamma   90.00000000
_symmetry_Int_Tables_number   1
_chemical_formula_structural   Lu4C2Cl3
_chemical_formula_sum   'Lu16 C8 Cl12'
_cell_volume   699.04088973
_cell_formula_units_Z   4
loop_
 _symmetry_equiv_pos_site_id
 _symmetry_equiv_pos_as_xyz
  1  'x, y, z'
loop_
 _atom_site_type_symbol
 _atom_site_label
 _atom_site_symmetry_multiplicity
 _atom_site_fract_x
 _atom_site_fract_y
 _atom_site_fract_z
 _atom_site_occupancy
  Lu  Lu0  1  0.250000  0.138291  0.574717  1
  Lu  Lu1  1  0.250000  0.638291  0.925283  1
  Lu  Lu2  1  0.750000  0.861709  0.425283  1
  Lu  Lu3  1  0.750000  0.361709  0.074717  1
  Lu  Lu4  1  0.250000  0.637316  0.756973  1
  Lu  Lu5  1  0.250000  0.137316  0.743027  1
  Lu  Lu6  1  0.750000  0.362684  0.243027  1
  Lu  Lu7  1  0.750000  0.862684  0.256973  1
  Lu  Lu8  1  0.250000  0.099690  0.330564  1
  Lu  Lu9  1  0.250000  0.599690  0.169436  1
  Lu  Lu10  1  0.750000  0.900310  0.669436  1
  Lu  Lu11  1  0.750000  0.400310  0.830564  1
  Lu  Lu12  1  0.250000  0.125981  0.165303  1
  Lu  Lu13  1  0.250000  0.625981  0.334697  1
  Lu  Lu14  1  0.750000  0.874019  0.834697  1
  Lu  Lu15  1  0.750000  0.374019  0.665303  1
  C  C16  1  0.250000  0.864471  0.347684  1
  C  C17  1  0.250000  0.364471  0.152316  1
  C  C18  1  0.750000  0.135529  0.652316  1
  C  C19  1  0.750000  0.635529  0.847684  1
  C  C20  1  0.250000  0.387485  0.749619  1
  C  C21  1  0.250000  0.887485  0.750381  1
  C  C22  1  0.750000  0.612515  0.250381  1
  C  C23  1  0.750000  0.112515  0.249619  1
  Cl  Cl24  1  0.250000  0.377096  0.953045  1
  Cl  Cl25  1  0.250000  0.877096  0.546955  1
  Cl  Cl26  1  0.750000  0.622904  0.046955  1
  Cl  Cl27  1  0.750000  0.122904  0.453045  1
  Cl  Cl28  1  0.250000  0.888054  0.945305  1
  Cl  Cl29  1  0.250000  0.388054  0.554695  1
  Cl  Cl30  1  0.750000  0.111946  0.054695  1
  Cl  Cl31  1  0.750000  0.611946  0.445305  1
  Cl  Cl32  1  0.250000  0.360823  0.353938  1
  Cl  Cl33  1  0.250000  0.860823  0.146062  1
  Cl  Cl34  1  0.750000  0.639177  0.646062  1
  Cl  Cl35  1  0.750000  0.139177  0.853938  1
