# generated using pymatgen
data_Tb5Er3(LuPb3)2
_symmetry_space_group_name_H-M   'P 1'
_cell_length_a   6.56976500
_cell_length_b   9.03552669
_cell_length_c   9.04365835
_cell_angle_alpha   120.02389816
_cell_angle_beta   89.99792337
_cell_angle_gamma   90.00073093
_symmetry_Int_Tables_number   1
_chemical_formula_structural   Tb5Er3(LuPb3)2
_chemical_formula_sum   'Tb5 Er3 Lu2 Pb6'
_cell_volume   464.80784826
_cell_formula_units_Z   1
loop_
 _symmetry_equiv_pos_site_id
 _symmetry_equiv_pos_as_xyz
  1  'x, y, z'
loop_
 _atom_site_type_symbol
 _atom_site_label
 _atom_site_symmetry_multiplicity
 _atom_site_fract_x
 _atom_site_fract_y
 _atom_site_fract_z
 _atom_site_occupancy
  Tb  Tb0  1  0.750262  0.237181  0.999690  1
  Tb  Tb1  1  0.750274  0.762755  0.762258  1
  Tb  Tb2  1  0.750299  0.000123  0.238401  1
  Tb  Tb3  1  0.249751  0.762519  0.999731  1
  Tb  Tb4  1  0.249755  0.237591  0.237413  1
  Er  Er5  1  0.249678  0.999881  0.762547  1
  Er  Er6  1  0.499853  0.333299  0.666802  1
  Er  Er7  1  0.499809  0.666651  0.333169  1
  Lu  Lu8  1  0.000134  0.666650  0.333202  1
  Lu  Lu9  1  0.000163  0.333334  0.666802  1
  Pb  Pb10  1  0.751047  0.603687  0.999892  1
  Pb  Pb11  1  0.751058  0.396371  0.396272  1
  Pb  Pb12  1  0.751057  0.999986  0.603455  1
  Pb  Pb13  1  0.248956  0.394741  0.998978  1
  Pb  Pb14  1  0.248964  0.605274  0.604232  1
  Pb  Pb15  1  0.248939  0.999958  0.397155  1
