# generated using pymatgen
data_Cs6Ir3RhBr18
_symmetry_space_group_name_H-M   'P 1'
_cell_length_a   7.79603500
_cell_length_b   7.79603444
_cell_length_c   19.88849700
_cell_angle_alpha   90.00000000
_cell_angle_beta   90.00000000
_cell_angle_gamma   119.99999814
_symmetry_Int_Tables_number   1
_chemical_formula_structural   Cs6Ir3RhBr18
_chemical_formula_sum   'Cs6 Ir3 Rh1 Br18'
_cell_volume   1046.83957671
_cell_formula_units_Z   1
loop_
 _symmetry_equiv_pos_site_id
 _symmetry_equiv_pos_as_xyz
  1  'x, y, z'
loop_
 _atom_site_type_symbol
 _atom_site_label
 _atom_site_symmetry_multiplicity
 _atom_site_fract_x
 _atom_site_fract_y
 _atom_site_fract_z
 _atom_site_occupancy
  Cs  Cs0  1  0.666667  0.333333  0.934352  1
  Cs  Cs1  1  0.333333  0.666667  0.435937  1
  Cs  Cs2  1  0.666667  0.333333  0.566573  1
  Cs  Cs3  1  0.333333  0.666667  0.064356  1
  Cs  Cs4  1  0.000000  0.000000  0.749369  1
  Cs  Cs5  1  0.000000  0.000000  0.250228  1
  Ir  Ir6  1  0.333333  0.666667  0.667331  1
  Ir  Ir7  1  0.666667  0.333333  0.166288  1
  Ir  Ir8  1  0.666667  0.333333  0.333541  1
  Rh  Rh9  1  0.333333  0.666667  0.833384  1
  Br  Br10  1  0.818923  0.637845  0.404559  1
  Br  Br11  1  0.181154  0.362309  0.904012  1
  Br  Br12  1  0.181154  0.818846  0.904012  1
  Br  Br13  1  0.180931  0.361864  0.596290  1
  Br  Br14  1  0.637691  0.818846  0.904012  1
  Br  Br15  1  0.362155  0.181077  0.404559  1
  Br  Br16  1  0.043771  0.521885  0.749429  1
  Br  Br17  1  0.818923  0.181077  0.404559  1
  Br  Br18  1  0.522822  0.045645  0.249916  1
  Br  Br19  1  0.478115  0.521885  0.749429  1
  Br  Br20  1  0.522822  0.477178  0.249916  1
  Br  Br21  1  0.954355  0.477178  0.249916  1
  Br  Br22  1  0.361963  0.180982  0.095341  1
  Br  Br23  1  0.478115  0.956229  0.749429  1
  Br  Br24  1  0.819018  0.638037  0.095341  1
  Br  Br25  1  0.180931  0.819069  0.596290  1
  Br  Br26  1  0.638136  0.819069  0.596290  1
  Br  Br27  1  0.819018  0.180982  0.095341  1
