# generated using pymatgen
data_Er4Tm6Ir3Os
_symmetry_space_group_name_H-M   'P 1'
_cell_length_a   6.41988894
_cell_length_b   7.19693196
_cell_length_c   8.32074842
_cell_angle_alpha   96.49209336
_cell_angle_beta   112.42056529
_cell_angle_gamma   89.98207517
_symmetry_Int_Tables_number   1
_chemical_formula_structural   Er4Tm6Ir3Os
_chemical_formula_sum   'Er4 Tm6 Ir3 Os1'
_cell_volume   352.72431053
_cell_formula_units_Z   1
loop_
 _symmetry_equiv_pos_site_id
 _symmetry_equiv_pos_as_xyz
  1  'x, y, z'
loop_
 _atom_site_type_symbol
 _atom_site_label
 _atom_site_symmetry_multiplicity
 _atom_site_fract_x
 _atom_site_fract_y
 _atom_site_fract_z
 _atom_site_occupancy
  Er  Er0  1  0.970031  0.917575  0.182761  1
  Er  Er1  1  0.788689  0.581261  0.821304  1
  Er  Er2  1  0.029902  0.081183  0.818484  1
  Er  Er3  1  0.212162  0.419397  0.183325  1
  Tm  Tm4  1  0.655816  0.816975  0.440020  1
  Tm  Tm5  1  0.210455  0.681495  0.556937  1
  Tm  Tm6  1  0.346225  0.181788  0.558857  1
  Tm  Tm7  1  0.787133  0.319526  0.440251  1
  Tm  Tm8  1  0.427093  0.749617  0.000352  1
  Tm  Tm9  1  0.574979  0.251398  0.000953  1
  Ir  Ir10  1  0.606924  0.927306  0.780415  1
  Ir  Ir11  1  0.173751  0.425598  0.781401  1
  Ir  Ir12  1  0.391514  0.073417  0.218738  1
  Os  Os13  1  0.825327  0.573465  0.216202  1
