# generated using pymatgen
data_MnAg3(NO3)8
_symmetry_space_group_name_H-M   'P 1'
_cell_length_a   7.95819594
_cell_length_b   7.95819594
_cell_length_c   7.95819594
_cell_angle_alpha   90.36485304
_cell_angle_beta   90.36485304
_cell_angle_gamma   90.36485304
_symmetry_Int_Tables_number   1
_chemical_formula_structural   MnAg3(NO3)8
_chemical_formula_sum   'Mn1 Ag3 N8 O24'
_cell_volume   503.98470099
_cell_formula_units_Z   1
loop_
 _symmetry_equiv_pos_site_id
 _symmetry_equiv_pos_as_xyz
  1  'x, y, z'
loop_
 _atom_site_type_symbol
 _atom_site_label
 _atom_site_symmetry_multiplicity
 _atom_site_fract_x
 _atom_site_fract_y
 _atom_site_fract_z
 _atom_site_occupancy
  Mn  Mn0  1  0.000000  0.000000  0.000000  1
  Ag  Ag1  1  0.500000  0.500000  0.000000  1
  Ag  Ag2  1  0.000000  0.500000  0.500000  1
  Ag  Ag3  1  0.500000  0.000000  0.500000  1
  N  N4  1  0.320354  0.160516  0.831685  1
  N  N5  1  0.831685  0.320354  0.160516  1
  N  N6  1  0.160516  0.831685  0.320354  1
  N  N7  1  0.668682  0.668682  0.668682  1
  N  N8  1  0.679646  0.839484  0.168315  1
  N  N9  1  0.168315  0.679646  0.839484  1
  N  N10  1  0.839484  0.168315  0.679646  1
  N  N11  1  0.331318  0.331318  0.331318  1
  O  O12  1  0.437374  0.266709  0.818801  1
  O  O13  1  0.818801  0.437374  0.266709  1
  O  O14  1  0.266709  0.818801  0.437374  1
  O  O15  1  0.214451  0.172547  0.949902  1
  O  O16  1  0.307623  0.041250  0.726871  1
  O  O17  1  0.726871  0.307623  0.041250  1
  O  O18  1  0.687708  0.548430  0.769913  1
  O  O19  1  0.172547  0.949902  0.214451  1
  O  O20  1  0.769913  0.687708  0.548430  1
  O  O21  1  0.949902  0.214451  0.172547  1
  O  O22  1  0.548430  0.769913  0.687708  1
  O  O23  1  0.041250  0.726871  0.307623  1
  O  O24  1  0.562626  0.733291  0.181199  1
  O  O25  1  0.181199  0.562626  0.733291  1
  O  O26  1  0.733291  0.181199  0.562626  1
  O  O27  1  0.785549  0.827453  0.050098  1
  O  O28  1  0.692377  0.958750  0.273129  1
  O  O29  1  0.273129  0.692377  0.958750  1
  O  O30  1  0.312292  0.451570  0.230087  1
  O  O31  1  0.827453  0.050098  0.785549  1
  O  O32  1  0.230087  0.312292  0.451570  1
  O  O33  1  0.050098  0.785549  0.827453  1
  O  O34  1  0.451570  0.230087  0.312292  1
  O  O35  1  0.958750  0.273129  0.692377  1
