# generated using pymatgen
data_Dy3(Co2Os)2
_symmetry_space_group_name_H-M   'P 1'
_cell_length_a   5.13946247
_cell_length_b   5.10309946
_cell_length_c   12.71158759
_cell_angle_alpha   90.26251787
_cell_angle_beta   89.24655292
_cell_angle_gamma   118.72733259
_symmetry_Int_Tables_number   1
_chemical_formula_structural   Dy3(Co2Os)2
_chemical_formula_sum   'Dy6 Co8 Os4'
_cell_volume   292.32879667
_cell_formula_units_Z   2
loop_
 _symmetry_equiv_pos_site_id
 _symmetry_equiv_pos_as_xyz
  1  'x, y, z'
loop_
 _atom_site_type_symbol
 _atom_site_label
 _atom_site_symmetry_multiplicity
 _atom_site_fract_x
 _atom_site_fract_y
 _atom_site_fract_z
 _atom_site_occupancy
  Dy  Dy0  1  0.336639  0.662818  0.912343  1
  Dy  Dy1  1  0.003409  0.003505  0.252109  1
  Dy  Dy2  1  0.669692  0.331689  0.584036  1
  Dy  Dy3  1  0.330308  0.668311  0.665964  1
  Dy  Dy4  1  0.996591  0.996495  0.997891  1
  Dy  Dy5  1  0.663361  0.337182  0.337657  1
  Co  Co6  1  0.166335  0.332996  0.461397  1
  Co  Co7  1  0.833665  0.667004  0.788603  1
  Co  Co8  1  0.332343  0.666816  0.295958  1
  Co  Co9  1  0.000000  0.000000  0.625000  1
  Co  Co10  1  0.667657  0.333184  0.954042  1
  Co  Co11  1  0.000000  0.500000  0.125000  1
  Co  Co12  1  0.667220  0.833275  0.460406  1
  Co  Co13  1  0.332780  0.166725  0.789594  1
  Os  Os14  1  0.500000  0.500000  0.125000  1
  Os  Os15  1  0.166728  0.833456  0.460015  1
  Os  Os16  1  0.833272  0.166544  0.789985  1
  Os  Os17  1  0.500000  0.000000  0.125000  1
