# generated using pymatgen
data_K3RhAuO6
_symmetry_space_group_name_H-M   'P 1'
_cell_length_a   7.38480836
_cell_length_b   7.38480749
_cell_length_c   7.36483400
_cell_angle_alpha   84.86603924
_cell_angle_beta   84.86603985
_cell_angle_gamma   96.93430434
_symmetry_Int_Tables_number   1
_chemical_formula_structural   K3RhAuO6
_chemical_formula_sum   'K6 Rh2 Au2 O12'
_cell_volume   395.05844420
_cell_formula_units_Z   2
loop_
 _symmetry_equiv_pos_site_id
 _symmetry_equiv_pos_as_xyz
  1  'x, y, z'
loop_
 _atom_site_type_symbol
 _atom_site_label
 _atom_site_symmetry_multiplicity
 _atom_site_fract_x
 _atom_site_fract_y
 _atom_site_fract_z
 _atom_site_occupancy
  K  K0  1  0.100717  0.899283  0.750000  1
  K  K1  1  0.899283  0.100717  0.250000  1
  K  K2  1  0.766659  0.598438  0.119449  1
  K  K3  1  0.401562  0.233341  0.380551  1
  K  K4  1  0.233341  0.401562  0.880551  1
  K  K5  1  0.598438  0.766659  0.619449  1
  Rh  Rh6  1  0.000000  0.500000  0.500000  1
  Rh  Rh7  1  0.500000  0.000000  0.000000  1
  Au  Au8  1  0.683975  0.316025  0.750000  1
  Au  Au9  1  0.316025  0.683975  0.250000  1
  O  O10  1  0.257794  0.623060  0.523970  1
  O  O11  1  0.376940  0.742206  0.976030  1
  O  O12  1  0.742206  0.376940  0.476030  1
  O  O13  1  0.623060  0.257794  0.023970  1
  O  O14  1  0.068829  0.269315  0.568326  1
  O  O15  1  0.730685  0.931171  0.931674  1
  O  O16  1  0.931171  0.730685  0.431674  1
  O  O17  1  0.269315  0.068829  0.068326  1
  O  O18  1  0.106707  0.483517  0.237252  1
  O  O19  1  0.516483  0.893293  0.262748  1
  O  O20  1  0.483517  0.106707  0.737252  1
  O  O21  1  0.893293  0.516483  0.762748  1
