# generated using pymatgen
data_Pr3Er2Tl2InCl
_symmetry_space_group_name_H-M   'P 1'
_cell_length_a   9.35145600
_cell_length_b   9.35145499
_cell_length_c   6.65743400
_cell_angle_alpha   90.00000000
_cell_angle_beta   90.00000000
_cell_angle_gamma   119.93232101
_symmetry_Int_Tables_number   1
_chemical_formula_structural   Pr3Er2Tl2InCl
_chemical_formula_sum   'Pr6 Er4 Tl4 In2 Cl2'
_cell_volume   504.53546543
_cell_formula_units_Z   2
loop_
 _symmetry_equiv_pos_site_id
 _symmetry_equiv_pos_as_xyz
  1  'x, y, z'
loop_
 _atom_site_type_symbol
 _atom_site_label
 _atom_site_symmetry_multiplicity
 _atom_site_fract_x
 _atom_site_fract_y
 _atom_site_fract_z
 _atom_site_occupancy
  Pr  Pr0  1  0.738364  0.738364  0.250000  1
  Pr  Pr1  1  0.999122  0.737772  0.750000  1
  Pr  Pr2  1  0.737772  0.999122  0.750000  1
  Pr  Pr3  1  0.261636  0.261636  0.750000  1
  Pr  Pr4  1  0.000878  0.262228  0.250000  1
  Pr  Pr5  1  0.262228  0.000878  0.250000  1
  Er  Er6  1  0.333844  0.666156  0.500000  1
  Er  Er7  1  0.666156  0.333844  0.500000  1
  Er  Er8  1  0.333844  0.666156  0.000000  1
  Er  Er9  1  0.666156  0.333844  0.000000  1
  Tl  Tl10  1  0.395834  0.000002  0.750000  1
  Tl  Tl11  1  0.999998  0.604166  0.250000  1
  Tl  Tl12  1  0.604166  0.999998  0.250000  1
  Tl  Tl13  1  0.000002  0.395834  0.750000  1
  In  In14  1  0.396998  0.396998  0.250000  1
  In  In15  1  0.603002  0.603002  0.750000  1
  Cl  Cl16  1  0.000000  0.000000  0.500000  1
  Cl  Cl17  1  0.000000  0.000000  0.000000  1
