# generated using pymatgen
data_Yb3Tm3(CoSn6)2
_symmetry_space_group_name_H-M   'P 1'
_cell_length_a   8.33507563
_cell_length_b   8.33507548
_cell_length_c   13.21871622
_cell_angle_alpha   89.98017181
_cell_angle_beta   90.01982931
_cell_angle_gamma   147.76003064
_symmetry_Int_Tables_number   1
_chemical_formula_structural   Yb3Tm3(CoSn6)2
_chemical_formula_sum   'Yb3 Tm3 Co2 Sn12'
_cell_volume   489.90902872
_cell_formula_units_Z   1
loop_
 _symmetry_equiv_pos_site_id
 _symmetry_equiv_pos_as_xyz
  1  'x, y, z'
loop_
 _atom_site_type_symbol
 _atom_site_label
 _atom_site_symmetry_multiplicity
 _atom_site_fract_x
 _atom_site_fract_y
 _atom_site_fract_z
 _atom_site_occupancy
  Yb  Yb0  1  0.099504  0.900496  0.597265  1
  Yb  Yb1  1  0.099824  0.900176  0.903611  1
  Yb  Yb2  1  0.900630  0.099370  0.402281  1
  Tm  Tm3  1  0.898401  0.101599  0.096010  1
  Tm  Tm4  1  0.901093  0.098907  0.753017  1
  Tm  Tm5  1  0.098659  0.901341  0.247577  1
  Co  Co6  1  0.298173  0.701827  0.249070  1
  Co  Co7  1  0.704156  0.295844  0.750748  1
  Sn  Sn8  1  0.758220  0.241780  0.572060  1
  Sn  Sn9  1  0.424868  0.575132  0.578559  1
  Sn  Sn10  1  0.574501  0.425499  0.421958  1
  Sn  Sn11  1  0.732049  0.267951  0.248773  1
  Sn  Sn12  1  0.268690  0.731310  0.750132  1
  Sn  Sn13  1  0.241442  0.758558  0.071964  1
  Sn  Sn14  1  0.242335  0.757665  0.427208  1
  Sn  Sn15  1  0.573131  0.426869  0.075809  1
  Sn  Sn16  1  0.455112  0.544888  0.248049  1
  Sn  Sn17  1  0.545358  0.454642  0.750663  1
  Sn  Sn18  1  0.758155  0.241845  0.929636  1
  Sn  Sn19  1  0.425699  0.574301  0.925611  1
