# generated using pymatgen
data_LiYb3TmFeC8
_symmetry_space_group_name_H-M   'P 1'
_cell_length_a   6.73780507
_cell_length_b   6.70717946
_cell_length_c   6.73130513
_cell_angle_alpha   134.58492391
_cell_angle_beta   111.31392110
_cell_angle_gamma   86.56457865
_symmetry_Int_Tables_number   1
_chemical_formula_structural   LiYb3TmFeC8
_chemical_formula_sum   'Li1 Yb3 Tm1 Fe1 C8'
_cell_volume   192.90053960
_cell_formula_units_Z   1
loop_
 _symmetry_equiv_pos_site_id
 _symmetry_equiv_pos_as_xyz
  1  'x, y, z'
loop_
 _atom_site_type_symbol
 _atom_site_label
 _atom_site_symmetry_multiplicity
 _atom_site_fract_x
 _atom_site_fract_y
 _atom_site_fract_z
 _atom_site_occupancy
  Li  Li0  1  0.001650  0.248710  0.243602  1
  Yb  Yb1  1  0.801150  0.641810  0.150780  1
  Yb  Yb2  1  0.516771  0.863175  0.669347  1
  Yb  Yb3  1  0.495469  0.153708  0.353788  1
  Tm  Tm4  1  0.202471  0.353368  0.840087  1
  Fe  Fe5  1  0.991750  0.734789  0.742333  1
  C  C6  1  0.816104  0.143549  0.690765  1
  C  C7  1  0.205625  0.890350  0.347216  1
  C  C8  1  0.451093  0.612725  0.820995  1
  C  C9  1  0.528658  0.376851  0.157342  1
  C  C10  1  0.914890  0.009790  0.755108  1
  C  C11  1  0.091438  0.845912  0.107998  1
  C  C12  1  0.255022  0.645776  0.741591  1
  C  C13  1  0.727909  0.479487  0.379049  1
