# generated using pymatgen
data_Nd3TmSb10
_symmetry_space_group_name_H-M   'P 1'
_cell_length_a   4.30261400
_cell_length_b   13.43873028
_cell_length_c   15.03184367
_cell_angle_alpha   77.98454702
_cell_angle_beta   90.00000000
_cell_angle_gamma   90.00000000
_symmetry_Int_Tables_number   1
_chemical_formula_structural   Nd3TmSb10
_chemical_formula_sum   'Nd6 Tm2 Sb20'
_cell_volume   850.12415181
_cell_formula_units_Z   2
loop_
 _symmetry_equiv_pos_site_id
 _symmetry_equiv_pos_as_xyz
  1  'x, y, z'
loop_
 _atom_site_type_symbol
 _atom_site_label
 _atom_site_symmetry_multiplicity
 _atom_site_fract_x
 _atom_site_fract_y
 _atom_site_fract_z
 _atom_site_occupancy
  Nd  Nd0  1  0.750000  0.334916  0.142816  1
  Nd  Nd1  1  0.250000  0.948308  0.361199  1
  Nd  Nd2  1  0.250000  0.665084  0.857184  1
  Nd  Nd3  1  0.250000  0.667683  0.576035  1
  Nd  Nd4  1  0.750000  0.051692  0.638801  1
  Nd  Nd5  1  0.750000  0.332317  0.423965  1
  Tm  Tm6  1  0.250000  0.398805  0.771980  1
  Tm  Tm7  1  0.750000  0.601195  0.228020  1
  Sb  Sb8  1  0.750000  0.852063  0.819195  1
  Sb  Sb9  1  0.250000  0.862861  0.674717  1
  Sb  Sb10  1  0.250000  0.144208  0.478326  1
  Sb  Sb11  1  0.750000  0.285426  0.932986  1
  Sb  Sb12  1  0.250000  0.149357  0.781057  1
  Sb  Sb13  1  0.750000  0.575161  0.440865  1
  Sb  Sb14  1  0.750000  0.137139  0.325283  1
  Sb  Sb15  1  0.250000  0.704226  0.349730  1
  Sb  Sb16  1  0.750000  0.295774  0.650270  1
  Sb  Sb17  1  0.750000  0.850643  0.218943  1
  Sb  Sb18  1  0.250000  0.419678  0.972267  1
  Sb  Sb19  1  0.250000  0.424839  0.559135  1
  Sb  Sb20  1  0.750000  0.571549  0.737032  1
  Sb  Sb21  1  0.250000  0.428451  0.262968  1
  Sb  Sb22  1  0.750000  0.855792  0.521674  1
  Sb  Sb23  1  0.750000  0.034653  0.890251  1
  Sb  Sb24  1  0.250000  0.714574  0.067014  1
  Sb  Sb25  1  0.250000  0.965347  0.109749  1
  Sb  Sb26  1  0.250000  0.147937  0.180805  1
  Sb  Sb27  1  0.750000  0.580322  0.027733  1
