# generated using pymatgen
data_Tb6EuIrI12
_symmetry_space_group_name_H-M   'P 1'
_cell_length_a   9.92037747
_cell_length_b   9.92037670
_cell_length_c   9.92037762
_cell_angle_alpha   106.87107352
_cell_angle_beta   106.87107218
_cell_angle_gamma   106.87107996
_symmetry_Int_Tables_number   1
_chemical_formula_structural   Tb6EuIrI12
_chemical_formula_sum   'Tb6 Eu1 Ir1 I12'
_cell_volume   815.91700338
_cell_formula_units_Z   1
loop_
 _symmetry_equiv_pos_site_id
 _symmetry_equiv_pos_as_xyz
  1  'x, y, z'
loop_
 _atom_site_type_symbol
 _atom_site_label
 _atom_site_symmetry_multiplicity
 _atom_site_fract_x
 _atom_site_fract_y
 _atom_site_fract_z
 _atom_site_occupancy
  Tb  Tb0  1  0.906444  0.978956  0.703825  1
  Tb  Tb1  1  0.703825  0.906444  0.978956  1
  Tb  Tb2  1  0.978956  0.703825  0.906444  1
  Tb  Tb3  1  0.093556  0.021044  0.296175  1
  Tb  Tb4  1  0.296175  0.093556  0.021044  1
  Tb  Tb5  1  0.021044  0.296175  0.093556  1
  Eu  Eu6  1  0.500000  0.500000  0.500000  1
  Ir  Ir7  1  0.000000  0.000000  0.000000  1
  I  I8  1  0.926047  0.321299  0.777289  1
  I  I9  1  0.777289  0.926047  0.321299  1
  I  I10  1  0.321299  0.777289  0.926047  1
  I  I11  1  0.073953  0.678701  0.222711  1
  I  I12  1  0.222711  0.073953  0.678701  1
  I  I13  1  0.678701  0.222711  0.073953  1
  I  I14  1  0.549223  0.858183  0.627772  1
  I  I15  1  0.627772  0.549223  0.858183  1
  I  I16  1  0.858183  0.627772  0.549223  1
  I  I17  1  0.450777  0.141817  0.372228  1
  I  I18  1  0.372228  0.450777  0.141817  1
  I  I19  1  0.141817  0.372228  0.450777  1
