# generated using pymatgen
data_Ho2ReSi14Ir5
_symmetry_space_group_name_H-M   'P 1'
_cell_length_a   8.01114802
_cell_length_b   8.01114790
_cell_length_c   8.08846698
_cell_angle_alpha   56.82069433
_cell_angle_beta   56.82069476
_cell_angle_gamma   57.00693028
_symmetry_Int_Tables_number   1
_chemical_formula_structural   Ho2ReSi14Ir5
_chemical_formula_sum   'Ho2 Re1 Si14 Ir5'
_cell_volume   340.66215709
_cell_formula_units_Z   1
loop_
 _symmetry_equiv_pos_site_id
 _symmetry_equiv_pos_as_xyz
  1  'x, y, z'
loop_
 _atom_site_type_symbol
 _atom_site_label
 _atom_site_symmetry_multiplicity
 _atom_site_fract_x
 _atom_site_fract_y
 _atom_site_fract_z
 _atom_site_occupancy
  Ho  Ho0  1  0.000704  0.003350  0.996879  1
  Ho  Ho1  1  0.496650  0.499296  0.503121  1
  Re  Re2  1  0.078443  0.421557  0.750000  1
  Si  Si3  1  0.753109  0.746891  0.750000  1
  Si  Si4  1  0.249155  0.250845  0.250000  1
  Si  Si5  1  0.848845  0.064396  0.673289  1
  Si  Si6  1  0.671937  0.852754  0.063053  1
  Si  Si7  1  0.062387  0.671255  0.851781  1
  Si  Si8  1  0.647246  0.828063  0.436947  1
  Si  Si9  1  0.435604  0.651155  0.826711  1
  Si  Si10  1  0.828745  0.437613  0.648219  1
  Si  Si11  1  0.171628  0.562818  0.354642  1
  Si  Si12  1  0.565760  0.350706  0.171145  1
  Si  Si13  1  0.352706  0.173815  0.561813  1
  Si  Si14  1  0.937182  0.328372  0.145358  1
  Si  Si15  1  0.326185  0.147294  0.938187  1
  Si  Si16  1  0.149294  0.934240  0.328855  1
  Ir  Ir17  1  0.250106  0.927739  0.571251  1
  Ir  Ir18  1  0.572261  0.249894  0.928749  1
  Ir  Ir19  1  0.924829  0.575171  0.250000  1
  Ir  Ir20  1  0.427828  0.750602  0.071699  1
  Ir  Ir21  1  0.749398  0.072172  0.428301  1
