# generated using pymatgen
data_Er4ReTc3F28
_symmetry_space_group_name_H-M   'P 1'
_cell_length_a   5.60106870
_cell_length_b   8.92807182
_cell_length_c   12.00102100
_cell_angle_alpha   62.80168205
_cell_angle_beta   90.06582644
_cell_angle_gamma   90.03644071
_symmetry_Int_Tables_number   1
_chemical_formula_structural   Er4ReTc3F28
_chemical_formula_sum   'Er4 Re1 Tc3 F28'
_cell_volume   533.77490570
_cell_formula_units_Z   1
loop_
 _symmetry_equiv_pos_site_id
 _symmetry_equiv_pos_as_xyz
  1  'x, y, z'
loop_
 _atom_site_type_symbol
 _atom_site_label
 _atom_site_symmetry_multiplicity
 _atom_site_fract_x
 _atom_site_fract_y
 _atom_site_fract_z
 _atom_site_occupancy
  Er  Er0  1  0.758845  0.813536  0.765138  1
  Er  Er1  1  0.257873  0.184816  0.734923  1
  Er  Er2  1  0.240814  0.185851  0.235290  1
  Er  Er3  1  0.740811  0.815771  0.264637  1
  Re  Re4  1  0.743815  0.273797  0.456310  1
  Tc  Tc5  1  0.756981  0.273094  0.956279  1
  Tc  Tc6  1  0.256722  0.727028  0.543078  1
  Tc  Tc7  1  0.242862  0.726155  0.044345  1
  F  F8  1  0.450286  0.706022  0.920288  1
  F  F9  1  0.948951  0.292166  0.583851  1
  F  F10  1  0.547941  0.293231  0.079533  1
  F  F11  1  0.047882  0.707456  0.419180  1
  F  F12  1  0.448984  0.279199  0.547446  1
  F  F13  1  0.951548  0.720030  0.953067  1
  F  F14  1  0.545484  0.718882  0.451257  1
  F  F15  1  0.045760  0.279743  0.048953  1
  F  F16  1  0.770259  0.520106  0.858176  1
  F  F17  1  0.268105  0.480172  0.641330  1
  F  F18  1  0.230026  0.479193  0.142564  1
  F  F19  1  0.731911  0.522846  0.357337  1
  F  F20  1  0.756333  0.027168  0.053561  1
  F  F21  1  0.257957  0.973183  0.446414  1
  F  F22  1  0.244581  0.971851  0.946811  1
  F  F23  1  0.744565  0.025972  0.552794  1
  F  F24  1  0.977628  0.732922  0.640440  1
  F  F25  1  0.479397  0.268145  0.857280  1
  F  F26  1  0.029395  0.270862  0.359509  1
  F  F27  1  0.522599  0.729891  0.142612  1
  F  F28  1  0.040402  0.747005  0.171903  1
  F  F29  1  0.544050  0.253910  0.326026  1
  F  F30  1  0.961456  0.251664  0.829899  1
  F  F31  1  0.460936  0.748449  0.669859  1
  F  F32  1  0.422399  0.974065  0.232893  1
  F  F33  1  0.922038  0.028040  0.268046  1
  F  F34  1  0.574669  0.025518  0.765801  1
  F  F35  1  0.075738  0.972259  0.733171  1
