# generated using pymatgen
data_Dy4Y4Lu4Co5Pb
_symmetry_space_group_name_H-M   'P 1'
_cell_length_a   8.24511526
_cell_length_b   8.24506214
_cell_length_c   8.24511383
_cell_angle_alpha   107.11092377
_cell_angle_beta   110.62297145
_cell_angle_gamma   110.70550136
_symmetry_Int_Tables_number   1
_chemical_formula_structural   Dy4Y4Lu4Co5Pb
_chemical_formula_sum   'Dy4 Y4 Lu4 Co5 Pb1'
_cell_volume   430.93677336
_cell_formula_units_Z   1
loop_
 _symmetry_equiv_pos_site_id
 _symmetry_equiv_pos_as_xyz
  1  'x, y, z'
loop_
 _atom_site_type_symbol
 _atom_site_label
 _atom_site_symmetry_multiplicity
 _atom_site_fract_x
 _atom_site_fract_y
 _atom_site_fract_z
 _atom_site_occupancy
  Dy  Dy0  1  0.194145  0.210020  0.404165  1
  Dy  Dy1  1  0.805855  0.789980  0.595835  1
  Dy  Dy2  1  0.194145  0.789980  0.984125  1
  Dy  Dy3  1  0.805855  0.210020  0.015875  1
  Y  Y4  1  0.475447  0.289675  0.185769  1
  Y  Y5  1  0.103907  0.289675  0.814228  1
  Y  Y6  1  0.896093  0.710325  0.185772  1
  Y  Y7  1  0.524553  0.710325  0.814231  1
  Lu  Lu8  1  0.309910  0.624724  0.314814  1
  Lu  Lu9  1  0.309910  0.995108  0.685196  1
  Lu  Lu10  1  0.690090  0.375276  0.685186  1
  Lu  Lu11  1  0.690090  0.004892  0.314804  1
  Co  Co12  1  0.499997  0.613025  0.113027  1
  Co  Co13  1  0.500003  0.386975  0.886973  1
  Co  Co14  1  0.378414  0.000000  0.378414  1
  Co  Co15  1  0.621586  0.000000  0.621586  1
  Co  Co16  1  0.000000  0.000000  0.000000  1
  Pb  Pb17  1  0.000000  0.500000  0.500000  1
