# generated using pymatgen
data_LaPrB4Ir3Os
_symmetry_space_group_name_H-M   'P 1'
_cell_length_a   7.06816459
_cell_length_b   6.14312066
_cell_length_c   5.65519285
_cell_angle_alpha   73.47721184
_cell_angle_beta   56.43262598
_cell_angle_gamma   49.56566273
_symmetry_Int_Tables_number   1
_chemical_formula_structural   LaPrB4Ir3Os
_chemical_formula_sum   'La1 Pr1 B4 Ir3 Os1'
_cell_volume   154.66341603
_cell_formula_units_Z   1
loop_
 _symmetry_equiv_pos_site_id
 _symmetry_equiv_pos_as_xyz
  1  'x, y, z'
loop_
 _atom_site_type_symbol
 _atom_site_label
 _atom_site_symmetry_multiplicity
 _atom_site_fract_x
 _atom_site_fract_y
 _atom_site_fract_z
 _atom_site_occupancy
  La  La0  1  0.501138  0.501138  0.498862  1
  Pr  Pr1  1  0.750148  0.750148  0.749852  1
  B  B2  1  0.159529  0.829921  0.190542  1
  B  B3  1  0.077780  0.429797  0.058887  1
  B  B4  1  0.829921  0.159529  0.820008  1
  B  B5  1  0.429797  0.077780  0.433536  1
  Ir  Ir6  1  0.131730  0.131730  0.868270  1
  Ir  Ir7  1  0.383364  0.383364  0.116636  1
  Ir  Ir8  1  0.120408  0.120408  0.379592  1
  Os  Os9  1  0.866185  0.866185  0.133815  1
