# generated using pymatgen
data_Lu4ZnRu3
_symmetry_space_group_name_H-M   'P 1'
_cell_length_a   3.35665000
_cell_length_b   3.35665000
_cell_length_c   13.77471200
_cell_angle_alpha   90.00000000
_cell_angle_beta   90.00000000
_cell_angle_gamma   90.00000000
_symmetry_Int_Tables_number   1
_chemical_formula_structural   Lu4ZnRu3
_chemical_formula_sum   'Lu4 Zn1 Ru3'
_cell_volume   155.20104687
_cell_formula_units_Z   1
loop_
 _symmetry_equiv_pos_site_id
 _symmetry_equiv_pos_as_xyz
  1  'x, y, z'
loop_
 _atom_site_type_symbol
 _atom_site_label
 _atom_site_symmetry_multiplicity
 _atom_site_fract_x
 _atom_site_fract_y
 _atom_site_fract_z
 _atom_site_occupancy
  Lu  Lu0  1  0.000000  0.000000  0.859589  1
  Lu  Lu1  1  0.000000  0.000000  0.140411  1
  Lu  Lu2  1  0.000000  0.000000  0.378853  1
  Lu  Lu3  1  0.000000  0.000000  0.621147  1
  Zn  Zn4  1  0.500000  0.500000  0.000000  1
  Ru  Ru5  1  0.500000  0.500000  0.250896  1
  Ru  Ru6  1  0.500000  0.500000  0.500000  1
  Ru  Ru7  1  0.500000  0.500000  0.749104  1
