# generated using pymatgen
data_Er3TaB4(Ru5W)2
_symmetry_space_group_name_H-M   'P 1'
_cell_length_a   9.55866117
_cell_length_b   9.55866098
_cell_length_c   3.08493100
_cell_angle_alpha   90.00000000
_cell_angle_beta   90.00000000
_cell_angle_gamma   90.20347683
_symmetry_Int_Tables_number   1
_chemical_formula_structural   Er3TaB4(Ru5W)2
_chemical_formula_sum   'Er3 Ta1 B4 Ru10 W2'
_cell_volume   281.86220305
_cell_formula_units_Z   1
loop_
 _symmetry_equiv_pos_site_id
 _symmetry_equiv_pos_as_xyz
  1  'x, y, z'
loop_
 _atom_site_type_symbol
 _atom_site_label
 _atom_site_symmetry_multiplicity
 _atom_site_fract_x
 _atom_site_fract_y
 _atom_site_fract_z
 _atom_site_occupancy
  Er  Er0  1  0.824270  0.674942  0.000000  1
  Er  Er1  1  0.174942  0.324270  0.000000  1
  Er  Er2  1  0.325358  0.825358  0.000000  1
  Ta  Ta3  1  0.676079  0.176079  0.000000  1
  B  B4  1  0.623012  0.881446  0.000000  1
  B  B5  1  0.381446  0.123012  0.000000  1
  B  B6  1  0.118067  0.618067  0.000000  1
  B  B7  1  0.876738  0.376738  0.000000  1
  Ru  Ru8  1  0.570611  0.719542  0.500000  1
  Ru  Ru9  1  0.440092  0.282712  0.500000  1
  Ru  Ru10  1  0.068197  0.782857  0.500000  1
  Ru  Ru11  1  0.917759  0.211771  0.500000  1
  Ru  Ru12  1  0.282857  0.568197  0.500000  1
  Ru  Ru13  1  0.711771  0.417759  0.500000  1
  Ru  Ru14  1  0.219542  0.070611  0.500000  1
  Ru  Ru15  1  0.782712  0.940092  0.500000  1
  Ru  Ru16  1  0.509291  0.009291  0.500000  1
  Ru  Ru17  1  0.996060  0.496060  0.500000  1
  W  W18  1  0.497603  0.503592  0.000000  1
  W  W19  1  0.003592  0.997603  0.000000  1
