# generated using pymatgen
data_Gd2DyHo(CrB4)4
_symmetry_space_group_name_H-M   'P 1'
_cell_length_a   5.94708407
_cell_length_b   11.48850807
_cell_length_c   3.45470000
_cell_angle_alpha   90.00000000
_cell_angle_beta   90.00000000
_cell_angle_gamma   90.01533875
_symmetry_Int_Tables_number   1
_chemical_formula_structural   Gd2DyHo(CrB4)4
_chemical_formula_sum   'Gd2 Dy1 Ho1 Cr4 B16'
_cell_volume   236.03588587
_cell_formula_units_Z   1
loop_
 _symmetry_equiv_pos_site_id
 _symmetry_equiv_pos_as_xyz
  1  'x, y, z'
loop_
 _atom_site_type_symbol
 _atom_site_label
 _atom_site_symmetry_multiplicity
 _atom_site_fract_x
 _atom_site_fract_y
 _atom_site_fract_z
 _atom_site_occupancy
  Gd  Gd0  1  0.375335  0.650931  0.000000  1
  Gd  Gd1  1  0.124616  0.151118  0.000000  1
  Dy  Dy2  1  0.875661  0.849302  0.000000  1
  Ho  Ho3  1  0.624276  0.349169  0.000000  1
  Cr  Cr4  1  0.624119  0.081139  0.000000  1
  Cr  Cr5  1  0.376460  0.919392  0.000000  1
  Cr  Cr6  1  0.123524  0.418914  0.000000  1
  Cr  Cr7  1  0.875683  0.580459  0.000000  1
  B  B8  1  0.780603  0.184519  0.500000  1
  B  B9  1  0.218980  0.816329  0.500000  1
  B  B10  1  0.281486  0.315969  0.500000  1
  B  B11  1  0.719456  0.684017  0.500000  1
  B  B12  1  0.862358  0.032529  0.500000  1
  B  B13  1  0.137891  0.967528  0.500000  1
  B  B14  1  0.362313  0.466785  0.500000  1
  B  B15  1  0.637463  0.531813  0.500000  1
  B  B16  1  0.886043  0.452765  0.500000  1
  B  B17  1  0.112415  0.546074  0.500000  1
  B  B18  1  0.387621  0.046796  0.500000  1
  B  B19  1  0.613601  0.953571  0.500000  1
  B  B20  1  0.974664  0.308786  0.500000  1
  B  B21  1  0.024254  0.691083  0.500000  1
  B  B22  1  0.476064  0.191732  0.500000  1
  B  B23  1  0.525115  0.809280  0.500000  1
