# generated using pymatgen
data_Y4Ho6(SnBi)3
_symmetry_space_group_name_H-M   'P 1'
_cell_length_a   9.04789239
_cell_length_b   9.07466380
_cell_length_c   6.47513400
_cell_angle_alpha   90.00000000
_cell_angle_beta   90.00000000
_cell_angle_gamma   120.01672112
_symmetry_Int_Tables_number   1
_chemical_formula_structural   Y4Ho6(SnBi)3
_chemical_formula_sum   'Y4 Ho6 Sn3 Bi3'
_cell_volume   460.34577618
_cell_formula_units_Z   1
loop_
 _symmetry_equiv_pos_site_id
 _symmetry_equiv_pos_as_xyz
  1  'x, y, z'
loop_
 _atom_site_type_symbol
 _atom_site_label
 _atom_site_symmetry_multiplicity
 _atom_site_fract_x
 _atom_site_fract_y
 _atom_site_fract_z
 _atom_site_occupancy
  Y  Y0  1  0.764718  0.005892  0.750000  1
  Y  Y1  1  0.236129  0.999780  0.250000  1
  Y  Y2  1  0.999708  0.755179  0.750000  1
  Y  Y3  1  0.238976  0.244621  0.750000  1
  Ho  Ho4  1  0.758796  0.752973  0.250000  1
  Ho  Ho5  1  0.005836  0.246540  0.250000  1
  Ho  Ho6  1  0.325288  0.658422  0.498479  1
  Ho  Ho7  1  0.672045  0.338501  0.498579  1
  Ho  Ho8  1  0.325288  0.658422  0.001521  1
  Ho  Ho9  1  0.672045  0.338501  0.001421  1
  Sn  Sn10  1  0.997325  0.392548  0.750000  1
  Sn  Sn11  1  0.392589  0.390268  0.250000  1
  Sn  Sn12  1  0.000985  0.608094  0.250000  1
  Bi  Bi13  1  0.608880  0.611575  0.750000  1
  Bi  Bi14  1  0.391561  0.000094  0.750000  1
  Bi  Bi15  1  0.609831  0.998593  0.250000  1
