# generated using pymatgen
data_CaLa3Ti8O20
_symmetry_space_group_name_H-M   'P 1'
_cell_length_a   5.86944000
_cell_length_b   7.87338186
_cell_length_c   8.78722098
_cell_angle_alpha   90.05384136
_cell_angle_beta   90.00000000
_cell_angle_gamma   90.00000000
_symmetry_Int_Tables_number   1
_chemical_formula_structural   CaLa3Ti8O20
_chemical_formula_sum   'Ca1 La3 Ti8 O20'
_cell_volume   406.07788560
_cell_formula_units_Z   1
loop_
 _symmetry_equiv_pos_site_id
 _symmetry_equiv_pos_as_xyz
  1  'x, y, z'
loop_
 _atom_site_type_symbol
 _atom_site_label
 _atom_site_symmetry_multiplicity
 _atom_site_fract_x
 _atom_site_fract_y
 _atom_site_fract_z
 _atom_site_occupancy
  Ca  Ca0  1  0.000000  0.348451  0.670868  1
  La  La1  1  0.000000  0.640444  0.332411  1
  La  La2  1  0.000000  0.854405  0.827678  1
  La  La3  1  0.000000  0.146082  0.171701  1
  Ti  Ti4  1  0.500000  0.115866  0.856871  1
  Ti  Ti5  1  0.500000  0.883359  0.141488  1
  Ti  Ti6  1  0.500000  0.614747  0.640752  1
  Ti  Ti7  1  0.500000  0.386256  0.361392  1
  Ti  Ti8  1  0.252665  0.499480  0.996105  1
  Ti  Ti9  1  0.746176  0.003017  0.501135  1
  Ti  Ti10  1  0.747335  0.499480  0.996105  1
  Ti  Ti11  1  0.253824  0.003017  0.501135  1
  O  O12  1  0.259339  0.901564  0.290280  1
  O  O13  1  0.259633  0.096891  0.710350  1
  O  O14  1  0.740291  0.402851  0.209646  1
  O  O15  1  0.738797  0.601821  0.791665  1
  O  O16  1  0.740367  0.096891  0.710350  1
  O  O17  1  0.740661  0.901564  0.290280  1
  O  O18  1  0.261203  0.601821  0.791665  1
  O  O19  1  0.259709  0.402851  0.209646  1
  O  O20  1  0.500000  0.333998  0.923556  1
  O  O21  1  0.500000  0.665379  0.076388  1
  O  O22  1  0.500000  0.832537  0.574814  1
  O  O23  1  0.500000  0.166914  0.422983  1
  O  O24  1  0.283840  0.999708  0.000281  1
  O  O25  1  0.716500  0.499854  0.500562  1
  O  O26  1  0.716160  0.999708  0.000281  1
  O  O27  1  0.283500  0.499854  0.500562  1
  O  O28  1  0.000000  0.158517  0.447334  1
  O  O29  1  0.000000  0.843012  0.551677  1
  O  O30  1  0.000000  0.658241  0.052141  1
  O  O31  1  0.000000  0.341420  0.947897  1
