# generated using pymatgen
data_Ti2SiB2Ru5
_symmetry_space_group_name_H-M   'P 1'
_cell_length_a   9.18612900
_cell_length_b   9.18612900
_cell_length_c   2.95116400
_cell_angle_alpha   90.00000000
_cell_angle_beta   90.00000000
_cell_angle_gamma   90.00000000
_symmetry_Int_Tables_number   1
_chemical_formula_structural   Ti2SiB2Ru5
_chemical_formula_sum   'Ti4 Si2 B4 Ru10'
_cell_volume   249.03387381
_cell_formula_units_Z   2
loop_
 _symmetry_equiv_pos_site_id
 _symmetry_equiv_pos_as_xyz
  1  'x, y, z'
loop_
 _atom_site_type_symbol
 _atom_site_label
 _atom_site_symmetry_multiplicity
 _atom_site_fract_x
 _atom_site_fract_y
 _atom_site_fract_z
 _atom_site_occupancy
  Ti  Ti0  1  0.174904  0.674904  0.000000  1
  Ti  Ti1  1  0.674904  0.825096  0.000000  1
  Ti  Ti2  1  0.325096  0.174904  0.000000  1
  Ti  Ti3  1  0.825096  0.325096  0.000000  1
  Si  Si4  1  0.000000  0.000000  0.000000  1
  Si  Si5  1  0.500000  0.500000  0.000000  1
  B  B6  1  0.374909  0.874909  0.000000  1
  B  B7  1  0.874909  0.625091  0.000000  1
  B  B8  1  0.125091  0.374909  0.000000  1
  B  B9  1  0.625091  0.125091  0.000000  1
  Ru  Ru10  1  0.000000  0.500000  0.500000  1
  Ru  Ru11  1  0.500000  0.000000  0.500000  1
  Ru  Ru12  1  0.290489  0.429979  0.500000  1
  Ru  Ru13  1  0.709512  0.570021  0.500000  1
  Ru  Ru14  1  0.570021  0.290489  0.500000  1
  Ru  Ru15  1  0.429979  0.709512  0.500000  1
  Ru  Ru16  1  0.929979  0.790488  0.500000  1
  Ru  Ru17  1  0.790488  0.070021  0.500000  1
  Ru  Ru18  1  0.209511  0.929979  0.500000  1
  Ru  Ru19  1  0.070021  0.209511  0.500000  1
