# generated using pymatgen
data_PrSm7Cu3Si12Pd
_symmetry_space_group_name_H-M   'P 1'
_cell_length_a   8.10546100
_cell_length_b   8.10546113
_cell_length_c   8.41123400
_cell_angle_alpha   90.00000000
_cell_angle_beta   90.00000000
_cell_angle_gamma   120.00000354
_symmetry_Int_Tables_number   1
_chemical_formula_structural   PrSm7Cu3Si12Pd
_chemical_formula_sum   'Pr1 Sm7 Cu3 Si12 Pd1'
_cell_volume   478.57034035
_cell_formula_units_Z   1
loop_
 _symmetry_equiv_pos_site_id
 _symmetry_equiv_pos_as_xyz
  1  'x, y, z'
loop_
 _atom_site_type_symbol
 _atom_site_label
 _atom_site_symmetry_multiplicity
 _atom_site_fract_x
 _atom_site_fract_y
 _atom_site_fract_z
 _atom_site_occupancy
  Pr  Pr0  1  0.000000  0.000000  0.249534  1
  Sm  Sm1  1  0.498883  0.501117  0.750664  1
  Sm  Sm2  1  0.499643  0.500357  0.249354  1
  Sm  Sm3  1  0.002235  0.501117  0.750664  1
  Sm  Sm4  1  0.000714  0.500357  0.249354  1
  Sm  Sm5  1  0.498883  0.997765  0.750664  1
  Sm  Sm6  1  0.499643  0.999286  0.249354  1
  Sm  Sm7  1  0.000000  0.000000  0.750411  1
  Cu  Cu8  1  0.666667  0.333333  0.997818  1
  Cu  Cu9  1  0.333333  0.666667  0.002276  1
  Cu  Cu10  1  0.333333  0.666667  0.497955  1
  Si  Si11  1  0.830338  0.169662  0.998427  1
  Si  Si12  1  0.169398  0.830602  0.998197  1
  Si  Si13  1  0.339323  0.169662  0.998427  1
  Si  Si14  1  0.168974  0.831026  0.501760  1
  Si  Si15  1  0.661205  0.830602  0.998197  1
  Si  Si16  1  0.833487  0.166513  0.501752  1
  Si  Si17  1  0.830338  0.660677  0.998427  1
  Si  Si18  1  0.662051  0.831026  0.501760  1
  Si  Si19  1  0.169398  0.338795  0.998197  1
  Si  Si20  1  0.333026  0.166513  0.501752  1
  Si  Si21  1  0.168974  0.337949  0.501760  1
  Si  Si22  1  0.833487  0.666974  0.501752  1
  Pd  Pd23  1  0.666667  0.333333  0.501543  1
