# generated using pymatgen
data_Tb3ScOsC6
_symmetry_space_group_name_H-M   'P 1'
_cell_length_a   8.53908700
_cell_length_b   8.53908615
_cell_length_c   5.18760900
_cell_angle_alpha   90.00000000
_cell_angle_beta   90.00000000
_cell_angle_gamma   120.00000716
_symmetry_Int_Tables_number   1
_chemical_formula_structural   Tb3ScOsC6
_chemical_formula_sum   'Tb6 Sc2 Os2 C12'
_cell_volume   327.58248195
_cell_formula_units_Z   2
loop_
 _symmetry_equiv_pos_site_id
 _symmetry_equiv_pos_as_xyz
  1  'x, y, z'
loop_
 _atom_site_type_symbol
 _atom_site_label
 _atom_site_symmetry_multiplicity
 _atom_site_fract_x
 _atom_site_fract_y
 _atom_site_fract_z
 _atom_site_occupancy
  Tb  Tb0  1  0.626839  0.678295  0.750000  1
  Tb  Tb1  1  0.948544  0.626839  0.250000  1
  Tb  Tb2  1  0.678295  0.051456  0.250000  1
  Tb  Tb3  1  0.321705  0.948544  0.750000  1
  Tb  Tb4  1  0.051456  0.373161  0.750000  1
  Tb  Tb5  1  0.373161  0.321705  0.250000  1
  Sc  Sc6  1  0.000000  0.000000  0.500000  1
  Sc  Sc7  1  0.000000  0.000000  0.000000  1
  Os  Os8  1  0.666667  0.333333  0.750000  1
  Os  Os9  1  0.333333  0.666667  0.250000  1
  C  C10  1  0.969756  0.758513  0.750000  1
  C  C11  1  0.211244  0.969756  0.250000  1
  C  C12  1  0.758513  0.788756  0.250000  1
  C  C13  1  0.241487  0.211244  0.750000  1
  C  C14  1  0.788756  0.030244  0.750000  1
  C  C15  1  0.030244  0.241487  0.250000  1
  C  C16  1  0.870451  0.575243  0.750000  1
  C  C17  1  0.295208  0.870451  0.250000  1
  C  C18  1  0.575243  0.704792  0.250000  1
  C  C19  1  0.424757  0.295208  0.750000  1
  C  C20  1  0.129549  0.424757  0.250000  1
  C  C21  1  0.704792  0.129549  0.750000  1
