# generated using pymatgen
data_Yb10Zn2Cd2CuRu
_symmetry_space_group_name_H-M   'P 1'
_cell_length_a   9.15638578
_cell_length_b   9.15638651
_cell_length_c   9.12561225
_cell_angle_alpha   129.21322059
_cell_angle_beta   129.03827928
_cell_angle_gamma   75.06008441
_symmetry_Int_Tables_number   1
_chemical_formula_structural   Yb10Zn2Cd2CuRu
_chemical_formula_sum   'Yb10 Zn2 Cd2 Cu1 Ru1'
_cell_volume   447.73058871
_cell_formula_units_Z   1
loop_
 _symmetry_equiv_pos_site_id
 _symmetry_equiv_pos_as_xyz
  1  'x, y, z'
loop_
 _atom_site_type_symbol
 _atom_site_label
 _atom_site_symmetry_multiplicity
 _atom_site_fract_x
 _atom_site_fract_y
 _atom_site_fract_z
 _atom_site_occupancy
  Yb  Yb0  1  0.488350  0.498179  0.986530  1
  Yb  Yb1  1  0.005211  0.992250  0.997462  1
  Yb  Yb2  1  0.522950  0.027656  0.828909  1
  Yb  Yb3  1  0.182694  0.686402  0.138697  1
  Yb  Yb4  1  0.037666  0.205489  0.516215  1
  Yb  Yb5  1  0.708282  0.532825  0.517220  1
  Yb  Yb6  1  0.452296  0.956005  0.138697  1
  Yb  Yb7  1  0.801252  0.305958  0.828909  1
  Yb  Yb8  1  0.984395  0.808938  0.517220  1
  Yb  Yb9  1  0.310725  0.478548  0.516215  1
  Zn  Zn10  1  0.885152  0.385081  0.270234  1
  Zn  Zn11  1  0.615137  0.879116  0.494253  1
  Cd  Cd12  1  0.253529  0.255925  0.009685  1
  Cd  Cd13  1  0.753760  0.756156  0.009685  1
  Cu  Cu14  1  0.381989  0.115035  0.497024  1
  Ru  Ru15  1  0.116611  0.616436  0.733047  1
