# generated using pymatgen
data_TbHo(H2Cl)2
_symmetry_space_group_name_H-M   'P 1'
_cell_length_a   11.03250614
_cell_length_b   11.03250596
_cell_length_c   11.03250498
_cell_angle_alpha   19.35654324
_cell_angle_beta   19.35654643
_cell_angle_gamma   19.35654697
_symmetry_Int_Tables_number   1
_chemical_formula_structural   TbHo(H2Cl)2
_chemical_formula_sum   'Tb1 Ho1 H4 Cl2'
_cell_volume   128.96976702
_cell_formula_units_Z   1
loop_
 _symmetry_equiv_pos_site_id
 _symmetry_equiv_pos_as_xyz
  1  'x, y, z'
loop_
 _atom_site_type_symbol
 _atom_site_label
 _atom_site_symmetry_multiplicity
 _atom_site_fract_x
 _atom_site_fract_y
 _atom_site_fract_z
 _atom_site_occupancy
  Tb  Tb0  1  0.117087  0.117087  0.117087  1
  Ho  Ho1  1  0.882767  0.882767  0.882767  1
  H  H2  1  0.815361  0.815361  0.815361  1
  H  H3  1  0.185223  0.185223  0.185223  1
  H  H4  1  0.542553  0.542553  0.542553  1
  H  H5  1  0.457804  0.457804  0.457804  1
  Cl  Cl6  1  0.728925  0.728925  0.728925  1
  Cl  Cl7  1  0.270280  0.270280  0.270280  1
