# generated using pymatgen
data_Sm6HfP12Rh17
_symmetry_space_group_name_H-M   'P 1'
_cell_length_a   3.96433600
_cell_length_b   11.27360900
_cell_length_c   12.93040100
_cell_angle_alpha   90.00000000
_cell_angle_beta   90.00000000
_cell_angle_gamma   90.00000000
_symmetry_Int_Tables_number   1
_chemical_formula_structural   Sm6HfP12Rh17
_chemical_formula_sum   'Sm6 Hf1 P12 Rh17'
_cell_volume   577.89031757
_cell_formula_units_Z   1
loop_
 _symmetry_equiv_pos_site_id
 _symmetry_equiv_pos_as_xyz
  1  'x, y, z'
loop_
 _atom_site_type_symbol
 _atom_site_label
 _atom_site_symmetry_multiplicity
 _atom_site_fract_x
 _atom_site_fract_y
 _atom_site_fract_z
 _atom_site_occupancy
  Sm  Sm0  1  0.000000  0.500000  0.521442  1
  Sm  Sm1  1  0.500000  0.000000  0.478321  1
  Sm  Sm2  1  0.500000  0.817647  0.206101  1
  Sm  Sm3  1  0.500000  0.182353  0.206101  1
  Sm  Sm4  1  0.000000  0.682657  0.797948  1
  Sm  Sm5  1  0.000000  0.317343  0.797948  1
  Hf  Hf6  1  0.500000  0.500000  0.155395  1
  P  P7  1  0.500000  0.500000  0.878015  1
  P  P8  1  0.000000  0.000000  0.119645  1
  P  P9  1  0.500000  0.500000  0.356135  1
  P  P10  1  0.000000  0.000000  0.651763  1
  P  P11  1  0.500000  0.313349  0.617856  1
  P  P12  1  0.500000  0.686651  0.617856  1
  P  P13  1  0.000000  0.187308  0.384560  1
  P  P14  1  0.000000  0.812692  0.384560  1
  P  P15  1  0.500000  0.850142  0.889381  1
  P  P16  1  0.500000  0.149858  0.889381  1
  P  P17  1  0.000000  0.658800  0.106325  1
  P  P18  1  0.000000  0.341200  0.106325  1
  Rh  Rh19  1  0.000000  0.000000  0.831734  1
  Rh  Rh20  1  0.500000  0.500000  0.700409  1
  Rh  Rh21  1  0.000000  0.000000  0.298387  1
  Rh  Rh22  1  0.000000  0.500000  0.984663  1
  Rh  Rh23  1  0.500000  0.000000  0.018496  1
  Rh  Rh24  1  0.500000  0.330684  0.990257  1
  Rh  Rh25  1  0.500000  0.669316  0.990257  1
  Rh  Rh26  1  0.000000  0.164551  0.006567  1
  Rh  Rh27  1  0.000000  0.835449  0.006567  1
  Rh  Rh28  1  0.500000  0.290465  0.433310  1
  Rh  Rh29  1  0.500000  0.709535  0.433310  1
  Rh  Rh30  1  0.000000  0.204541  0.570656  1
  Rh  Rh31  1  0.000000  0.795459  0.570656  1
  Rh  Rh32  1  0.500000  0.874822  0.709274  1
  Rh  Rh33  1  0.500000  0.125178  0.709274  1
  Rh  Rh34  1  0.000000  0.626563  0.290562  1
  Rh  Rh35  1  0.000000  0.373437  0.290562  1
