# generated using pymatgen
data_DySc4Co16(TcP4)3
_symmetry_space_group_name_H-M   'P 1'
_cell_length_a   11.85958400
_cell_length_b   11.85958435
_cell_length_c   3.64139300
_cell_angle_alpha   90.00000000
_cell_angle_beta   90.00000000
_cell_angle_gamma   119.99999345
_symmetry_Int_Tables_number   1
_chemical_formula_structural   DySc4Co16(TcP4)3
_chemical_formula_sum   'Dy1 Sc4 Co16 Tc3 P12'
_cell_volume   443.54443742
_cell_formula_units_Z   1
loop_
 _symmetry_equiv_pos_site_id
 _symmetry_equiv_pos_as_xyz
  1  'x, y, z'
loop_
 _atom_site_type_symbol
 _atom_site_label
 _atom_site_symmetry_multiplicity
 _atom_site_fract_x
 _atom_site_fract_y
 _atom_site_fract_z
 _atom_site_occupancy
  Dy  Dy0  1  0.333333  0.666667  0.000000  1
  Sc  Sc1  1  0.666667  0.333333  0.000000  1
  Sc  Sc2  1  0.179840  0.180397  0.500000  1
  Sc  Sc3  1  0.819603  0.999443  0.500000  1
  Sc  Sc4  1  0.000557  0.820160  0.500000  1
  Co  Co5  1  0.821403  0.194755  0.000000  1
  Co  Co6  1  0.805245  0.626648  0.000000  1
  Co  Co7  1  0.373352  0.178597  0.000000  1
  Co  Co8  1  0.194192  0.824526  0.000000  1
  Co  Co9  1  0.630334  0.805808  0.000000  1
  Co  Co10  1  0.175474  0.369666  0.000000  1
  Co  Co11  1  0.646087  0.128785  0.500000  1
  Co  Co12  1  0.871215  0.517302  0.500000  1
  Co  Co13  1  0.482698  0.353913  0.500000  1
  Co  Co14  1  0.125478  0.646963  0.500000  1
  Co  Co15  1  0.521484  0.874522  0.500000  1
  Co  Co16  1  0.353037  0.478516  0.500000  1
  Co  Co17  1  0.720679  0.717942  0.500000  1
  Co  Co18  1  0.282058  0.002737  0.500000  1
  Co  Co19  1  0.997263  0.279321  0.500000  1
  Co  Co20  1  0.000000  0.000000  0.000000  1
  Tc  Tc21  1  0.552308  0.551566  0.000000  1
  Tc  Tc22  1  0.448434  0.000742  0.000000  1
  Tc  Tc23  1  0.999258  0.447692  0.000000  1
  P  P24  1  0.356787  0.357114  0.000000  1
  P  P25  1  0.642886  0.999672  0.000000  1
  P  P26  1  0.000328  0.643213  0.000000  1
  P  P27  1  0.832438  0.315690  0.500000  1
  P  P28  1  0.684310  0.516748  0.500000  1
  P  P29  1  0.483252  0.167562  0.500000  1
  P  P30  1  0.315954  0.837900  0.500000  1
  P  P31  1  0.521947  0.684046  0.500000  1
  P  P32  1  0.162100  0.478053  0.500000  1
  P  P33  1  0.826180  0.824300  0.000000  1
  P  P34  1  0.175700  0.001879  0.000000  1
  P  P35  1  0.998121  0.173820  0.000000  1
