# generated using pymatgen
data_Pr4NdHoTa2O14
_symmetry_space_group_name_H-M   'P 1'
_cell_length_a   6.69147921
_cell_length_b   6.66386761
_cell_length_c   7.72052300
_cell_angle_alpha   90.00000000
_cell_angle_beta   90.00000000
_cell_angle_gamma   108.82876860
_symmetry_Int_Tables_number   1
_chemical_formula_structural   Pr4NdHoTa2O14
_chemical_formula_sum   'Pr4 Nd1 Ho1 Ta2 O14'
_cell_volume   325.84421748
_cell_formula_units_Z   1
loop_
 _symmetry_equiv_pos_site_id
 _symmetry_equiv_pos_as_xyz
  1  'x, y, z'
loop_
 _atom_site_type_symbol
 _atom_site_label
 _atom_site_symmetry_multiplicity
 _atom_site_fract_x
 _atom_site_fract_y
 _atom_site_fract_z
 _atom_site_occupancy
  Pr  Pr0  1  0.532183  0.526109  0.498716  1
  Pr  Pr1  1  0.532183  0.526109  0.001284  1
  Pr  Pr2  1  0.006930  0.462737  0.750000  1
  Pr  Pr3  1  0.462602  0.003862  0.250000  1
  Nd  Nd4  1  0.533022  0.003384  0.750000  1
  Ho  Ho5  1  0.003175  0.529883  0.250000  1
  Ta  Ta6  1  0.000983  0.001212  0.497735  1
  Ta  Ta7  1  0.000983  0.001212  0.002265  1
  O  O8  1  0.945905  0.056088  0.750000  1
  O  O9  1  0.058219  0.937192  0.250000  1
  O  O10  1  0.351709  0.633136  0.250000  1
  O  O11  1  0.641303  0.368172  0.750000  1
  O  O12  1  0.373204  0.633583  0.750000  1
  O  O13  1  0.646967  0.378421  0.250000  1
  O  O14  1  0.307836  0.070049  0.968181  1
  O  O15  1  0.679399  0.919043  0.474313  1
  O  O16  1  0.307836  0.070049  0.531819  1
  O  O17  1  0.679399  0.919043  0.025687  1
  O  O18  1  0.036409  0.299589  0.456630  1
  O  O19  1  0.931671  0.680769  0.978581  1
  O  O20  1  0.931671  0.680769  0.521419  1
  O  O21  1  0.036409  0.299589  0.043370  1
