# generated using pymatgen
data_Tb9Pr9(TmPb8)2
_symmetry_space_group_name_H-M   'P 1'
_cell_length_a   8.34897325
_cell_length_b   8.42573041
_cell_length_c   15.96525500
_cell_angle_alpha   90.02964842
_cell_angle_beta   90.15676288
_cell_angle_gamma   90.19588371
_symmetry_Int_Tables_number   1
_chemical_formula_structural   Tb9Pr9(TmPb8)2
_chemical_formula_sum   'Tb9 Pr9 Tm2 Pb16'
_cell_volume   1123.08406322
_cell_formula_units_Z   1
loop_
 _symmetry_equiv_pos_site_id
 _symmetry_equiv_pos_as_xyz
  1  'x, y, z'
loop_
 _atom_site_type_symbol
 _atom_site_label
 _atom_site_symmetry_multiplicity
 _atom_site_fract_x
 _atom_site_fract_y
 _atom_site_fract_z
 _atom_site_occupancy
  Tb  Tb0  1  0.630010  0.159898  0.622261  1
  Tb  Tb1  1  0.130556  0.340812  0.879117  1
  Tb  Tb2  1  0.369457  0.841366  0.122001  1
  Tb  Tb3  1  0.870396  0.657955  0.378286  1
  Tb  Tb4  1  0.372572  0.841496  0.375932  1
  Tb  Tb5  1  0.869985  0.659430  0.122038  1
  Tb  Tb6  1  0.629760  0.159168  0.879944  1
  Tb  Tb7  1  0.795936  0.495063  0.750959  1
  Tb  Tb8  1  0.297340  0.004199  0.750751  1
  Pr  Pr9  1  0.127179  0.338852  0.618734  1
  Pr  Pr10  1  0.470456  0.678692  0.598957  1
  Pr  Pr11  1  0.971956  0.822371  0.902922  1
  Pr  Pr12  1  0.527958  0.322337  0.098577  1
  Pr  Pr13  1  0.029875  0.176742  0.399007  1
  Pr  Pr14  1  0.527699  0.322619  0.400392  1
  Pr  Pr15  1  0.027796  0.177496  0.098813  1
  Pr  Pr16  1  0.472944  0.678253  0.902290  1
  Pr  Pr17  1  0.971283  0.822854  0.599037  1
  Tm  Tm18  1  0.203730  0.505950  0.249008  1
  Tm  Tm19  1  0.704237  0.995174  0.249968  1
  Pb  Pb20  1  0.710705  0.962855  0.455807  1
  Pb  Pb21  1  0.208618  0.537985  0.044157  1
  Pb  Pb22  1  0.291066  0.038244  0.957153  1
  Pb  Pb23  1  0.782397  0.465569  0.543030  1
  Pb  Pb24  1  0.294626  0.031974  0.542231  1
  Pb  Pb25  1  0.792306  0.461951  0.956992  1
  Pb  Pb26  1  0.708869  0.961620  0.044927  1
  Pb  Pb27  1  0.210772  0.540698  0.452363  1
  Pb  Pb28  1  0.434986  0.370672  0.751913  1
  Pb  Pb29  1  0.932181  0.125888  0.752023  1
  Pb  Pb30  1  0.565670  0.629050  0.249203  1
  Pb  Pb31  1  0.064600  0.870340  0.250008  1
  Pb  Pb32  1  0.661917  0.851694  0.750771  1
  Pb  Pb33  1  0.161737  0.650244  0.751741  1
  Pb  Pb34  1  0.339024  0.150453  0.249222  1
  Pb  Pb35  1  0.839401  0.350038  0.249467  1
