# generated using pymatgen
data_Tb2Er2Al22Ga2Pt9
_symmetry_space_group_name_H-M   'P 1'
_cell_length_a   7.50813342
_cell_length_b   7.51417317
_cell_length_c   13.18709228
_cell_angle_alpha   84.60143507
_cell_angle_beta   100.81893288
_cell_angle_gamma   119.82591769
_symmetry_Int_Tables_number   1
_chemical_formula_structural   Tb2Er2Al22Ga2Pt9
_chemical_formula_sum   'Tb2 Er2 Al22 Ga2 Pt9'
_cell_volume   633.96161631
_cell_formula_units_Z   1
loop_
 _symmetry_equiv_pos_site_id
 _symmetry_equiv_pos_as_xyz
  1  'x, y, z'
loop_
 _atom_site_type_symbol
 _atom_site_label
 _atom_site_symmetry_multiplicity
 _atom_site_fract_x
 _atom_site_fract_y
 _atom_site_fract_z
 _atom_site_occupancy
  Tb  Tb0  1  0.734652  0.998522  0.192036  1
  Tb  Tb1  1  0.265348  0.001478  0.807964  1
  Er  Er2  1  0.061844  0.670492  0.192422  1
  Er  Er3  1  0.938156  0.329508  0.807578  1
  Al  Al4  1  0.981546  0.665633  0.944785  1
  Al  Al5  1  0.018454  0.334367  0.055215  1
  Al  Al6  1  0.397810  0.665051  0.816430  1
  Al  Al7  1  0.602190  0.334949  0.183570  1
  Al  Al8  1  0.881968  0.664646  0.670011  1
  Al  Al9  1  0.118032  0.335354  0.329989  1
  Al  Al10  1  0.604754  0.458116  0.816004  1
  Al  Al11  1  0.395246  0.541884  0.183996  1
  Al  Al12  1  0.230773  0.340744  0.669480  1
  Al  Al13  1  0.769227  0.659256  0.330520  1
  Al  Al14  1  0.853474  0.333374  0.558530  1
  Al  Al15  1  0.185736  0.999130  0.558733  1
  Al  Al16  1  0.814264  0.000870  0.441267  1
  Al  Al17  1  0.352067  0.999320  0.055563  1
  Al  Al18  1  0.647933  0.000680  0.944437  1
  Al  Al19  1  0.556037  0.993713  0.670195  1
  Al  Al20  1  0.443963  0.006287  0.329805  1
  Al  Al21  1  0.520905  0.667968  0.561002  1
  Al  Al22  1  0.479095  0.332032  0.438998  1
  Al  Al23  1  0.683426  0.667033  0.048248  1
  Al  Al24  1  0.316574  0.332967  0.951752  1
  Al  Al25  1  0.146526  0.666626  0.441470  1
  Ga  Ga26  1  0.802523  0.864275  0.815279  1
  Ga  Ga27  1  0.197477  0.135725  0.184721  1
  Pt  Pt28  1  0.328993  0.671037  0.000035  1
  Pt  Pt29  1  0.546568  0.325328  0.637513  1
  Pt  Pt30  1  0.453432  0.674672  0.362487  1
  Pt  Pt31  1  0.888147  0.009236  0.637057  1
  Pt  Pt32  1  0.111853  0.990764  0.362943  1
  Pt  Pt33  1  0.671007  0.328963  0.999965  1
  Pt  Pt34  1  0.204601  0.666564  0.639004  1
  Pt  Pt35  1  0.795399  0.333436  0.360996  1
  Pt  Pt36  1  0.000000  0.000000  0.000000  1
