# generated using pymatgen
data_Ba4Sr(ReO6)2
_symmetry_space_group_name_H-M   'P 1'
_cell_length_a   10.31337426
_cell_length_b   10.31337437
_cell_length_c   10.31337557
_cell_angle_alpha   33.58362460
_cell_angle_beta   33.58362029
_cell_angle_gamma   33.58362850
_symmetry_Int_Tables_number   1
_chemical_formula_structural   Ba4Sr(ReO6)2
_chemical_formula_sum   'Ba4 Sr1 Re2 O12'
_cell_volume   298.98913798
_cell_formula_units_Z   1
loop_
 _symmetry_equiv_pos_site_id
 _symmetry_equiv_pos_as_xyz
  1  'x, y, z'
loop_
 _atom_site_type_symbol
 _atom_site_label
 _atom_site_symmetry_multiplicity
 _atom_site_fract_x
 _atom_site_fract_y
 _atom_site_fract_z
 _atom_site_occupancy
  Ba  Ba0  1  0.713522  0.713522  0.713522  1
  Ba  Ba1  1  0.286478  0.286478  0.286478  1
  Ba  Ba2  1  0.866488  0.866488  0.866488  1
  Ba  Ba3  1  0.133512  0.133512  0.133512  1
  Sr  Sr4  1  0.000000  0.000000  0.000000  1
  Re  Re5  1  0.576303  0.576303  0.576303  1
  Re  Re6  1  0.423697  0.423697  0.423697  1
  O  O7  1  0.234285  0.679309  0.234285  1
  O  O8  1  0.234285  0.234285  0.679309  1
  O  O9  1  0.679309  0.234285  0.234285  1
  O  O10  1  0.765715  0.320691  0.765715  1
  O  O11  1  0.765715  0.765715  0.320691  1
  O  O12  1  0.320691  0.765715  0.765715  1
  O  O13  1  0.388026  0.854648  0.388026  1
  O  O14  1  0.388026  0.388026  0.854648  1
  O  O15  1  0.854648  0.388026  0.388026  1
  O  O16  1  0.611974  0.145352  0.611974  1
  O  O17  1  0.611974  0.611974  0.145352  1
  O  O18  1  0.145352  0.611974  0.611974  1
