# generated using pymatgen
data_Tm8Si12NiPt3
_symmetry_space_group_name_H-M   'P 1'
_cell_length_a   8.13625700
_cell_length_b   8.13625740
_cell_length_c   7.77505700
_cell_angle_alpha   90.00000000
_cell_angle_beta   90.00000000
_cell_angle_gamma   119.99999432
_symmetry_Int_Tables_number   1
_chemical_formula_structural   Tm8Si12NiPt3
_chemical_formula_sum   'Tm8 Si12 Ni1 Pt3'
_cell_volume   445.74201877
_cell_formula_units_Z   1
loop_
 _symmetry_equiv_pos_site_id
 _symmetry_equiv_pos_as_xyz
  1  'x, y, z'
loop_
 _atom_site_type_symbol
 _atom_site_label
 _atom_site_symmetry_multiplicity
 _atom_site_fract_x
 _atom_site_fract_y
 _atom_site_fract_z
 _atom_site_occupancy
  Tm  Tm0  1  0.510622  0.021244  0.247412  1
  Tm  Tm1  1  0.487049  0.974099  0.751543  1
  Tm  Tm2  1  0.978756  0.489378  0.247412  1
  Tm  Tm3  1  0.025901  0.512951  0.751543  1
  Tm  Tm4  1  0.510622  0.489378  0.247412  1
  Tm  Tm5  1  0.487049  0.512951  0.751543  1
  Tm  Tm6  1  0.000000  0.000000  0.248099  1
  Tm  Tm7  1  0.000000  0.000000  0.751915  1
  Si  Si8  1  0.171600  0.343200  0.004031  1
  Si  Si9  1  0.835933  0.671866  0.997451  1
  Si  Si10  1  0.656800  0.828400  0.004031  1
  Si  Si11  1  0.834429  0.668860  0.502357  1
  Si  Si12  1  0.328134  0.164067  0.997451  1
  Si  Si13  1  0.164981  0.329962  0.496975  1
  Si  Si14  1  0.171600  0.828400  0.004031  1
  Si  Si15  1  0.331140  0.165571  0.502357  1
  Si  Si16  1  0.835933  0.164067  0.997451  1
  Si  Si17  1  0.670038  0.835019  0.496975  1
  Si  Si18  1  0.834429  0.165571  0.502357  1
  Si  Si19  1  0.164981  0.835019  0.496975  1
  Ni  Ni20  1  0.333333  0.666667  0.043320  1
  Pt  Pt21  1  0.666667  0.333333  0.957483  1
  Pt  Pt22  1  0.666667  0.333333  0.541830  1
  Pt  Pt23  1  0.333333  0.666667  0.458043  1
