# generated using pymatgen
data_HfSc2Ti4Pt21
_symmetry_space_group_name_H-M   'P 1'
_cell_length_a   5.62608500
_cell_length_b   5.62608429
_cell_length_c   16.09936400
_cell_angle_alpha   90.00000000
_cell_angle_beta   90.00000000
_cell_angle_gamma   119.99999831
_symmetry_Int_Tables_number   1
_chemical_formula_structural   HfSc2Ti4Pt21
_chemical_formula_sum   'Hf1 Sc2 Ti4 Pt21'
_cell_volume   441.31824495
_cell_formula_units_Z   1
loop_
 _symmetry_equiv_pos_site_id
 _symmetry_equiv_pos_as_xyz
  1  'x, y, z'
loop_
 _atom_site_type_symbol
 _atom_site_label
 _atom_site_symmetry_multiplicity
 _atom_site_fract_x
 _atom_site_fract_y
 _atom_site_fract_z
 _atom_site_occupancy
  Hf  Hf0  1  0.000000  0.000000  0.718735  1
  Sc  Sc1  1  0.666667  0.333333  0.857491  1
  Sc  Sc2  1  0.333333  0.666667  0.143528  1
  Ti  Ti3  1  0.000000  0.000000  0.277921  1
  Ti  Ti4  1  0.666667  0.333333  0.427416  1
  Ti  Ti5  1  0.000000  0.000000  0.999734  1
  Ti  Ti6  1  0.333333  0.666667  0.570637  1
  Pt  Pt7  1  0.832161  0.664322  0.568512  1
  Pt  Pt8  1  0.335678  0.167839  0.568512  1
  Pt  Pt9  1  0.168726  0.337453  0.858296  1
  Pt  Pt10  1  0.166954  0.333909  0.428965  1
  Pt  Pt11  1  0.166954  0.833046  0.428965  1
  Pt  Pt12  1  0.498735  0.997469  0.710358  1
  Pt  Pt13  1  0.666091  0.833046  0.428965  1
  Pt  Pt14  1  0.168726  0.831274  0.858296  1
  Pt  Pt15  1  0.662547  0.831274  0.858296  1
  Pt  Pt16  1  0.832916  0.167084  0.144607  1
  Pt  Pt17  1  0.832161  0.167839  0.568512  1
  Pt  Pt18  1  0.498735  0.501265  0.710358  1
  Pt  Pt19  1  0.334167  0.167084  0.144607  1
  Pt  Pt20  1  0.832916  0.665833  0.144607  1
  Pt  Pt21  1  0.501396  0.498604  0.289270  1
  Pt  Pt22  1  0.501396  0.002794  0.289270  1
  Pt  Pt23  1  0.500309  0.000618  0.001504  1
  Pt  Pt24  1  0.997206  0.498604  0.289270  1
  Pt  Pt25  1  0.002531  0.501265  0.710358  1
  Pt  Pt26  1  0.500309  0.499691  0.001504  1
  Pt  Pt27  1  0.999382  0.499691  0.001504  1
