# generated using pymatgen
data_La2B4Ir3Rh2
_symmetry_space_group_name_H-M   'P 1'
_cell_length_a   7.63141795
_cell_length_b   6.33668889
_cell_length_c   5.78919506
_cell_angle_alpha   77.85970793
_cell_angle_beta   54.26943492
_cell_angle_gamma   47.87084086
_symmetry_Int_Tables_number   1
_chemical_formula_structural   La2B4Ir3Rh2
_chemical_formula_sum   'La2 B4 Ir3 Rh2'
_cell_volume   160.70755188
_cell_formula_units_Z   1
loop_
 _symmetry_equiv_pos_site_id
 _symmetry_equiv_pos_as_xyz
  1  'x, y, z'
loop_
 _atom_site_type_symbol
 _atom_site_label
 _atom_site_symmetry_multiplicity
 _atom_site_fract_x
 _atom_site_fract_y
 _atom_site_fract_z
 _atom_site_occupancy
  La  La0  1  0.857743  0.857743  0.142257  1
  La  La1  1  0.142257  0.142257  0.857743  1
  B  B2  1  0.790559  0.471463  0.528537  1
  B  B3  1  0.209441  0.528537  0.471463  1
  B  B4  1  0.528537  0.209441  0.790559  1
  B  B5  1  0.471463  0.790559  0.209441  1
  Ir  Ir6  1  0.750000  0.750000  0.750000  1
  Ir  Ir7  1  0.500000  0.500000  0.500000  1
  Ir  Ir8  1  0.250000  0.250000  0.250000  1
  Rh  Rh9  1  0.500000  0.500000  0.000000  1
  Rh  Rh10  1  0.000000  0.000000  0.500000  1
