# generated using pymatgen
data_Np3BiO12
_symmetry_space_group_name_H-M   'P 1'
_cell_length_a   7.17584831
_cell_length_b   7.21965524
_cell_length_c   7.15320600
_cell_angle_alpha   109.59701209
_cell_angle_beta   109.76597441
_cell_angle_gamma   109.50103589
_symmetry_Int_Tables_number   1
_chemical_formula_structural   Np3BiO12
_chemical_formula_sum   'Np3 Bi1 O12'
_cell_volume   283.68034532
_cell_formula_units_Z   1
loop_
 _symmetry_equiv_pos_site_id
 _symmetry_equiv_pos_as_xyz
  1  'x, y, z'
loop_
 _atom_site_type_symbol
 _atom_site_label
 _atom_site_symmetry_multiplicity
 _atom_site_fract_x
 _atom_site_fract_y
 _atom_site_fract_z
 _atom_site_occupancy
  Np  Np0  1  0.499977  0.496555  0.496562  1
  Np  Np1  1  0.999920  0.496490  0.996548  1
  Np  Np2  1  0.000077  0.996742  0.496655  1
  Bi  Bi3  1  0.499931  0.996529  0.996609  1
  O  O4  1  0.242021  0.417671  0.224293  1
  O  O5  1  0.757902  0.575437  0.768808  1
  O  O6  1  0.184514  0.994561  0.758559  1
  O  O7  1  0.815623  0.999160  0.235009  1
  O  O8  1  0.269179  0.203759  0.521419  1
  O  O9  1  0.731039  0.789553  0.471851  1
  O  O10  1  0.740154  0.245704  0.935901  1
  O  O11  1  0.259781  0.747250  0.057277  1
  O  O12  1  0.007001  0.692464  0.259872  1
  O  O13  1  0.992822  0.300663  0.733159  1
  O  O14  1  0.567055  0.296744  0.315772  1
  O  O15  1  0.433003  0.696442  0.677428  1
