# generated using pymatgen
data_UNF34
_symmetry_space_group_name_H-M   'P 1'
_cell_length_a   8.80778499
_cell_length_b   7.80669956
_cell_length_c   10.73136180
_cell_angle_alpha   79.49629333
_cell_angle_beta   89.13433401
_cell_angle_gamma   69.10603320
_symmetry_Int_Tables_number   1
_chemical_formula_structural   UNF34
_chemical_formula_sum   'U1 N1 F34'
_cell_volume   676.81100215
_cell_formula_units_Z   1
loop_
 _symmetry_equiv_pos_site_id
 _symmetry_equiv_pos_as_xyz
  1  'x, y, z'
loop_
 _atom_site_type_symbol
 _atom_site_label
 _atom_site_symmetry_multiplicity
 _atom_site_fract_x
 _atom_site_fract_y
 _atom_site_fract_z
 _atom_site_occupancy
  U  U0  1  0.873021  0.251441  0.766197  1
  N  N1  1  0.158310  0.708988  0.194697  1
  F  F2  1  0.602187  0.232015  0.476224  1
  F  F3  1  0.339183  0.781557  0.554031  1
  F  F4  1  0.761809  0.793863  0.676566  1
  F  F5  1  0.230622  0.287470  0.286906  1
  F  F6  1  0.102419  0.693760  0.856249  1
  F  F7  1  0.892025  0.299669  0.126090  1
  F  F8  1  0.581932  0.149238  0.372511  1
  F  F9  1  0.489474  0.803942  0.590151  1
  F  F10  1  0.641275  0.336960  0.693438  1
  F  F11  1  0.272144  0.643454  0.288763  1
  F  F12  1  0.948002  0.050843  0.662980  1
  F  F13  1  0.030541  0.982373  0.366771  1
  F  F14  1  0.925334  0.415579  0.618252  1
  F  F15  1  0.108721  0.746486  0.486058  1
  F  F16  1  0.899959  0.774423  0.592869  1
  F  F17  1  0.140598  0.138317  0.333277  1
  F  F18  1  0.806701  0.457436  0.868885  1
  F  F19  1  0.196796  0.594210  0.109715  1
  F  F20  1  0.219108  0.703593  0.763483  1
  F  F21  1  0.775882  0.281158  0.216563  1
  F  F22  1  0.013494  0.719163  0.237901  1
  F  F23  1  0.101046  0.161322  0.849462  1
  F  F24  1  0.824464  0.074638  0.912591  1
  F  F25  1  0.151976  0.878893  0.135444  1
  F  F26  1  0.494364  0.607257  0.990506  1
  F  F27  1  0.501810  0.419302  0.000894  1
  F  F28  1  0.451883  0.123777  0.867548  1
  F  F29  1  0.514884  0.926101  0.128013  1
  F  F30  1  0.293865  0.226447  0.602200  1
  F  F31  1  0.713563  0.742159  0.373949  1
  F  F32  1  0.270340  0.397546  0.643259  1
  F  F33  1  0.736092  0.583454  0.317050  1
  F  F34  1  0.527834  0.933964  0.854627  1
  F  F35  1  0.408346  0.079200  0.185881  1
