# generated using pymatgen
data_HoNi3PtAu
_symmetry_space_group_name_H-M   'P 1'
_cell_length_a   4.98511145
_cell_length_b   4.98511183
_cell_length_c   5.09964296
_cell_angle_alpha   60.74017852
_cell_angle_beta   60.74017846
_cell_angle_gamma   60.00000772
_symmetry_Int_Tables_number   1
_chemical_formula_structural   HoNi3PtAu
_chemical_formula_sum   'Ho1 Ni3 Pt1 Au1'
_cell_volume   90.60326237
_cell_formula_units_Z   1
loop_
 _symmetry_equiv_pos_site_id
 _symmetry_equiv_pos_as_xyz
  1  'x, y, z'
loop_
 _atom_site_type_symbol
 _atom_site_label
 _atom_site_symmetry_multiplicity
 _atom_site_fract_x
 _atom_site_fract_y
 _atom_site_fract_z
 _atom_site_occupancy
  Ho  Ho0  1  0.000126  0.000126  0.999621  1
  Ni  Ni1  1  0.625840  0.129004  0.619316  1
  Ni  Ni2  1  0.129004  0.625840  0.619316  1
  Ni  Ni3  1  0.625840  0.625840  0.619316  1
  Pt  Pt4  1  0.626800  0.626800  0.119599  1
  Au  Au5  1  0.242389  0.242389  0.272832  1
