# generated using pymatgen
data_La3MgCd2Ge2Au
_symmetry_space_group_name_H-M   'P 1'
_cell_length_a   7.64151980
_cell_length_b   7.64152045
_cell_length_c   4.50966300
_cell_angle_alpha   90.00000000
_cell_angle_beta   90.00000000
_cell_angle_gamma   120.75030295
_symmetry_Int_Tables_number   1
_chemical_formula_structural   La3MgCd2Ge2Au
_chemical_formula_sum   'La3 Mg1 Cd2 Ge2 Au1'
_cell_volume   226.30848359
_cell_formula_units_Z   1
loop_
 _symmetry_equiv_pos_site_id
 _symmetry_equiv_pos_as_xyz
  1  'x, y, z'
loop_
 _atom_site_type_symbol
 _atom_site_label
 _atom_site_symmetry_multiplicity
 _atom_site_fract_x
 _atom_site_fract_y
 _atom_site_fract_z
 _atom_site_occupancy
  La  La0  1  0.584290  0.002011  0.000000  1
  La  La1  1  0.002011  0.584290  0.000000  1
  La  La2  1  0.413251  0.413251  0.000000  1
  Mg  Mg3  1  0.765561  0.765561  0.500000  1
  Cd  Cd4  1  0.244195  0.999170  0.500000  1
  Cd  Cd5  1  0.999170  0.244195  0.500000  1
  Ge  Ge6  1  0.337888  0.666400  0.500000  1
  Ge  Ge7  1  0.666400  0.337888  0.500000  1
  Au  Au8  1  0.987235  0.987235  0.000000  1
