# generated using pymatgen
data_TbLu(NiAs)2
_symmetry_space_group_name_H-M   'P 1'
_cell_length_a   4.02408300
_cell_length_b   4.02408366
_cell_length_c   15.37974700
_cell_angle_alpha   90.00000000
_cell_angle_beta   90.00000000
_cell_angle_gamma   120.00001924
_symmetry_Int_Tables_number   1
_chemical_formula_structural   TbLu(NiAs)2
_chemical_formula_sum   'Tb2 Lu2 Ni4 As4'
_cell_volume   215.68188453
_cell_formula_units_Z   2
loop_
 _symmetry_equiv_pos_site_id
 _symmetry_equiv_pos_as_xyz
  1  'x, y, z'
loop_
 _atom_site_type_symbol
 _atom_site_label
 _atom_site_symmetry_multiplicity
 _atom_site_fract_x
 _atom_site_fract_y
 _atom_site_fract_z
 _atom_site_occupancy
  Tb  Tb0  1  0.000000  0.000000  0.000000  1
  Tb  Tb1  1  0.000000  0.000000  0.500000  1
  Lu  Lu2  1  0.000000  0.000000  0.250000  1
  Lu  Lu3  1  0.000000  0.000000  0.750000  1
  Ni  Ni4  1  0.333333  0.666667  0.143943  1
  Ni  Ni5  1  0.666667  0.333333  0.856057  1
  Ni  Ni6  1  0.666667  0.333333  0.643943  1
  Ni  Ni7  1  0.333333  0.666667  0.356057  1
  As  As8  1  0.333333  0.666667  0.621756  1
  As  As9  1  0.666667  0.333333  0.378244  1
  As  As10  1  0.666667  0.333333  0.121756  1
  As  As11  1  0.333333  0.666667  0.878244  1
