# generated using pymatgen
data_YLu3Cr4F28
_symmetry_space_group_name_H-M   'P 1'
_cell_length_a   5.42375237
_cell_length_b   8.65650054
_cell_length_c   11.56489400
_cell_angle_alpha   63.10608804
_cell_angle_beta   90.08065512
_cell_angle_gamma   90.00057648
_symmetry_Int_Tables_number   1
_chemical_formula_structural   YLu3Cr4F28
_chemical_formula_sum   'Y1 Lu3 Cr4 F28'
_cell_volume   484.25376506
_cell_formula_units_Z   1
loop_
 _symmetry_equiv_pos_site_id
 _symmetry_equiv_pos_as_xyz
  1  'x, y, z'
loop_
 _atom_site_type_symbol
 _atom_site_label
 _atom_site_symmetry_multiplicity
 _atom_site_fract_x
 _atom_site_fract_y
 _atom_site_fract_z
 _atom_site_occupancy
  Y  Y0  1  0.233831  0.812699  0.765108  1
  Lu  Lu1  1  0.267798  0.812865  0.264512  1
  Lu  Lu2  1  0.731635  0.192497  0.734315  1
  Lu  Lu3  1  0.767811  0.188090  0.235327  1
  Cr  Cr4  1  0.758504  0.725164  0.046440  1
  Cr  Cr5  1  0.241488  0.271803  0.957557  1
  Cr  Cr6  1  0.259052  0.276178  0.454877  1
  Cr  Cr7  1  0.742933  0.725277  0.541096  1
  F  F8  1  0.936844  0.706301  0.418763  1
  F  F9  1  0.063954  0.293877  0.577581  1
  F  F10  1  0.437391  0.291806  0.079311  1
  F  F11  1  0.565969  0.705872  0.922960  1
  F  F12  1  0.474332  0.730154  0.140274  1
  F  F13  1  0.525096  0.270053  0.862172  1
  F  F14  1  0.975916  0.270354  0.360009  1
  F  F15  1  0.026646  0.727676  0.634826  1
  F  F16  1  0.952983  0.744871  0.171988  1
  F  F17  1  0.045723  0.253331  0.831211  1
  F  F18  1  0.454537  0.255621  0.329688  1
  F  F19  1  0.553236  0.742421  0.668493  1
  F  F20  1  0.766312  0.487019  0.140392  1
  F  F21  1  0.230219  0.508455  0.862533  1
  F  F22  1  0.268201  0.513397  0.360320  1
  F  F23  1  0.731974  0.487200  0.636982  1
  F  F24  1  0.950795  0.278921  0.047958  1
  F  F25  1  0.048740  0.716673  0.958492  1
  F  F26  1  0.449563  0.719749  0.451905  1
  F  F27  1  0.549656  0.281571  0.545936  1
  F  F28  1  0.742159  0.961859  0.451488  1
  F  F29  1  0.258508  0.039676  0.545221  1
  F  F30  1  0.241790  0.035476  0.048158  1
  F  F31  1  0.758108  0.961090  0.954305  1
  F  F32  1  0.585223  0.976224  0.227897  1
  F  F33  1  0.413676  0.032743  0.773068  1
  F  F34  1  0.085122  0.024285  0.272118  1
  F  F35  1  0.904276  0.978753  0.726712  1
