# generated using pymatgen
data_Ta2MnF12
_symmetry_space_group_name_H-M   'P 1'
_cell_length_a   5.36518350
_cell_length_b   5.66414831
_cell_length_c   9.40261167
_cell_angle_alpha   74.02585822
_cell_angle_beta   88.84012800
_cell_angle_gamma   62.43109101
_symmetry_Int_Tables_number   1
_chemical_formula_structural   Ta2MnF12
_chemical_formula_sum   'Ta2 Mn1 F12'
_cell_volume   241.58145354
_cell_formula_units_Z   1
loop_
 _symmetry_equiv_pos_site_id
 _symmetry_equiv_pos_as_xyz
  1  'x, y, z'
loop_
 _atom_site_type_symbol
 _atom_site_label
 _atom_site_symmetry_multiplicity
 _atom_site_fract_x
 _atom_site_fract_y
 _atom_site_fract_z
 _atom_site_occupancy
  Ta  Ta0  1  0.772084  0.005913  0.238522  1
  Ta  Ta1  1  0.227916  0.994087  0.761478  1
  Mn  Mn2  1  0.500000  0.500000  0.500000  1
  F  F3  1  0.945283  0.234034  0.205235  1
  F  F4  1  0.054717  0.765966  0.794765  1
  F  F5  1  0.018052  0.763758  0.137932  1
  F  F6  1  0.458368  0.773637  0.629300  1
  F  F7  1  0.541632  0.226363  0.370700  1
  F  F8  1  0.942023  0.241567  0.578777  1
  F  F9  1  0.057977  0.758433  0.421223  1
  F  F10  1  0.403788  0.236665  0.681023  1
  F  F11  1  0.596212  0.763335  0.318977  1
  F  F12  1  0.512199  0.779615  0.923419  1
  F  F13  1  0.487801  0.220385  0.076581  1
  F  F14  1  0.981948  0.236242  0.862068  1
