# generated using pymatgen
data_Dy8Si16OsW11
_symmetry_space_group_name_H-M   'P 1'
_cell_length_a   6.86663340
_cell_length_b   6.87974991
_cell_length_c   12.81703162
_cell_angle_alpha   90.33342743
_cell_angle_beta   89.97718961
_cell_angle_gamma   90.00798588
_symmetry_Int_Tables_number   1
_chemical_formula_structural   Dy8Si16OsW11
_chemical_formula_sum   'Dy8 Si16 Os1 W11'
_cell_volume   605.47550265
_cell_formula_units_Z   1
loop_
 _symmetry_equiv_pos_site_id
 _symmetry_equiv_pos_as_xyz
  1  'x, y, z'
loop_
 _atom_site_type_symbol
 _atom_site_label
 _atom_site_symmetry_multiplicity
 _atom_site_fract_x
 _atom_site_fract_y
 _atom_site_fract_z
 _atom_site_occupancy
  Dy  Dy0  1  0.004785  0.664151  0.031553  1
  Dy  Dy1  1  0.997696  0.337274  0.530102  1
  Dy  Dy2  1  0.664921  0.003437  0.969391  1
  Dy  Dy3  1  0.164435  0.498756  0.780364  1
  Dy  Dy4  1  0.835748  0.503215  0.280990  1
  Dy  Dy5  1  0.498920  0.159713  0.219668  1
  Dy  Dy6  1  0.502767  0.836285  0.718005  1
  Dy  Dy7  1  0.338672  0.994426  0.468865  1
  Si  Si8  1  0.034072  0.715204  0.434453  1
  Si  Si9  1  0.965110  0.290911  0.935917  1
  Si  Si10  1  0.713593  0.036396  0.563113  1
  Si  Si11  1  0.217194  0.471192  0.191543  1
  Si  Si12  1  0.792320  0.536746  0.685744  1
  Si  Si13  1  0.463356  0.209686  0.815197  1
  Si  Si14  1  0.526703  0.773640  0.314171  1
  Si  Si15  1  0.288685  0.966360  0.064049  1
  Si  Si16  1  0.799141  0.876723  0.183372  1
  Si  Si17  1  0.302681  0.623026  0.564764  1
  Si  Si18  1  0.703183  0.376832  0.066620  1
  Si  Si19  1  0.619174  0.304729  0.434003  1
  Si  Si20  1  0.375669  0.704267  0.932033  1
  Si  Si21  1  0.121981  0.196333  0.315873  1
  Si  Si22  1  0.200988  0.125776  0.683247  1
  Si  Si23  1  0.874606  0.799207  0.815535  1
  Os  Os24  1  0.317746  0.476167  0.380989  1
  W  W25  1  0.828867  0.006709  0.371870  1
  W  W26  1  0.002530  0.171579  0.125812  1
  W  W27  1  0.003922  0.832270  0.626090  1
  W  W28  1  0.502918  0.335407  0.627299  1
  W  W29  1  0.164951  0.001125  0.873752  1
  W  W30  1  0.669242  0.668049  0.500936  1
  W  W31  1  0.834155  0.167496  0.749442  1
  W  W32  1  0.168842  0.833242  0.249071  1
  W  W33  1  0.333657  0.336901  0.002464  1
  W  W34  1  0.501278  0.668578  0.119258  1
  W  W35  1  0.665491  0.498198  0.874448  1
