# generated using pymatgen
data_Pr2Dy4Zn4IrPd12
_symmetry_space_group_name_H-M   'P 1'
_cell_length_a   8.29858730
_cell_length_b   8.29307302
_cell_length_c   8.29307429
_cell_angle_alpha   109.64185167
_cell_angle_beta   109.37257584
_cell_angle_gamma   109.37257836
_symmetry_Int_Tables_number   1
_chemical_formula_structural   Pr2Dy4Zn4IrPd12
_chemical_formula_sum   'Pr2 Dy4 Zn4 Ir1 Pd12'
_cell_volume   439.49476846
_cell_formula_units_Z   1
loop_
 _symmetry_equiv_pos_site_id
 _symmetry_equiv_pos_as_xyz
  1  'x, y, z'
loop_
 _atom_site_type_symbol
 _atom_site_label
 _atom_site_symmetry_multiplicity
 _atom_site_fract_x
 _atom_site_fract_y
 _atom_site_fract_z
 _atom_site_occupancy
  Pr  Pr0  1  0.707390  0.707987  0.999402  1
  Pr  Pr1  1  0.292610  0.000598  0.292013  1
  Dy  Dy2  1  0.000000  0.297318  0.295900  1
  Dy  Dy3  1  0.298090  0.298667  0.999424  1
  Dy  Dy4  1  0.701910  0.000576  0.701333  1
  Dy  Dy5  1  0.000000  0.704100  0.702682  1
  Zn  Zn6  1  0.000000  0.000052  0.506611  1
  Zn  Zn7  1  0.000000  0.493389  0.999948  1
  Zn  Zn8  1  0.500000  0.000000  0.000000  1
  Zn  Zn9  1  0.500000  0.500000  0.500000  1
  Ir  Ir10  1  0.000000  0.008599  0.991401  1
  Pd  Pd11  1  0.331291  0.332022  0.665933  1
  Pd  Pd12  1  0.668709  0.000730  0.334641  1
  Pd  Pd13  1  0.000000  0.662197  0.337803  1
  Pd  Pd14  1  0.667779  0.329955  0.000307  1
  Pd  Pd15  1  0.332221  0.662178  0.332529  1
  Pd  Pd16  1  0.000000  0.334702  0.665298  1
  Pd  Pd17  1  0.331291  0.665359  0.999270  1
  Pd  Pd18  1  0.332221  0.999693  0.670045  1
  Pd  Pd19  1  0.672761  0.336552  0.336208  1
  Pd  Pd20  1  0.667779  0.667471  0.337822  1
  Pd  Pd21  1  0.668709  0.334067  0.667978  1
  Pd  Pd22  1  0.327239  0.663792  0.663448  1
