# generated using pymatgen
data_Y20TcIr3Pt8
_symmetry_space_group_name_H-M   'P 1'
_cell_length_a   11.07882500
_cell_length_b   11.07882500
_cell_length_c   6.40306500
_cell_angle_alpha   90.00000000
_cell_angle_beta   90.00000000
_cell_angle_gamma   90.00000000
_symmetry_Int_Tables_number   1
_chemical_formula_structural   Y20TcIr3Pt8
_chemical_formula_sum   'Y20 Tc1 Ir3 Pt8'
_cell_volume   785.91452485
_cell_formula_units_Z   1
loop_
 _symmetry_equiv_pos_site_id
 _symmetry_equiv_pos_as_xyz
  1  'x, y, z'
loop_
 _atom_site_type_symbol
 _atom_site_label
 _atom_site_symmetry_multiplicity
 _atom_site_fract_x
 _atom_site_fract_y
 _atom_site_fract_z
 _atom_site_occupancy
  Y  Y0  1  0.295858  0.086694  0.371010  1
  Y  Y1  1  0.296658  0.913716  0.874763  1
  Y  Y2  1  0.703342  0.086284  0.874763  1
  Y  Y3  1  0.704142  0.913306  0.371010  1
  Y  Y4  1  0.586284  0.796658  0.874763  1
  Y  Y5  1  0.586694  0.204142  0.371010  1
  Y  Y6  1  0.413306  0.795858  0.371010  1
  Y  Y7  1  0.413716  0.203342  0.874763  1
  Y  Y8  1  0.205524  0.411489  0.626381  1
  Y  Y9  1  0.204938  0.588108  0.126024  1
  Y  Y10  1  0.795062  0.411892  0.126024  1
  Y  Y11  1  0.794476  0.588511  0.626381  1
  Y  Y12  1  0.911892  0.704938  0.126024  1
  Y  Y13  1  0.911489  0.294476  0.626381  1
  Y  Y14  1  0.088511  0.705524  0.626381  1
  Y  Y15  1  0.088108  0.295062  0.126024  1
  Y  Y16  1  0.000000  0.000000  0.499440  1
  Y  Y17  1  0.000000  0.000000  0.999917  1
  Y  Y18  1  0.500000  0.500000  0.999917  1
  Y  Y19  1  0.500000  0.500000  0.499440  1
  Tc  Tc20  1  0.500000  0.000000  0.129373  1
  Ir  Ir21  1  0.500000  0.000000  0.623495  1
  Ir  Ir22  1  0.000000  0.500000  0.877730  1
  Ir  Ir23  1  0.000000  0.500000  0.378810  1
  Pt  Pt24  1  0.846483  0.154227  0.250033  1
  Pt  Pt25  1  0.847084  0.845601  0.749758  1
  Pt  Pt26  1  0.152916  0.154399  0.749758  1
  Pt  Pt27  1  0.153517  0.845773  0.250033  1
  Pt  Pt28  1  0.654399  0.347084  0.749758  1
  Pt  Pt29  1  0.654227  0.653517  0.250033  1
  Pt  Pt30  1  0.345773  0.346483  0.250033  1
  Pt  Pt31  1  0.345601  0.652916  0.749758  1
