# generated using pymatgen
data_SrCu12Ni
_symmetry_space_group_name_H-M   'P 1'
_cell_length_a   8.18620879
_cell_length_b   8.18620822
_cell_length_c   8.18620900
_cell_angle_alpha   60.00000087
_cell_angle_beta   60.00000319
_cell_angle_gamma   59.99999981
_symmetry_Int_Tables_number   1
_chemical_formula_structural   SrCu12Ni
_chemical_formula_sum   'Sr2 Cu24 Ni2'
_cell_volume   387.91220758
_cell_formula_units_Z   2
loop_
 _symmetry_equiv_pos_site_id
 _symmetry_equiv_pos_as_xyz
  1  'x, y, z'
loop_
 _atom_site_type_symbol
 _atom_site_label
 _atom_site_symmetry_multiplicity
 _atom_site_fract_x
 _atom_site_fract_y
 _atom_site_fract_z
 _atom_site_occupancy
  Sr  Sr0  1  0.750000  0.750000  0.750000  1
  Sr  Sr1  1  0.250000  0.250000  0.250000  1
  Cu  Cu2  1  0.704112  0.936989  0.295888  1
  Cu  Cu3  1  0.936989  0.704112  0.063011  1
  Cu  Cu4  1  0.063011  0.295888  0.936989  1
  Cu  Cu5  1  0.795888  0.563011  0.436989  1
  Cu  Cu6  1  0.563011  0.795888  0.204112  1
  Cu  Cu7  1  0.204112  0.563011  0.795888  1
  Cu  Cu8  1  0.795888  0.436989  0.204112  1
  Cu  Cu9  1  0.563011  0.436989  0.795888  1
  Cu  Cu10  1  0.204112  0.795888  0.436989  1
  Cu  Cu11  1  0.936989  0.063011  0.295888  1
  Cu  Cu12  1  0.295888  0.936989  0.063011  1
  Cu  Cu13  1  0.063011  0.704112  0.295888  1
  Cu  Cu14  1  0.063011  0.936989  0.704112  1
  Cu  Cu15  1  0.295888  0.704112  0.936989  1
  Cu  Cu16  1  0.704112  0.063011  0.936989  1
  Cu  Cu17  1  0.704112  0.295888  0.063011  1
  Cu  Cu18  1  0.936989  0.295888  0.704112  1
  Cu  Cu19  1  0.436989  0.795888  0.563011  1
  Cu  Cu20  1  0.436989  0.204112  0.795888  1
  Cu  Cu21  1  0.795888  0.204112  0.563011  1
  Cu  Cu22  1  0.436989  0.563011  0.204112  1
  Cu  Cu23  1  0.204112  0.436989  0.563011  1
  Cu  Cu24  1  0.563011  0.204112  0.436989  1
  Cu  Cu25  1  0.295888  0.063011  0.704112  1
  Ni  Ni26  1  0.000000  0.000000  0.000000  1
  Ni  Ni27  1  0.500000  0.500000  0.500000  1
