# generated using pymatgen
data_Dy4Ho16Co3Bi8Os
_symmetry_space_group_name_H-M   'P 1'
_cell_length_a   7.96469912
_cell_length_b   8.91759400
_cell_length_c   12.39021733
_cell_angle_alpha   90.00000000
_cell_angle_beta   89.72350523
_cell_angle_gamma   90.00000000
_symmetry_Int_Tables_number   1
_chemical_formula_structural   Dy4Ho16Co3Bi8Os
_chemical_formula_sum   'Dy4 Ho16 Co3 Bi8 Os1'
_cell_volume   880.01674781
_cell_formula_units_Z   1
loop_
 _symmetry_equiv_pos_site_id
 _symmetry_equiv_pos_as_xyz
  1  'x, y, z'
loop_
 _atom_site_type_symbol
 _atom_site_label
 _atom_site_symmetry_multiplicity
 _atom_site_fract_x
 _atom_site_fract_y
 _atom_site_fract_z
 _atom_site_occupancy
  Dy  Dy0  1  0.652948  0.250000  0.300655  1
  Dy  Dy1  1  0.847444  0.250000  0.799792  1
  Dy  Dy2  1  0.115273  0.250000  0.189562  1
  Dy  Dy3  1  0.384108  0.250000  0.688478  1
  Ho  Ho4  1  0.345897  0.750000  0.700856  1
  Ho  Ho5  1  0.155215  0.750000  0.206265  1
  Ho  Ho6  1  0.880974  0.750000  0.805365  1
  Ho  Ho7  1  0.614885  0.750000  0.313139  1
  Ho  Ho8  1  0.674683  0.537596  0.563043  1
  Ho  Ho9  1  0.324406  0.462500  0.437004  1
  Ho  Ho10  1  0.176338  0.457852  0.935427  1
  Ho  Ho11  1  0.324406  0.037500  0.437004  1
  Ho  Ho12  1  0.824804  0.538251  0.063443  1
  Ho  Ho13  1  0.674683  0.962404  0.563043  1
  Ho  Ho14  1  0.824804  0.961749  0.063443  1
  Ho  Ho15  1  0.176338  0.042148  0.935427  1
  Ho  Ho16  1  0.052538  0.750000  0.497977  1
  Ho  Ho17  1  0.947341  0.250000  0.502577  1
  Ho  Ho18  1  0.555178  0.250000  0.003308  1
  Ho  Ho19  1  0.443893  0.750000  0.996547  1
  Co  Co20  1  0.930601  0.250000  0.009021  1
  Co  Co21  1  0.564280  0.250000  0.507895  1
  Co  Co22  1  0.433845  0.750000  0.492535  1
  Bi  Bi23  1  0.571912  0.508783  0.826505  1
  Bi  Bi24  1  0.429705  0.491515  0.173153  1
  Bi  Bi25  1  0.072080  0.490858  0.671883  1
  Bi  Bi26  1  0.429705  0.008485  0.173153  1
  Bi  Bi27  1  0.927555  0.509127  0.327664  1
  Bi  Bi28  1  0.571912  0.991217  0.826505  1
  Bi  Bi29  1  0.927555  0.990873  0.327664  1
  Bi  Bi30  1  0.072080  0.009142  0.671883  1
  Os  Os31  1  0.072614  0.750000  0.989784  1
