# generated using pymatgen
data_YbAlPO5
_symmetry_space_group_name_H-M   'P 1'
_cell_length_a   5.48355504
_cell_length_b   7.40429245
_cell_length_c   11.06816100
_cell_angle_alpha   89.99999424
_cell_angle_beta   89.99998017
_cell_angle_gamma   92.82949709
_symmetry_Int_Tables_number   1
_chemical_formula_structural   YbAlPO5
_chemical_formula_sum   'Yb4 Al4 P4 O20'
_cell_volume   448.83989159
_cell_formula_units_Z   4
loop_
 _symmetry_equiv_pos_site_id
 _symmetry_equiv_pos_as_xyz
  1  'x, y, z'
loop_
 _atom_site_type_symbol
 _atom_site_label
 _atom_site_symmetry_multiplicity
 _atom_site_fract_x
 _atom_site_fract_y
 _atom_site_fract_z
 _atom_site_occupancy
  Yb  Yb0  1  0.593273  0.041175  0.351370  1
  Yb  Yb1  1  0.906728  0.958825  0.851370  1
  Yb  Yb2  1  0.406725  0.958825  0.648629  1
  Yb  Yb3  1  0.093271  0.041175  0.148629  1
  Al  Al4  1  0.599943  0.360514  0.169487  1
  Al  Al5  1  0.900056  0.639485  0.669486  1
  Al  Al6  1  0.400058  0.639485  0.830513  1
  Al  Al7  1  0.099944  0.360515  0.330514  1
  P  P8  1  0.078952  0.771555  0.410662  1
  P  P9  1  0.421048  0.228445  0.910662  1
  P  P10  1  0.921050  0.228445  0.589338  1
  P  P11  1  0.578952  0.771555  0.089338  1
  O  O12  1  0.849330  0.268332  0.244888  1
  O  O13  1  0.650669  0.731669  0.744888  1
  O  O14  1  0.150670  0.731668  0.755112  1
  O  O15  1  0.349331  0.268331  0.255112  1
  O  O16  1  0.119676  0.596005  0.338981  1
  O  O17  1  0.380329  0.403997  0.838981  1
  O  O18  1  0.880326  0.403996  0.661019  1
  O  O19  1  0.619673  0.596003  0.161018  1
  O  O20  1  0.592207  0.272904  0.020507  1
  O  O21  1  0.907795  0.727093  0.520506  1
  O  O22  1  0.407793  0.727096  0.979494  1
  O  O23  1  0.092206  0.272907  0.479493  1
  O  O24  1  0.954538  0.905955  0.327452  1
  O  O25  1  0.545458  0.094043  0.827452  1
  O  O26  1  0.045459  0.094043  0.672549  1
  O  O27  1  0.454539  0.905955  0.172548  1
  O  O28  1  0.674920  0.145353  0.542936  1
  O  O29  1  0.825082  0.854649  0.042936  1
  O  O30  1  0.325081  0.854650  0.457063  1
  O  O31  1  0.174916  0.145354  0.957064  1
