# generated using pymatgen
data_Tm8AlHgPd23
_symmetry_space_group_name_H-M   'P 1'
_cell_length_a   8.30463600
_cell_length_b   8.38439500
_cell_length_c   8.38439500
_cell_angle_alpha   90.00000000
_cell_angle_beta   90.00000000
_cell_angle_gamma   90.00000000
_symmetry_Int_Tables_number   1
_chemical_formula_structural   Tm8AlHgPd23
_chemical_formula_sum   'Tm8 Al1 Hg1 Pd23'
_cell_volume   583.79996188
_cell_formula_units_Z   1
loop_
 _symmetry_equiv_pos_site_id
 _symmetry_equiv_pos_as_xyz
  1  'x, y, z'
loop_
 _atom_site_type_symbol
 _atom_site_label
 _atom_site_symmetry_multiplicity
 _atom_site_fract_x
 _atom_site_fract_y
 _atom_site_fract_z
 _atom_site_occupancy
  Tm  Tm0  1  0.252227  0.242926  0.242926  1
  Tm  Tm1  1  0.747311  0.747713  0.747713  1
  Tm  Tm2  1  0.747311  0.747713  0.252287  1
  Tm  Tm3  1  0.747311  0.252287  0.747713  1
  Tm  Tm4  1  0.252227  0.242926  0.757074  1
  Tm  Tm5  1  0.252227  0.757074  0.242926  1
  Tm  Tm6  1  0.252227  0.757074  0.757074  1
  Tm  Tm7  1  0.747311  0.252287  0.252287  1
  Al  Al8  1  0.999061  0.000000  0.000000  1
  Hg  Hg9  1  0.254892  0.500000  0.500000  1
  Pd  Pd10  1  0.258151  0.500000  0.000000  1
  Pd  Pd11  1  0.741226  0.500000  0.000000  1
  Pd  Pd12  1  0.001765  0.257489  0.500000  1
  Pd  Pd13  1  0.501384  0.261252  0.000000  1
  Pd  Pd14  1  0.001765  0.742511  0.500000  1
  Pd  Pd15  1  0.501384  0.738748  0.000000  1
  Pd  Pd16  1  0.501384  0.000000  0.261252  1
  Pd  Pd17  1  0.258151  0.000000  0.500000  1
  Pd  Pd18  1  0.501384  0.000000  0.738748  1
  Pd  Pd19  1  0.741226  0.000000  0.500000  1
  Pd  Pd20  1  0.001765  0.500000  0.257489  1
  Pd  Pd21  1  0.001765  0.500000  0.742511  1
  Pd  Pd22  1  0.747429  0.500000  0.500000  1
  Pd  Pd23  1  0.498455  0.250617  0.500000  1
  Pd  Pd24  1  0.498455  0.749383  0.500000  1
  Pd  Pd25  1  0.498455  0.500000  0.250617  1
  Pd  Pd26  1  0.498455  0.500000  0.749383  1
  Pd  Pd27  1  0.290973  0.000000  0.000000  1
  Pd  Pd28  1  0.710397  0.000000  0.000000  1
  Pd  Pd29  1  0.998483  0.287210  0.000000  1
  Pd  Pd30  1  0.998483  0.712790  0.000000  1
  Pd  Pd31  1  0.998483  0.000000  0.287210  1
  Pd  Pd32  1  0.998483  0.000000  0.712790  1
