# generated using pymatgen
data_Hf6Ni17MoP12
_symmetry_space_group_name_H-M   'P 1'
_cell_length_a   3.63717500
_cell_length_b   10.40292200
_cell_length_c   12.10147300
_cell_angle_alpha   90.00000000
_cell_angle_beta   89.99905869
_cell_angle_gamma   90.00000000
_symmetry_Int_Tables_number   1
_chemical_formula_structural   Hf6Ni17MoP12
_chemical_formula_sum   'Hf6 Ni17 Mo1 P12'
_cell_volume   457.88643292
_cell_formula_units_Z   1
loop_
 _symmetry_equiv_pos_site_id
 _symmetry_equiv_pos_as_xyz
  1  'x, y, z'
loop_
 _atom_site_type_symbol
 _atom_site_label
 _atom_site_symmetry_multiplicity
 _atom_site_fract_x
 _atom_site_fract_y
 _atom_site_fract_z
 _atom_site_occupancy
  Hf  Hf0  1  0.751977  0.000000  0.469049  1
  Hf  Hf1  1  0.251994  0.500000  0.525678  1
  Hf  Hf2  1  0.251883  0.676731  0.793027  1
  Hf  Hf3  1  0.251883  0.323269  0.793027  1
  Hf  Hf4  1  0.751898  0.820551  0.207877  1
  Hf  Hf5  1  0.751898  0.179449  0.207877  1
  Ni  Ni6  1  0.751772  0.000000  0.015569  1
  Ni  Ni7  1  0.251759  0.500000  0.983971  1
  Ni  Ni8  1  0.251807  0.197687  0.567532  1
  Ni  Ni9  1  0.251807  0.802313  0.567532  1
  Ni  Ni10  1  0.751866  0.302278  0.431168  1
  Ni  Ni11  1  0.751866  0.697722  0.431168  1
  Ni  Ni12  1  0.251903  0.625029  0.292875  1
  Ni  Ni13  1  0.251903  0.374971  0.292875  1
  Ni  Ni14  1  0.751785  0.873949  0.705052  1
  Ni  Ni15  1  0.751785  0.126051  0.705052  1
  Ni  Ni16  1  0.251636  0.171786  0.010835  1
  Ni  Ni17  1  0.251636  0.828214  0.010835  1
  Ni  Ni18  1  0.751673  0.334789  0.995471  1
  Ni  Ni19  1  0.751673  0.665211  0.995471  1
  Ni  Ni20  1  0.751539  0.500000  0.165386  1
  Ni  Ni21  1  0.252040  0.000000  0.298266  1
  Ni  Ni22  1  0.751937  0.500000  0.699234  1
  Mo  Mo23  1  0.251794  0.000000  0.839716  1
  P  P24  1  0.251883  0.183151  0.382937  1
  P  P25  1  0.251883  0.816849  0.382937  1
  P  P26  1  0.751849  0.317846  0.616082  1
  P  P27  1  0.751849  0.682154  0.616082  1
  P  P28  1  0.251827  0.000000  0.121990  1
  P  P29  1  0.751768  0.500000  0.875659  1
  P  P30  1  0.251745  0.652773  0.113409  1
  P  P31  1  0.251745  0.347227  0.113409  1
  P  P32  1  0.751768  0.839180  0.888719  1
  P  P33  1  0.751768  0.160820  0.888719  1
  P  P34  1  0.251836  0.000000  0.643083  1
  P  P35  1  0.751973  0.500000  0.352433  1
