# generated using pymatgen
data_K3Ba(PPt3)8
_symmetry_space_group_name_H-M   'P 1'
_cell_length_a   8.59908108
_cell_length_b   8.59908108
_cell_length_c   8.59908108
_cell_angle_alpha   90.01120664
_cell_angle_beta   90.01120664
_cell_angle_gamma   90.01120664
_symmetry_Int_Tables_number   1
_chemical_formula_structural   K3Ba(PPt3)8
_chemical_formula_sum   'K3 Ba1 P8 Pt24'
_cell_volume   635.85209582
_cell_formula_units_Z   1
loop_
 _symmetry_equiv_pos_site_id
 _symmetry_equiv_pos_as_xyz
  1  'x, y, z'
loop_
 _atom_site_type_symbol
 _atom_site_label
 _atom_site_symmetry_multiplicity
 _atom_site_fract_x
 _atom_site_fract_y
 _atom_site_fract_z
 _atom_site_occupancy
  K  K0  1  0.500000  0.500000  0.000000  1
  K  K1  1  0.500000  0.000000  0.500000  1
  K  K2  1  0.000000  0.500000  0.500000  1
  Ba  Ba3  1  0.000000  0.000000  0.000000  1
  P  P4  1  0.805162  0.307227  0.194427  1
  P  P5  1  0.194427  0.805162  0.307227  1
  P  P6  1  0.693320  0.693320  0.693320  1
  P  P7  1  0.307227  0.194427  0.805162  1
  P  P8  1  0.194838  0.692773  0.805573  1
  P  P9  1  0.805573  0.194838  0.692773  1
  P  P10  1  0.306680  0.306680  0.306680  1
  P  P11  1  0.692773  0.805573  0.194838  1
  Pt  Pt12  1  0.421504  0.842939  0.155943  1
  Pt  Pt13  1  0.578200  0.343482  0.344278  1
  Pt  Pt14  1  0.078348  0.157655  0.654769  1
  Pt  Pt15  1  0.921234  0.655938  0.843316  1
  Pt  Pt16  1  0.155943  0.421504  0.842939  1
  Pt  Pt17  1  0.344278  0.578200  0.343482  1
  Pt  Pt18  1  0.654769  0.078348  0.157655  1
  Pt  Pt19  1  0.843316  0.921234  0.655938  1
  Pt  Pt20  1  0.842939  0.155943  0.421504  1
  Pt  Pt21  1  0.343482  0.344278  0.578200  1
  Pt  Pt22  1  0.157655  0.654769  0.078348  1
  Pt  Pt23  1  0.655938  0.843316  0.921234  1
  Pt  Pt24  1  0.578496  0.157061  0.844057  1
  Pt  Pt25  1  0.421800  0.656518  0.655722  1
  Pt  Pt26  1  0.921652  0.842345  0.345231  1
  Pt  Pt27  1  0.078766  0.344062  0.156684  1
  Pt  Pt28  1  0.844057  0.578496  0.157061  1
  Pt  Pt29  1  0.655722  0.421800  0.656518  1
  Pt  Pt30  1  0.345231  0.921652  0.842345  1
  Pt  Pt31  1  0.156684  0.078766  0.344062  1
  Pt  Pt32  1  0.157061  0.844057  0.578496  1
  Pt  Pt33  1  0.656518  0.655722  0.421800  1
  Pt  Pt34  1  0.842345  0.345231  0.921652  1
  Pt  Pt35  1  0.344062  0.156684  0.078766  1
