# generated using pymatgen
data_TmUS6
_symmetry_space_group_name_H-M   'P 1'
_cell_length_a   3.90880800
_cell_length_b   5.37929516
_cell_length_c   9.46722157
_cell_angle_alpha   82.72657433
_cell_angle_beta   90.00000000
_cell_angle_gamma   90.00000000
_symmetry_Int_Tables_number   1
_chemical_formula_structural   TmUS6
_chemical_formula_sum   'Tm1 U1 S6'
_cell_volume   197.46197084
_cell_formula_units_Z   1
loop_
 _symmetry_equiv_pos_site_id
 _symmetry_equiv_pos_as_xyz
  1  'x, y, z'
loop_
 _atom_site_type_symbol
 _atom_site_label
 _atom_site_symmetry_multiplicity
 _atom_site_fract_x
 _atom_site_fract_y
 _atom_site_fract_z
 _atom_site_occupancy
  Tm  Tm0  1  0.250000  0.717477  0.146062  1
  U  U1  1  0.750000  0.279751  0.866380  1
  S  S2  1  0.250000  0.128259  0.691162  1
  S  S3  1  0.750000  0.875065  0.311049  1
  S  S4  1  0.750000  0.486065  0.310936  1
  S  S5  1  0.250000  0.509626  0.691326  1
  S  S6  1  0.750000  0.766370  0.926590  1
  S  S7  1  0.250000  0.237387  0.056495  1
