# generated using pymatgen
data_Ac4Te7Pd
_symmetry_space_group_name_H-M   'P 1'
_cell_length_a   4.49700511
_cell_length_b   9.24585800
_cell_length_c   9.79297237
_cell_angle_alpha   90.00000000
_cell_angle_beta   90.08582242
_cell_angle_gamma   90.00000000
_symmetry_Int_Tables_number   1
_chemical_formula_structural   Ac4Te7Pd
_chemical_formula_sum   'Ac4 Te7 Pd1'
_cell_volume   407.17831629
_cell_formula_units_Z   1
loop_
 _symmetry_equiv_pos_site_id
 _symmetry_equiv_pos_as_xyz
  1  'x, y, z'
loop_
 _atom_site_type_symbol
 _atom_site_label
 _atom_site_symmetry_multiplicity
 _atom_site_fract_x
 _atom_site_fract_y
 _atom_site_fract_z
 _atom_site_occupancy
  Ac  Ac0  1  0.001331  0.750000  0.708028  1
  Ac  Ac1  1  0.002055  0.250000  0.742757  1
  Ac  Ac2  1  0.499273  0.003381  0.268520  1
  Ac  Ac3  1  0.499273  0.496619  0.268520  1
  Te  Te4  1  0.998000  0.935201  0.002309  1
  Te  Te5  1  0.998000  0.564799  0.002309  1
  Te  Te6  1  0.503403  0.250000  0.002188  1
  Te  Te7  1  0.999561  0.750000  0.366598  1
  Te  Te8  1  0.000017  0.250000  0.374181  1
  Te  Te9  1  0.501214  0.004089  0.629342  1
  Te  Te10  1  0.501214  0.495911  0.629342  1
  Pd  Pd11  1  0.496659  0.750000  0.006831  1
