# generated using pymatgen
data_Tm2Mg(Co3B2)3
_symmetry_space_group_name_H-M   'P 1'
_cell_length_a   5.74518880
_cell_length_b   5.74518947
_cell_length_c   5.74518959
_cell_angle_alpha   95.82480179
_cell_angle_beta   95.82480846
_cell_angle_gamma   95.82481067
_symmetry_Int_Tables_number   1
_chemical_formula_structural   Tm2Mg(Co3B2)3
_chemical_formula_sum   'Tm2 Mg1 Co9 B6'
_cell_volume   186.47844600
_cell_formula_units_Z   1
loop_
 _symmetry_equiv_pos_site_id
 _symmetry_equiv_pos_as_xyz
  1  'x, y, z'
loop_
 _atom_site_type_symbol
 _atom_site_label
 _atom_site_symmetry_multiplicity
 _atom_site_fract_x
 _atom_site_fract_y
 _atom_site_fract_z
 _atom_site_occupancy
  Tm  Tm0  1  0.675333  0.675333  0.675333  1
  Tm  Tm1  1  0.324667  0.324667  0.324667  1
  Mg  Mg2  1  0.000000  0.000000  0.000000  1
  Co  Co3  1  0.000000  0.000000  0.500000  1
  Co  Co4  1  0.500000  0.000000  0.000000  1
  Co  Co5  1  0.000000  0.500000  0.000000  1
  Co  Co6  1  0.701536  0.197435  0.701536  1
  Co  Co7  1  0.701536  0.701536  0.197435  1
  Co  Co8  1  0.197435  0.701536  0.701536  1
  Co  Co9  1  0.298464  0.802565  0.298464  1
  Co  Co10  1  0.298464  0.298464  0.802565  1
  Co  Co11  1  0.802565  0.298464  0.298464  1
  B  B12  1  0.618964  0.381036  0.000000  1
  B  B13  1  0.000000  0.618964  0.381036  1
  B  B14  1  0.381036  0.000000  0.618964  1
  B  B15  1  0.000000  0.381036  0.618964  1
  B  B16  1  0.618964  0.000000  0.381036  1
  B  B17  1  0.381036  0.618964  0.000000  1
