# generated using pymatgen
data_Tb2HoMg3SiHg2
_symmetry_space_group_name_H-M   'P 1'
_cell_length_a   7.48000129
_cell_length_b   7.45997338
_cell_length_c   4.36517200
_cell_angle_alpha   90.00000000
_cell_angle_beta   90.00000000
_cell_angle_gamma   119.72775140
_symmetry_Int_Tables_number   1
_chemical_formula_structural   Tb2HoMg3SiHg2
_chemical_formula_sum   'Tb2 Ho1 Mg3 Si1 Hg2'
_cell_volume   211.52214550
_cell_formula_units_Z   1
loop_
 _symmetry_equiv_pos_site_id
 _symmetry_equiv_pos_as_xyz
  1  'x, y, z'
loop_
 _atom_site_type_symbol
 _atom_site_label
 _atom_site_symmetry_multiplicity
 _atom_site_fract_x
 _atom_site_fract_y
 _atom_site_fract_z
 _atom_site_occupancy
  Tb  Tb0  1  0.579921  0.008832  0.000000  1
  Tb  Tb1  1  0.990739  0.570860  0.000000  1
  Ho  Ho2  1  0.428514  0.419682  0.000000  1
  Mg  Mg3  1  0.250540  0.002044  0.500000  1
  Mg  Mg4  1  0.998922  0.248795  0.500000  1
  Mg  Mg5  1  0.750248  0.749048  0.500000  1
  Si  Si6  1  0.665072  0.334012  0.500000  1
  Hg  Hg7  1  0.333757  0.664267  0.500000  1
  Hg  Hg8  1  0.002290  0.002460  0.000000  1
