# generated using pymatgen
data_Y9HoAg3Ru
_symmetry_space_group_name_H-M   'P 1'
_cell_length_a   9.53977300
_cell_length_b   9.53977295
_cell_length_c   9.69604700
_cell_angle_alpha   90.00000000
_cell_angle_beta   90.00000000
_cell_angle_gamma   119.99999669
_symmetry_Int_Tables_number   1
_chemical_formula_structural   Y9HoAg3Ru
_chemical_formula_sum   'Y18 Ho2 Ag6 Ru2'
_cell_volume   764.19015351
_cell_formula_units_Z   2
loop_
 _symmetry_equiv_pos_site_id
 _symmetry_equiv_pos_as_xyz
  1  'x, y, z'
loop_
 _atom_site_type_symbol
 _atom_site_label
 _atom_site_symmetry_multiplicity
 _atom_site_fract_x
 _atom_site_fract_y
 _atom_site_fract_z
 _atom_site_occupancy
  Y  Y0  1  0.208696  0.791304  0.440932  1
  Y  Y1  1  0.208696  0.417392  0.440932  1
  Y  Y2  1  0.582608  0.791304  0.440932  1
  Y  Y3  1  0.791304  0.208696  0.559068  1
  Y  Y4  1  0.791304  0.582608  0.559068  1
  Y  Y5  1  0.417392  0.208696  0.559068  1
  Y  Y6  1  0.791304  0.208696  0.940932  1
  Y  Y7  1  0.791304  0.582608  0.940932  1
  Y  Y8  1  0.417392  0.208696  0.940932  1
  Y  Y9  1  0.208696  0.791304  0.059068  1
  Y  Y10  1  0.208696  0.417392  0.059068  1
  Y  Y11  1  0.582608  0.791304  0.059068  1
  Y  Y12  1  0.541076  0.458924  0.250000  1
  Y  Y13  1  0.541076  0.082151  0.250000  1
  Y  Y14  1  0.917849  0.458924  0.250000  1
  Y  Y15  1  0.458924  0.541076  0.750000  1
  Y  Y16  1  0.458924  0.917849  0.750000  1
  Y  Y17  1  0.082151  0.541076  0.750000  1
  Ho  Ho18  1  0.000000  0.000000  0.500000  1
  Ho  Ho19  1  0.000000  0.000000  0.000000  1
  Ag  Ag20  1  0.884021  0.115979  0.250000  1
  Ag  Ag21  1  0.884021  0.768043  0.250000  1
  Ag  Ag22  1  0.231957  0.115979  0.250000  1
  Ag  Ag23  1  0.115979  0.884021  0.750000  1
  Ag  Ag24  1  0.115979  0.231957  0.750000  1
  Ag  Ag25  1  0.768043  0.884021  0.750000  1
  Ru  Ru26  1  0.333333  0.666667  0.250000  1
  Ru  Ru27  1  0.666667  0.333333  0.750000  1
