# generated using pymatgen
data_TbLu2Co9(SiB2)2
_symmetry_space_group_name_H-M   'P 1'
_cell_length_a   5.09873320
_cell_length_b   5.09735242
_cell_length_c   9.33282500
_cell_angle_alpha   89.99918916
_cell_angle_beta   90.00051430
_cell_angle_gamma   120.03542369
_symmetry_Int_Tables_number   1
_chemical_formula_structural   TbLu2Co9(SiB2)2
_chemical_formula_sum   'Tb1 Lu2 Co9 Si2 B4'
_cell_volume   209.98852811
_cell_formula_units_Z   1
loop_
 _symmetry_equiv_pos_site_id
 _symmetry_equiv_pos_as_xyz
  1  'x, y, z'
loop_
 _atom_site_type_symbol
 _atom_site_label
 _atom_site_symmetry_multiplicity
 _atom_site_fract_x
 _atom_site_fract_y
 _atom_site_fract_z
 _atom_site_occupancy
  Tb  Tb0  1  0.999988  0.000006  0.000023  1
  Lu  Lu1  1  0.000002  0.000005  0.338869  1
  Lu  Lu2  1  0.000005  0.000006  0.660949  1
  Co  Co3  1  0.500003  0.000004  0.499959  1
  Co  Co4  1  0.499999  0.499995  0.499984  1
  Co  Co5  1  0.999990  0.499996  0.499987  1
  Co  Co6  1  0.499991  0.000006  0.197195  1
  Co  Co7  1  0.499988  0.499995  0.197173  1
  Co  Co8  1  0.999985  0.499999  0.197155  1
  Co  Co9  1  0.499998  0.999998  0.802851  1
  Co  Co10  1  0.499992  0.499998  0.802843  1
  Co  Co11  1  0.999998  0.499998  0.802860  1
  Si  Si12  1  0.333340  0.666766  0.000145  1
  Si  Si13  1  0.666637  0.333235  0.000148  1
  B  B14  1  0.333294  0.666643  0.345954  1
  B  B15  1  0.666694  0.333354  0.345956  1
  B  B16  1  0.666665  0.333254  0.653973  1
  B  B17  1  0.333330  0.666743  0.653977  1
