# generated using pymatgen
data_Tb2Ga3Ni3Ge2
_symmetry_space_group_name_H-M   'P 1'
_cell_length_a   5.81337953
_cell_length_b   8.16936489
_cell_length_c   8.16936395
_cell_angle_alpha   74.94080723
_cell_angle_beta   69.15728669
_cell_angle_gamma   69.15729014
_symmetry_Int_Tables_number   1
_chemical_formula_structural   Tb2Ga3Ni3Ge2
_chemical_formula_sum   'Tb4 Ga6 Ni6 Ge4'
_cell_volume   334.89488257
_cell_formula_units_Z   2
loop_
 _symmetry_equiv_pos_site_id
 _symmetry_equiv_pos_as_xyz
  1  'x, y, z'
loop_
 _atom_site_type_symbol
 _atom_site_label
 _atom_site_symmetry_multiplicity
 _atom_site_fract_x
 _atom_site_fract_y
 _atom_site_fract_z
 _atom_site_occupancy
  Tb  Tb0  1  0.867130  0.874124  0.391616  1
  Tb  Tb1  1  0.132870  0.125876  0.608384  1
  Tb  Tb2  1  0.367130  0.391616  0.874124  1
  Tb  Tb3  1  0.632870  0.608384  0.125876  1
  Ga  Ga4  1  0.250000  0.500000  0.500000  1
  Ga  Ga5  1  0.750000  0.500000  0.500000  1
  Ga  Ga6  1  0.012237  0.237763  0.237763  1
  Ga  Ga7  1  0.487763  0.762237  0.762237  1
  Ga  Ga8  1  0.987763  0.762237  0.762237  1
  Ga  Ga9  1  0.512237  0.237763  0.237763  1
  Ni  Ni10  1  0.250000  0.000000  0.000000  1
  Ni  Ni11  1  0.750000  0.000000  0.000000  1
  Ni  Ni12  1  0.632294  0.249456  0.485957  1
  Ni  Ni13  1  0.367706  0.750544  0.514043  1
  Ni  Ni14  1  0.132294  0.485957  0.249456  1
  Ni  Ni15  1  0.867706  0.514043  0.750544  1
  Ge  Ge16  1  0.603977  0.049041  0.743004  1
  Ge  Ge17  1  0.396023  0.950959  0.256996  1
  Ge  Ge18  1  0.103977  0.743004  0.049041  1
  Ge  Ge19  1  0.896023  0.256996  0.950959  1
