# generated using pymatgen
data_Eu3Zr4UO14
_symmetry_space_group_name_H-M   'P 1'
_cell_length_a   7.57994841
_cell_length_b   7.65492960
_cell_length_c   7.57994800
_cell_angle_alpha   60.32349723
_cell_angle_beta   60.00000179
_cell_angle_gamma   60.32349415
_symmetry_Int_Tables_number   1
_chemical_formula_structural   Eu3Zr4UO14
_chemical_formula_sum   'Eu3 Zr4 U1 O14'
_cell_volume   312.51078590
_cell_formula_units_Z   1
loop_
 _symmetry_equiv_pos_site_id
 _symmetry_equiv_pos_as_xyz
  1  'x, y, z'
loop_
 _atom_site_type_symbol
 _atom_site_label
 _atom_site_symmetry_multiplicity
 _atom_site_fract_x
 _atom_site_fract_y
 _atom_site_fract_z
 _atom_site_occupancy
  Eu  Eu0  1  0.625000  0.125000  0.125000  1
  Eu  Eu1  1  0.125000  0.125000  0.625000  1
  Eu  Eu2  1  0.125000  0.125000  0.125000  1
  Zr  Zr3  1  0.125000  0.625000  0.625000  1
  Zr  Zr4  1  0.625000  0.125000  0.625000  1
  Zr  Zr5  1  0.625000  0.625000  0.125000  1
  Zr  Zr6  1  0.625000  0.625000  0.625000  1
  U  U7  1  0.125000  0.625000  0.125000  1
  O  O8  1  0.234266  0.297203  0.234266  1
  O  O9  1  0.015734  0.952797  0.015734  1
  O  O10  1  0.723714  0.701273  0.287507  1
  O  O11  1  0.286877  0.292798  0.710163  1
  O  O12  1  0.710163  0.292798  0.710163  1
  O  O13  1  0.287507  0.701273  0.287507  1
  O  O14  1  0.287507  0.701273  0.723714  1
  O  O15  1  0.710163  0.292798  0.286877  1
  O  O16  1  0.526286  0.548727  0.962493  1
  O  O17  1  0.963123  0.957202  0.539837  1
  O  O18  1  0.539837  0.957202  0.539837  1
  O  O19  1  0.962493  0.548727  0.962493  1
  O  O20  1  0.962493  0.548727  0.526286  1
  O  O21  1  0.539837  0.957202  0.963123  1
