# generated using pymatgen
data_Th2Sc3SiPt3
_symmetry_space_group_name_H-M   'P 1'
_cell_length_a   7.31935900
_cell_length_b   7.30753000
_cell_length_c   14.65171300
_cell_angle_alpha   90.00000000
_cell_angle_beta   90.00000000
_cell_angle_gamma   90.00000000
_symmetry_Int_Tables_number   1
_chemical_formula_structural   Th2Sc3SiPt3
_chemical_formula_sum   'Th8 Sc12 Si4 Pt12'
_cell_volume   783.66790195
_cell_formula_units_Z   4
loop_
 _symmetry_equiv_pos_site_id
 _symmetry_equiv_pos_as_xyz
  1  'x, y, z'
loop_
 _atom_site_type_symbol
 _atom_site_label
 _atom_site_symmetry_multiplicity
 _atom_site_fract_x
 _atom_site_fract_y
 _atom_site_fract_z
 _atom_site_occupancy
  Th  Th0  1  0.003526  0.679273  0.596884  1
  Th  Th1  1  0.996474  0.320727  0.403116  1
  Th  Th2  1  0.496474  0.179273  0.403116  1
  Th  Th3  1  0.996474  0.320727  0.096884  1
  Th  Th4  1  0.503526  0.820727  0.596884  1
  Th  Th5  1  0.003526  0.679273  0.903116  1
  Th  Th6  1  0.503526  0.820727  0.903116  1
  Th  Th7  1  0.496474  0.179273  0.096884  1
  Sc  Sc8  1  0.182384  0.011703  0.750000  1
  Sc  Sc9  1  0.817616  0.988297  0.250000  1
  Sc  Sc10  1  0.317616  0.511703  0.250000  1
  Sc  Sc11  1  0.682384  0.488297  0.750000  1
  Sc  Sc12  1  0.351987  0.331982  0.627332  1
  Sc  Sc13  1  0.648013  0.668018  0.372668  1
  Sc  Sc14  1  0.148013  0.831982  0.372668  1
  Sc  Sc15  1  0.648013  0.668018  0.127332  1
  Sc  Sc16  1  0.851987  0.168018  0.627332  1
  Sc  Sc17  1  0.351987  0.331982  0.872668  1
  Sc  Sc18  1  0.851987  0.168018  0.872668  1
  Sc  Sc19  1  0.148013  0.831982  0.127332  1
  Si  Si20  1  0.303080  0.631843  0.750000  1
  Si  Si21  1  0.696920  0.368157  0.250000  1
  Si  Si22  1  0.196920  0.131843  0.250000  1
  Si  Si23  1  0.803080  0.868157  0.750000  1
  Pt  Pt24  1  0.054832  0.381422  0.750000  1
  Pt  Pt25  1  0.945168  0.618578  0.250000  1
  Pt  Pt26  1  0.445168  0.881422  0.250000  1
  Pt  Pt27  1  0.554832  0.118578  0.750000  1
  Pt  Pt28  1  0.186697  0.043123  0.537531  1
  Pt  Pt29  1  0.813303  0.956877  0.462469  1
  Pt  Pt30  1  0.313303  0.543123  0.462469  1
  Pt  Pt31  1  0.813303  0.956877  0.037531  1
  Pt  Pt32  1  0.686697  0.456877  0.537531  1
  Pt  Pt33  1  0.186697  0.043123  0.962469  1
  Pt  Pt34  1  0.686697  0.456877  0.962469  1
  Pt  Pt35  1  0.313303  0.543123  0.037531  1
