# generated using pymatgen
data_La2Al20IrRu2Rh
_symmetry_space_group_name_H-M   'P 1'
_cell_length_a   6.91474460
_cell_length_b   6.91511410
_cell_length_c   9.20934340
_cell_angle_alpha   90.13599261
_cell_angle_beta   90.05373841
_cell_angle_gamma   97.11758750
_symmetry_Int_Tables_number   1
_chemical_formula_structural   La2Al20IrRu2Rh
_chemical_formula_sum   'La2 Al20 Ir1 Ru2 Rh1'
_cell_volume   436.96127198
_cell_formula_units_Z   1
loop_
 _symmetry_equiv_pos_site_id
 _symmetry_equiv_pos_as_xyz
  1  'x, y, z'
loop_
 _atom_site_type_symbol
 _atom_site_label
 _atom_site_symmetry_multiplicity
 _atom_site_fract_x
 _atom_site_fract_y
 _atom_site_fract_z
 _atom_site_occupancy
  La  La0  1  0.876366  0.123199  0.749669  1
  La  La1  1  0.123634  0.876801  0.250331  1
  Al  Al2  1  0.620080  0.377577  0.552062  1
  Al  Al3  1  0.379920  0.622423  0.447938  1
  Al  Al4  1  0.377406  0.620221  0.051162  1
  Al  Al5  1  0.622594  0.379779  0.948838  1
  Al  Al6  1  0.228330  0.227459  0.498806  1
  Al  Al7  1  0.771670  0.772541  0.501194  1
  Al  Al8  1  0.774072  0.772211  0.000606  1
  Al  Al9  1  0.225928  0.227789  0.999394  1
  Al  Al10  1  0.840601  0.162312  0.102655  1
  Al  Al11  1  0.159399  0.837688  0.897345  1
  Al  Al12  1  0.162682  0.839412  0.603231  1
  Al  Al13  1  0.837318  0.160588  0.396769  1
  Al  Al14  1  0.858742  0.589253  0.750334  1
  Al  Al15  1  0.141258  0.410747  0.249666  1
  Al  Al16  1  0.409427  0.141129  0.749234  1
  Al  Al17  1  0.590573  0.858871  0.250766  1
  Al  Al18  1  0.224322  0.482237  0.753073  1
  Al  Al19  1  0.775678  0.517763  0.246927  1
  Al  Al20  1  0.517614  0.776610  0.748063  1
  Al  Al21  1  0.482386  0.223390  0.251937  1
  Ir  Ir22  1  0.500000  0.000000  0.000000  1
  Ru  Ru23  1  0.000000  0.500000  0.000000  1
  Ru  Ru24  1  0.500000  0.000000  0.500000  1
  Rh  Rh25  1  0.000000  0.500000  0.500000  1
