# generated using pymatgen
data_Y7HoRe3B24Rh
_symmetry_space_group_name_H-M   'P 1'
_cell_length_a   3.68366300
_cell_length_b   9.18012200
_cell_length_c   11.56443603
_cell_angle_alpha   90.17142162
_cell_angle_beta   90.00000000
_cell_angle_gamma   90.00000000
_symmetry_Int_Tables_number   1
_chemical_formula_structural   Y7HoRe3B24Rh
_chemical_formula_sum   'Y7 Ho1 Re3 B24 Rh1'
_cell_volume   391.06672051
_cell_formula_units_Z   1
loop_
 _symmetry_equiv_pos_site_id
 _symmetry_equiv_pos_as_xyz
  1  'x, y, z'
loop_
 _atom_site_type_symbol
 _atom_site_label
 _atom_site_symmetry_multiplicity
 _atom_site_fract_x
 _atom_site_fract_y
 _atom_site_fract_z
 _atom_site_occupancy
  Y  Y0  1  0.000000  0.318578  0.415566  1
  Y  Y1  1  0.000000  0.677997  0.591219  1
  Y  Y2  1  0.000000  0.827020  0.081295  1
  Y  Y3  1  0.000000  0.177370  0.912758  1
  Y  Y4  1  0.000000  0.943220  0.370129  1
  Y  Y5  1  0.000000  0.055828  0.628884  1
  Y  Y6  1  0.000000  0.441440  0.128756  1
  Ho  Ho7  1  0.000000  0.556876  0.871395  1
  Re  Re8  1  0.000000  0.362719  0.677843  1
  Re  Re9  1  0.000000  0.138256  0.179793  1
  Re  Re10  1  0.000000  0.861449  0.821048  1
  B  B11  1  0.500000  0.554055  0.433511  1
  B  B12  1  0.500000  0.446596  0.566993  1
  B  B13  1  0.500000  0.053603  0.066713  1
  B  B14  1  0.500000  0.946912  0.932384  1
  B  B15  1  0.500000  0.748523  0.420056  1
  B  B16  1  0.500000  0.251176  0.581287  1
  B  B17  1  0.500000  0.248888  0.081534  1
  B  B18  1  0.500000  0.751711  0.918528  1
  B  B19  1  0.500000  0.790570  0.265122  1
  B  B20  1  0.500000  0.209032  0.734017  1
  B  B21  1  0.500000  0.291340  0.235099  1
  B  B22  1  0.500000  0.708160  0.766224  1
  B  B23  1  0.500000  0.632027  0.184325  1
  B  B24  1  0.500000  0.369754  0.813955  1
  B  B25  1  0.500000  0.130907  0.314536  1
  B  B26  1  0.500000  0.868127  0.685925  1
  B  B27  1  0.500000  0.983434  0.211755  1
  B  B28  1  0.500000  0.016839  0.787198  1
  B  B29  1  0.500000  0.483640  0.288157  1
  B  B30  1  0.500000  0.517894  0.712706  1
  B  B31  1  0.500000  0.604236  0.029170  1
  B  B32  1  0.500000  0.397459  0.971673  1
  B  B33  1  0.500000  0.102446  0.470814  1
  B  B34  1  0.500000  0.894091  0.528464  1
  Rh  Rh35  1  0.000000  0.637828  0.321168  1
