# generated using pymatgen
data_DyHo11Co5Pb
_symmetry_space_group_name_H-M   'P 1'
_cell_length_a   8.27945037
_cell_length_b   8.27944884
_cell_length_c   8.28332784
_cell_angle_alpha   106.96760266
_cell_angle_beta   110.68366893
_cell_angle_gamma   110.77253382
_symmetry_Int_Tables_number   1
_chemical_formula_structural   DyHo11Co5Pb
_chemical_formula_sum   'Dy1 Ho11 Co5 Pb1'
_cell_volume   436.58436643
_cell_formula_units_Z   1
loop_
 _symmetry_equiv_pos_site_id
 _symmetry_equiv_pos_as_xyz
  1  'x, y, z'
loop_
 _atom_site_type_symbol
 _atom_site_label
 _atom_site_symmetry_multiplicity
 _atom_site_fract_x
 _atom_site_fract_y
 _atom_site_fract_z
 _atom_site_occupancy
  Dy  Dy0  1  0.806865  0.206139  0.013005  1
  Ho  Ho1  1  0.476347  0.291491  0.185126  1
  Ho  Ho2  1  0.107014  0.292186  0.814648  1
  Ho  Ho3  1  0.893635  0.708778  0.185126  1
  Ho  Ho4  1  0.522462  0.707634  0.814648  1
  Ho  Ho5  1  0.307251  0.619860  0.312954  1
  Ho  Ho6  1  0.306743  0.994192  0.687342  1
  Ho  Ho7  1  0.693151  0.380599  0.687342  1
  Ho  Ho8  1  0.693094  0.005702  0.312954  1
  Ho  Ho9  1  0.194063  0.207159  0.401222  1
  Ho  Ho10  1  0.806690  0.793632  0.600323  1
  Ho  Ho11  1  0.193721  0.792936  0.986655  1
  Co  Co12  1  0.500094  0.612074  0.112168  1
  Co  Co13  1  0.499090  0.388157  0.887248  1
  Co  Co14  1  0.377891  0.000139  0.378030  1
  Co  Co15  1  0.620679  0.999871  0.620549  1
  Co  Co16  1  0.001440  0.999590  0.001030  1
  Pb  Pb17  1  0.999771  0.499860  0.499631  1
