# generated using pymatgen
data_Y4Lu4Mn(B8Rh)3
_symmetry_space_group_name_H-M   'P 1'
_cell_length_a   3.60664600
_cell_length_b   9.08372287
_cell_length_c   11.45107070
_cell_angle_alpha   90.06448256
_cell_angle_beta   90.00000000
_cell_angle_gamma   90.00000000
_symmetry_Int_Tables_number   1
_chemical_formula_structural   Y4Lu4Mn(B8Rh)3
_chemical_formula_sum   'Y4 Lu4 Mn1 B24 Rh3'
_cell_volume   375.15713852
_cell_formula_units_Z   1
loop_
 _symmetry_equiv_pos_site_id
 _symmetry_equiv_pos_as_xyz
  1  'x, y, z'
loop_
 _atom_site_type_symbol
 _atom_site_label
 _atom_site_symmetry_multiplicity
 _atom_site_fract_x
 _atom_site_fract_y
 _atom_site_fract_z
 _atom_site_occupancy
  Y  Y0  1  0.500000  0.317545  0.410002  1
  Y  Y1  1  0.500000  0.678727  0.585520  1
  Y  Y2  1  0.500000  0.178429  0.918805  1
  Y  Y3  1  0.500000  0.825850  0.087497  1
  Lu  Lu4  1  0.500000  0.439800  0.126844  1
  Lu  Lu5  1  0.500000  0.556335  0.873538  1
  Lu  Lu6  1  0.500000  0.056390  0.627263  1
  Lu  Lu7  1  0.500000  0.947608  0.370568  1
  Mn  Mn8  1  0.500000  0.139165  0.180618  1
  B  B9  1  0.000000  0.104385  0.471633  1
  B  B10  1  0.000000  0.895583  0.528423  1
  B  B11  1  0.000000  0.395045  0.971335  1
  B  B12  1  0.000000  0.605457  0.028751  1
  B  B13  1  0.000000  0.130976  0.313856  1
  B  B14  1  0.000000  0.868540  0.683370  1
  B  B15  1  0.000000  0.369079  0.817111  1
  B  B16  1  0.000000  0.630995  0.183080  1
  B  B17  1  0.000000  0.055187  0.068860  1
  B  B18  1  0.000000  0.946447  0.934362  1
  B  B19  1  0.000000  0.444975  0.565518  1
  B  B20  1  0.000000  0.553536  0.433052  1
  B  B21  1  0.000000  0.481792  0.285681  1
  B  B22  1  0.000000  0.517987  0.713877  1
  B  B23  1  0.000000  0.018214  0.786986  1
  B  B24  1  0.000000  0.985626  0.212956  1
  B  B25  1  0.000000  0.247975  0.082753  1
  B  B26  1  0.000000  0.749875  0.920433  1
  B  B27  1  0.000000  0.248977  0.579402  1
  B  B28  1  0.000000  0.751369  0.419348  1
  B  B29  1  0.000000  0.290682  0.233681  1
  B  B30  1  0.000000  0.706113  0.764358  1
  B  B31  1  0.000000  0.206948  0.735698  1
  B  B32  1  0.000000  0.793735  0.265104  1
  Rh  Rh33  1  0.500000  0.860854  0.820356  1
  Rh  Rh34  1  0.500000  0.360452  0.679812  1
  Rh  Rh35  1  0.500000  0.639350  0.319550  1
