# generated using pymatgen
data_Zr6Zn21SiNiRh
_symmetry_space_group_name_H-M   'P 1'
_cell_length_a   8.75033730
_cell_length_b   8.75033722
_cell_length_c   8.69741500
_cell_angle_alpha   60.19986983
_cell_angle_beta   60.19987014
_cell_angle_gamma   60.43940863
_symmetry_Int_Tables_number   1
_chemical_formula_structural   Zr6Zn21SiNiRh
_chemical_formula_sum   'Zr6 Zn21 Si1 Ni1 Rh1'
_cell_volume   473.87132152
_cell_formula_units_Z   1
loop_
 _symmetry_equiv_pos_site_id
 _symmetry_equiv_pos_as_xyz
  1  'x, y, z'
loop_
 _atom_site_type_symbol
 _atom_site_label
 _atom_site_symmetry_multiplicity
 _atom_site_fract_x
 _atom_site_fract_y
 _atom_site_fract_z
 _atom_site_occupancy
  Zr  Zr0  1  0.712071  0.287929  0.291302  1
  Zr  Zr1  1  0.287929  0.712071  0.708698  1
  Zr  Zr2  1  0.287929  0.712071  0.291302  1
  Zr  Zr3  1  0.712071  0.287929  0.708698  1
  Zr  Zr4  1  0.287838  0.287838  0.712162  1
  Zr  Zr5  1  0.712162  0.712162  0.287838  1
  Zn  Zn6  1  0.117578  0.117578  0.130489  1
  Zn  Zn7  1  0.882422  0.882422  0.869511  1
  Zn  Zn8  1  0.117578  0.117578  0.634355  1
  Zn  Zn9  1  0.120235  0.637618  0.121073  1
  Zn  Zn10  1  0.882422  0.882422  0.365645  1
  Zn  Zn11  1  0.879765  0.362382  0.878927  1
  Zn  Zn12  1  0.637618  0.120235  0.121073  1
  Zn  Zn13  1  0.362382  0.879765  0.878927  1
  Zn  Zn14  1  0.500000  0.000000  0.000000  1
  Zn  Zn15  1  0.000000  0.500000  0.500000  1
  Zn  Zn16  1  0.000000  0.500000  0.000000  1
  Zn  Zn17  1  0.500000  0.000000  0.500000  1
  Zn  Zn18  1  0.500000  0.500000  0.000000  1
  Zn  Zn19  1  0.336656  0.336656  0.336069  1
  Zn  Zn20  1  0.663344  0.663344  0.663931  1
  Zn  Zn21  1  0.336656  0.336656  0.990619  1
  Zn  Zn22  1  0.327865  0.992295  0.339920  1
  Zn  Zn23  1  0.663344  0.663344  0.009381  1
  Zn  Zn24  1  0.672135  0.007705  0.660080  1
  Zn  Zn25  1  0.992295  0.327865  0.339920  1
  Zn  Zn26  1  0.007705  0.672135  0.660080  1
  Si  Si27  1  0.500000  0.500000  0.500000  1
  Ni  Ni28  1  0.000000  0.000000  0.500000  1
  Rh  Rh29  1  0.000000  0.000000  0.000000  1
