# generated using pymatgen
data_Al3Sb16
_symmetry_space_group_name_H-M   'P 1'
_cell_length_a   4.36157342
_cell_length_b   4.34858689
_cell_length_c   34.86110600
_cell_angle_alpha   86.43390193
_cell_angle_beta   93.58655515
_cell_angle_gamma   120.09885702
_symmetry_Int_Tables_number   1
_chemical_formula_structural   Al3Sb16
_chemical_formula_sum   'Al3 Sb16'
_cell_volume   570.55990042
_cell_formula_units_Z   1
loop_
 _symmetry_equiv_pos_site_id
 _symmetry_equiv_pos_as_xyz
  1  'x, y, z'
loop_
 _atom_site_type_symbol
 _atom_site_label
 _atom_site_symmetry_multiplicity
 _atom_site_fract_x
 _atom_site_fract_y
 _atom_site_fract_z
 _atom_site_occupancy
  Al  Al0  1  0.000029  0.000049  0.000149  1
  Al  Al1  1  0.362172  0.638651  0.086404  1
  Al  Al2  1  0.638046  0.361756  0.913350  1
  Sb  Sb3  1  0.682379  0.318753  0.045516  1
  Sb  Sb4  1  0.048214  0.956065  0.139883  1
  Sb  Sb5  1  0.728120  0.272889  0.186611  1
  Sb  Sb6  1  0.420557  0.582231  0.253585  1
  Sb  Sb7  1  0.100508  0.900037  0.298521  1
  Sb  Sb8  1  0.790377  0.210917  0.366760  1
  Sb  Sb9  1  0.470353  0.529229  0.411088  1
  Sb  Sb10  1  0.159482  0.840915  0.477991  1
  Sb  Sb11  1  0.840290  0.158665  0.522082  1
  Sb  Sb12  1  0.529410  0.470334  0.588986  1
  Sb  Sb13  1  0.209393  0.788948  0.633277  1
  Sb  Sb14  1  0.899680  0.099941  0.701504  1
  Sb  Sb15  1  0.579425  0.417915  0.746459  1
  Sb  Sb16  1  0.272232  0.727195  0.813373  1
  Sb  Sb17  1  0.951709  0.044150  0.860147  1
  Sb  Sb18  1  0.317612  0.681357  0.954312  1
