# generated using pymatgen
data_Er23Tm(Co6Ir)2
_symmetry_space_group_name_H-M   'P 1'
_cell_length_a   11.16106202
_cell_length_b   8.24332696
_cell_length_c   10.96959400
_cell_angle_alpha   54.57799835
_cell_angle_beta   89.99680180
_cell_angle_gamma   90.04753706
_symmetry_Int_Tables_number   1
_chemical_formula_structural   Er23Tm(Co6Ir)2
_chemical_formula_sum   'Er23 Tm1 Co12 Ir2'
_cell_volume   822.44240687
_cell_formula_units_Z   1
loop_
 _symmetry_equiv_pos_site_id
 _symmetry_equiv_pos_as_xyz
  1  'x, y, z'
loop_
 _atom_site_type_symbol
 _atom_site_label
 _atom_site_symmetry_multiplicity
 _atom_site_fract_x
 _atom_site_fract_y
 _atom_site_fract_z
 _atom_site_occupancy
  Er  Er0  1  0.705774  0.236427  0.539313  1
  Er  Er1  1  0.205812  0.763956  0.960354  1
  Er  Er2  1  0.839806  0.503424  0.658631  1
  Er  Er3  1  0.339306  0.496351  0.841550  1
  Er  Er4  1  0.160482  0.496566  0.341340  1
  Er  Er5  1  0.660408  0.503687  0.158522  1
  Er  Er6  1  0.002492  0.838295  0.355527  1
  Er  Er7  1  0.502496  0.161890  0.144915  1
  Er  Er8  1  0.997788  0.161721  0.644170  1
  Er  Er9  1  0.497337  0.837651  0.855313  1
  Er  Er10  1  0.794356  0.236190  0.039943  1
  Er  Er11  1  0.294029  0.764017  0.460389  1
  Er  Er12  1  0.929770  0.767252  0.088438  1
  Er  Er13  1  0.428787  0.232380  0.412039  1
  Er  Er14  1  0.070639  0.231946  0.911973  1
  Er  Er15  1  0.570605  0.767945  0.587722  1
  Er  Er16  1  0.300505  0.243838  0.678354  1
  Er  Er17  1  0.800707  0.756266  0.821623  1
  Er  Er18  1  0.699300  0.756156  0.321357  1
  Er  Er19  1  0.199253  0.243348  0.178883  1
  Er  Er20  1  0.931281  0.258634  0.313059  1
  Er  Er21  1  0.430697  0.742009  0.186467  1
  Er  Er22  1  0.069282  0.741771  0.686937  1
  Tm  Tm23  1  0.569016  0.258485  0.813171  1
  Co  Co24  1  0.681592  0.907095  0.023629  1
  Co  Co25  1  0.180485  0.093427  0.475699  1
  Co  Co26  1  0.318466  0.092854  0.976173  1
  Co  Co27  1  0.819444  0.906934  0.523762  1
  Co  Co28  1  0.399237  0.494991  0.100074  1
  Co  Co29  1  0.899410  0.504606  0.400081  1
  Co  Co30  1  0.600448  0.504915  0.900197  1
  Co  Co31  1  0.100489  0.495369  0.600047  1
  Co  Co32  1  0.815724  0.101381  0.839139  1
  Co  Co33  1  0.313993  0.898526  0.661320  1
  Co  Co34  1  0.185091  0.897880  0.161751  1
  Co  Co35  1  0.685801  0.101663  0.338554  1
  Ir  Ir36  1  0.499673  0.500390  0.499495  1
  Ir  Ir37  1  0.000221  0.499762  0.000089  1
