# generated using pymatgen
data_BaTi(CuSe2)2
_symmetry_space_group_name_H-M   'P 1'
_cell_length_a   9.79387206
_cell_length_b   9.79387231
_cell_length_c   7.65984900
_cell_angle_alpha   90.00000000
_cell_angle_beta   90.00000000
_cell_angle_gamma   146.58668930
_symmetry_Int_Tables_number   1
_chemical_formula_structural   BaTi(CuSe2)2
_chemical_formula_sum   'Ba2 Ti2 Cu4 Se8'
_cell_volume   404.59841286
_cell_formula_units_Z   2
loop_
 _symmetry_equiv_pos_site_id
 _symmetry_equiv_pos_as_xyz
  1  'x, y, z'
loop_
 _atom_site_type_symbol
 _atom_site_label
 _atom_site_symmetry_multiplicity
 _atom_site_fract_x
 _atom_site_fract_y
 _atom_site_fract_z
 _atom_site_occupancy
  Ba  Ba0  1  0.442059  0.085568  0.250000  1
  Ba  Ba1  1  0.085568  0.442059  0.750000  1
  Ti  Ti2  1  0.610996  0.390262  0.750000  1
  Ti  Ti3  1  0.390262  0.610996  0.250000  1
  Cu  Cu4  1  0.109683  0.890860  0.750000  1
  Cu  Cu5  1  0.890860  0.109683  0.250000  1
  Cu  Cu6  1  0.518891  0.518891  0.500000  1
  Cu  Cu7  1  0.518891  0.518891  0.000000  1
  Se  Se8  1  0.256227  0.248279  0.750000  1
  Se  Se9  1  0.248279  0.256227  0.250000  1
  Se  Se10  1  0.468665  0.037224  0.750000  1
  Se  Se11  1  0.037224  0.468665  0.250000  1
  Se  Se12  1  0.634612  0.856185  0.991908  1
  Se  Se13  1  0.856185  0.634612  0.008092  1
  Se  Se14  1  0.634612  0.856185  0.508092  1
  Se  Se15  1  0.856185  0.634612  0.491908  1
