# generated using pymatgen
data_Ho2Er6Re3B24Ir
_symmetry_space_group_name_H-M   'P 1'
_cell_length_a   3.65475800
_cell_length_b   9.12832147
_cell_length_c   11.50581201
_cell_angle_alpha   90.12753634
_cell_angle_beta   90.00000000
_cell_angle_gamma   90.00000000
_symmetry_Int_Tables_number   1
_chemical_formula_structural   Ho2Er6Re3B24Ir
_chemical_formula_sum   'Ho2 Er6 Re3 B24 Ir1'
_cell_volume   383.85371619
_cell_formula_units_Z   1
loop_
 _symmetry_equiv_pos_site_id
 _symmetry_equiv_pos_as_xyz
  1  'x, y, z'
loop_
 _atom_site_type_symbol
 _atom_site_label
 _atom_site_symmetry_multiplicity
 _atom_site_fract_x
 _atom_site_fract_y
 _atom_site_fract_z
 _atom_site_occupancy
  Ho  Ho0  1  0.000000  0.318042  0.415498  1
  Ho  Ho1  1  0.000000  0.678764  0.591265  1
  Er  Er2  1  0.000000  0.826962  0.081188  1
  Er  Er3  1  0.000000  0.177201  0.912581  1
  Er  Er4  1  0.000000  0.944375  0.370519  1
  Er  Er5  1  0.000000  0.055774  0.628933  1
  Er  Er6  1  0.000000  0.441077  0.128116  1
  Er  Er7  1  0.000000  0.556579  0.871673  1
  Re  Re8  1  0.000000  0.362431  0.677705  1
  Re  Re9  1  0.000000  0.138259  0.179870  1
  Re  Re10  1  0.000000  0.861735  0.821110  1
  B  B11  1  0.500000  0.553943  0.433819  1
  B  B12  1  0.500000  0.446770  0.566546  1
  B  B13  1  0.500000  0.053167  0.066427  1
  B  B14  1  0.500000  0.947059  0.933049  1
  B  B15  1  0.500000  0.749584  0.420241  1
  B  B16  1  0.500000  0.250209  0.580925  1
  B  B17  1  0.500000  0.249278  0.080903  1
  B  B18  1  0.500000  0.751243  0.919215  1
  B  B19  1  0.500000  0.791576  0.265053  1
  B  B20  1  0.500000  0.208025  0.734321  1
  B  B21  1  0.500000  0.292036  0.235011  1
  B  B22  1  0.500000  0.707834  0.765893  1
  B  B23  1  0.500000  0.631768  0.184083  1
  B  B24  1  0.500000  0.369320  0.814416  1
  B  B25  1  0.500000  0.130919  0.314991  1
  B  B26  1  0.500000  0.868564  0.685383  1
  B  B27  1  0.500000  0.982502  0.212093  1
  B  B28  1  0.500000  0.017734  0.787111  1
  B  B29  1  0.500000  0.482690  0.287732  1
  B  B30  1  0.500000  0.518323  0.712501  1
  B  B31  1  0.500000  0.603567  0.029315  1
  B  B32  1  0.500000  0.397304  0.971889  1
  B  B33  1  0.500000  0.101974  0.471191  1
  B  B34  1  0.500000  0.895526  0.528259  1
  Ir  Ir35  1  0.000000  0.637888  0.321174  1
