# generated using pymatgen
data_K2RbSn4Au
_symmetry_space_group_name_H-M   'P 1'
_cell_length_a   6.74644800
_cell_length_b   7.00142900
_cell_length_c   12.84171400
_cell_angle_alpha   90.00000000
_cell_angle_beta   90.00000000
_cell_angle_gamma   90.00000000
_symmetry_Int_Tables_number   1
_chemical_formula_structural   K2RbSn4Au
_chemical_formula_sum   'K4 Rb2 Sn8 Au2'
_cell_volume   606.57549290
_cell_formula_units_Z   2
loop_
 _symmetry_equiv_pos_site_id
 _symmetry_equiv_pos_as_xyz
  1  'x, y, z'
loop_
 _atom_site_type_symbol
 _atom_site_label
 _atom_site_symmetry_multiplicity
 _atom_site_fract_x
 _atom_site_fract_y
 _atom_site_fract_z
 _atom_site_occupancy
  K  K0  1  0.828136  0.500000  0.746991  1
  K  K1  1  0.828136  0.500000  0.253009  1
  K  K2  1  0.171864  0.000000  0.753009  1
  K  K3  1  0.171864  0.000000  0.246991  1
  Rb  Rb4  1  0.558044  0.000000  0.000000  1
  Rb  Rb5  1  0.441956  0.500000  0.500000  1
  Sn  Sn6  1  0.330881  0.500000  0.878460  1
  Sn  Sn7  1  0.330881  0.500000  0.121540  1
  Sn  Sn8  1  0.041240  0.269466  0.000000  1
  Sn  Sn9  1  0.041240  0.730534  0.000000  1
  Sn  Sn10  1  0.958760  0.769466  0.500000  1
  Sn  Sn11  1  0.958760  0.230534  0.500000  1
  Sn  Sn12  1  0.669119  0.000000  0.378460  1
  Sn  Sn13  1  0.669119  0.000000  0.621540  1
  Au  Au14  1  0.688135  0.500000  0.000000  1
  Au  Au15  1  0.311865  0.000000  0.500000  1
