# generated using pymatgen
data_NdHo4Nb3(Co4P3)4
_symmetry_space_group_name_H-M   'P 1'
_cell_length_a   12.18760600
_cell_length_b   12.18760651
_cell_length_c   3.69661900
_cell_angle_alpha   90.00000000
_cell_angle_beta   90.00000000
_cell_angle_gamma   119.99999861
_symmetry_Int_Tables_number   1
_chemical_formula_structural   NdHo4Nb3(Co4P3)4
_chemical_formula_sum   'Nd1 Ho4 Nb3 Co16 P12'
_cell_volume   475.52369166
_cell_formula_units_Z   1
loop_
 _symmetry_equiv_pos_site_id
 _symmetry_equiv_pos_as_xyz
  1  'x, y, z'
loop_
 _atom_site_type_symbol
 _atom_site_label
 _atom_site_symmetry_multiplicity
 _atom_site_fract_x
 _atom_site_fract_y
 _atom_site_fract_z
 _atom_site_occupancy
  Nd  Nd0  1  0.333333  0.666667  0.000000  1
  Ho  Ho1  1  0.816546  0.999783  0.500000  1
  Ho  Ho2  1  0.000217  0.816763  0.500000  1
  Ho  Ho3  1  0.183237  0.183454  0.500000  1
  Ho  Ho4  1  0.666667  0.333333  0.000000  1
  Nb  Nb5  1  0.444818  0.001121  0.000000  1
  Nb  Nb6  1  0.998879  0.443697  0.000000  1
  Nb  Nb7  1  0.556303  0.555182  0.000000  1
  Co  Co8  1  0.278826  0.001590  0.500000  1
  Co  Co9  1  0.998410  0.277236  0.500000  1
  Co  Co10  1  0.722764  0.721174  0.500000  1
  Co  Co11  1  0.628823  0.804117  0.000000  1
  Co  Co12  1  0.195883  0.824706  0.000000  1
  Co  Co13  1  0.175294  0.371177  0.000000  1
  Co  Co14  1  0.373637  0.177426  0.000000  1
  Co  Co15  1  0.803789  0.626363  0.000000  1
  Co  Co16  1  0.822574  0.196211  0.000000  1
  Co  Co17  1  0.523327  0.876309  0.500000  1
  Co  Co18  1  0.123691  0.647017  0.500000  1
  Co  Co19  1  0.352983  0.476673  0.500000  1
  Co  Co20  1  0.481393  0.353653  0.500000  1
  Co  Co21  1  0.872259  0.518607  0.500000  1
  Co  Co22  1  0.646347  0.127741  0.500000  1
  Co  Co23  1  0.000000  0.000000  0.000000  1
  P  P24  1  0.178115  0.000973  0.000000  1
  P  P25  1  0.999027  0.177142  0.000000  1
  P  P26  1  0.822858  0.821885  0.000000  1
  P  P27  1  0.524736  0.689673  0.500000  1
  P  P28  1  0.310327  0.835062  0.500000  1
  P  P29  1  0.164938  0.475264  0.500000  1
  P  P30  1  0.479833  0.168699  0.500000  1
  P  P31  1  0.688865  0.520167  0.500000  1
  P  P32  1  0.831301  0.311135  0.500000  1
  P  P33  1  0.644282  0.999991  0.000000  1
  P  P34  1  0.000009  0.644292  0.000000  1
  P  P35  1  0.355708  0.355718  0.000000  1
