# generated using pymatgen
data_Th4Ti(Sn3Rh2)3
_symmetry_space_group_name_H-M   'P 1'
_cell_length_a   13.42918797
_cell_length_b   13.42918853
_cell_length_c   7.35763409
_cell_angle_alpha   90.53893740
_cell_angle_beta   89.46106260
_cell_angle_gamma   160.56081895
_symmetry_Int_Tables_number   1
_chemical_formula_structural   Th4Ti(Sn3Rh2)3
_chemical_formula_sum   'Th4 Ti1 Sn9 Rh6'
_cell_volume   441.57976693
_cell_formula_units_Z   1
loop_
 _symmetry_equiv_pos_site_id
 _symmetry_equiv_pos_as_xyz
  1  'x, y, z'
loop_
 _atom_site_type_symbol
 _atom_site_label
 _atom_site_symmetry_multiplicity
 _atom_site_fract_x
 _atom_site_fract_y
 _atom_site_fract_z
 _atom_site_occupancy
  Th  Th0  1  0.474375  0.525625  0.231101  1
  Th  Th1  1  0.173731  0.826269  0.261124  1
  Th  Th2  1  0.527754  0.472246  0.731956  1
  Th  Th3  1  0.827482  0.172518  0.758884  1
  Ti  Ti4  1  0.705088  0.294912  0.579040  1
  Sn  Sn5  1  0.598728  0.401272  0.104751  1
  Sn  Sn6  1  0.049340  0.950660  0.393595  1
  Sn  Sn7  1  0.951514  0.048486  0.891080  1
  Sn  Sn8  1  0.709784  0.290216  0.972166  1
  Sn  Sn9  1  0.282728  0.717272  0.482327  1
  Sn  Sn10  1  0.294558  0.705442  0.061716  1
  Sn  Sn11  1  0.874767  0.125233  0.235718  1
  Sn  Sn12  1  0.125205  0.874795  0.717145  1
  Sn  Sn13  1  0.402060  0.597940  0.606725  1
  Rh  Rh14  1  0.396020  0.603980  0.983770  1
  Rh  Rh15  1  0.769867  0.230133  0.282429  1
  Rh  Rh16  1  0.224053  0.775947  0.775562  1
  Rh  Rh17  1  0.052727  0.947273  0.007861  1
  Rh  Rh18  1  0.612313  0.387687  0.476972  1
  Rh  Rh19  1  0.947905  0.052095  0.509880  1
