# generated using pymatgen
data_Er2Zn2Ru2C
_symmetry_space_group_name_H-M   'P 1'
_cell_length_a   6.40400996
_cell_length_b   6.40401004
_cell_length_c   7.17590249
_cell_angle_alpha   130.26038787
_cell_angle_beta   130.26038862
_cell_angle_gamma   34.09189523
_symmetry_Int_Tables_number   1
_chemical_formula_structural   Er2Zn2Ru2C
_chemical_formula_sum   'Er2 Zn2 Ru2 C1'
_cell_volume   121.56421633
_cell_formula_units_Z   1
loop_
 _symmetry_equiv_pos_site_id
 _symmetry_equiv_pos_as_xyz
  1  'x, y, z'
loop_
 _atom_site_type_symbol
 _atom_site_label
 _atom_site_symmetry_multiplicity
 _atom_site_fract_x
 _atom_site_fract_y
 _atom_site_fract_z
 _atom_site_occupancy
  Er  Er0  1  0.433622  0.433622  0.150555  1
  Er  Er1  1  0.566378  0.566378  0.849445  1
  Zn  Zn2  1  0.865328  0.865328  0.392961  1
  Zn  Zn3  1  0.134673  0.134673  0.607040  1
  Ru  Ru4  1  0.194182  0.194182  0.317382  1
  Ru  Ru5  1  0.805818  0.805818  0.682618  1
  C  C6  1  0.000000  0.000000  0.000000  1
