# generated using pymatgen
data_Na6Sr2Zn3Si12Pd
_symmetry_space_group_name_H-M   'P 1'
_cell_length_a   8.19097200
_cell_length_b   8.19097264
_cell_length_c   9.26815800
_cell_angle_alpha   90.00000000
_cell_angle_beta   90.00000000
_cell_angle_gamma   120.00000548
_symmetry_Int_Tables_number   1
_chemical_formula_structural   Na6Sr2Zn3Si12Pd
_chemical_formula_sum   'Na6 Sr2 Zn3 Si12 Pd1'
_cell_volume   538.51146438
_cell_formula_units_Z   1
loop_
 _symmetry_equiv_pos_site_id
 _symmetry_equiv_pos_as_xyz
  1  'x, y, z'
loop_
 _atom_site_type_symbol
 _atom_site_label
 _atom_site_symmetry_multiplicity
 _atom_site_fract_x
 _atom_site_fract_y
 _atom_site_fract_z
 _atom_site_occupancy
  Na  Na0  1  0.502340  0.497660  0.744655  1
  Na  Na1  1  0.502951  0.497049  0.255323  1
  Na  Na2  1  0.995320  0.497660  0.744655  1
  Na  Na3  1  0.994096  0.497049  0.255323  1
  Na  Na4  1  0.502340  0.004680  0.744655  1
  Na  Na5  1  0.502951  0.005904  0.255323  1
  Sr  Sr6  1  0.000000  0.000000  0.749521  1
  Sr  Sr7  1  0.000000  0.000000  0.250583  1
  Zn  Zn8  1  0.666667  0.333333  0.998325  1
  Zn  Zn9  1  0.333333  0.666667  0.001193  1
  Zn  Zn10  1  0.333333  0.666667  0.499364  1
  Si  Si11  1  0.835297  0.164703  0.000383  1
  Si  Si12  1  0.164997  0.835003  0.999728  1
  Si  Si13  1  0.329406  0.164703  0.000383  1
  Si  Si14  1  0.162858  0.837142  0.499922  1
  Si  Si15  1  0.670004  0.835003  0.999728  1
  Si  Si16  1  0.831692  0.168308  0.500152  1
  Si  Si17  1  0.835297  0.670594  0.000383  1
  Si  Si18  1  0.674286  0.837142  0.499922  1
  Si  Si19  1  0.164997  0.329996  0.999728  1
  Si  Si20  1  0.336615  0.168308  0.500152  1
  Si  Si21  1  0.162858  0.325714  0.499922  1
  Si  Si22  1  0.831692  0.663385  0.500152  1
  Pd  Pd23  1  0.666667  0.333333  0.500527  1
