# generated using pymatgen
data_Dy12GaNi4Sn
_symmetry_space_group_name_H-M   'P 1'
_cell_length_a   8.36558823
_cell_length_b   8.36558888
_cell_length_c   8.36558830
_cell_angle_alpha   109.61871943
_cell_angle_beta   106.18019890
_cell_angle_gamma   112.67984259
_symmetry_Int_Tables_number   1
_chemical_formula_structural   Dy12GaNi4Sn
_chemical_formula_sum   'Dy12 Ga1 Ni4 Sn1'
_cell_volume   449.23089553
_cell_formula_units_Z   1
loop_
 _symmetry_equiv_pos_site_id
 _symmetry_equiv_pos_as_xyz
  1  'x, y, z'
loop_
 _atom_site_type_symbol
 _atom_site_label
 _atom_site_symmetry_multiplicity
 _atom_site_fract_x
 _atom_site_fract_y
 _atom_site_fract_z
 _atom_site_occupancy
  Dy  Dy0  1  0.730574  0.302910  0.033486  1
  Dy  Dy1  1  0.785947  0.965845  0.179899  1
  Dy  Dy2  1  0.214053  0.393952  0.179899  1
  Dy  Dy3  1  0.133554  0.810197  0.323357  1
  Dy  Dy4  1  0.513159  0.189803  0.323357  1
  Dy  Dy5  1  0.730574  0.697089  0.427664  1
  Dy  Dy6  1  0.269427  0.302910  0.572337  1
  Dy  Dy7  1  0.486841  0.810197  0.676643  1
  Dy  Dy8  1  0.866446  0.189803  0.676643  1
  Dy  Dy9  1  0.785947  0.606047  0.820100  1
  Dy  Dy10  1  0.214053  0.034154  0.820100  1
  Dy  Dy11  1  0.269427  0.697089  0.966515  1
  Ga  Ga12  1  0.500000  0.500000  0.000000  1
  Ni  Ni13  1  0.121408  0.000000  0.121408  1
  Ni  Ni14  1  0.500000  0.849109  0.349109  1
  Ni  Ni15  1  0.500000  0.150891  0.650891  1
  Ni  Ni16  1  0.878592  0.000000  0.878592  1
  Sn  Sn17  1  0.000000  0.500000  0.500000  1
