# generated using pymatgen
data_K40YIn7O32
_symmetry_space_group_name_H-M   'P 1'
_cell_length_a   6.80046500
_cell_length_b   11.82038300
_cell_length_c   20.71098900
_cell_angle_alpha   90.00000000
_cell_angle_beta   90.00000000
_cell_angle_gamma   90.00000000
_symmetry_Int_Tables_number   1
_chemical_formula_structural   K40YIn7O32
_chemical_formula_sum   'K40 Y1 In7 O32'
_cell_volume   1664.83422906
_cell_formula_units_Z   1
loop_
 _symmetry_equiv_pos_site_id
 _symmetry_equiv_pos_as_xyz
  1  'x, y, z'
loop_
 _atom_site_type_symbol
 _atom_site_label
 _atom_site_symmetry_multiplicity
 _atom_site_fract_x
 _atom_site_fract_y
 _atom_site_fract_z
 _atom_site_occupancy
  K  K0  1  0.910253  0.932711  0.435205  1
  K  K1  1  0.595575  0.928933  0.935881  1
  K  K2  1  0.395218  0.913875  0.747910  1
  K  K3  1  0.106628  0.916396  0.249998  1
  K  K4  1  0.091042  0.836311  0.004423  1
  K  K5  1  0.409667  0.839748  0.502644  1
  K  K6  1  0.605458  0.826885  0.326741  1
  K  K7  1  0.891436  0.823558  0.825800  1
  K  K8  1  0.420715  0.801007  0.138578  1
  K  K9  1  0.079286  0.800769  0.638015  1
  K  K10  1  0.919696  0.698779  0.138730  1
  K  K11  1  0.579978  0.698504  0.637955  1
  K  K12  1  0.105553  0.673119  0.326751  1
  K  K13  1  0.394895  0.671898  0.826409  1
  K  K14  1  0.588837  0.659878  0.002704  1
  K  K15  1  0.909817  0.659987  0.502700  1
  K  K16  1  0.606522  0.583544  0.250012  1
  K  K17  1  0.893925  0.582807  0.749749  1
  K  K18  1  0.091728  0.569042  0.935055  1
  K  K19  1  0.410162  0.567277  0.435255  1
  K  K20  1  0.910846  0.433774  0.064609  1
  K  K21  1  0.589865  0.432716  0.564560  1
  K  K22  1  0.106426  0.416511  0.250077  1
  K  K23  1  0.393683  0.415645  0.749830  1
  K  K24  1  0.409251  0.340622  0.997738  1
  K  K25  1  0.090222  0.339959  0.497036  1
  K  K26  1  0.895502  0.327121  0.673149  1
  K  K27  1  0.605552  0.327030  0.173354  1
  K  K28  1  0.420177  0.301097  0.361582  1
  K  K29  1  0.080213  0.304877  0.861451  1
  K  K30  1  0.920295  0.198951  0.361586  1
  K  K31  1  0.584532  0.201722  0.861818  1
  K  K32  1  0.394210  0.173609  0.672256  1
  K  K33  1  0.106053  0.173091  0.173334  1
  K  K34  1  0.590446  0.160227  0.496915  1
  K  K35  1  0.903795  0.163474  0.999556  1
  K  K36  1  0.606670  0.083575  0.250126  1
  K  K37  1  0.887941  0.084950  0.748426  1
  K  K38  1  0.090583  0.067251  0.564572  1
  K  K39  1  0.410077  0.067564  0.065422  1
  Y  Y40  1  0.177069  0.037841  0.877187  1
  In  In41  1  0.823245  0.962572  0.123427  1
  In  In42  1  0.677341  0.962538  0.622634  1
  In  In43  1  0.322952  0.537288  0.123469  1
  In  In44  1  0.176866  0.537529  0.622938  1
  In  In45  1  0.676980  0.463070  0.876915  1
  In  In46  1  0.822924  0.462682  0.376801  1
  In  In47  1  0.322947  0.037326  0.376803  1
  O  O48  1  0.130883  0.953500  0.120085  1
  O  O49  1  0.369631  0.953440  0.619394  1
  O  O50  1  0.767598  0.880205  0.709403  1
  O  O51  1  0.732441  0.880176  0.210021  1
  O  O52  1  0.700827  0.866894  0.048256  1
  O  O53  1  0.800930  0.867593  0.547446  1
  O  O54  1  0.239511  0.864779  0.375276  1
  O  O55  1  0.259856  0.860287  0.876586  1
  O  O56  1  0.761197  0.635042  0.875345  1
  O  O57  1  0.739488  0.635218  0.375267  1
  O  O58  1  0.199063  0.631480  0.048011  1
  O  O59  1  0.300360  0.632296  0.547508  1
  O  O60  1  0.232824  0.620062  0.210003  1
  O  O61  1  0.267096  0.620059  0.709457  1
  O  O62  1  0.630786  0.545782  0.119777  1
  O  O63  1  0.868907  0.545885  0.619701  1
  O  O64  1  0.369449  0.454109  0.880047  1
  O  O65  1  0.130806  0.454225  0.380284  1
  O  O66  1  0.732550  0.380204  0.290231  1
  O  O67  1  0.767948  0.380766  0.790157  1
  O  O68  1  0.801526  0.368581  0.952205  1
  O  O69  1  0.699486  0.368007  0.452276  1
  O  O70  1  0.260242  0.365201  0.624255  1
  O  O71  1  0.238813  0.365088  0.125369  1
  O  O72  1  0.761112  0.135005  0.624281  1
  O  O73  1  0.740590  0.135276  0.125212  1
  O  O74  1  0.199576  0.131999  0.452293  1
  O  O75  1  0.300095  0.135250  0.954557  1
  O  O76  1  0.232695  0.119823  0.290232  1
  O  O77  1  0.266344  0.121533  0.788843  1
  O  O78  1  0.630845  0.045808  0.380290  1
  O  O79  1  0.863470  0.046788  0.879846  1
