# generated using pymatgen
data_Li3SiPt
_symmetry_space_group_name_H-M   'P 1'
_cell_length_a   6.57275500
_cell_length_b   6.57275500
_cell_length_c   6.57275500
_cell_angle_alpha   90.00000000
_cell_angle_beta   90.00000000
_cell_angle_gamma   90.00000000
_symmetry_Int_Tables_number   1
_chemical_formula_structural   Li3SiPt
_chemical_formula_sum   'Li12 Si4 Pt4'
_cell_volume   283.95030052
_cell_formula_units_Z   4
loop_
 _symmetry_equiv_pos_site_id
 _symmetry_equiv_pos_as_xyz
  1  'x, y, z'
loop_
 _atom_site_type_symbol
 _atom_site_label
 _atom_site_symmetry_multiplicity
 _atom_site_fract_x
 _atom_site_fract_y
 _atom_site_fract_z
 _atom_site_occupancy
  Li  Li0  1  0.124722  0.200918  0.454429  1
  Li  Li1  1  0.375278  0.799082  0.954429  1
  Li  Li2  1  0.875278  0.700918  0.045571  1
  Li  Li3  1  0.454429  0.124722  0.200918  1
  Li  Li4  1  0.624722  0.299082  0.545571  1
  Li  Li5  1  0.954429  0.375278  0.799082  1
  Li  Li6  1  0.045571  0.875278  0.700918  1
  Li  Li7  1  0.545571  0.624722  0.299082  1
  Li  Li8  1  0.200918  0.454429  0.124722  1
  Li  Li9  1  0.700918  0.045571  0.875278  1
  Li  Li10  1  0.299082  0.545571  0.624722  1
  Li  Li11  1  0.799082  0.954429  0.375278  1
  Si  Si12  1  0.065520  0.065520  0.065520  1
  Si  Si13  1  0.434480  0.934480  0.565520  1
  Si  Si14  1  0.934480  0.565520  0.434480  1
  Si  Si15  1  0.565520  0.434480  0.934480  1
  Pt  Pt16  1  0.681467  0.681467  0.681467  1
  Pt  Pt17  1  0.818533  0.318533  0.181467  1
  Pt  Pt18  1  0.318533  0.181467  0.818533  1
  Pt  Pt19  1  0.181467  0.818533  0.318533  1
