# generated using pymatgen
data_TbYbEu2(ReB4)4
_symmetry_space_group_name_H-M   'P 1'
_cell_length_a   3.62113300
_cell_length_b   6.03942726
_cell_length_c   11.68411060
_cell_angle_alpha   89.83015022
_cell_angle_beta   90.00000000
_cell_angle_gamma   90.00000000
_symmetry_Int_Tables_number   1
_chemical_formula_structural   TbYbEu2(ReB4)4
_chemical_formula_sum   'Tb1 Yb1 Eu2 Re4 B16'
_cell_volume   255.52534430
_cell_formula_units_Z   1
loop_
 _symmetry_equiv_pos_site_id
 _symmetry_equiv_pos_as_xyz
  1  'x, y, z'
loop_
 _atom_site_type_symbol
 _atom_site_label
 _atom_site_symmetry_multiplicity
 _atom_site_fract_x
 _atom_site_fract_y
 _atom_site_fract_z
 _atom_site_occupancy
  Tb  Tb0  1  0.500000  0.127011  0.649646  1
  Yb  Yb1  1  0.500000  0.872546  0.349747  1
  Eu  Eu2  1  0.500000  0.372808  0.151176  1
  Eu  Eu3  1  0.500000  0.626463  0.849834  1
  Re  Re4  1  0.500000  0.368019  0.416578  1
  Re  Re5  1  0.500000  0.630750  0.583858  1
  Re  Re6  1  0.500000  0.128975  0.914477  1
  Re  Re7  1  0.500000  0.870079  0.085785  1
  B  B8  1  0.000000  0.112543  0.047022  1
  B  B9  1  0.000000  0.887263  0.953282  1
  B  B10  1  0.000000  0.387540  0.546366  1
  B  B11  1  0.000000  0.615267  0.452290  1
  B  B12  1  0.000000  0.136522  0.467765  1
  B  B13  1  0.000000  0.863651  0.530790  1
  B  B14  1  0.000000  0.362349  0.967982  1
  B  B15  1  0.000000  0.637822  0.032666  1
  B  B16  1  0.000000  0.023145  0.192599  1
  B  B17  1  0.000000  0.976078  0.807978  1
  B  B18  1  0.000000  0.474924  0.690565  1
  B  B19  1  0.000000  0.525196  0.309412  1
  B  B20  1  0.000000  0.216206  0.316414  1
  B  B21  1  0.000000  0.784077  0.683163  1
  B  B22  1  0.000000  0.282899  0.814843  1
  B  B23  1  0.000000  0.717865  0.185764  1
