# generated using pymatgen
data_LiPrCr2O8
_symmetry_space_group_name_H-M   'P 1'
_cell_length_a   6.09603006
_cell_length_b   6.09603015
_cell_length_c   6.09603058
_cell_angle_alpha   105.79116021
_cell_angle_beta   105.79116033
_cell_angle_gamma   117.11233418
_symmetry_Int_Tables_number   1
_chemical_formula_structural   LiPrCr2O8
_chemical_formula_sum   'Li1 Pr1 Cr2 O8'
_cell_volume   172.03376092
_cell_formula_units_Z   1
loop_
 _symmetry_equiv_pos_site_id
 _symmetry_equiv_pos_as_xyz
  1  'x, y, z'
loop_
 _atom_site_type_symbol
 _atom_site_label
 _atom_site_symmetry_multiplicity
 _atom_site_fract_x
 _atom_site_fract_y
 _atom_site_fract_z
 _atom_site_occupancy
  Li  Li0  1  0.000000  0.000000  0.000000  1
  Pr  Pr1  1  0.250000  0.750000  0.500000  1
  Cr  Cr2  1  0.750000  0.250000  0.500000  1
  Cr  Cr3  1  0.500000  0.500000  0.000000  1
  O  O4  1  0.343078  0.523587  0.180509  1
  O  O5  1  0.409484  0.088011  0.321474  1
  O  O6  1  0.766537  0.088011  0.678526  1
  O  O7  1  0.343078  0.162567  0.819491  1
  O  O8  1  0.837433  0.656922  0.180509  1
  O  O9  1  0.911989  0.233463  0.321474  1
  O  O10  1  0.911989  0.590516  0.678526  1
  O  O11  1  0.476413  0.656922  0.819491  1
