# generated using pymatgen
data_Tb6MnAl(Fe2Os3)2
_symmetry_space_group_name_H-M   'P 1'
_cell_length_a   5.31072176
_cell_length_b   5.29997846
_cell_length_c   13.01492032
_cell_angle_alpha   89.66134452
_cell_angle_beta   89.97405895
_cell_angle_gamma   119.64805858
_symmetry_Int_Tables_number   1
_chemical_formula_structural   Tb6MnAl(Fe2Os3)2
_chemical_formula_sum   'Tb6 Mn1 Al1 Fe4 Os6'
_cell_volume   318.35979447
_cell_formula_units_Z   1
loop_
 _symmetry_equiv_pos_site_id
 _symmetry_equiv_pos_as_xyz
  1  'x, y, z'
loop_
 _atom_site_type_symbol
 _atom_site_label
 _atom_site_symmetry_multiplicity
 _atom_site_fract_x
 _atom_site_fract_y
 _atom_site_fract_z
 _atom_site_occupancy
  Tb  Tb0  1  0.340265  0.673089  0.921382  1
  Tb  Tb1  1  0.995838  0.995815  0.250309  1
  Tb  Tb2  1  0.671295  0.336770  0.581151  1
  Tb  Tb3  1  0.325445  0.660585  0.663544  1
  Tb  Tb4  1  0.002957  0.002901  0.002660  1
  Tb  Tb5  1  0.661956  0.327421  0.330558  1
  Mn  Mn6  1  0.670168  0.835353  0.458864  1
  Al  Al7  1  0.332957  0.166401  0.792382  1
  Fe  Fe8  1  0.498700  0.498956  0.125928  1
  Fe  Fe9  1  0.168921  0.837172  0.458304  1
  Fe  Fe10  1  0.832827  0.164475  0.791576  1
  Fe  Fe11  1  0.498638  0.998761  0.126111  1
  Os  Os12  1  0.169112  0.336415  0.456432  1
  Os  Os13  1  0.832700  0.667693  0.791561  1
  Os  Os14  1  0.328947  0.661916  0.292144  1
  Os  Os15  1  0.000411  0.999453  0.623677  1
  Os  Os16  1  0.670832  0.337985  0.958560  1
  Os  Os17  1  0.998031  0.498839  0.124856  1
