# generated using pymatgen
data_NiSn16Pt3
_symmetry_space_group_name_H-M   'P 1'
_cell_length_a   12.75184840
_cell_length_b   12.75184844
_cell_length_c   12.75035220
_cell_angle_alpha   150.80812426
_cell_angle_beta   150.80812220
_cell_angle_gamma   41.77408012
_symmetry_Int_Tables_number   1
_chemical_formula_structural   NiSn16Pt3
_chemical_formula_sum   'Ni1 Sn16 Pt3'
_cell_volume   492.05248663
_cell_formula_units_Z   1
loop_
 _symmetry_equiv_pos_site_id
 _symmetry_equiv_pos_as_xyz
  1  'x, y, z'
loop_
 _atom_site_type_symbol
 _atom_site_label
 _atom_site_symmetry_multiplicity
 _atom_site_fract_x
 _atom_site_fract_y
 _atom_site_fract_z
 _atom_site_occupancy
  Ni  Ni0  1  0.500000  0.000000  0.500000  1
  Sn  Sn1  1  0.986151  0.485617  0.843237  1
  Sn  Sn2  1  0.357085  0.857621  0.843237  1
  Sn  Sn3  1  0.014383  0.513849  0.156763  1
  Sn  Sn4  1  0.267286  0.617262  0.010176  1
  Sn  Sn5  1  0.118803  0.106326  0.349633  1
  Sn  Sn6  1  0.857293  0.014054  0.499440  1
  Sn  Sn7  1  0.514614  0.357853  0.500560  1
  Sn  Sn8  1  0.142147  0.985386  0.499440  1
  Sn  Sn9  1  0.485946  0.642707  0.500560  1
  Sn  Sn10  1  0.730830  0.743308  0.349633  1
  Sn  Sn11  1  0.393674  0.381197  0.650367  1
  Sn  Sn12  1  0.756692  0.769170  0.650367  1
  Sn  Sn13  1  0.642379  0.142915  0.156763  1
  Sn  Sn14  1  0.882738  0.232714  0.989824  1
  Sn  Sn15  1  0.242889  0.892914  0.010176  1
  Sn  Sn16  1  0.607086  0.257111  0.989824  1
  Pt  Pt17  1  0.750000  0.750000  0.000000  1
  Pt  Pt18  1  0.250000  0.250000  0.000000  1
  Pt  Pt19  1  0.000000  0.500000  0.500000  1
