# generated using pymatgen
data_Eu3Tl3Ag2Pt
_symmetry_space_group_name_H-M   'P 1'
_cell_length_a   8.23556500
_cell_length_b   8.23556431
_cell_length_c   4.14677700
_cell_angle_alpha   90.00000000
_cell_angle_beta   90.00000000
_cell_angle_gamma   119.99999874
_symmetry_Int_Tables_number   1
_chemical_formula_structural   Eu3Tl3Ag2Pt
_chemical_formula_sum   'Eu3 Tl3 Ag2 Pt1'
_cell_volume   243.57240289
_cell_formula_units_Z   1
loop_
 _symmetry_equiv_pos_site_id
 _symmetry_equiv_pos_as_xyz
  1  'x, y, z'
loop_
 _atom_site_type_symbol
 _atom_site_label
 _atom_site_symmetry_multiplicity
 _atom_site_fract_x
 _atom_site_fract_y
 _atom_site_fract_z
 _atom_site_occupancy
  Eu  Eu0  1  0.393780  0.974643  0.000000  1
  Eu  Eu1  1  0.025357  0.419136  0.000000  1
  Eu  Eu2  1  0.580864  0.606220  0.000000  1
  Tl  Tl3  1  0.736084  0.003467  0.500000  1
  Tl  Tl4  1  0.267383  0.263916  0.500000  1
  Tl  Tl5  1  0.996533  0.732616  0.500000  1
  Ag  Ag6  1  0.000000  0.000000  0.000000  1
  Ag  Ag7  1  0.666667  0.333334  0.500000  1
  Pt  Pt8  1  0.333333  0.666667  0.500000  1
