# generated using pymatgen
data_Hf6Re5Ge6Ru
_symmetry_space_group_name_H-M   'P 1'
_cell_length_a   7.87067966
_cell_length_b   7.86770223
_cell_length_c   7.86665515
_cell_angle_alpha   126.52799376
_cell_angle_beta   128.12376268
_cell_angle_gamma   77.67093595
_symmetry_Int_Tables_number   1
_chemical_formula_structural   Hf6Re5Ge6Ru
_chemical_formula_sum   'Hf6 Re5 Ge6 Ru1'
_cell_volume   298.67245763
_cell_formula_units_Z   1
loop_
 _symmetry_equiv_pos_site_id
 _symmetry_equiv_pos_as_xyz
  1  'x, y, z'
loop_
 _atom_site_type_symbol
 _atom_site_label
 _atom_site_symmetry_multiplicity
 _atom_site_fract_x
 _atom_site_fract_y
 _atom_site_fract_z
 _atom_site_occupancy
  Hf  Hf0  1  0.549851  0.089311  0.041906  1
  Hf  Hf1  1  0.450296  0.496748  0.549254  1
  Hf  Hf2  1  0.947555  0.496673  0.046358  1
  Hf  Hf3  1  0.047383  0.089498  0.539517  1
  Hf  Hf4  1  0.754355  0.904622  0.654018  1
  Hf  Hf5  1  0.250562  0.904539  0.150134  1
  Re  Re6  1  0.499777  0.240027  0.740110  1
  Re  Re7  1  0.000258  0.239426  0.238780  1
  Re  Re8  1  0.129291  0.754219  0.625554  1
  Re  Re9  1  0.870881  0.496356  0.626106  1
  Re  Re10  1  0.628074  0.753365  0.124977  1
  Ge  Ge11  1  0.747615  0.496837  0.248473  1
  Ge  Ge12  1  0.248225  0.496696  0.749100  1
  Ge  Ge13  1  0.333902  0.826983  0.493109  1
  Ge  Ge14  1  0.667891  0.164908  0.497224  1
  Ge  Ge15  1  0.833866  0.827720  0.993864  1
  Ge  Ge16  1  0.169416  0.167265  0.997910  1
  Ru  Ru17  1  0.370803  0.496808  0.125608  1
