# generated using pymatgen
data_CaSmRe7Si4W
_symmetry_space_group_name_H-M   'P 1'
_cell_length_a   7.75197439
_cell_length_b   7.11152781
_cell_length_c   4.20746400
_cell_angle_alpha   90.00000000
_cell_angle_beta   90.00000000
_cell_angle_gamma   90.30280694
_symmetry_Int_Tables_number   1
_chemical_formula_structural   CaSmRe7Si4W
_chemical_formula_sum   'Ca1 Sm1 Re7 Si4 W1'
_cell_volume   231.94744100
_cell_formula_units_Z   1
loop_
 _symmetry_equiv_pos_site_id
 _symmetry_equiv_pos_as_xyz
  1  'x, y, z'
loop_
 _atom_site_type_symbol
 _atom_site_label
 _atom_site_symmetry_multiplicity
 _atom_site_fract_x
 _atom_site_fract_y
 _atom_site_fract_z
 _atom_site_occupancy
  Ca  Ca0  1  0.501484  0.499675  0.000000  1
  Sm  Sm1  1  0.000014  0.001495  0.500000  1
  Re  Re2  1  0.608871  0.154285  0.500000  1
  Re  Re3  1  0.392236  0.843771  0.500000  1
  Re  Re4  1  0.889985  0.657133  0.000000  1
  Re  Re5  1  0.159939  0.582518  0.500000  1
  Re  Re6  1  0.836834  0.417513  0.500000  1
  Re  Re7  1  0.342253  0.080313  0.000000  1
  Re  Re8  1  0.659092  0.917178  0.000000  1
  Si  Si9  1  0.689725  0.722756  0.500000  1
  Si  Si10  1  0.312872  0.276664  0.500000  1
  Si  Si11  1  0.193049  0.772404  0.000000  1
  Si  Si12  1  0.804002  0.225632  0.000000  1
  W  W13  1  0.109645  0.348665  0.000000  1
