# generated using pymatgen
data_Th3Mg5(B6Ru)4
_symmetry_space_group_name_H-M   'P 1'
_cell_length_a   3.63403200
_cell_length_b   8.97787668
_cell_length_c   11.37197572
_cell_angle_alpha   89.96014980
_cell_angle_beta   90.00000000
_cell_angle_gamma   90.00000000
_symmetry_Int_Tables_number   1
_chemical_formula_structural   Th3Mg5(B6Ru)4
_chemical_formula_sum   'Th3 Mg5 B24 Ru4'
_cell_volume   371.02075243
_cell_formula_units_Z   1
loop_
 _symmetry_equiv_pos_site_id
 _symmetry_equiv_pos_as_xyz
  1  'x, y, z'
loop_
 _atom_site_type_symbol
 _atom_site_label
 _atom_site_symmetry_multiplicity
 _atom_site_fract_x
 _atom_site_fract_y
 _atom_site_fract_z
 _atom_site_occupancy
  Th  Th0  1  0.000000  0.318556  0.415142  1
  Th  Th1  1  0.000000  0.679572  0.588443  1
  Th  Th2  1  0.000000  0.823759  0.083607  1
  Mg  Mg3  1  0.000000  0.176804  0.912004  1
  Mg  Mg4  1  0.000000  0.948532  0.377852  1
  Mg  Mg5  1  0.000000  0.054538  0.626039  1
  Mg  Mg6  1  0.000000  0.442832  0.122469  1
  Mg  Mg7  1  0.000000  0.552594  0.874806  1
  B  B8  1  0.500000  0.557834  0.429176  1
  B  B9  1  0.500000  0.441711  0.572593  1
  B  B10  1  0.500000  0.058901  0.065537  1
  B  B11  1  0.500000  0.946485  0.929892  1
  B  B12  1  0.500000  0.756185  0.416894  1
  B  B13  1  0.500000  0.243450  0.586288  1
  B  B14  1  0.500000  0.254903  0.076792  1
  B  B15  1  0.500000  0.746616  0.916464  1
  B  B16  1  0.500000  0.792994  0.264461  1
  B  B17  1  0.500000  0.205074  0.739933  1
  B  B18  1  0.500000  0.292035  0.232486  1
  B  B19  1  0.500000  0.708369  0.766396  1
  B  B20  1  0.500000  0.627000  0.181931  1
  B  B21  1  0.500000  0.368796  0.821634  1
  B  B22  1  0.500000  0.127153  0.315717  1
  B  B23  1  0.500000  0.874731  0.684372  1
  B  B24  1  0.500000  0.985035  0.212283  1
  B  B25  1  0.500000  0.020933  0.787464  1
  B  B26  1  0.500000  0.483001  0.284039  1
  B  B27  1  0.500000  0.514951  0.717292  1
  B  B28  1  0.500000  0.591683  0.024522  1
  B  B29  1  0.500000  0.402967  0.973689  1
  B  B30  1  0.500000  0.095581  0.474133  1
  B  B31  1  0.500000  0.903955  0.526264  1
  Ru  Ru32  1  0.000000  0.641647  0.316500  1
  Ru  Ru33  1  0.000000  0.357469  0.686026  1
  Ru  Ru34  1  0.000000  0.143477  0.178412  1
  Ru  Ru35  1  0.000000  0.859877  0.818450  1
