# generated using pymatgen
data_Tb3YReRuC4
_symmetry_space_group_name_H-M   'P 1'
_cell_length_a   5.13922700
_cell_length_b   6.54931300
_cell_length_c   9.88089400
_cell_angle_alpha   90.00000000
_cell_angle_beta   90.00000000
_cell_angle_gamma   90.00000000
_symmetry_Int_Tables_number   1
_chemical_formula_structural   Tb3YReRuC4
_chemical_formula_sum   'Tb6 Y2 Re2 Ru2 C8'
_cell_volume   332.57514388
_cell_formula_units_Z   2
loop_
 _symmetry_equiv_pos_site_id
 _symmetry_equiv_pos_as_xyz
  1  'x, y, z'
loop_
 _atom_site_type_symbol
 _atom_site_label
 _atom_site_symmetry_multiplicity
 _atom_site_fract_x
 _atom_site_fract_y
 _atom_site_fract_z
 _atom_site_occupancy
  Tb  Tb0  1  0.750000  0.317532  0.443759  1
  Tb  Tb1  1  0.250000  0.182468  0.943759  1
  Tb  Tb2  1  0.750000  0.468978  0.784630  1
  Tb  Tb3  1  0.250000  0.031022  0.284630  1
  Tb  Tb4  1  0.750000  0.970861  0.714856  1
  Tb  Tb5  1  0.250000  0.529139  0.214856  1
  Y  Y6  1  0.750000  0.822471  0.054323  1
  Y  Y7  1  0.250000  0.677529  0.554323  1
  Re  Re8  1  0.750000  0.777108  0.363857  1
  Re  Re9  1  0.250000  0.722892  0.863857  1
  Ru  Ru10  1  0.750000  0.276277  0.135217  1
  Ru  Ru11  1  0.250000  0.223723  0.635217  1
  C  C12  1  0.750000  0.177662  0.951183  1
  C  C13  1  0.250000  0.820753  0.049522  1
  C  C14  1  0.750000  0.679247  0.549522  1
  C  C15  1  0.250000  0.322338  0.451183  1
  C  C16  1  0.750000  0.041946  0.259895  1
  C  C17  1  0.250000  0.458054  0.759895  1
  C  C18  1  0.750000  0.543427  0.242760  1
  C  C19  1  0.250000  0.956573  0.742760  1
