# generated using pymatgen
data_Na2Er(B3Rh4)2
_symmetry_space_group_name_H-M   'P 1'
_cell_length_a   9.78510795
_cell_length_b   8.93085483
_cell_length_c   5.59297590
_cell_angle_alpha   81.19424679
_cell_angle_beta   64.41434418
_cell_angle_gamma   34.39140852
_symmetry_Int_Tables_number   1
_chemical_formula_structural   Na2Er(B3Rh4)2
_chemical_formula_sum   'Na2 Er1 B6 Rh8'
_cell_volume   228.32244439
_cell_formula_units_Z   1
loop_
 _symmetry_equiv_pos_site_id
 _symmetry_equiv_pos_as_xyz
  1  'x, y, z'
loop_
 _atom_site_type_symbol
 _atom_site_label
 _atom_site_symmetry_multiplicity
 _atom_site_fract_x
 _atom_site_fract_y
 _atom_site_fract_z
 _atom_site_occupancy
  Na  Na0  1  0.311872  0.311872  0.688128  1
  Na  Na1  1  0.688128  0.688128  0.311872  1
  Er  Er2  1  0.500000  0.500000  0.500000  1
  B  B3  1  0.667406  0.988406  0.011594  1
  B  B4  1  0.988406  0.667406  0.332594  1
  B  B5  1  0.332594  0.011594  0.988406  1
  B  B6  1  0.011594  0.332594  0.667406  1
  B  B7  1  0.168218  0.831782  0.168218  1
  B  B8  1  0.831782  0.168218  0.831782  1
  Rh  Rh9  1  0.584969  0.584969  0.915031  1
  Rh  Rh10  1  0.912737  0.912737  0.087263  1
  Rh  Rh11  1  0.415031  0.415031  0.084969  1
  Rh  Rh12  1  0.084969  0.084969  0.415031  1
  Rh  Rh13  1  0.915031  0.915031  0.584969  1
  Rh  Rh14  1  0.250000  0.250000  0.250000  1
  Rh  Rh15  1  0.087263  0.087263  0.912737  1
  Rh  Rh16  1  0.750000  0.750000  0.750000  1
