# generated using pymatgen
data_Dy4MgCo2Ag
_symmetry_space_group_name_H-M   'P 1'
_cell_length_a   8.75759542
_cell_length_b   8.75759591
_cell_length_c   8.75759483
_cell_angle_alpha   131.10465273
_cell_angle_beta   131.10464515
_cell_angle_gamma   71.64686677
_symmetry_Int_Tables_number   1
_chemical_formula_structural   Dy4MgCo2Ag
_chemical_formula_sum   'Dy8 Mg2 Co4 Ag2'
_cell_volume   373.12360361
_cell_formula_units_Z   2
loop_
 _symmetry_equiv_pos_site_id
 _symmetry_equiv_pos_as_xyz
  1  'x, y, z'
loop_
 _atom_site_type_symbol
 _atom_site_label
 _atom_site_symmetry_multiplicity
 _atom_site_fract_x
 _atom_site_fract_y
 _atom_site_fract_z
 _atom_site_occupancy
  Dy  Dy0  1  0.806822  0.306822  0.859209  1
  Dy  Dy1  1  0.193178  0.693178  0.140792  1
  Dy  Dy2  1  0.447615  0.947615  0.140792  1
  Dy  Dy3  1  0.306822  0.447615  0.500000  1
  Dy  Dy4  1  0.052385  0.193178  0.500000  1
  Dy  Dy5  1  0.552385  0.052385  0.859208  1
  Dy  Dy6  1  0.693178  0.552385  0.500000  1
  Dy  Dy7  1  0.947615  0.806822  0.500000  1
  Mg  Mg8  1  0.000000  0.000000  0.000000  1
  Mg  Mg9  1  0.500000  0.500000  0.000000  1
  Co  Co10  1  0.114002  0.614002  0.728003  1
  Co  Co11  1  0.885998  0.385998  0.271997  1
  Co  Co12  1  0.614002  0.885998  0.500000  1
  Co  Co13  1  0.385998  0.114002  0.500000  1
  Ag  Ag14  1  0.250000  0.250000  0.000000  1
  Ag  Ag15  1  0.750000  0.750000  0.000000  1
