# generated using pymatgen
data_Ti3Nb(SiRh5)2
_symmetry_space_group_name_H-M   'P 1'
_cell_length_a   3.96567300
_cell_length_b   5.44516053
_cell_length_c   10.59495263
_cell_angle_alpha   90.35772367
_cell_angle_beta   90.00000000
_cell_angle_gamma   90.00000000
_symmetry_Int_Tables_number   1
_chemical_formula_structural   Ti3Nb(SiRh5)2
_chemical_formula_sum   'Ti3 Nb1 Si2 Rh10'
_cell_volume   228.78004597
_cell_formula_units_Z   1
loop_
 _symmetry_equiv_pos_site_id
 _symmetry_equiv_pos_as_xyz
  1  'x, y, z'
loop_
 _atom_site_type_symbol
 _atom_site_label
 _atom_site_symmetry_multiplicity
 _atom_site_fract_x
 _atom_site_fract_y
 _atom_site_fract_z
 _atom_site_occupancy
  Ti  Ti0  1  0.500000  0.675547  0.855605  1
  Ti  Ti1  1  0.500000  0.827200  0.362315  1
  Ti  Ti2  1  0.500000  0.173139  0.641549  1
  Nb  Nb3  1  0.500000  0.326243  0.141077  1
  Si  Si4  1  0.000000  0.996998  0.997984  1
  Si  Si5  1  0.000000  0.500202  0.501290  1
  Rh  Rh6  1  0.000000  0.998766  0.500757  1
  Rh  Rh7  1  0.000000  0.507147  0.997117  1
  Rh  Rh8  1  0.000000  0.073649  0.241860  1
  Rh  Rh9  1  0.000000  0.921557  0.760745  1
  Rh  Rh10  1  0.000000  0.575486  0.261147  1
  Rh  Rh11  1  0.000000  0.420856  0.738024  1
  Rh  Rh12  1  0.500000  0.315488  0.397015  1
  Rh  Rh13  1  0.500000  0.684924  0.604515  1
  Rh  Rh14  1  0.500000  0.816180  0.104071  1
  Rh  Rh15  1  0.500000  0.186619  0.894929  1
