# generated using pymatgen
data_Sr2PrU3Se10
_symmetry_space_group_name_H-M   'P 1'
_cell_length_a   7.88298800
_cell_length_b   8.60503972
_cell_length_c   12.35991041
_cell_angle_alpha   89.71509650
_cell_angle_beta   90.00000000
_cell_angle_gamma   90.00000000
_symmetry_Int_Tables_number   1
_chemical_formula_structural   Sr2PrU3Se10
_chemical_formula_sum   'Sr4 Pr2 U6 Se20'
_cell_volume   838.40468823
_cell_formula_units_Z   2
loop_
 _symmetry_equiv_pos_site_id
 _symmetry_equiv_pos_as_xyz
  1  'x, y, z'
loop_
 _atom_site_type_symbol
 _atom_site_label
 _atom_site_symmetry_multiplicity
 _atom_site_fract_x
 _atom_site_fract_y
 _atom_site_fract_z
 _atom_site_occupancy
  Sr  Sr0  1  0.046116  0.494020  0.329083  1
  Sr  Sr1  1  0.546116  0.505980  0.170917  1
  Sr  Sr2  1  0.948966  0.505853  0.671640  1
  Sr  Sr3  1  0.448966  0.494147  0.828360  1
  Pr  Pr4  1  0.032136  0.000069  0.320267  1
  Pr  Pr5  1  0.532136  0.999931  0.179733  1
  U  U6  1  0.975543  0.001071  0.680497  1
  U  U7  1  0.475543  0.998929  0.819503  1
  U  U8  1  0.066773  0.751599  0.007030  1
  U  U9  1  0.566773  0.248401  0.492970  1
  U  U10  1  0.929633  0.249280  0.989672  1
  U  U11  1  0.429633  0.750720  0.510328  1
  Se  Se12  1  0.664561  0.957134  0.412849  1
  Se  Se13  1  0.164561  0.042866  0.087151  1
  Se  Se14  1  0.332915  0.045245  0.598092  1
  Se  Se15  1  0.832915  0.954755  0.901908  1
  Se  Se16  1  0.449857  0.775454  0.995334  1
  Se  Se17  1  0.949857  0.224546  0.504666  1
  Se  Se18  1  0.548787  0.222704  0.989592  1
  Se  Se19  1  0.048787  0.777296  0.510408  1
  Se  Se20  1  0.841799  0.760676  0.187075  1
  Se  Se21  1  0.341799  0.239324  0.312925  1
  Se  Se22  1  0.158956  0.225897  0.808857  1
  Se  Se23  1  0.658956  0.774103  0.691143  1
  Se  Se24  1  0.316607  0.753353  0.288518  1
  Se  Se25  1  0.816607  0.246647  0.211482  1
  Se  Se26  1  0.684980  0.232255  0.714829  1
  Se  Se27  1  0.184980  0.767745  0.785171  1
  Se  Se28  1  0.179555  0.457048  0.070181  1
  Se  Se29  1  0.679555  0.542952  0.429819  1
  Se  Se30  1  0.822815  0.540755  0.918923  1
  Se  Se31  1  0.322815  0.459245  0.581077  1
