# generated using pymatgen
data_InGaBr3
_symmetry_space_group_name_H-M   'P 1'
_cell_length_a   12.49016500
_cell_length_b   7.43403994
_cell_length_c   9.14016637
_cell_angle_alpha   91.53594803
_cell_angle_beta   90.00000000
_cell_angle_gamma   90.00000000
_symmetry_Int_Tables_number   1
_chemical_formula_structural   InGaBr3
_chemical_formula_sum   'In4 Ga4 Br12'
_cell_volume   848.38132134
_cell_formula_units_Z   4
loop_
 _symmetry_equiv_pos_site_id
 _symmetry_equiv_pos_as_xyz
  1  'x, y, z'
loop_
 _atom_site_type_symbol
 _atom_site_label
 _atom_site_symmetry_multiplicity
 _atom_site_fract_x
 _atom_site_fract_y
 _atom_site_fract_z
 _atom_site_occupancy
  In  In0  1  0.500000  0.000000  0.500000  1
  In  In1  1  0.500000  0.500000  0.000000  1
  In  In2  1  0.000000  0.000000  0.500000  1
  In  In3  1  0.000000  0.500000  0.000000  1
  Ga  Ga4  1  0.250000  0.036484  0.968477  1
  Ga  Ga5  1  0.750000  0.855293  0.773075  1
  Ga  Ga6  1  0.750000  0.963516  0.031523  1
  Ga  Ga7  1  0.250000  0.144707  0.226925  1
  Br  Br8  1  0.599016  0.668317  0.694406  1
  Br  Br9  1  0.400984  0.331683  0.305594  1
  Br  Br10  1  0.900984  0.668317  0.694406  1
  Br  Br11  1  0.750000  0.286677  0.067848  1
  Br  Br12  1  0.097060  0.142731  0.828721  1
  Br  Br13  1  0.597060  0.857269  0.171279  1
  Br  Br14  1  0.902940  0.857269  0.171279  1
  Br  Br15  1  0.402940  0.142731  0.828721  1
  Br  Br16  1  0.099016  0.331683  0.305594  1
  Br  Br17  1  0.750000  0.101684  0.603233  1
  Br  Br18  1  0.250000  0.898316  0.396767  1
  Br  Br19  1  0.250000  0.713323  0.932152  1
