# generated using pymatgen
data_Tm6Sc2Co16SiP11
_symmetry_space_group_name_H-M   'P 1'
_cell_length_a   3.69481700
_cell_length_b   10.62260303
_cell_length_c   12.27308567
_cell_angle_alpha   90.09992187
_cell_angle_beta   90.00000000
_cell_angle_gamma   90.00000000
_symmetry_Int_Tables_number   1
_chemical_formula_structural   Tm6Sc2Co16SiP11
_chemical_formula_sum   'Tm6 Sc2 Co16 Si1 P11'
_cell_volume   481.70038201
_cell_formula_units_Z   1
loop_
 _symmetry_equiv_pos_site_id
 _symmetry_equiv_pos_as_xyz
  1  'x, y, z'
loop_
 _atom_site_type_symbol
 _atom_site_label
 _atom_site_symmetry_multiplicity
 _atom_site_fract_x
 _atom_site_fract_y
 _atom_site_fract_z
 _atom_site_occupancy
  Tm  Tm0  1  0.000000  0.502737  0.527852  1
  Tm  Tm1  1  0.500000  0.000003  0.472308  1
  Tm  Tm2  1  0.500000  0.823275  0.205761  1
  Tm  Tm3  1  0.500000  0.176596  0.205257  1
  Tm  Tm4  1  0.000000  0.677194  0.794665  1
  Tm  Tm5  1  0.000000  0.323746  0.796146  1
  Sc  Sc6  1  0.500000  0.500118  0.157879  1
  Sc  Sc7  1  0.000000  0.999530  0.842616  1
  Co  Co8  1  0.500000  0.504035  0.706265  1
  Co  Co9  1  0.000000  0.999879  0.295058  1
  Co  Co10  1  0.000000  0.500164  0.987950  1
  Co  Co11  1  0.500000  0.999903  0.012631  1
  Co  Co12  1  0.500000  0.331078  0.994828  1
  Co  Co13  1  0.500000  0.669044  0.995160  1
  Co  Co14  1  0.000000  0.168710  0.005694  1
  Co  Co15  1  0.000000  0.831035  0.005649  1
  Co  Co16  1  0.500000  0.295392  0.428927  1
  Co  Co17  1  0.500000  0.704949  0.432834  1
  Co  Co18  1  0.000000  0.199177  0.564691  1
  Co  Co19  1  0.000000  0.795813  0.566674  1
  Co  Co20  1  0.500000  0.876241  0.702961  1
  Co  Co21  1  0.500000  0.118981  0.703763  1
  Co  Co22  1  0.000000  0.623142  0.297095  1
  Co  Co23  1  0.000000  0.378299  0.296967  1
  Si  Si24  1  0.500000  0.310148  0.615118  1
  P  P25  1  0.500000  0.500184  0.885544  1
  P  P26  1  0.000000  0.000018  0.115011  1
  P  P27  1  0.500000  0.499573  0.361473  1
  P  P28  1  0.000000  0.000379  0.639218  1
  P  P29  1  0.500000  0.690130  0.615875  1
  P  P30  1  0.000000  0.189860  0.383802  1
  P  P31  1  0.000000  0.810995  0.383946  1
  P  P32  1  0.500000  0.838432  0.891734  1
  P  P33  1  0.500000  0.161059  0.891352  1
  P  P34  1  0.000000  0.661439  0.108646  1
  P  P35  1  0.000000  0.338742  0.108647  1
