# generated using pymatgen
data_Eu3WN3
_symmetry_space_group_name_H-M   'P 1'
_cell_length_a   6.91899303
_cell_length_b   6.91899275
_cell_length_c   5.37337100
_cell_angle_alpha   90.00000000
_cell_angle_beta   90.00000000
_cell_angle_gamma   101.15820268
_symmetry_Int_Tables_number   1
_chemical_formula_structural   Eu3WN3
_chemical_formula_sum   'Eu6 W2 N6'
_cell_volume   252.37385477
_cell_formula_units_Z   2
loop_
 _symmetry_equiv_pos_site_id
 _symmetry_equiv_pos_as_xyz
  1  'x, y, z'
loop_
 _atom_site_type_symbol
 _atom_site_label
 _atom_site_symmetry_multiplicity
 _atom_site_fract_x
 _atom_site_fract_y
 _atom_site_fract_z
 _atom_site_occupancy
  Eu  Eu0  1  0.676861  0.906485  0.750000  1
  Eu  Eu1  1  0.391209  0.608791  0.250000  1
  Eu  Eu2  1  0.906485  0.676861  0.250000  1
  Eu  Eu3  1  0.608791  0.391209  0.750000  1
  Eu  Eu4  1  0.323139  0.093515  0.250000  1
  Eu  Eu5  1  0.093515  0.323139  0.750000  1
  W  W6  1  0.806727  0.193273  0.250000  1
  W  W7  1  0.193273  0.806727  0.750000  1
  N  N8  1  0.676591  0.922142  0.250000  1
  N  N9  1  0.371677  0.628323  0.750000  1
  N  N10  1  0.628323  0.371677  0.250000  1
  N  N11  1  0.922142  0.676591  0.750000  1
  N  N12  1  0.323409  0.077858  0.750000  1
  N  N13  1  0.077858  0.323409  0.250000  1
