# generated using pymatgen
data_Tb12Ho4In4Ru3Rh
_symmetry_space_group_name_H-M   'P 1'
_cell_length_a   9.67092019
_cell_length_b   9.69949822
_cell_length_c   9.68445685
_cell_angle_alpha   59.98814902
_cell_angle_beta   59.84823681
_cell_angle_gamma   59.86763798
_symmetry_Int_Tables_number   1
_chemical_formula_structural   Tb12Ho4In4Ru3Rh
_chemical_formula_sum   'Tb12 Ho4 In4 Ru3 Rh1'
_cell_volume   640.91830197
_cell_formula_units_Z   1
loop_
 _symmetry_equiv_pos_site_id
 _symmetry_equiv_pos_as_xyz
  1  'x, y, z'
loop_
 _atom_site_type_symbol
 _atom_site_label
 _atom_site_symmetry_multiplicity
 _atom_site_fract_x
 _atom_site_fract_y
 _atom_site_fract_z
 _atom_site_occupancy
  Tb  Tb0  1  0.059501  0.058828  0.441056  1
  Tb  Tb1  1  0.441702  0.437253  0.060612  1
  Tb  Tb2  1  0.652543  0.650665  0.650395  1
  Tb  Tb3  1  0.809829  0.190482  0.190973  1
  Tb  Tb4  1  0.188713  0.809149  0.809656  1
  Tb  Tb5  1  0.045184  0.651236  0.651765  1
  Tb  Tb6  1  0.441875  0.060347  0.060234  1
  Tb  Tb7  1  0.441463  0.060596  0.437489  1
  Tb  Tb8  1  0.059462  0.440874  0.058651  1
  Tb  Tb9  1  0.652348  0.651002  0.046182  1
  Tb  Tb10  1  0.188853  0.808946  0.193172  1
  Tb  Tb11  1  0.059783  0.440370  0.440960  1
  Ho  Ho12  1  0.809488  0.808418  0.191094  1
  Ho  Ho13  1  0.809341  0.190601  0.808973  1
  Ho  Ho14  1  0.189531  0.192821  0.809043  1
  Ho  Ho15  1  0.652131  0.046226  0.651023  1
  In  In16  1  0.418240  0.417789  0.418422  1
  In  In17  1  0.418335  0.417549  0.745944  1
  In  In18  1  0.418307  0.745595  0.418074  1
  In  In19  1  0.746623  0.417689  0.417947  1
  Ru  Ru20  1  0.859079  0.419317  0.860002  1
  Ru  Ru21  1  0.858041  0.862077  0.859757  1
  Ru  Ru22  1  0.857797  0.861182  0.420454  1
  Rh  Rh23  1  0.421828  0.860991  0.858124  1
