# generated using pymatgen
data_CeSiMo2C
_symmetry_space_group_name_H-M   'P 1'
_cell_length_a   6.07585900
_cell_length_b   6.07586030
_cell_length_c   7.83293200
_cell_angle_alpha   90.00000000
_cell_angle_beta   90.00000000
_cell_angle_gamma   145.02617586
_symmetry_Int_Tables_number   1
_chemical_formula_structural   CeSiMo2C
_chemical_formula_sum   'Ce2 Si2 Mo4 C2'
_cell_volume   165.74774467
_cell_formula_units_Z   2
loop_
 _symmetry_equiv_pos_site_id
 _symmetry_equiv_pos_as_xyz
  1  'x, y, z'
loop_
 _atom_site_type_symbol
 _atom_site_label
 _atom_site_symmetry_multiplicity
 _atom_site_fract_x
 _atom_site_fract_y
 _atom_site_fract_z
 _atom_site_occupancy
  Ce  Ce0  1  0.534344  0.465656  0.250000  1
  Ce  Ce1  1  0.465656  0.534344  0.750000  1
  Si  Si2  1  0.251330  0.748670  0.250000  1
  Si  Si3  1  0.748670  0.251330  0.750000  1
  Mo  Mo4  1  0.831047  0.168953  0.058821  1
  Mo  Mo5  1  0.168953  0.831047  0.941179  1
  Mo  Mo6  1  0.168953  0.831047  0.558821  1
  Mo  Mo7  1  0.831047  0.168953  0.441179  1
  C  C8  1  0.000000  0.000000  0.000000  1
  C  C9  1  0.000000  0.000000  0.500000  1
