# generated using pymatgen
data_MgBi3Ru2(PtO7)2
_symmetry_space_group_name_H-M   'P 1'
_cell_length_a   7.23051456
_cell_length_b   7.37407431
_cell_length_c   7.37407576
_cell_angle_alpha   60.14651300
_cell_angle_beta   59.46644375
_cell_angle_gamma   59.46645242
_symmetry_Int_Tables_number   1
_chemical_formula_structural   MgBi3Ru2(PtO7)2
_chemical_formula_sum   'Mg1 Bi3 Ru2 Pt2 O14'
_cell_volume   276.05144518
_cell_formula_units_Z   1
loop_
 _symmetry_equiv_pos_site_id
 _symmetry_equiv_pos_as_xyz
  1  'x, y, z'
loop_
 _atom_site_type_symbol
 _atom_site_label
 _atom_site_symmetry_multiplicity
 _atom_site_fract_x
 _atom_site_fract_y
 _atom_site_fract_z
 _atom_site_occupancy
  Mg  Mg0  1  0.625000  0.125000  0.125000  1
  Bi  Bi1  1  0.125000  0.125000  0.625000  1
  Bi  Bi2  1  0.125000  0.625000  0.125000  1
  Bi  Bi3  1  0.125000  0.125000  0.125000  1
  Ru  Ru4  1  0.625000  0.625000  0.125000  1
  Ru  Ru5  1  0.625000  0.125000  0.625000  1
  Pt  Pt6  1  0.125000  0.625000  0.625000  1
  Pt  Pt7  1  0.625000  0.625000  0.625000  1
  O  O8  1  0.282994  0.237791  0.237791  1
  O  O9  1  0.967006  0.012209  0.012209  1
  O  O10  1  0.550423  0.961371  0.534175  1
  O  O11  1  0.291476  0.710221  0.291121  1
  O  O12  1  0.550423  0.534175  0.961371  1
  O  O13  1  0.964282  0.537620  0.537620  1
  O  O14  1  0.543736  0.944319  0.944319  1
  O  O15  1  0.958524  0.958879  0.539779  1
  O  O16  1  0.958524  0.539779  0.958879  1
  O  O17  1  0.706264  0.305681  0.305681  1
  O  O18  1  0.285718  0.712380  0.712380  1
  O  O19  1  0.699577  0.288629  0.715825  1
  O  O20  1  0.291476  0.291121  0.710221  1
  O  O21  1  0.699577  0.715825  0.288629  1
