# generated using pymatgen
data_LiNd2Co6(P2Rh)3
_symmetry_space_group_name_H-M   'P 1'
_cell_length_a   3.76755300
_cell_length_b   10.56427700
_cell_length_c   12.24622800
_cell_angle_alpha   90.00000000
_cell_angle_beta   90.00000000
_cell_angle_gamma   90.00000000
_symmetry_Int_Tables_number   1
_chemical_formula_structural   LiNd2Co6(P2Rh)3
_chemical_formula_sum   'Li2 Nd4 Co12 P12 Rh6'
_cell_volume   487.41791927
_cell_formula_units_Z   2
loop_
 _symmetry_equiv_pos_site_id
 _symmetry_equiv_pos_as_xyz
  1  'x, y, z'
loop_
 _atom_site_type_symbol
 _atom_site_label
 _atom_site_symmetry_multiplicity
 _atom_site_fract_x
 _atom_site_fract_y
 _atom_site_fract_z
 _atom_site_occupancy
  Li  Li0  1  0.250000  0.702008  0.992253  1
  Li  Li1  1  0.250000  0.797992  0.492253  1
  Nd  Nd2  1  0.250000  0.583021  0.707445  1
  Nd  Nd3  1  0.250000  0.916979  0.207445  1
  Nd  Nd4  1  0.750000  0.419295  0.292561  1
  Nd  Nd5  1  0.750000  0.080705  0.792561  1
  Co  Co6  1  0.250000  0.223760  0.176807  1
  Co  Co7  1  0.250000  0.276240  0.676807  1
  Co  Co8  1  0.750000  0.778477  0.822012  1
  Co  Co9  1  0.750000  0.721523  0.322012  1
  Co  Co10  1  0.250000  0.881581  0.695316  1
  Co  Co11  1  0.250000  0.618419  0.195316  1
  Co  Co12  1  0.750000  0.118455  0.303363  1
  Co  Co13  1  0.750000  0.381545  0.803363  1
  Co  Co14  1  0.250000  0.465890  0.933638  1
  Co  Co15  1  0.250000  0.034110  0.433638  1
  Co  Co16  1  0.750000  0.537212  0.064770  1
  Co  Co17  1  0.750000  0.962788  0.564770  1
  P  P18  1  0.250000  0.425885  0.109606  1
  P  P19  1  0.250000  0.074115  0.609606  1
  P  P20  1  0.750000  0.577472  0.887667  1
  P  P21  1  0.750000  0.922528  0.387667  1
  P  P22  1  0.250000  0.278306  0.860609  1
  P  P23  1  0.250000  0.221694  0.360609  1
  P  P24  1  0.750000  0.722214  0.139925  1
  P  P25  1  0.750000  0.777786  0.639925  1
  P  P26  1  0.250000  0.611868  0.381819  1
  P  P27  1  0.250000  0.888132  0.881819  1
  P  P28  1  0.750000  0.392046  0.617504  1
  P  P29  1  0.750000  0.107954  0.117504  1
  Rh  Rh30  1  0.750000  0.295882  0.015895  1
  Rh  Rh31  1  0.750000  0.204118  0.515895  1
  Rh  Rh32  1  0.250000  0.400745  0.484607  1
  Rh  Rh33  1  0.250000  0.099255  0.984607  1
  Rh  Rh34  1  0.750000  0.595432  0.514205  1
  Rh  Rh35  1  0.750000  0.904568  0.014205  1
