# generated using pymatgen
data_Lu9In(SiB4)4
_symmetry_space_group_name_H-M   'P 1'
_cell_length_a   7.09197300
_cell_length_b   7.09197300
_cell_length_c   7.80588700
_cell_angle_alpha   90.00000000
_cell_angle_beta   90.00000000
_cell_angle_gamma   90.00000000
_symmetry_Int_Tables_number   1
_chemical_formula_structural   Lu9In(SiB4)4
_chemical_formula_sum   'Lu9 In1 Si4 B16'
_cell_volume   392.60552508
_cell_formula_units_Z   1
loop_
 _symmetry_equiv_pos_site_id
 _symmetry_equiv_pos_as_xyz
  1  'x, y, z'
loop_
 _atom_site_type_symbol
 _atom_site_label
 _atom_site_symmetry_multiplicity
 _atom_site_fract_x
 _atom_site_fract_y
 _atom_site_fract_z
 _atom_site_occupancy
  Lu  Lu0  1  0.680402  0.180646  0.225139  1
  Lu  Lu1  1  0.319598  0.819354  0.774861  1
  Lu  Lu2  1  0.319598  0.819354  0.225139  1
  Lu  Lu3  1  0.819354  0.680402  0.225139  1
  Lu  Lu4  1  0.819354  0.680402  0.774861  1
  Lu  Lu5  1  0.680402  0.180646  0.774861  1
  Lu  Lu6  1  0.180646  0.319598  0.774861  1
  Lu  Lu7  1  0.180646  0.319598  0.225139  1
  Lu  Lu8  1  0.500000  0.500000  0.500000  1
  In  In9  1  0.000000  0.000000  0.500000  1
  Si  Si10  1  0.121262  0.611672  0.500000  1
  Si  Si11  1  0.878738  0.388328  0.500000  1
  Si  Si12  1  0.388328  0.121262  0.500000  1
  Si  Si13  1  0.611672  0.878738  0.500000  1
  B  B14  1  0.175686  0.039859  0.000000  1
  B  B15  1  0.824314  0.960141  0.000000  1
  B  B16  1  0.960141  0.175686  0.000000  1
  B  B17  1  0.326773  0.539711  0.000000  1
  B  B18  1  0.039859  0.824314  0.000000  1
  B  B19  1  0.673227  0.460289  0.000000  1
  B  B20  1  0.539711  0.673227  0.000000  1
  B  B21  1  0.460289  0.326773  0.000000  1
  B  B22  1  0.089622  0.587987  0.000000  1
  B  B23  1  0.910378  0.412013  0.000000  1
  B  B24  1  0.412013  0.089622  0.000000  1
  B  B25  1  0.587987  0.910378  0.000000  1
  B  B26  1  0.000000  0.000000  0.162333  1
  B  B27  1  0.000000  0.000000  0.837667  1
  B  B28  1  0.500000  0.500000  0.831499  1
  B  B29  1  0.500000  0.500000  0.168501  1
