# generated using pymatgen
data_La9PrIr6
_symmetry_space_group_name_H-M   'P 1'
_cell_length_a   11.41753700
_cell_length_b   11.41753700
_cell_length_c   6.69866200
_cell_angle_alpha   90.00000000
_cell_angle_beta   90.00000000
_cell_angle_gamma   90.00000000
_symmetry_Int_Tables_number   1
_chemical_formula_structural   La9PrIr6
_chemical_formula_sum   'La18 Pr2 Ir12'
_cell_volume   873.23859080
_cell_formula_units_Z   2
loop_
 _symmetry_equiv_pos_site_id
 _symmetry_equiv_pos_as_xyz
  1  'x, y, z'
loop_
 _atom_site_type_symbol
 _atom_site_label
 _atom_site_symmetry_multiplicity
 _atom_site_fract_x
 _atom_site_fract_y
 _atom_site_fract_z
 _atom_site_occupancy
  La  La0  1  0.292057  0.091908  0.386030  1
  La  La1  1  0.292057  0.908092  0.886030  1
  La  La2  1  0.707943  0.091908  0.886030  1
  La  La3  1  0.707943  0.908092  0.386030  1
  La  La4  1  0.591378  0.791415  0.886730  1
  La  La5  1  0.591378  0.208585  0.386730  1
  La  La6  1  0.408622  0.791415  0.386730  1
  La  La7  1  0.408622  0.208585  0.886730  1
  La  La8  1  0.208585  0.408622  0.613270  1
  La  La9  1  0.208585  0.591378  0.113270  1
  La  La10  1  0.791415  0.408622  0.113270  1
  La  La11  1  0.791415  0.591378  0.613270  1
  La  La12  1  0.908092  0.707943  0.113970  1
  La  La13  1  0.908092  0.292057  0.613970  1
  La  La14  1  0.091908  0.707943  0.613970  1
  La  La15  1  0.091908  0.292057  0.113970  1
  La  La16  1  0.000000  0.000000  0.500000  1
  La  La17  1  0.000000  0.000000  0.000000  1
  Pr  Pr18  1  0.500000  0.500000  0.000000  1
  Pr  Pr19  1  0.500000  0.500000  0.500000  1
  Ir  Ir20  1  0.846316  0.153684  0.250000  1
  Ir  Ir21  1  0.846316  0.846316  0.750000  1
  Ir  Ir22  1  0.153684  0.153684  0.750000  1
  Ir  Ir23  1  0.153684  0.846316  0.250000  1
  Ir  Ir24  1  0.655231  0.344769  0.750000  1
  Ir  Ir25  1  0.655231  0.655231  0.250000  1
  Ir  Ir26  1  0.344769  0.344769  0.250000  1
  Ir  Ir27  1  0.344769  0.655231  0.750000  1
  Ir  Ir28  1  0.500000  0.000000  0.114787  1
  Ir  Ir29  1  0.500000  0.000000  0.614787  1
  Ir  Ir30  1  0.000000  0.500000  0.885213  1
  Ir  Ir31  1  0.000000  0.500000  0.385213  1
