# generated using pymatgen
data_Nd2Sc3Si7Pt8Rh
_symmetry_space_group_name_H-M   'P 1'
_cell_length_a   10.07411589
_cell_length_b   10.08826588
_cell_length_c   4.00827400
_cell_angle_alpha   90.00000000
_cell_angle_beta   90.00000000
_cell_angle_gamma   119.77031004
_symmetry_Int_Tables_number   1
_chemical_formula_structural   Nd2Sc3Si7Pt8Rh
_chemical_formula_sum   'Nd2 Sc3 Si7 Pt8 Rh1'
_cell_volume   353.59981416
_cell_formula_units_Z   1
loop_
 _symmetry_equiv_pos_site_id
 _symmetry_equiv_pos_as_xyz
  1  'x, y, z'
loop_
 _atom_site_type_symbol
 _atom_site_label
 _atom_site_symmetry_multiplicity
 _atom_site_fract_x
 _atom_site_fract_y
 _atom_site_fract_z
 _atom_site_occupancy
  Nd  Nd0  1  0.000879  0.998173  0.000000  1
  Nd  Nd1  1  0.332329  0.667916  0.500000  1
  Sc  Sc2  1  0.892663  0.452964  0.500000  1
  Sc  Sc3  1  0.558027  0.105269  0.500000  1
  Sc  Sc4  1  0.545752  0.439616  0.500000  1
  Si  Si5  1  0.249908  0.195195  0.500000  1
  Si  Si6  1  0.801159  0.049522  0.500000  1
  Si  Si7  1  0.956225  0.751042  0.500000  1
  Si  Si8  1  0.558834  0.647770  0.000000  1
  Si  Si9  1  0.349727  0.912860  0.000000  1
  Si  Si10  1  0.087912  0.442608  0.000000  1
  Si  Si11  1  0.665920  0.332561  0.000000  1
  Pt  Pt12  1  0.063465  0.283946  0.500000  1
  Pt  Pt13  1  0.716967  0.778508  0.500000  1
  Pt  Pt14  1  0.313203  0.411385  0.000000  1
  Pt  Pt15  1  0.589949  0.903924  0.000000  1
  Pt  Pt16  1  0.095517  0.689792  0.000000  1
  Pt  Pt17  1  0.385426  0.173451  0.000000  1
  Pt  Pt18  1  0.827131  0.212670  0.000000  1
  Pt  Pt19  1  0.784666  0.612266  0.000000  1
  Rh  Rh20  1  0.224340  0.938562  0.500000  1
