# generated using pymatgen
data_La3Cd3Ir2Pd
_symmetry_space_group_name_H-M   'P 1'
_cell_length_a   7.73180400
_cell_length_b   7.73180478
_cell_length_c   4.12723600
_cell_angle_alpha   90.00000000
_cell_angle_beta   90.00000000
_cell_angle_gamma   120.00000524
_symmetry_Int_Tables_number   1
_chemical_formula_structural   La3Cd3Ir2Pd
_chemical_formula_sum   'La3 Cd3 Ir2 Pd1'
_cell_volume   213.67397426
_cell_formula_units_Z   1
loop_
 _symmetry_equiv_pos_site_id
 _symmetry_equiv_pos_as_xyz
  1  'x, y, z'
loop_
 _atom_site_type_symbol
 _atom_site_label
 _atom_site_symmetry_multiplicity
 _atom_site_fract_x
 _atom_site_fract_y
 _atom_site_fract_z
 _atom_site_occupancy
  La  La0  1  0.416123  0.416123  0.500000  1
  La  La1  1  0.583877  0.000000  0.500000  1
  La  La2  1  0.000000  0.583877  0.500000  1
  Cd  Cd3  1  0.752798  0.752798  0.000000  1
  Cd  Cd4  1  0.247202  0.000000  0.000000  1
  Cd  Cd5  1  0.000000  0.247202  0.000000  1
  Ir  Ir6  1  0.666667  0.333333  0.000000  1
  Ir  Ir7  1  0.333333  0.666667  0.000000  1
  Pd  Pd8  1  0.000000  0.000000  0.500000  1
