# generated using pymatgen
data_Sm2UFe2Si7
_symmetry_space_group_name_H-M   'P 1'
_cell_length_a   12.31618208
_cell_length_b   12.31618292
_cell_length_c   4.08210400
_cell_angle_alpha   90.00000000
_cell_angle_beta   90.00000000
_cell_angle_gamma   160.87683642
_symmetry_Int_Tables_number   1
_chemical_formula_structural   Sm2UFe2Si7
_chemical_formula_sum   'Sm2 U1 Fe2 Si7'
_cell_volume   202.85235426
_cell_formula_units_Z   1
loop_
 _symmetry_equiv_pos_site_id
 _symmetry_equiv_pos_as_xyz
  1  'x, y, z'
loop_
 _atom_site_type_symbol
 _atom_site_label
 _atom_site_symmetry_multiplicity
 _atom_site_fract_x
 _atom_site_fract_y
 _atom_site_fract_z
 _atom_site_occupancy
  Sm  Sm0  1  0.316370  0.683630  0.000000  1
  Sm  Sm1  1  0.683630  0.316370  0.000000  1
  U  U2  1  0.000000  0.000000  0.500000  1
  Fe  Fe3  1  0.123671  0.876329  0.500000  1
  Fe  Fe4  1  0.876329  0.123671  0.500000  1
  Si  Si5  1  0.220560  0.779440  0.500000  1
  Si  Si6  1  0.779440  0.220560  0.500000  1
  Si  Si7  1  0.084730  0.915270  0.000000  1
  Si  Si8  1  0.915270  0.084730  0.000000  1
  Si  Si9  1  0.414883  0.585117  0.500000  1
  Si  Si10  1  0.500000  0.500000  0.000000  1
  Si  Si11  1  0.585117  0.414883  0.500000  1
