# generated using pymatgen
data_Nd3Sm(Ni5C3)2
_symmetry_space_group_name_H-M   'P 1'
_cell_length_a   8.28274534
_cell_length_b   8.28274534
_cell_length_c   3.93702500
_cell_angle_alpha   90.00000000
_cell_angle_beta   90.00000000
_cell_angle_gamma   89.76552471
_symmetry_Int_Tables_number   1
_chemical_formula_structural   Nd3Sm(Ni5C3)2
_chemical_formula_sum   'Nd3 Sm1 Ni10 C6'
_cell_volume   270.09289099
_cell_formula_units_Z   1
loop_
 _symmetry_equiv_pos_site_id
 _symmetry_equiv_pos_as_xyz
  1  'x, y, z'
loop_
 _atom_site_type_symbol
 _atom_site_label
 _atom_site_symmetry_multiplicity
 _atom_site_fract_x
 _atom_site_fract_y
 _atom_site_fract_z
 _atom_site_occupancy
  Nd  Nd0  1  0.341025  0.840197  0.000000  1
  Nd  Nd1  1  0.659803  0.158975  0.000000  1
  Nd  Nd2  1  0.158743  0.341257  0.000000  1
  Sm  Sm3  1  0.841424  0.658576  0.000000  1
  Ni  Ni4  1  0.577335  0.711781  0.500000  1
  Ni  Ni5  1  0.423995  0.287534  0.500000  1
  Ni  Ni6  1  0.924201  0.213365  0.500000  1
  Ni  Ni7  1  0.074696  0.787551  0.500000  1
  Ni  Ni8  1  0.712449  0.425304  0.500000  1
  Ni  Ni9  1  0.286635  0.575799  0.500000  1
  Ni  Ni10  1  0.212466  0.076005  0.500000  1
  Ni  Ni11  1  0.788219  0.922665  0.500000  1
  Ni  Ni12  1  0.501890  0.500320  0.000000  1
  Ni  Ni13  1  0.999680  0.998110  0.000000  1
  C  C14  1  0.499271  0.500236  0.500000  1
  C  C15  1  0.999764  0.000729  0.500000  1
  C  C16  1  0.057092  0.559533  0.500000  1
  C  C17  1  0.940467  0.442908  0.500000  1
  C  C18  1  0.441934  0.058066  0.500000  1
  C  C19  1  0.558912  0.941088  0.500000  1
