# generated using pymatgen
data_Lu4Al18AgIr5
_symmetry_space_group_name_H-M   'P 1'
_cell_length_a   7.55998000
_cell_length_b   7.55998031
_cell_length_c   9.40498300
_cell_angle_alpha   90.00046231
_cell_angle_beta   90.00046231
_cell_angle_gamma   119.64170081
_symmetry_Int_Tables_number   1
_chemical_formula_structural   Lu4Al18AgIr5
_chemical_formula_sum   'Lu4 Al18 Ag1 Ir5'
_cell_volume   467.18260627
_cell_formula_units_Z   1
loop_
 _symmetry_equiv_pos_site_id
 _symmetry_equiv_pos_as_xyz
  1  'x, y, z'
loop_
 _atom_site_type_symbol
 _atom_site_label
 _atom_site_symmetry_multiplicity
 _atom_site_fract_x
 _atom_site_fract_y
 _atom_site_fract_z
 _atom_site_occupancy
  Lu  Lu0  1  0.995934  0.673471  0.251747  1
  Lu  Lu1  1  0.004066  0.326529  0.748253  1
  Lu  Lu2  1  0.673463  0.995935  0.251744  1
  Lu  Lu3  1  0.326537  0.004065  0.748256  1
  Al  Al4  1  0.133893  0.133894  0.255640  1
  Al  Al5  1  0.866107  0.866106  0.744360  1
  Al  Al6  1  0.000676  0.343913  0.080327  1
  Al  Al7  1  0.999324  0.656087  0.919673  1
  Al  Al8  1  0.000675  0.664763  0.574913  1
  Al  Al9  1  0.335237  0.999325  0.425087  1
  Al  Al10  1  0.999325  0.335237  0.425087  1
  Al  Al11  1  0.664763  0.000675  0.574913  1
  Al  Al12  1  0.656087  0.999323  0.919673  1
  Al  Al13  1  0.343913  0.000677  0.080327  1
  Al  Al14  1  0.332541  0.332542  0.554707  1
  Al  Al15  1  0.667459  0.667458  0.445293  1
  Al  Al16  1  0.658721  0.658721  0.061371  1
  Al  Al17  1  0.341279  0.341279  0.938629  1
  Al  Al18  1  0.338972  0.550581  0.251223  1
  Al  Al19  1  0.661028  0.449419  0.748777  1
  Al  Al20  1  0.550582  0.338972  0.251223  1
  Al  Al21  1  0.449418  0.661028  0.748777  1
  Ag  Ag22  1  0.000000  0.000000  0.000000  1
  Ir  Ir23  1  0.672118  0.327880  0.000000  1
  Ir  Ir24  1  0.327882  0.672120  0.000000  1
  Ir  Ir25  1  0.327786  0.672215  0.500000  1
  Ir  Ir26  1  0.672214  0.327785  0.500000  1
  Ir  Ir27  1  0.000000  0.000000  0.500000  1
