# generated using pymatgen
data_Cs2KSbO4
_symmetry_space_group_name_H-M   'P 1'
_cell_length_a   6.72811400
_cell_length_b   6.75294676
_cell_length_c   8.74392110
_cell_angle_alpha   86.65425966
_cell_angle_beta   90.00000000
_cell_angle_gamma   90.00000000
_symmetry_Int_Tables_number   1
_chemical_formula_structural   Cs2KSbO4
_chemical_formula_sum   'Cs4 K2 Sb2 O8'
_cell_volume   396.59937896
_cell_formula_units_Z   2
loop_
 _symmetry_equiv_pos_site_id
 _symmetry_equiv_pos_as_xyz
  1  'x, y, z'
loop_
 _atom_site_type_symbol
 _atom_site_label
 _atom_site_symmetry_multiplicity
 _atom_site_fract_x
 _atom_site_fract_y
 _atom_site_fract_z
 _atom_site_occupancy
  Cs  Cs0  1  0.250000  0.152763  0.811184  1
  Cs  Cs1  1  0.750000  0.847237  0.188816  1
  Cs  Cs2  1  0.250000  0.696535  0.513787  1
  Cs  Cs3  1  0.750000  0.303465  0.486213  1
  K  K4  1  0.750000  0.360658  0.972522  1
  K  K5  1  0.250000  0.639342  0.027478  1
  Sb  Sb6  1  0.250000  0.207047  0.267973  1
  Sb  Sb7  1  0.750000  0.792953  0.732027  1
  O  O8  1  0.978756  0.650129  0.809219  1
  O  O9  1  0.478756  0.349871  0.190781  1
  O  O10  1  0.021244  0.349871  0.190781  1
  O  O11  1  0.521244  0.650129  0.809219  1
  O  O12  1  0.750000  0.055344  0.804477  1
  O  O13  1  0.750000  0.799527  0.512588  1
  O  O14  1  0.250000  0.944656  0.195523  1
  O  O15  1  0.250000  0.200473  0.487412  1
