# generated using pymatgen
data_ScWO4
_symmetry_space_group_name_H-M   'P 1'
_cell_length_a   6.64761500
_cell_length_b   4.76505728
_cell_length_c   6.44814024
_cell_angle_alpha   89.93473308
_cell_angle_beta   90.00000000
_cell_angle_gamma   134.22978405
_symmetry_Int_Tables_number   1
_chemical_formula_structural   ScWO4
_chemical_formula_sum   'Sc2 W2 O8'
_cell_volume   146.35691984
_cell_formula_units_Z   2
loop_
 _symmetry_equiv_pos_site_id
 _symmetry_equiv_pos_as_xyz
  1  'x, y, z'
loop_
 _atom_site_type_symbol
 _atom_site_label
 _atom_site_symmetry_multiplicity
 _atom_site_fract_x
 _atom_site_fract_y
 _atom_site_fract_z
 _atom_site_occupancy
  Sc  Sc0  1  0.000000  0.000000  0.500000  1
  Sc  Sc1  1  0.000000  0.000000  0.000000  1
  W  W2  1  0.500357  0.000713  0.749893  1
  W  W3  1  0.499643  0.999287  0.250107  1
  O  O4  1  0.687893  0.375786  0.499306  1
  O  O5  1  0.312107  0.624214  0.500694  1
  O  O6  1  0.206474  0.997976  0.750012  1
  O  O7  1  0.793526  0.002024  0.249988  1
  O  O8  1  0.208497  0.002024  0.249988  1
  O  O9  1  0.791503  0.997976  0.750012  1
  O  O10  1  0.687917  0.375833  0.999608  1
  O  O11  1  0.312083  0.624167  0.000392  1
