# generated using pymatgen
data_Gd6C2I7
_symmetry_space_group_name_H-M   'P 1'
_cell_length_a   4.01514556
_cell_length_b   11.20452546
_cell_length_c   11.77221711
_cell_angle_alpha   108.04168196
_cell_angle_beta   99.81890434
_cell_angle_gamma   100.32172180
_symmetry_Int_Tables_number   1
_chemical_formula_structural   Gd6C2I7
_chemical_formula_sum   'Gd6 C2 I7'
_cell_volume   480.73771449
_cell_formula_units_Z   1
loop_
 _symmetry_equiv_pos_site_id
 _symmetry_equiv_pos_as_xyz
  1  'x, y, z'
loop_
 _atom_site_type_symbol
 _atom_site_label
 _atom_site_symmetry_multiplicity
 _atom_site_fract_x
 _atom_site_fract_y
 _atom_site_fract_z
 _atom_site_occupancy
  Gd  Gd0  1  0.952571  0.717122  0.188020  1
  Gd  Gd1  1  0.683207  0.991677  0.374736  1
  Gd  Gd2  1  0.581089  0.716595  0.445583  1
  Gd  Gd3  1  0.418911  0.283406  0.554416  1
  Gd  Gd4  1  0.316793  0.008322  0.625263  1
  Gd  Gd5  1  0.047429  0.282879  0.811979  1
  C  C6  1  0.121607  0.840048  0.403168  1
  C  C7  1  0.878392  0.159952  0.596832  1
  I  I8  1  0.458665  0.847547  0.069785  1
  I  I9  1  0.335753  0.496493  0.175013  1
  I  I10  1  0.218873  0.160719  0.277027  1
  I  I11  1  0.999999  0.499999  0.500000  1
  I  I12  1  0.781128  0.839282  0.722974  1
  I  I13  1  0.664246  0.503506  0.824986  1
  I  I14  1  0.541335  0.152454  0.930215  1
