# generated using pymatgen
data_Dy2TmTh(Al8Pt3)3
_symmetry_space_group_name_H-M   'P 1'
_cell_length_a   7.55483592
_cell_length_b   7.57204488
_cell_length_c   13.16629746
_cell_angle_alpha   84.52667021
_cell_angle_beta   78.98971802
_cell_angle_gamma   59.92241277
_symmetry_Int_Tables_number   1
_chemical_formula_structural   Dy2TmTh(Al8Pt3)3
_chemical_formula_sum   'Dy2 Tm1 Th1 Al24 Pt9'
_cell_volume   639.76993227
_cell_formula_units_Z   1
loop_
 _symmetry_equiv_pos_site_id
 _symmetry_equiv_pos_as_xyz
  1  'x, y, z'
loop_
 _atom_site_type_symbol
 _atom_site_label
 _atom_site_symmetry_multiplicity
 _atom_site_fract_x
 _atom_site_fract_y
 _atom_site_fract_z
 _atom_site_occupancy
  Dy  Dy0  1  0.605801  0.831379  0.193366  1
  Dy  Dy1  1  0.733413  0.499130  0.807631  1
  Tm  Tm2  1  0.265859  0.501262  0.194067  1
  Th  Th3  1  0.394109  0.167954  0.807491  1
  Al  Al4  1  0.687030  0.830608  0.947106  1
  Al  Al5  1  0.315126  0.166715  0.059051  1
  Al  Al6  1  0.146844  0.832634  0.560290  1
  Al  Al7  1  0.854171  0.167577  0.437476  1
  Al  Al8  1  0.480972  0.166548  0.556491  1
  Al  Al9  1  0.520306  0.832533  0.440638  1
  Al  Al10  1  0.217540  0.165844  0.328634  1
  Al  Al11  1  0.787460  0.831100  0.667293  1
  Al  Al12  1  0.437888  0.510347  0.667828  1
  Al  Al13  1  0.562880  0.493331  0.328402  1
  Al  Al14  1  0.107036  0.159712  0.666113  1
  Al  Al15  1  0.890976  0.839802  0.329867  1
  Al  Al16  1  0.351554  0.502864  0.947335  1
  Al  Al17  1  0.645558  0.501275  0.056971  1
  Al  Al18  1  0.011687  0.167294  0.956350  1
  Al  Al19  1  0.984201  0.831186  0.049540  1
  Al  Al20  1  0.186023  0.500198  0.440580  1
  Al  Al21  1  0.813637  0.500401  0.558056  1
  Al  Al22  1  0.733517  0.164622  0.183391  1
  Al  Al23  1  0.264892  0.832220  0.816672  1
  Al  Al24  1  0.058080  0.635308  0.815496  1
  Al  Al25  1  0.938382  0.369444  0.184803  1
  Al  Al26  1  0.859787  0.040903  0.816348  1
  Al  Al27  1  0.144451  0.957415  0.184183  1
  Pt  Pt28  1  0.121194  0.490824  0.638825  1
  Pt  Pt29  1  0.880398  0.508439  0.360727  1
  Pt  Pt30  1  0.656463  0.171574  0.999907  1
  Pt  Pt31  1  0.342883  0.829396  0.000173  1
  Pt  Pt32  1  0.537194  0.167202  0.360680  1
  Pt  Pt33  1  0.462156  0.834143  0.638627  1
  Pt  Pt34  1  0.777951  0.175108  0.637361  1
  Pt  Pt35  1  0.221585  0.824496  0.362165  1
  Pt  Pt36  1  0.000995  0.499216  0.000061  1
