# generated using pymatgen
data_Lu8MgIn(SnAu4)2
_symmetry_space_group_name_H-M   'P 1'
_cell_length_a   7.90300700
_cell_length_b   7.90300700
_cell_length_c   7.19971600
_cell_angle_alpha   90.00000000
_cell_angle_beta   90.00000000
_cell_angle_gamma   90.00000000
_symmetry_Int_Tables_number   1
_chemical_formula_structural   Lu8MgIn(SnAu4)2
_chemical_formula_sum   'Lu8 Mg1 In1 Sn2 Au8'
_cell_volume   449.67640349
_cell_formula_units_Z   1
loop_
 _symmetry_equiv_pos_site_id
 _symmetry_equiv_pos_as_xyz
  1  'x, y, z'
loop_
 _atom_site_type_symbol
 _atom_site_label
 _atom_site_symmetry_multiplicity
 _atom_site_fract_x
 _atom_site_fract_y
 _atom_site_fract_z
 _atom_site_occupancy
  Lu  Lu0  1  0.843776  0.155775  0.500114  1
  Lu  Lu1  1  0.156224  0.844225  0.500114  1
  Lu  Lu2  1  0.344225  0.343776  0.999886  1
  Lu  Lu3  1  0.655775  0.656224  0.999886  1
  Lu  Lu4  1  0.681731  0.682011  0.499653  1
  Lu  Lu5  1  0.318269  0.317989  0.499653  1
  Lu  Lu6  1  0.182012  0.818269  0.000347  1
  Lu  Lu7  1  0.817989  0.181732  0.000347  1
  Mg  Mg8  1  0.500000  0.000000  0.750000  1
  In  In9  1  0.000000  0.500000  0.250000  1
  Sn  Sn10  1  0.500000  0.000000  0.250000  1
  Sn  Sn11  1  0.000000  0.500000  0.750000  1
  Au  Au12  1  0.631043  0.372863  0.275519  1
  Au  Au13  1  0.368957  0.627137  0.275519  1
  Au  Au14  1  0.134455  0.125610  0.774695  1
  Au  Au15  1  0.865545  0.874390  0.774695  1
  Au  Au16  1  0.374390  0.634455  0.725305  1
  Au  Au17  1  0.625610  0.365545  0.725305  1
  Au  Au18  1  0.872863  0.868957  0.224481  1
  Au  Au19  1  0.127137  0.131043  0.224481  1
