# generated using pymatgen
data_DyHo15In3HgRh4
_symmetry_space_group_name_H-M   'P 1'
_cell_length_a   9.59896050
_cell_length_b   9.59895998
_cell_length_c   9.59780401
_cell_angle_alpha   60.00561445
_cell_angle_beta   60.00561579
_cell_angle_gamma   60.00182917
_symmetry_Int_Tables_number   1
_chemical_formula_structural   DyHo15In3HgRh4
_chemical_formula_sum   'Dy1 Ho15 In3 Hg1 Rh4'
_cell_volume   625.38595525
_cell_formula_units_Z   1
loop_
 _symmetry_equiv_pos_site_id
 _symmetry_equiv_pos_as_xyz
  1  'x, y, z'
loop_
 _atom_site_type_symbol
 _atom_site_label
 _atom_site_symmetry_multiplicity
 _atom_site_fract_x
 _atom_site_fract_y
 _atom_site_fract_z
 _atom_site_occupancy
  Dy  Dy0  1  0.188009  0.188009  0.812037  1
  Ho  Ho1  1  0.601965  0.601965  0.198067  1
  Ho  Ho2  1  0.439710  0.059443  0.439389  1
  Ho  Ho3  1  0.439562  0.439562  0.059491  1
  Ho  Ho4  1  0.813157  0.184502  0.813474  1
  Ho  Ho5  1  0.188062  0.811735  0.188336  1
  Ho  Ho6  1  0.436509  0.061123  0.061212  1
  Ho  Ho7  1  0.184502  0.813157  0.813474  1
  Ho  Ho8  1  0.061123  0.436509  0.061212  1
  Ho  Ho9  1  0.813459  0.813459  0.184477  1
  Ho  Ho10  1  0.198016  0.602079  0.601849  1
  Ho  Ho11  1  0.059443  0.439710  0.439389  1
  Ho  Ho12  1  0.061164  0.061164  0.436395  1
  Ho  Ho13  1  0.811735  0.188062  0.188336  1
  Ho  Ho14  1  0.602079  0.198016  0.601849  1
  Ho  Ho15  1  0.598324  0.598324  0.598269  1
  In  In16  1  0.832159  0.832159  0.502891  1
  In  In17  1  0.503169  0.831888  0.832191  1
  In  In18  1  0.831888  0.503169  0.832191  1
  Hg  Hg19  1  0.836118  0.836118  0.836031  1
  Rh  Rh20  1  0.391673  0.822897  0.391660  1
  Rh  Rh21  1  0.393472  0.393472  0.393199  1
  Rh  Rh22  1  0.822897  0.391673  0.391660  1
  Rh  Rh23  1  0.391806  0.391806  0.822923  1
