# generated using pymatgen
data_Ca3TbBi3Sb3Rh7
_symmetry_space_group_name_H-M   'P 1'
_cell_length_a   7.73232451
_cell_length_b   7.71594149
_cell_length_c   7.71593924
_cell_angle_alpha   109.39170229
_cell_angle_beta   109.35350044
_cell_angle_gamma   109.35349243
_symmetry_Int_Tables_number   1
_chemical_formula_structural   Ca3TbBi3Sb3Rh7
_chemical_formula_sum   'Ca3 Tb1 Bi3 Sb3 Rh7'
_cell_volume   355.74810641
_cell_formula_units_Z   1
loop_
 _symmetry_equiv_pos_site_id
 _symmetry_equiv_pos_as_xyz
  1  'x, y, z'
loop_
 _atom_site_type_symbol
 _atom_site_label
 _atom_site_symmetry_multiplicity
 _atom_site_fract_x
 _atom_site_fract_y
 _atom_site_fract_z
 _atom_site_occupancy
  Ca  Ca0  1  0.475492  0.999850  0.999850  1
  Ca  Ca1  1  0.003655  0.508412  0.999771  1
  Ca  Ca2  1  0.003655  0.999771  0.508412  1
  Tb  Tb3  1  0.489361  0.486284  0.486284  1
  Bi  Bi4  1  0.986807  0.302310  0.302310  1
  Bi  Bi5  1  0.690879  0.003159  0.698296  1
  Bi  Bi6  1  0.690879  0.698296  0.003159  1
  Sb  Sb7  1  0.998196  0.674452  0.674452  1
  Sb  Sb8  1  0.322344  0.994840  0.326847  1
  Sb  Sb9  1  0.322344  0.326847  0.994840  1
  Rh  Rh10  1  0.042373  0.004418  0.004418  1
  Rh  Rh11  1  0.496875  0.746447  0.255127  1
  Rh  Rh12  1  0.741839  0.501129  0.253218  1
  Rh  Rh13  1  0.248293  0.745228  0.500213  1
  Rh  Rh14  1  0.248293  0.500213  0.745228  1
  Rh  Rh15  1  0.496875  0.255127  0.746447  1
  Rh  Rh16  1  0.741839  0.253218  0.501129  1
