# generated using pymatgen
data_NdHo2Er2(In2Pd)2
_symmetry_space_group_name_H-M   'P 1'
_cell_length_a   3.61930300
_cell_length_b   8.19456200
_cell_length_c   18.37410700
_cell_angle_alpha   90.00000000
_cell_angle_beta   90.00000000
_cell_angle_gamma   90.00000000
_symmetry_Int_Tables_number   1
_chemical_formula_structural   NdHo2Er2(In2Pd)2
_chemical_formula_sum   'Nd2 Ho4 Er4 In8 Pd4'
_cell_volume   544.95034187
_cell_formula_units_Z   2
loop_
 _symmetry_equiv_pos_site_id
 _symmetry_equiv_pos_as_xyz
  1  'x, y, z'
loop_
 _atom_site_type_symbol
 _atom_site_label
 _atom_site_symmetry_multiplicity
 _atom_site_fract_x
 _atom_site_fract_y
 _atom_site_fract_z
 _atom_site_occupancy
  Nd  Nd0  1  0.000000  0.500000  0.500000  1
  Nd  Nd1  1  0.000000  0.000000  0.000000  1
  Ho  Ho2  1  0.000000  0.738232  0.281523  1
  Ho  Ho3  1  0.000000  0.261768  0.718477  1
  Ho  Ho4  1  0.000000  0.761768  0.781523  1
  Ho  Ho5  1  0.000000  0.238232  0.218477  1
  Er  Er6  1  0.000000  0.619982  0.084251  1
  Er  Er7  1  0.000000  0.380018  0.915749  1
  Er  Er8  1  0.000000  0.880018  0.584251  1
  Er  Er9  1  0.000000  0.119982  0.415749  1
  In  In10  1  0.500000  0.700627  0.931721  1
  In  In11  1  0.500000  0.299373  0.068279  1
  In  In12  1  0.500000  0.799373  0.431721  1
  In  In13  1  0.500000  0.200627  0.568279  1
  In  In14  1  0.500000  0.583130  0.653097  1
  In  In15  1  0.500000  0.416870  0.346903  1
  In  In16  1  0.500000  0.916870  0.153097  1
  In  In17  1  0.500000  0.083130  0.846903  1
  Pd  Pd18  1  0.500000  0.523720  0.195430  1
  Pd  Pd19  1  0.500000  0.476280  0.804570  1
  Pd  Pd20  1  0.500000  0.976280  0.695430  1
  Pd  Pd21  1  0.500000  0.023720  0.304570  1
