# generated using pymatgen
data_Sr2NbTcO8
_symmetry_space_group_name_H-M   'P 1'
_cell_length_a   7.20119183
_cell_length_b   7.20119147
_cell_length_c   7.20119086
_cell_angle_alpha   134.99570063
_cell_angle_beta   134.99570611
_cell_angle_gamma   65.53686747
_symmetry_Int_Tables_number   1
_chemical_formula_structural   Sr2NbTcO8
_chemical_formula_sum   'Sr2 Nb1 Tc1 O8'
_cell_volume   183.97433013
_cell_formula_units_Z   1
loop_
 _symmetry_equiv_pos_site_id
 _symmetry_equiv_pos_as_xyz
  1  'x, y, z'
loop_
 _atom_site_type_symbol
 _atom_site_label
 _atom_site_symmetry_multiplicity
 _atom_site_fract_x
 _atom_site_fract_y
 _atom_site_fract_z
 _atom_site_occupancy
  Sr  Sr0  1  0.500000  0.500000  0.000000  1
  Sr  Sr1  1  0.250000  0.750000  0.500000  1
  Nb  Nb2  1  0.000000  0.000000  0.000000  1
  Tc  Tc3  1  0.750000  0.250000  0.500000  1
  O  O4  1  0.538128  0.941365  0.138159  1
  O  O5  1  0.939794  0.841721  0.608310  1
  O  O6  1  0.600031  0.461872  0.403238  1
  O  O7  1  0.058635  0.196793  0.596762  1
  O  O8  1  0.668515  0.060206  0.901926  1
  O  O9  1  0.233411  0.331485  0.391690  1
  O  O10  1  0.803207  0.399969  0.861841  1
  O  O11  1  0.158279  0.766589  0.098074  1
