# generated using pymatgen
data_TbNpMnN3
_symmetry_space_group_name_H-M   'P 1'
_cell_length_a   3.33327150
_cell_length_b   3.69923158
_cell_length_c   6.60516479
_cell_angle_alpha   106.26827895
_cell_angle_beta   104.61350657
_cell_angle_gamma   90.00026252
_symmetry_Int_Tables_number   1
_chemical_formula_structural   TbNpMnN3
_chemical_formula_sum   'Tb1 Np1 Mn1 N3'
_cell_volume   75.43562541
_cell_formula_units_Z   1
loop_
 _symmetry_equiv_pos_site_id
 _symmetry_equiv_pos_as_xyz
  1  'x, y, z'
loop_
 _atom_site_type_symbol
 _atom_site_label
 _atom_site_symmetry_multiplicity
 _atom_site_fract_x
 _atom_site_fract_y
 _atom_site_fract_z
 _atom_site_occupancy
  Tb  Tb0  1  0.645121  0.644908  0.290247  1
  Np  Np1  1  0.351295  0.351335  0.702610  1
  Mn  Mn2  1  0.999577  0.000341  0.999144  1
  N  N3  1  0.169433  0.169227  0.338888  1
  N  N4  1  0.836584  0.836218  0.673181  1
  N  N5  1  0.997989  0.497971  0.995929  1
