# generated using pymatgen
data_La3Y(Ho3Sn4)2
_symmetry_space_group_name_H-M   'P 1'
_cell_length_a   8.01512400
_cell_length_b   8.38826729
_cell_length_c   15.78318900
_cell_angle_alpha   90.22606171
_cell_angle_beta   90.00000000
_cell_angle_gamma   90.00000000
_symmetry_Int_Tables_number   1
_chemical_formula_structural   La3Y(Ho3Sn4)2
_chemical_formula_sum   'La6 Y2 Ho12 Sn16'
_cell_volume   1061.14292563
_cell_formula_units_Z   2
loop_
 _symmetry_equiv_pos_site_id
 _symmetry_equiv_pos_as_xyz
  1  'x, y, z'
loop_
 _atom_site_type_symbol
 _atom_site_label
 _atom_site_symmetry_multiplicity
 _atom_site_fract_x
 _atom_site_fract_y
 _atom_site_fract_z
 _atom_site_occupancy
  La  La0  1  0.502247  0.324171  0.903875  1
  La  La1  1  0.002247  0.175829  0.596125  1
  La  La2  1  0.498608  0.675833  0.406415  1
  La  La3  1  0.998608  0.824167  0.093585  1
  La  La4  1  0.500678  0.676791  0.093320  1
  La  La5  1  0.000678  0.823209  0.406680  1
  Y  Y6  1  0.503825  0.320275  0.601377  1
  Y  Y7  1  0.003825  0.179725  0.898623  1
  Ho  Ho8  1  0.334248  0.837491  0.873974  1
  Ho  Ho9  1  0.834248  0.662509  0.626026  1
  Ho  Ho10  1  0.663119  0.166509  0.375705  1
  Ho  Ho11  1  0.163119  0.333491  0.124295  1
  Ho  Ho12  1  0.664897  0.162689  0.123693  1
  Ho  Ho13  1  0.164897  0.337311  0.376307  1
  Ho  Ho14  1  0.334935  0.835115  0.626700  1
  Ho  Ho15  1  0.834935  0.664885  0.873300  1
  Ho  Ho16  1  0.169013  0.499669  0.749557  1
  Ho  Ho17  1  0.669013  0.000331  0.750443  1
  Ho  Ho18  1  0.828605  0.498943  0.249867  1
  Ho  Ho19  1  0.328605  0.001057  0.250133  1
  Sn  Sn20  1  0.319315  0.042739  0.038980  1
  Sn  Sn21  1  0.819315  0.457261  0.461020  1
  Sn  Sn22  1  0.672726  0.962459  0.544001  1
  Sn  Sn23  1  0.172726  0.537541  0.955999  1
  Sn  Sn24  1  0.684440  0.964175  0.954693  1
  Sn  Sn25  1  0.184440  0.535825  0.545307  1
  Sn  Sn26  1  0.326122  0.045197  0.460949  1
  Sn  Sn27  1  0.826122  0.454803  0.039051  1
  Sn  Sn28  1  0.529674  0.624483  0.750207  1
  Sn  Sn29  1  0.029674  0.875517  0.749793  1
  Sn  Sn30  1  0.467709  0.371853  0.248881  1
  Sn  Sn31  1  0.967709  0.128147  0.251119  1
  Sn  Sn32  1  0.305588  0.146799  0.750157  1
  Sn  Sn33  1  0.805588  0.353201  0.749843  1
  Sn  Sn34  1  0.694254  0.856340  0.249834  1
  Sn  Sn35  1  0.194254  0.643660  0.250166  1
