# generated using pymatgen
data_Y3Sn3Ir2Rh
_symmetry_space_group_name_H-M   'P 1'
_cell_length_a   7.54779600
_cell_length_b   7.54779680
_cell_length_c   3.91619400
_cell_angle_alpha   90.00000000
_cell_angle_beta   90.00000000
_cell_angle_gamma   119.99999650
_symmetry_Int_Tables_number   1
_chemical_formula_structural   Y3Sn3Ir2Rh
_chemical_formula_sum   'Y3 Sn3 Ir2 Rh1'
_cell_volume   193.21249020
_cell_formula_units_Z   1
loop_
 _symmetry_equiv_pos_site_id
 _symmetry_equiv_pos_as_xyz
  1  'x, y, z'
loop_
 _atom_site_type_symbol
 _atom_site_label
 _atom_site_symmetry_multiplicity
 _atom_site_fract_x
 _atom_site_fract_y
 _atom_site_fract_z
 _atom_site_occupancy
  Y  Y0  1  0.407012  0.000000  0.500000  1
  Y  Y1  1  0.000000  0.407012  0.500000  1
  Y  Y2  1  0.592988  0.592988  0.500000  1
  Sn  Sn3  1  0.740606  0.000000  0.000000  1
  Sn  Sn4  1  0.000000  0.740606  0.000000  1
  Sn  Sn5  1  0.259394  0.259394  0.000000  1
  Ir  Ir6  1  0.333333  0.666667  0.000000  1
  Ir  Ir7  1  0.666667  0.333333  0.000000  1
  Rh  Rh8  1  0.000000  0.000000  0.500000  1
