# generated using pymatgen
data_Yb9Lu11Pt16
_symmetry_space_group_name_H-M   'P 1'
_cell_length_a   7.40957455
_cell_length_b   7.56961078
_cell_length_c   14.38644100
_cell_angle_alpha   90.08040747
_cell_angle_beta   89.93651478
_cell_angle_gamma   90.08508344
_symmetry_Int_Tables_number   1
_chemical_formula_structural   Yb9Lu11Pt16
_chemical_formula_sum   'Yb9 Lu11 Pt16'
_cell_volume   806.89870429
_cell_formula_units_Z   1
loop_
 _symmetry_equiv_pos_site_id
 _symmetry_equiv_pos_as_xyz
  1  'x, y, z'
loop_
 _atom_site_type_symbol
 _atom_site_label
 _atom_site_symmetry_multiplicity
 _atom_site_fract_x
 _atom_site_fract_y
 _atom_site_fract_z
 _atom_site_occupancy
  Yb  Yb0  1  0.162655  0.336697  0.619086  1
  Yb  Yb1  1  0.499337  0.679230  0.593359  1
  Yb  Yb2  1  0.000337  0.820135  0.906461  1
  Yb  Yb3  1  0.502031  0.320656  0.094010  1
  Yb  Yb4  1  0.000224  0.179724  0.406096  1
  Yb  Yb5  1  0.502328  0.320814  0.406383  1
  Yb  Yb6  1  0.000120  0.179826  0.094110  1
  Yb  Yb7  1  0.500041  0.679582  0.906651  1
  Yb  Yb8  1  0.999603  0.817250  0.593464  1
  Lu  Lu9  1  0.661243  0.161007  0.622334  1
  Lu  Lu10  1  0.160991  0.336928  0.878769  1
  Lu  Lu11  1  0.338786  0.838219  0.123071  1
  Lu  Lu12  1  0.837650  0.665077  0.376262  1
  Lu  Lu13  1  0.338911  0.837288  0.376498  1
  Lu  Lu14  1  0.839164  0.665037  0.123042  1
  Lu  Lu15  1  0.660582  0.163367  0.878541  1
  Lu  Lu16  1  0.820914  0.508951  0.749764  1
  Lu  Lu17  1  0.317692  0.989918  0.750142  1
  Lu  Lu18  1  0.179591  0.488485  0.250003  1
  Lu  Lu19  1  0.681597  0.011525  0.249921  1
  Pt  Pt20  1  0.674603  0.965267  0.450453  1
  Pt  Pt21  1  0.173202  0.537833  0.048730  1
  Pt  Pt22  1  0.327101  0.037852  0.953852  1
  Pt  Pt23  1  0.819539  0.463474  0.544349  1
  Pt  Pt24  1  0.330457  0.026392  0.547107  1
  Pt  Pt25  1  0.827901  0.463145  0.954192  1
  Pt  Pt26  1  0.673085  0.964114  0.048842  1
  Pt  Pt27  1  0.169165  0.539948  0.448320  1
  Pt  Pt28  1  0.460616  0.370229  0.751757  1
  Pt  Pt29  1  0.954111  0.128831  0.753408  1
  Pt  Pt30  1  0.540486  0.626428  0.249264  1
  Pt  Pt31  1  0.040935  0.877892  0.249647  1
  Pt  Pt32  1  0.685142  0.863671  0.749902  1
  Pt  Pt33  1  0.190818  0.635182  0.752252  1
  Pt  Pt34  1  0.318466  0.135842  0.250081  1
  Pt  Pt35  1  0.810579  0.364182  0.249882  1
