# generated using pymatgen
data_Ho11Th5(MgOs)4
_symmetry_space_group_name_H-M   'P 1'
_cell_length_a   9.73954016
_cell_length_b   9.80002804
_cell_length_c   9.80002834
_cell_angle_alpha   59.72798176
_cell_angle_beta   60.20396934
_cell_angle_gamma   60.20397231
_symmetry_Int_Tables_number   1
_chemical_formula_structural   Ho11Th5(MgOs)4
_chemical_formula_sum   'Ho11 Th5 Mg4 Os4'
_cell_volume   662.07011031
_cell_formula_units_Z   1
loop_
 _symmetry_equiv_pos_site_id
 _symmetry_equiv_pos_as_xyz
  1  'x, y, z'
loop_
 _atom_site_type_symbol
 _atom_site_label
 _atom_site_symmetry_multiplicity
 _atom_site_fract_x
 _atom_site_fract_y
 _atom_site_fract_z
 _atom_site_occupancy
  Ho  Ho0  1  0.187190  0.812810  0.812810  1
  Ho  Ho1  1  0.191408  0.809903  0.185487  1
  Ho  Ho2  1  0.813202  0.185487  0.809903  1
  Ho  Ho3  1  0.191408  0.185487  0.809903  1
  Ho  Ho4  1  0.813202  0.809903  0.185487  1
  Ho  Ho5  1  0.934318  0.565682  0.565682  1
  Ho  Ho6  1  0.564960  0.935040  0.935040  1
  Ho  Ho7  1  0.561868  0.937019  0.562802  1
  Ho  Ho8  1  0.938310  0.562802  0.937019  1
  Ho  Ho9  1  0.561868  0.562802  0.937019  1
  Ho  Ho10  1  0.938310  0.937019  0.562802  1
  Th  Th11  1  0.340964  0.349805  0.349805  1
  Th  Th12  1  0.347047  0.345734  0.960171  1
  Th  Th13  1  0.347047  0.960171  0.345734  1
  Th  Th14  1  0.959426  0.349805  0.349805  1
  Th  Th15  1  0.816555  0.183445  0.183445  1
  Mg  Mg16  1  0.580903  0.580221  0.580221  1
  Mg  Mg17  1  0.579330  0.582995  0.258346  1
  Mg  Mg18  1  0.579330  0.258346  0.582995  1
  Mg  Mg19  1  0.258657  0.580221  0.580221  1
  Os  Os20  1  0.131385  0.146142  0.146142  1
  Os  Os21  1  0.143491  0.140831  0.572187  1
  Os  Os22  1  0.143491  0.572187  0.140831  1
  Os  Os23  1  0.576330  0.146142  0.146142  1
