# generated using pymatgen
data_Tb4PrMg(P2Ru3)6
_symmetry_space_group_name_H-M   'P 1'
_cell_length_a   3.99597700
_cell_length_b   12.67700514
_cell_length_c   12.50883100
_cell_angle_alpha   119.56363678
_cell_angle_beta   90.00000000
_cell_angle_gamma   90.00000000
_symmetry_Int_Tables_number   1
_chemical_formula_structural   Tb4PrMg(P2Ru3)6
_chemical_formula_sum   'Tb4 Pr1 Mg1 P12 Ru18'
_cell_volume   551.16278779
_cell_formula_units_Z   1
loop_
 _symmetry_equiv_pos_site_id
 _symmetry_equiv_pos_as_xyz
  1  'x, y, z'
loop_
 _atom_site_type_symbol
 _atom_site_label
 _atom_site_symmetry_multiplicity
 _atom_site_fract_x
 _atom_site_fract_y
 _atom_site_fract_z
 _atom_site_occupancy
  Tb  Tb0  1  0.500000  0.184003  0.000668  1
  Tb  Tb1  1  0.500000  0.815996  0.816666  1
  Tb  Tb2  1  0.000000  0.339654  0.668799  1
  Tb  Tb3  1  0.000000  0.660337  0.329136  1
  Pr  Pr4  1  0.500000  0.000000  0.180924  1
  Mg  Mg5  1  0.000000  0.999995  0.562392  1
  P  P6  1  0.000000  0.000002  0.810178  1
  P  P7  1  0.000000  0.814217  0.998295  1
  P  P8  1  0.000000  0.185781  0.184074  1
  P  P9  1  0.500000  0.308390  0.480787  1
  P  P10  1  0.500000  0.181722  0.700881  1
  P  P11  1  0.500000  0.524513  0.831462  1
  P  P12  1  0.500000  0.818262  0.519153  1
  P  P13  1  0.500000  0.475477  0.306946  1
  P  P14  1  0.500000  0.691597  0.172382  1
  P  P15  1  0.000000  0.000008  0.362752  1
  P  P16  1  0.000000  0.374875  0.000025  1
  P  P17  1  0.000000  0.625124  0.625148  1
  Ru  Ru18  1  0.000000  0.555039  0.000088  1
  Ru  Ru19  1  0.000000  0.444966  0.445047  1
  Ru  Ru20  1  0.500000  0.999998  0.715372  1
  Ru  Ru21  1  0.500000  0.716226  0.000568  1
  Ru  Ru22  1  0.500000  0.283770  0.284342  1
  Ru  Ru23  1  0.000000  0.197181  0.381482  1
  Ru  Ru24  1  0.000000  0.186784  0.806462  1
  Ru  Ru25  1  0.000000  0.625586  0.815197  1
  Ru  Ru26  1  0.000000  0.813214  0.619675  1
  Ru  Ru27  1  0.000000  0.374405  0.189608  1
  Ru  Ru28  1  0.000000  0.802831  0.184307  1
  Ru  Ru29  1  0.500000  0.124955  0.491594  1
  Ru  Ru30  1  0.500000  0.369228  0.879025  1
  Ru  Ru31  1  0.500000  0.507366  0.635997  1
  Ru  Ru32  1  0.500000  0.630764  0.509794  1
  Ru  Ru33  1  0.500000  0.492621  0.128629  1
  Ru  Ru34  1  0.500000  0.875018  0.366633  1
  Ru  Ru35  1  0.000000  0.999995  0.995510  1
