# generated using pymatgen
data_Pu2MnRe3(SiC)2
_symmetry_space_group_name_H-M   'P 1'
_cell_length_a   5.77686503
_cell_length_b   5.77686606
_cell_length_c   7.23455255
_cell_angle_alpha   89.14239179
_cell_angle_beta   90.85760693
_cell_angle_gamma   140.69529410
_symmetry_Int_Tables_number   1
_chemical_formula_structural   Pu2MnRe3(SiC)2
_chemical_formula_sum   'Pu2 Mn1 Re3 Si2 C2'
_cell_volume   152.91491874
_cell_formula_units_Z   1
loop_
 _symmetry_equiv_pos_site_id
 _symmetry_equiv_pos_as_xyz
  1  'x, y, z'
loop_
 _atom_site_type_symbol
 _atom_site_label
 _atom_site_symmetry_multiplicity
 _atom_site_fract_x
 _atom_site_fract_y
 _atom_site_fract_z
 _atom_site_occupancy
  Pu  Pu0  1  0.543271  0.456729  0.251867  1
  Pu  Pu1  1  0.456529  0.543471  0.741803  1
  Mn  Mn2  1  0.829147  0.170853  0.436669  1
  Re  Re3  1  0.822796  0.177204  0.061231  1
  Re  Re4  1  0.177447  0.822553  0.943135  1
  Re  Re5  1  0.166541  0.833459  0.564391  1
  Si  Si6  1  0.270232  0.729768  0.268701  1
  Si  Si7  1  0.739817  0.260183  0.734267  1
  C  C8  1  0.000426  0.999574  0.004878  1
  C  C9  1  0.993794  0.006206  0.493059  1
