# generated using pymatgen
data_LiCe6ScBi10
_symmetry_space_group_name_H-M   'P 1'
_cell_length_a   9.60438500
_cell_length_b   9.60438441
_cell_length_c   6.46079900
_cell_angle_alpha   90.00000000
_cell_angle_beta   90.00000000
_cell_angle_gamma   119.99999860
_symmetry_Int_Tables_number   1
_chemical_formula_structural   LiCe6ScBi10
_chemical_formula_sum   'Li1 Ce6 Sc1 Bi10'
_cell_volume   516.12626768
_cell_formula_units_Z   1
loop_
 _symmetry_equiv_pos_site_id
 _symmetry_equiv_pos_as_xyz
  1  'x, y, z'
loop_
 _atom_site_type_symbol
 _atom_site_label
 _atom_site_symmetry_multiplicity
 _atom_site_fract_x
 _atom_site_fract_y
 _atom_site_fract_z
 _atom_site_occupancy
  Li  Li0  1  0.000000  0.000000  0.500000  1
  Ce  Ce1  1  0.617057  0.000000  0.254435  1
  Ce  Ce2  1  0.382943  0.000000  0.745565  1
  Ce  Ce3  1  0.382943  0.382943  0.254435  1
  Ce  Ce4  1  0.000000  0.617057  0.254435  1
  Ce  Ce5  1  0.000000  0.382943  0.745565  1
  Ce  Ce6  1  0.617057  0.617057  0.745565  1
  Sc  Sc7  1  0.000000  0.000000  0.000000  1
  Bi  Bi8  1  0.263694  0.263694  0.748007  1
  Bi  Bi9  1  0.736306  0.736306  0.251993  1
  Bi  Bi10  1  0.333333  0.666667  0.500000  1
  Bi  Bi11  1  0.000000  0.263694  0.251993  1
  Bi  Bi12  1  0.263694  0.000000  0.251993  1
  Bi  Bi13  1  0.736306  0.000000  0.748007  1
  Bi  Bi14  1  0.666667  0.333333  0.000000  1
  Bi  Bi15  1  0.000000  0.736306  0.748007  1
  Bi  Bi16  1  0.333333  0.666667  0.000000  1
  Bi  Bi17  1  0.666667  0.333333  0.500000  1
