# generated using pymatgen
data_Ce2Ho3Fe2
_symmetry_space_group_name_H-M   'P 1'
_cell_length_a   6.35646424
_cell_length_b   6.71624086
_cell_length_c   8.67028334
_cell_angle_alpha   94.74007223
_cell_angle_beta   111.50398974
_cell_angle_gamma   90.00000068
_symmetry_Int_Tables_number   1
_chemical_formula_structural   Ce2Ho3Fe2
_chemical_formula_sum   'Ce4 Ho6 Fe4'
_cell_volume   343.02151647
_cell_formula_units_Z   2
loop_
 _symmetry_equiv_pos_site_id
 _symmetry_equiv_pos_as_xyz
  1  'x, y, z'
loop_
 _atom_site_type_symbol
 _atom_site_label
 _atom_site_symmetry_multiplicity
 _atom_site_fract_x
 _atom_site_fract_y
 _atom_site_fract_z
 _atom_site_occupancy
  Ce  Ce0  1  0.972316  0.885569  0.190201  1
  Ce  Ce1  1  0.782115  0.614431  0.809799  1
  Ce  Ce2  1  0.027684  0.114431  0.809799  1
  Ce  Ce3  1  0.217885  0.385569  0.190201  1
  Ho  Ho4  1  0.641333  0.821170  0.431483  1
  Ho  Ho5  1  0.209850  0.678830  0.568517  1
  Ho  Ho6  1  0.358667  0.178830  0.568517  1
  Ho  Ho7  1  0.790150  0.321170  0.431483  1
  Ho  Ho8  1  0.417413  0.750000  0.000000  1
  Ho  Ho9  1  0.582587  0.250000  0.000000  1
  Fe  Fe10  1  0.855167  0.601026  0.219537  1
  Fe  Fe11  1  0.635631  0.898974  0.780463  1
  Fe  Fe12  1  0.144833  0.398974  0.780463  1
  Fe  Fe13  1  0.364369  0.101026  0.219537  1
