# generated using pymatgen
data_PbBr16
_symmetry_space_group_name_H-M   'P 1'
_cell_length_a   17.43688981
_cell_length_b   17.43688556
_cell_length_c   5.84796077
_cell_angle_alpha   55.49574027
_cell_angle_beta   55.49574295
_cell_angle_gamma   78.28527734
_symmetry_Int_Tables_number   1
_chemical_formula_structural   PbBr16
_chemical_formula_sum   'Pb1 Br16'
_cell_volume   1189.17596556
_cell_formula_units_Z   1
loop_
 _symmetry_equiv_pos_site_id
 _symmetry_equiv_pos_as_xyz
  1  'x, y, z'
loop_
 _atom_site_type_symbol
 _atom_site_label
 _atom_site_symmetry_multiplicity
 _atom_site_fract_x
 _atom_site_fract_y
 _atom_site_fract_z
 _atom_site_occupancy
  Pb  Pb0  1  0.000000  0.000000  0.000000  1
  Br  Br1  1  0.379510  0.066136  0.220290  1
  Br  Br2  1  0.620490  0.933864  0.779710  1
  Br  Br3  1  0.933864  0.620490  0.779710  1
  Br  Br4  1  0.066136  0.379510  0.220290  1
  Br  Br5  1  0.500000  0.500000  0.000000  1
  Br  Br6  1  0.625798  0.625798  0.754511  1
  Br  Br7  1  0.374202  0.374202  0.245489  1
  Br  Br8  1  0.801580  0.064254  0.241063  1
  Br  Br9  1  0.198420  0.935746  0.758937  1
  Br  Br10  1  0.935746  0.198420  0.758937  1
  Br  Br11  1  0.064254  0.801580  0.241063  1
  Br  Br12  1  0.000000  0.000000  0.500000  1
  Br  Br13  1  0.617325  0.791300  0.244750  1
  Br  Br14  1  0.382675  0.208700  0.755250  1
  Br  Br15  1  0.208700  0.382675  0.755250  1
  Br  Br16  1  0.791300  0.617325  0.244750  1
