# generated using pymatgen
data_NaEr(CO3)2
_symmetry_space_group_name_H-M   'P 1'
_cell_length_a   6.32883322
_cell_length_b   6.32883367
_cell_length_c   6.32883360
_cell_angle_alpha   47.06442543
_cell_angle_beta   47.06442507
_cell_angle_gamma   47.06442856
_symmetry_Int_Tables_number   1
_chemical_formula_structural   NaEr(CO3)2
_chemical_formula_sum   'Na1 Er1 C2 O6'
_cell_volume   124.22094910
_cell_formula_units_Z   1
loop_
 _symmetry_equiv_pos_site_id
 _symmetry_equiv_pos_as_xyz
  1  'x, y, z'
loop_
 _atom_site_type_symbol
 _atom_site_label
 _atom_site_symmetry_multiplicity
 _atom_site_fract_x
 _atom_site_fract_y
 _atom_site_fract_z
 _atom_site_occupancy
  Na  Na0  1  0.500000  0.500000  0.500000  1
  Er  Er1  1  0.000000  0.000000  0.000000  1
  C  C2  1  0.255876  0.255876  0.255876  1
  C  C3  1  0.744124  0.744124  0.744124  1
  O  O4  1  0.477623  0.764710  0.990146  1
  O  O5  1  0.009853  0.522378  0.235291  1
  O  O6  1  0.235291  0.009853  0.522377  1
  O  O7  1  0.764709  0.990147  0.477623  1
  O  O8  1  0.990147  0.477622  0.764709  1
  O  O9  1  0.522377  0.235290  0.009854  1
