# generated using pymatgen
data_Li4Ce2ThSi4
_symmetry_space_group_name_H-M   'P 1'
_cell_length_a   4.40816580
_cell_length_b   6.70333574
_cell_length_c   8.25191877
_cell_angle_alpha   113.96434424
_cell_angle_beta   105.49175614
_cell_angle_gamma   89.99999119
_symmetry_Int_Tables_number   1
_chemical_formula_structural   Li4Ce2ThSi4
_chemical_formula_sum   'Li4 Ce2 Th1 Si4'
_cell_volume   213.08900757
_cell_formula_units_Z   1
loop_
 _symmetry_equiv_pos_site_id
 _symmetry_equiv_pos_as_xyz
  1  'x, y, z'
loop_
 _atom_site_type_symbol
 _atom_site_label
 _atom_site_symmetry_multiplicity
 _atom_site_fract_x
 _atom_site_fract_y
 _atom_site_fract_z
 _atom_site_occupancy
  Li  Li0  1  0.670436  0.980471  0.340871  1
  Li  Li1  1  0.329564  0.019529  0.659129  1
  Li  Li2  1  0.329564  0.639600  0.659129  1
  Li  Li3  1  0.670436  0.360400  0.340871  1
  Ce  Ce4  1  0.130393  0.630393  0.260785  1
  Ce  Ce5  1  0.869607  0.369607  0.739215  1
  Th  Th6  1  0.000000  0.000000  0.000000  1
  Si  Si7  1  0.500000  0.679521  0.000000  1
  Si  Si8  1  0.500000  0.320479  0.000000  1
  Si  Si9  1  0.786857  0.786857  0.573714  1
  Si  Si10  1  0.213143  0.213143  0.426286  1
