# generated using pymatgen
data_TmCu2Pt2Au
_symmetry_space_group_name_H-M   'P 1'
_cell_length_a   5.16531644
_cell_length_b   5.16531552
_cell_length_c   5.47140700
_cell_angle_alpha   58.01958120
_cell_angle_beta   58.01958754
_cell_angle_gamma   58.19842940
_symmetry_Int_Tables_number   1
_chemical_formula_structural   TmCu2Pt2Au
_chemical_formula_sum   'Tm1 Cu2 Pt2 Au1'
_cell_volume   98.67646386
_cell_formula_units_Z   1
loop_
 _symmetry_equiv_pos_site_id
 _symmetry_equiv_pos_as_xyz
  1  'x, y, z'
loop_
 _atom_site_type_symbol
 _atom_site_label
 _atom_site_symmetry_multiplicity
 _atom_site_fract_x
 _atom_site_fract_y
 _atom_site_fract_z
 _atom_site_occupancy
  Tm  Tm0  1  0.255250  0.255250  0.244750  1
  Cu  Cu1  1  0.620146  0.121664  0.629095  1
  Cu  Cu2  1  0.121664  0.620146  0.629095  1
  Pt  Pt3  1  0.623356  0.623356  0.626222  1
  Pt  Pt4  1  0.623356  0.623356  0.127064  1
  Au  Au5  1  0.006227  0.006227  0.993773  1
