# generated using pymatgen
data_Ho9TmBiPb5
_symmetry_space_group_name_H-M   'P 1'
_cell_length_a   9.05035800
_cell_length_b   9.04696390
_cell_length_c   6.53872100
_cell_angle_alpha   89.99934769
_cell_angle_beta   89.99909470
_cell_angle_gamma   120.01269634
_symmetry_Int_Tables_number   1
_chemical_formula_structural   Ho9TmBiPb5
_chemical_formula_sum   'Ho9 Tm1 Bi1 Pb5'
_cell_volume   463.59258202
_cell_formula_units_Z   1
loop_
 _symmetry_equiv_pos_site_id
 _symmetry_equiv_pos_as_xyz
  1  'x, y, z'
loop_
 _atom_site_type_symbol
 _atom_site_label
 _atom_site_symmetry_multiplicity
 _atom_site_fract_x
 _atom_site_fract_y
 _atom_site_fract_z
 _atom_site_occupancy
  Ho  Ho0  1  0.667020  0.335265  0.501052  1
  Ho  Ho1  1  0.667008  0.335268  0.998909  1
  Ho  Ho2  1  0.331756  0.664758  0.501332  1
  Ho  Ho3  1  0.235796  0.000036  0.249949  1
  Ho  Ho4  1  0.237253  0.237758  0.749976  1
  Ho  Ho5  1  0.999431  0.762179  0.749993  1
  Ho  Ho6  1  0.003321  0.239280  0.249940  1
  Ho  Ho7  1  0.764053  0.760670  0.249924  1
  Ho  Ho8  1  0.762494  0.000036  0.749984  1
  Tm  Tm9  1  0.331566  0.664540  0.998935  1
  Bi  Bi10  1  0.606353  0.999745  0.249730  1
  Pb  Pb11  1  0.604959  0.606764  0.750357  1
  Pb  Pb12  1  0.999259  0.393712  0.750386  1
  Pb  Pb13  1  0.000915  0.605356  0.249566  1
  Pb  Pb14  1  0.394997  0.395224  0.249550  1
  Pb  Pb15  1  0.393816  0.999408  0.750417  1
