# generated using pymatgen
data_YPa(B2Os)2
_symmetry_space_group_name_H-M   'P 1'
_cell_length_a   5.82916000
_cell_length_b   5.35748900
_cell_length_c   6.49403400
_cell_angle_alpha   90.00000000
_cell_angle_beta   90.00000000
_cell_angle_gamma   90.00000000
_symmetry_Int_Tables_number   1
_chemical_formula_structural   YPa(B2Os)2
_chemical_formula_sum   'Y2 Pa2 B8 Os4'
_cell_volume   202.80647761
_cell_formula_units_Z   2
loop_
 _symmetry_equiv_pos_site_id
 _symmetry_equiv_pos_as_xyz
  1  'x, y, z'
loop_
 _atom_site_type_symbol
 _atom_site_label
 _atom_site_symmetry_multiplicity
 _atom_site_fract_x
 _atom_site_fract_y
 _atom_site_fract_z
 _atom_site_occupancy
  Y  Y0  1  0.993271  0.750000  0.663783  1
  Y  Y1  1  0.493271  0.750000  0.836217  1
  Pa  Pa2  1  0.000613  0.250000  0.331830  1
  Pa  Pa3  1  0.500613  0.250000  0.168170  1
  B  B4  1  0.366787  0.086052  0.539131  1
  B  B5  1  0.866787  0.413948  0.960869  1
  B  B6  1  0.633719  0.586340  0.465831  1
  B  B7  1  0.133719  0.913660  0.034169  1
  B  B8  1  0.633719  0.913660  0.465831  1
  B  B9  1  0.133719  0.586340  0.034169  1
  B  B10  1  0.366787  0.413948  0.539131  1
  B  B11  1  0.866787  0.086052  0.960869  1
  Os  Os12  1  0.188447  0.250000  0.820169  1
  Os  Os13  1  0.688447  0.250000  0.679831  1
  Os  Os14  1  0.816657  0.750000  0.190417  1
  Os  Os15  1  0.316657  0.750000  0.309583  1
