# generated using pymatgen
data_Tm2Ta7MoN12
_symmetry_space_group_name_H-M   'P 1'
_cell_length_a   5.27735810
_cell_length_b   5.27735836
_cell_length_c   10.70905518
_cell_angle_alpha   89.98948061
_cell_angle_beta   89.98947904
_cell_angle_gamma   119.97985557
_symmetry_Int_Tables_number   1
_chemical_formula_structural   Tm2Ta7MoN12
_chemical_formula_sum   'Tm2 Ta7 Mo1 N12'
_cell_volume   258.34676681
_cell_formula_units_Z   1
loop_
 _symmetry_equiv_pos_site_id
 _symmetry_equiv_pos_as_xyz
  1  'x, y, z'
loop_
 _atom_site_type_symbol
 _atom_site_label
 _atom_site_symmetry_multiplicity
 _atom_site_fract_x
 _atom_site_fract_y
 _atom_site_fract_z
 _atom_site_occupancy
  Tm  Tm0  1  0.667517  0.335169  0.999068  1
  Tm  Tm1  1  0.335169  0.667517  0.999068  1
  Ta  Ta2  1  0.322768  0.998532  0.741461  1
  Ta  Ta3  1  0.998532  0.322768  0.741461  1
  Ta  Ta4  1  0.321291  0.321291  0.259652  1
  Ta  Ta5  1  0.678860  0.000378  0.259735  1
  Ta  Ta6  1  0.000378  0.678860  0.259735  1
  Ta  Ta7  1  0.333364  0.666594  0.497486  1
  Ta  Ta8  1  0.666594  0.333364  0.497486  1
  Mo  Mo9  1  0.674470  0.674470  0.737585  1
  N  N10  1  0.662128  0.662128  0.386201  1
  N  N11  1  0.338906  0.000628  0.385284  1
  N  N12  1  0.000628  0.338906  0.385284  1
  N  N13  1  0.340080  0.340080  0.615459  1
  N  N14  1  0.655683  0.002748  0.616193  1
  N  N15  1  0.002748  0.655683  0.616193  1
  N  N16  1  0.338193  0.338193  0.857886  1
  N  N17  1  0.658404  0.002734  0.858084  1
  N  N18  1  0.002734  0.658404  0.858084  1
  N  N19  1  0.656977  0.656977  0.142931  1
  N  N20  1  0.344145  0.000434  0.142831  1
  N  N21  1  0.000434  0.344145  0.142831  1
