# generated using pymatgen
data_Er3Th2(In2Rh)2
_symmetry_space_group_name_H-M   'P 1'
_cell_length_a   3.77761400
_cell_length_b   8.02599400
_cell_length_c   18.01505600
_cell_angle_alpha   90.00000000
_cell_angle_beta   90.00000000
_cell_angle_gamma   90.00000000
_symmetry_Int_Tables_number   1
_chemical_formula_structural   Er3Th2(In2Rh)2
_chemical_formula_sum   'Er6 Th4 In8 Rh4'
_cell_volume   546.20041585
_cell_formula_units_Z   2
loop_
 _symmetry_equiv_pos_site_id
 _symmetry_equiv_pos_as_xyz
  1  'x, y, z'
loop_
 _atom_site_type_symbol
 _atom_site_label
 _atom_site_symmetry_multiplicity
 _atom_site_fract_x
 _atom_site_fract_y
 _atom_site_fract_z
 _atom_site_occupancy
  Er  Er0  1  0.000000  0.000000  0.000000  1
  Er  Er1  1  0.000000  0.500000  0.500000  1
  Er  Er2  1  0.000000  0.892884  0.586076  1
  Er  Er3  1  0.000000  0.107116  0.413924  1
  Er  Er4  1  0.000000  0.392884  0.913924  1
  Er  Er5  1  0.000000  0.607116  0.086076  1
  Th  Th6  1  0.000000  0.763594  0.781457  1
  Th  Th7  1  0.000000  0.236406  0.218543  1
  Th  Th8  1  0.000000  0.263594  0.718543  1
  Th  Th9  1  0.000000  0.736406  0.281457  1
  In  In10  1  0.500000  0.792929  0.439718  1
  In  In11  1  0.500000  0.207071  0.560282  1
  In  In12  1  0.500000  0.292929  0.060282  1
  In  In13  1  0.500000  0.707071  0.939718  1
  In  In14  1  0.500000  0.912520  0.144147  1
  In  In15  1  0.500000  0.087480  0.855853  1
  In  In16  1  0.500000  0.412520  0.355853  1
  In  In17  1  0.500000  0.587480  0.644147  1
  Rh  Rh18  1  0.500000  0.984675  0.698988  1
  Rh  Rh19  1  0.500000  0.015325  0.301012  1
  Rh  Rh20  1  0.500000  0.484675  0.801012  1
  Rh  Rh21  1  0.500000  0.515325  0.198988  1
