# generated using pymatgen
data_Tb20Ir9RuAu2
_symmetry_space_group_name_H-M   'P 1'
_cell_length_a   11.06786303
_cell_length_b   11.03132624
_cell_length_c   6.39061425
_cell_angle_alpha   90.00246196
_cell_angle_beta   89.87040279
_cell_angle_gamma   90.02349099
_symmetry_Int_Tables_number   1
_chemical_formula_structural   Tb20Ir9RuAu2
_chemical_formula_sum   'Tb20 Ir9 Ru1 Au2'
_cell_volume   780.24853181
_cell_formula_units_Z   1
loop_
 _symmetry_equiv_pos_site_id
 _symmetry_equiv_pos_as_xyz
  1  'x, y, z'
loop_
 _atom_site_type_symbol
 _atom_site_label
 _atom_site_symmetry_multiplicity
 _atom_site_fract_x
 _atom_site_fract_y
 _atom_site_fract_z
 _atom_site_occupancy
  Tb  Tb0  1  0.293140  0.088303  0.375191  1
  Tb  Tb1  1  0.293661  0.911910  0.877473  1
  Tb  Tb2  1  0.697897  0.091604  0.869844  1
  Tb  Tb3  1  0.698357  0.908580  0.366218  1
  Tb  Tb4  1  0.579229  0.791402  0.881619  1
  Tb  Tb5  1  0.579047  0.208821  0.379084  1
  Tb  Tb6  1  0.409323  0.791968  0.379006  1
  Tb  Tb7  1  0.409199  0.207706  0.880634  1
  Tb  Tb8  1  0.209391  0.410129  0.619143  1
  Tb  Tb9  1  0.209214  0.589798  0.119137  1
  Tb  Tb10  1  0.789918  0.418349  0.119891  1
  Tb  Tb11  1  0.789609  0.581885  0.620006  1
  Tb  Tb12  1  0.915246  0.705012  0.135494  1
  Tb  Tb13  1  0.915042  0.294823  0.635906  1
  Tb  Tb14  1  0.096959  0.704165  0.621323  1
  Tb  Tb15  1  0.096622  0.296163  0.120779  1
  Tb  Tb16  1  0.008586  0.998705  0.499030  1
  Tb  Tb17  1  0.008414  0.001132  0.999261  1
  Tb  Tb18  1  0.499289  0.498962  0.998917  1
  Tb  Tb19  1  0.499316  0.500916  0.498761  1
  Ir  Ir20  1  0.153426  0.153751  0.749875  1
  Ir  Ir21  1  0.153622  0.846001  0.249850  1
  Ir  Ir22  1  0.655378  0.346467  0.748176  1
  Ir  Ir23  1  0.655662  0.653174  0.248020  1
  Ir  Ir24  1  0.347091  0.346331  0.250595  1
  Ir  Ir25  1  0.347307  0.653613  0.750581  1
  Ir  Ir26  1  0.500433  0.000294  0.623745  1
  Ir  Ir27  1  0.999512  0.501148  0.877993  1
  Ir  Ir28  1  0.999529  0.498983  0.378601  1
  Ru  Ru29  1  0.500909  0.999549  0.126626  1
  Au  Au30  1  0.844937  0.155088  0.249771  1
  Au  Au31  1  0.844735  0.845266  0.749449  1
