# generated using pymatgen
data_Ta12Al8Re3RhC4
_symmetry_space_group_name_H-M   'P 1'
_cell_length_a   8.37639264
_cell_length_b   8.37639355
_cell_length_c   8.30088549
_cell_angle_alpha   59.69864681
_cell_angle_beta   59.69864573
_cell_angle_gamma   60.00000071
_symmetry_Int_Tables_number   1
_chemical_formula_structural   Ta12Al8Re3RhC4
_chemical_formula_sum   'Ta12 Al8 Re3 Rh1 C4'
_cell_volume   409.94938771
_cell_formula_units_Z   1
loop_
 _symmetry_equiv_pos_site_id
 _symmetry_equiv_pos_as_xyz
  1  'x, y, z'
loop_
 _atom_site_type_symbol
 _atom_site_label
 _atom_site_symmetry_multiplicity
 _atom_site_fract_x
 _atom_site_fract_y
 _atom_site_fract_z
 _atom_site_occupancy
  Ta  Ta0  1  0.566761  0.939773  0.553694  1
  Ta  Ta1  1  0.310227  0.683239  0.696306  1
  Ta  Ta2  1  0.692438  0.307725  0.307398  1
  Ta  Ta3  1  0.307725  0.692438  0.307398  1
  Ta  Ta4  1  0.692438  0.692438  0.307398  1
  Ta  Ta5  1  0.310227  0.310227  0.696306  1
  Ta  Ta6  1  0.557562  0.557562  0.942602  1
  Ta  Ta7  1  0.939773  0.566761  0.553694  1
  Ta  Ta8  1  0.557562  0.942275  0.942602  1
  Ta  Ta9  1  0.939773  0.939773  0.553694  1
  Ta  Ta10  1  0.683239  0.310227  0.696306  1
  Ta  Ta11  1  0.942275  0.557562  0.942602  1
  Al  Al12  1  0.917365  0.917365  0.910627  1
  Al  Al13  1  0.995357  0.332635  0.339373  1
  Al  Al14  1  0.332635  0.995357  0.339373  1
  Al  Al15  1  0.332429  0.332429  0.002712  1
  Al  Al16  1  0.917365  0.254643  0.910627  1
  Al  Al17  1  0.917571  0.917571  0.247288  1
  Al  Al18  1  0.254643  0.917365  0.910627  1
  Al  Al19  1  0.332635  0.332635  0.339373  1
  Re  Re20  1  0.125000  0.125000  0.125000  1
  Re  Re21  1  0.625000  0.125000  0.125000  1
  Re  Re22  1  0.125000  0.625000  0.125000  1
  Rh  Rh23  1  0.125000  0.125000  0.625000  1
  C  C24  1  0.625000  0.625000  0.625000  1
  C  C25  1  0.125000  0.625000  0.625000  1
  C  C26  1  0.625000  0.125000  0.625000  1
  C  C27  1  0.625000  0.625000  0.125000  1
