# generated using pymatgen
data_Ca3Er3Si24Os5Ru3
_symmetry_space_group_name_H-M   'P 1'
_cell_length_a   10.15366350
_cell_length_b   10.15380936
_cell_length_c   8.14086207
_cell_angle_alpha   89.93543057
_cell_angle_beta   90.02098701
_cell_angle_gamma   132.72888855
_symmetry_Int_Tables_number   1
_chemical_formula_structural   Ca3Er3Si24Os5Ru3
_chemical_formula_sum   'Ca3 Er3 Si24 Os5 Ru3'
_cell_volume   616.53329887
_cell_formula_units_Z   1
loop_
 _symmetry_equiv_pos_site_id
 _symmetry_equiv_pos_as_xyz
  1  'x, y, z'
loop_
 _atom_site_type_symbol
 _atom_site_label
 _atom_site_symmetry_multiplicity
 _atom_site_fract_x
 _atom_site_fract_y
 _atom_site_fract_z
 _atom_site_occupancy
  Ca  Ca0  1  0.499868  0.499805  0.499894  1
  Ca  Ca1  1  0.000053  0.000114  0.999599  1
  Ca  Ca2  1  0.500674  0.000796  0.750038  1
  Er  Er3  1  0.000536  0.500988  0.250001  1
  Er  Er4  1  0.500164  0.999700  0.250103  1
  Er  Er5  1  0.000317  0.500329  0.749974  1
  Si  Si6  1  0.795990  0.202893  0.500694  1
  Si  Si7  1  0.297587  0.705143  0.998700  1
  Si  Si8  1  0.204997  0.797605  0.501440  1
  Si  Si9  1  0.702909  0.295862  0.999416  1
  Si  Si10  1  0.333393  0.334733  0.832326  1
  Si  Si11  1  0.665715  0.668427  0.167567  1
  Si  Si12  1  0.167697  0.164849  0.330620  1
  Si  Si13  1  0.832707  0.831289  0.667278  1
  Si  Si14  1  0.121879  0.888946  0.730894  1
  Si  Si15  1  0.109637  0.877987  0.270850  1
  Si  Si16  1  0.608489  0.376760  0.229171  1
  Si  Si17  1  0.624453  0.391659  0.769504  1
  Si  Si18  1  0.877681  0.109313  0.270788  1
  Si  Si19  1  0.890805  0.123718  0.730971  1
  Si  Si20  1  0.389488  0.622378  0.769652  1
  Si  Si21  1  0.377071  0.608788  0.229072  1
  Si  Si22  1  0.347144  0.113949  0.505372  1
  Si  Si23  1  0.886617  0.654508  0.494208  1
  Si  Si24  1  0.385964  0.152834  0.008008  1
  Si  Si25  1  0.845105  0.613473  0.992335  1
  Si  Si26  1  0.652727  0.885402  0.493215  1
  Si  Si27  1  0.113536  0.345691  0.507476  1
  Si  Si28  1  0.613811  0.846538  0.994439  1
  Si  Si29  1  0.154655  0.387241  0.006957  1
  Os  Os30  1  0.673553  0.329908  0.497690  1
  Os  Os31  1  0.169046  0.826125  0.002367  1
  Os  Os32  1  0.326146  0.669057  0.497586  1
  Os  Os33  1  0.829899  0.173534  0.002257  1
  Os  Os34  1  0.126488  0.126366  0.625620  1
  Ru  Ru35  1  0.873009  0.873593  0.374576  1
  Ru  Ru36  1  0.373966  0.373391  0.124889  1
  Ru  Ru37  1  0.626225  0.626305  0.874452  1
