# generated using pymatgen
data_Sc2V2FeCo7P6
_symmetry_space_group_name_H-M   'P 1'
_cell_length_a   3.58914500
_cell_length_b   10.26515800
_cell_length_c   11.74443600
_cell_angle_alpha   90.00000000
_cell_angle_beta   90.00000000
_cell_angle_gamma   90.00000000
_symmetry_Int_Tables_number   1
_chemical_formula_structural   Sc2V2FeCo7P6
_chemical_formula_sum   'Sc4 V4 Fe2 Co14 P12'
_cell_volume   432.70190576
_cell_formula_units_Z   2
loop_
 _symmetry_equiv_pos_site_id
 _symmetry_equiv_pos_as_xyz
  1  'x, y, z'
loop_
 _atom_site_type_symbol
 _atom_site_label
 _atom_site_symmetry_multiplicity
 _atom_site_fract_x
 _atom_site_fract_y
 _atom_site_fract_z
 _atom_site_occupancy
  Sc  Sc0  1  0.250000  0.581405  0.705724  1
  Sc  Sc1  1  0.250000  0.918595  0.205724  1
  Sc  Sc2  1  0.750000  0.417879  0.294212  1
  Sc  Sc3  1  0.750000  0.082121  0.794212  1
  V  V4  1  0.250000  0.706443  0.988840  1
  V  V5  1  0.250000  0.793557  0.488840  1
  V  V6  1  0.750000  0.293878  0.010227  1
  V  V7  1  0.750000  0.206122  0.510227  1
  Fe  Fe8  1  0.250000  0.406323  0.488246  1
  Fe  Fe9  1  0.250000  0.093677  0.988246  1
  Co  Co10  1  0.750000  0.595038  0.513083  1
  Co  Co11  1  0.750000  0.904962  0.013083  1
  Co  Co12  1  0.250000  0.221230  0.177352  1
  Co  Co13  1  0.250000  0.278771  0.677352  1
  Co  Co14  1  0.750000  0.779243  0.822786  1
  Co  Co15  1  0.750000  0.720757  0.322786  1
  Co  Co16  1  0.250000  0.885323  0.699743  1
  Co  Co17  1  0.250000  0.614677  0.199743  1
  Co  Co18  1  0.750000  0.113567  0.299749  1
  Co  Co19  1  0.750000  0.386433  0.799749  1
  Co  Co20  1  0.250000  0.464940  0.933147  1
  Co  Co21  1  0.250000  0.035060  0.433147  1
  Co  Co22  1  0.750000  0.535372  0.066992  1
  Co  Co23  1  0.750000  0.964628  0.566992  1
  P  P24  1  0.250000  0.419218  0.117634  1
  P  P25  1  0.250000  0.080782  0.617634  1
  P  P26  1  0.750000  0.580800  0.882447  1
  P  P27  1  0.750000  0.919200  0.382447  1
  P  P28  1  0.250000  0.262933  0.865761  1
  P  P29  1  0.250000  0.237067  0.365761  1
  P  P30  1  0.750000  0.735903  0.134992  1
  P  P31  1  0.750000  0.764097  0.634992  1
  P  P32  1  0.250000  0.592246  0.389370  1
  P  P33  1  0.250000  0.907754  0.889370  1
  P  P34  1  0.750000  0.406795  0.609696  1
  P  P35  1  0.750000  0.093205  0.109696  1
