# generated using pymatgen
data_Dy5MgVFe(Co4P3)4
_symmetry_space_group_name_H-M   'P 1'
_cell_length_a   12.10053500
_cell_length_b   12.10053440
_cell_length_c   3.68893400
_cell_angle_alpha   90.00000000
_cell_angle_beta   90.00000000
_cell_angle_gamma   120.23444332
_symmetry_Int_Tables_number   1
_chemical_formula_structural   Dy5MgVFe(Co4P3)4
_chemical_formula_sum   'Dy5 Mg1 V1 Fe1 Co16 P12'
_cell_volume   466.66991547
_cell_formula_units_Z   1
loop_
 _symmetry_equiv_pos_site_id
 _symmetry_equiv_pos_as_xyz
  1  'x, y, z'
loop_
 _atom_site_type_symbol
 _atom_site_label
 _atom_site_symmetry_multiplicity
 _atom_site_fract_x
 _atom_site_fract_y
 _atom_site_fract_z
 _atom_site_occupancy
  Dy  Dy0  1  0.668410  0.331304  0.000000  1
  Dy  Dy1  1  0.330699  0.667679  0.000000  1
  Dy  Dy2  1  0.183031  0.184356  0.500000  1
  Dy  Dy3  1  0.811139  0.002107  0.500000  1
  Dy  Dy4  1  0.000842  0.813251  0.500000  1
  Mg  Mg5  1  0.558926  0.559070  0.000000  1
  V  V6  1  0.000992  0.441530  0.000000  1
  Fe  Fe7  1  0.446977  0.001630  0.000000  1
  Co  Co8  1  0.822203  0.198437  0.000000  1
  Co  Co9  1  0.803266  0.622824  0.000000  1
  Co  Co10  1  0.376182  0.174908  0.000000  1
  Co  Co11  1  0.201166  0.823648  0.000000  1
  Co  Co12  1  0.622595  0.803227  0.000000  1
  Co  Co13  1  0.175817  0.374449  0.000000  1
  Co  Co14  1  0.642815  0.128199  0.500000  1
  Co  Co15  1  0.878821  0.519068  0.500000  1
  Co  Co16  1  0.481201  0.354139  0.500000  1
  Co  Co17  1  0.126860  0.643946  0.500000  1
  Co  Co18  1  0.517141  0.878191  0.500000  1
  Co  Co19  1  0.353891  0.482871  0.500000  1
  Co  Co20  1  0.718389  0.718500  0.500000  1
  Co  Co21  1  0.282996  0.999092  0.500000  1
  Co  Co22  1  0.999141  0.281398  0.500000  1
  Co  Co23  1  0.999254  0.997656  0.000000  1
  P  P24  1  0.359113  0.357323  0.000000  1
  P  P25  1  0.631112  0.001916  0.000000  1
  P  P26  1  0.003329  0.636095  0.000000  1
  P  P27  1  0.836204  0.315104  0.500000  1
  P  P28  1  0.692246  0.518451  0.500000  1
  P  P29  1  0.478677  0.164401  0.500000  1
  P  P30  1  0.315823  0.837061  0.500000  1
  P  P31  1  0.518298  0.692777  0.500000  1
  P  P32  1  0.164384  0.478671  0.500000  1
  P  P33  1  0.819362  0.819650  0.000000  1
  P  P34  1  0.180319  0.998976  0.000000  1
  P  P35  1  0.998380  0.178094  0.000000  1
