# generated using pymatgen
data_TbSm9(In2Rh)4
_symmetry_space_group_name_H-M   'P 1'
_cell_length_a   3.72743400
_cell_length_b   8.13647289
_cell_length_c   18.54100812
_cell_angle_alpha   90.05413714
_cell_angle_beta   90.00000000
_cell_angle_gamma   90.00000000
_symmetry_Int_Tables_number   1
_chemical_formula_structural   TbSm9(In2Rh)4
_chemical_formula_sum   'Tb1 Sm9 In8 Rh4'
_cell_volume   562.31451504
_cell_formula_units_Z   1
loop_
 _symmetry_equiv_pos_site_id
 _symmetry_equiv_pos_as_xyz
  1  'x, y, z'
loop_
 _atom_site_type_symbol
 _atom_site_label
 _atom_site_symmetry_multiplicity
 _atom_site_fract_x
 _atom_site_fract_y
 _atom_site_fract_z
 _atom_site_occupancy
  Tb  Tb0  1  0.000000  0.117434  0.410802  1
  Sm  Sm1  1  0.000000  0.500269  0.499695  1
  Sm  Sm2  1  0.000000  0.000015  0.000168  1
  Sm  Sm3  1  0.000000  0.747976  0.278823  1
  Sm  Sm4  1  0.000000  0.251793  0.721508  1
  Sm  Sm5  1  0.000000  0.751714  0.777930  1
  Sm  Sm6  1  0.000000  0.248047  0.222336  1
  Sm  Sm7  1  0.000000  0.618667  0.088738  1
  Sm  Sm8  1  0.000000  0.381051  0.911420  1
  Sm  Sm9  1  0.000000  0.881398  0.588031  1
  In  In10  1  0.500000  0.706804  0.930146  1
  In  In11  1  0.500000  0.292917  0.069928  1
  In  In12  1  0.500000  0.795781  0.430655  1
  In  In13  1  0.500000  0.206663  0.568178  1
  In  In14  1  0.500000  0.564177  0.649962  1
  In  In15  1  0.500000  0.432746  0.350242  1
  In  In16  1  0.500000  0.935503  0.150780  1
  In  In17  1  0.500000  0.064263  0.849720  1
  Rh  Rh18  1  0.500000  0.519324  0.194785  1
  Rh  Rh19  1  0.500000  0.480771  0.805260  1
  Rh  Rh20  1  0.500000  0.981756  0.694014  1
  Rh  Rh21  1  0.500000  0.020930  0.306876  1
