# generated using pymatgen
data_Nb12Cr2Ga9CuN4
_symmetry_space_group_name_H-M   'P 1'
_cell_length_a   8.21079093
_cell_length_b   8.24541453
_cell_length_c   8.24541495
_cell_angle_alpha   60.57130268
_cell_angle_beta   60.47958286
_cell_angle_gamma   60.47957974
_symmetry_Int_Tables_number   1
_chemical_formula_structural   Nb12Cr2Ga9CuN4
_chemical_formula_sum   'Nb12 Cr2 Ga9 Cu1 N4'
_cell_volume   399.27533093
_cell_formula_units_Z   1
loop_
 _symmetry_equiv_pos_site_id
 _symmetry_equiv_pos_as_xyz
  1  'x, y, z'
loop_
 _atom_site_type_symbol
 _atom_site_label
 _atom_site_symmetry_multiplicity
 _atom_site_fract_x
 _atom_site_fract_y
 _atom_site_fract_z
 _atom_site_occupancy
  Nb  Nb0  1  0.807454  0.805123  0.192608  1
  Nb  Nb1  1  0.194183  0.195101  0.805074  1
  Nb  Nb2  1  0.807454  0.192608  0.805123  1
  Nb  Nb3  1  0.194183  0.805074  0.195101  1
  Nb  Nb4  1  0.192948  0.805164  0.805164  1
  Nb  Nb5  1  0.807643  0.192915  0.192915  1
  Nb  Nb6  1  0.442546  0.444877  0.057392  1
  Nb  Nb7  1  0.055817  0.054899  0.444926  1
  Nb  Nb8  1  0.442546  0.057392  0.444877  1
  Nb  Nb9  1  0.055817  0.444926  0.054899  1
  Nb  Nb10  1  0.057052  0.444836  0.444836  1
  Nb  Nb11  1  0.442357  0.057085  0.057085  1
  Cr  Cr12  1  0.625000  0.125000  0.625000  1
  Cr  Cr13  1  0.625000  0.625000  0.125000  1
  Ga  Ga14  1  0.125000  0.625000  0.625000  1
  Ga  Ga15  1  0.760701  0.413576  0.413576  1
  Ga  Ga16  1  0.422736  0.760608  0.408536  1
  Ga  Ga17  1  0.422736  0.408536  0.760608  1
  Ga  Ga18  1  0.421968  0.409278  0.409278  1
  Ga  Ga19  1  0.489299  0.836424  0.836424  1
  Ga  Ga20  1  0.827264  0.489392  0.841464  1
  Ga  Ga21  1  0.827264  0.841464  0.489392  1
  Ga  Ga22  1  0.828032  0.840722  0.840722  1
  Cu  Cu23  1  0.625000  0.625000  0.625000  1
  N  N24  1  0.625000  0.125000  0.125000  1
  N  N25  1  0.125000  0.625000  0.125000  1
  N  N26  1  0.125000  0.125000  0.625000  1
  N  N27  1  0.125000  0.125000  0.125000  1
