# generated using pymatgen
data_Ho3Zr(Al3Rh)6
_symmetry_space_group_name_H-M   'P 1'
_cell_length_a   7.51715011
_cell_length_b   7.50371507
_cell_length_c   9.39767000
_cell_angle_alpha   90.00000000
_cell_angle_beta   90.00000000
_cell_angle_gamma   119.43309626
_symmetry_Int_Tables_number   1
_chemical_formula_structural   Ho3Zr(Al3Rh)6
_chemical_formula_sum   'Ho3 Zr1 Al18 Rh6'
_cell_volume   461.67148206
_cell_formula_units_Z   1
loop_
 _symmetry_equiv_pos_site_id
 _symmetry_equiv_pos_as_xyz
  1  'x, y, z'
loop_
 _atom_site_type_symbol
 _atom_site_label
 _atom_site_symmetry_multiplicity
 _atom_site_fract_x
 _atom_site_fract_y
 _atom_site_fract_z
 _atom_site_occupancy
  Ho  Ho0  1  0.006556  0.326285  0.750000  1
  Ho  Ho1  1  0.672631  0.995884  0.250000  1
  Ho  Ho2  1  0.327320  0.006902  0.750000  1
  Zr  Zr3  1  0.996239  0.672102  0.250000  1
  Al  Al4  1  0.125107  0.122470  0.250000  1
  Al  Al5  1  0.869828  0.868879  0.750000  1
  Al  Al6  1  0.000397  0.339008  0.079635  1
  Al  Al7  1  0.999570  0.664126  0.926783  1
  Al  Al8  1  0.999570  0.664126  0.573217  1
  Al  Al9  1  0.332478  0.997665  0.420271  1
  Al  Al10  1  0.000397  0.339008  0.420365  1
  Al  Al11  1  0.663570  0.998464  0.576422  1
  Al  Al12  1  0.663570  0.998464  0.923578  1
  Al  Al13  1  0.332478  0.997665  0.079729  1
  Al  Al14  1  0.334095  0.334128  0.548686  1
  Al  Al15  1  0.670052  0.667696  0.444520  1
  Al  Al16  1  0.670052  0.667696  0.055480  1
  Al  Al17  1  0.334095  0.334128  0.951314  1
  Al  Al18  1  0.336547  0.552010  0.250000  1
  Al  Al19  1  0.660147  0.449755  0.750000  1
  Al  Al20  1  0.557018  0.344456  0.250000  1
  Al  Al21  1  0.448150  0.658534  0.750000  1
  Rh  Rh22  1  0.672893  0.328568  0.000945  1
  Rh  Rh23  1  0.327635  0.672487  0.001565  1
  Rh  Rh24  1  0.327635  0.672487  0.498435  1
  Rh  Rh25  1  0.672893  0.328568  0.499055  1
  Rh  Rh26  1  0.999538  0.999221  0.000751  1
  Rh  Rh27  1  0.999538  0.999221  0.499249  1
