# generated using pymatgen
data_Zn22FeCuNi
_symmetry_space_group_name_H-M   'P 1'
_cell_length_a   7.69885044
_cell_length_b   7.69884927
_cell_length_c   7.68837248
_cell_angle_alpha   71.72422806
_cell_angle_beta   71.72422677
_cell_angle_gamma   58.44430785
_symmetry_Int_Tables_number   1
_chemical_formula_structural   Zn22FeCuNi
_chemical_formula_sum   'Zn22 Fe1 Cu1 Ni1'
_cell_volume   362.38839849
_cell_formula_units_Z   1
loop_
 _symmetry_equiv_pos_site_id
 _symmetry_equiv_pos_as_xyz
  1  'x, y, z'
loop_
 _atom_site_type_symbol
 _atom_site_label
 _atom_site_symmetry_multiplicity
 _atom_site_fract_x
 _atom_site_fract_y
 _atom_site_fract_z
 _atom_site_occupancy
  Zn  Zn0  1  0.340887  0.742994  0.315416  1
  Zn  Zn1  1  0.655272  0.257082  0.688363  1
  Zn  Zn2  1  0.257082  0.655272  0.688363  1
  Zn  Zn3  1  0.742994  0.340887  0.315416  1
  Zn  Zn4  1  0.677838  0.321167  0.998761  1
  Zn  Zn5  1  0.321167  0.677838  0.998761  1
  Zn  Zn6  1  0.832624  0.832624  0.780658  1
  Zn  Zn7  1  0.168986  0.168986  0.216881  1
  Zn  Zn8  1  0.977867  0.977867  0.175573  1
  Zn  Zn9  1  0.022386  0.022386  0.823694  1
  Zn  Zn10  1  0.352828  0.352828  0.272894  1
  Zn  Zn11  1  0.647421  0.647421  0.725278  1
  Zn  Zn12  1  0.687229  0.687229  0.376406  1
  Zn  Zn13  1  0.314053  0.314053  0.622885  1
  Zn  Zn14  1  0.662920  0.022324  0.463868  1
  Zn  Zn15  1  0.337377  0.977035  0.535842  1
  Zn  Zn16  1  0.977035  0.337377  0.535842  1
  Zn  Zn17  1  0.022324  0.662920  0.463868  1
  Zn  Zn18  1  0.615928  0.002094  0.100547  1
  Zn  Zn19  1  0.380978  0.002955  0.899306  1
  Zn  Zn20  1  0.002955  0.380978  0.899306  1
  Zn  Zn21  1  0.002094  0.615928  0.100547  1
  Fe  Fe22  1  0.000414  0.000414  0.499966  1
  Cu  Cu23  1  0.656897  0.656897  0.056046  1
  Ni  Ni24  1  0.342445  0.342445  0.945513  1
