# generated using pymatgen
data_PrSc2Al7Ag2
_symmetry_space_group_name_H-M   'P 1'
_cell_length_a   9.18769455
_cell_length_b   9.18769581
_cell_length_c   9.18769500
_cell_angle_alpha   35.01569454
_cell_angle_beta   35.01568336
_cell_angle_gamma   35.01569772
_symmetry_Int_Tables_number   1
_chemical_formula_structural   PrSc2Al7Ag2
_chemical_formula_sum   'Pr1 Sc2 Al7 Ag2'
_cell_volume   228.00639987
_cell_formula_units_Z   1
loop_
 _symmetry_equiv_pos_site_id
 _symmetry_equiv_pos_as_xyz
  1  'x, y, z'
loop_
 _atom_site_type_symbol
 _atom_site_label
 _atom_site_symmetry_multiplicity
 _atom_site_fract_x
 _atom_site_fract_y
 _atom_site_fract_z
 _atom_site_occupancy
  Pr  Pr0  1  0.000000  0.000000  0.000000  1
  Sc  Sc1  1  0.856659  0.856659  0.856659  1
  Sc  Sc2  1  0.143341  0.143341  0.143341  1
  Al  Al3  1  0.409333  0.409333  0.922137  1
  Al  Al4  1  0.922137  0.409333  0.409333  1
  Al  Al5  1  0.409333  0.922137  0.409333  1
  Al  Al6  1  0.500000  0.500000  0.500000  1
  Al  Al7  1  0.590667  0.077863  0.590667  1
  Al  Al8  1  0.077863  0.590667  0.590667  1
  Al  Al9  1  0.590667  0.590667  0.077863  1
  Ag  Ag10  1  0.664661  0.664661  0.664661  1
  Ag  Ag11  1  0.335339  0.335339  0.335339  1
