# generated using pymatgen
data_Mn6Ga5SbRh12
_symmetry_space_group_name_H-M   'P 1'
_cell_length_a   4.33522500
_cell_length_b   6.10680700
_cell_length_c   12.99375200
_cell_angle_alpha   90.00000000
_cell_angle_beta   89.99928158
_cell_angle_gamma   90.00000000
_symmetry_Int_Tables_number   1
_chemical_formula_structural   Mn6Ga5SbRh12
_chemical_formula_sum   'Mn6 Ga5 Sb1 Rh12'
_cell_volume   344.00155894
_cell_formula_units_Z   1
loop_
 _symmetry_equiv_pos_site_id
 _symmetry_equiv_pos_as_xyz
  1  'x, y, z'
loop_
 _atom_site_type_symbol
 _atom_site_label
 _atom_site_symmetry_multiplicity
 _atom_site_fract_x
 _atom_site_fract_y
 _atom_site_fract_z
 _atom_site_occupancy
  Mn  Mn0  1  0.000000  0.500000  0.000000  1
  Mn  Mn1  1  0.499791  0.000000  0.171301  1
  Mn  Mn2  1  0.999779  0.500000  0.335331  1
  Mn  Mn3  1  0.499999  0.000000  0.500000  1
  Mn  Mn4  1  0.000221  0.500000  0.664669  1
  Mn  Mn5  1  0.500209  0.000000  0.828698  1
  Ga  Ga6  1  0.499777  0.500000  0.169180  1
  Ga  Ga7  1  0.999772  0.000000  0.334942  1
  Ga  Ga8  1  0.499999  0.500000  0.500000  1
  Ga  Ga9  1  0.000228  0.000000  0.665057  1
  Ga  Ga10  1  0.500223  0.500000  0.830819  1
  Sb  Sb11  1  0.000000  0.000000  0.000000  1
  Rh  Rh12  1  0.499999  0.255263  0.000000  1
  Rh  Rh13  1  0.499999  0.744737  0.000000  1
  Rh  Rh14  1  0.999790  0.253939  0.168088  1
  Rh  Rh15  1  0.999790  0.746061  0.168088  1
  Rh  Rh16  1  0.499790  0.249228  0.333402  1
  Rh  Rh17  1  0.499790  0.750772  0.333402  1
  Rh  Rh18  1  0.000000  0.250646  0.500000  1
  Rh  Rh19  1  0.000000  0.749354  0.500000  1
  Rh  Rh20  1  0.500210  0.249228  0.666598  1
  Rh  Rh21  1  0.500210  0.750772  0.666598  1
  Rh  Rh22  1  0.000210  0.253939  0.831912  1
  Rh  Rh23  1  0.000210  0.746061  0.831912  1
