# generated using pymatgen
data_Pr2Si(GeRh2)3
_symmetry_space_group_name_H-M   'P 1'
_cell_length_a   6.80148524
_cell_length_b   6.80213016
_cell_length_c   6.80148556
_cell_angle_alpha   130.51856923
_cell_angle_beta   113.74868643
_cell_angle_gamma   86.99193395
_symmetry_Int_Tables_number   1
_chemical_formula_structural   Pr2Si(GeRh2)3
_chemical_formula_sum   'Pr2 Si1 Ge3 Rh6'
_cell_volume   208.82577582
_cell_formula_units_Z   1
loop_
 _symmetry_equiv_pos_site_id
 _symmetry_equiv_pos_as_xyz
  1  'x, y, z'
loop_
 _atom_site_type_symbol
 _atom_site_label
 _atom_site_symmetry_multiplicity
 _atom_site_fract_x
 _atom_site_fract_y
 _atom_site_fract_z
 _atom_site_occupancy
  Pr  Pr0  1  0.750952  0.035509  0.284558  1
  Pr  Pr1  1  0.249241  0.957632  0.708390  1
  Si  Si2  1  0.922119  0.716508  0.794390  1
  Ge  Ge3  1  0.574532  0.370782  0.796250  1
  Ge  Ge4  1  0.415793  0.621077  0.205283  1
  Ge  Ge5  1  0.086366  0.288465  0.202099  1
  Rh  Rh6  1  0.212800  0.501811  0.716160  1
  Rh  Rh7  1  0.725501  0.997240  0.723444  1
  Rh  Rh8  1  0.785652  0.501811  0.289011  1
  Rh  Rh9  1  0.273796  0.997240  0.271739  1
  Rh  Rh10  1  0.514223  0.505962  0.516938  1
  Rh  Rh11  1  0.989024  0.505962  0.991738  1
