# generated using pymatgen
data_Yb4ScGa(SbO6)2
_symmetry_space_group_name_H-M   'P 1'
_cell_length_a   5.61497121
_cell_length_b   5.43321993
_cell_length_c   9.49900577
_cell_angle_alpha   54.92864118
_cell_angle_beta   89.61938546
_cell_angle_gamma   89.99351361
_symmetry_Int_Tables_number   1
_chemical_formula_structural   Yb4ScGa(SbO6)2
_chemical_formula_sum   'Yb4 Sc1 Ga1 Sb2 O12'
_cell_volume   237.16697889
_cell_formula_units_Z   1
loop_
 _symmetry_equiv_pos_site_id
 _symmetry_equiv_pos_as_xyz
  1  'x, y, z'
loop_
 _atom_site_type_symbol
 _atom_site_label
 _atom_site_symmetry_multiplicity
 _atom_site_fract_x
 _atom_site_fract_y
 _atom_site_fract_z
 _atom_site_occupancy
  Yb  Yb0  1  0.553459  0.772137  0.745760  1
  Yb  Yb1  1  0.941074  0.759053  0.255929  1
  Yb  Yb2  1  0.446541  0.227863  0.254240  1
  Yb  Yb3  1  0.058926  0.240947  0.744071  1
  Sc  Sc4  1  0.000000  0.500000  0.000000  1
  Ga  Ga5  1  0.500000  0.500000  0.500000  1
  Sb  Sb6  1  0.000000  0.000000  0.500000  1
  Sb  Sb7  1  0.500000  0.000000  0.000000  1
  O  O8  1  0.795725  0.245724  0.551764  1
  O  O9  1  0.694901  0.242102  0.052832  1
  O  O10  1  0.204275  0.754276  0.448236  1
  O  O11  1  0.305099  0.757898  0.947168  1
  O  O12  1  0.793037  0.863575  0.945131  1
  O  O13  1  0.706926  0.853149  0.445513  1
  O  O14  1  0.206963  0.136425  0.054869  1
  O  O15  1  0.293074  0.146851  0.554487  1
  O  O16  1  0.964580  0.655573  0.743139  1
  O  O17  1  0.535142  0.646500  0.250703  1
  O  O18  1  0.035420  0.344427  0.256861  1
  O  O19  1  0.464858  0.353500  0.749297  1
