# generated using pymatgen
data_Ta4TcMoOs2
_symmetry_space_group_name_H-M   'P 1'
_cell_length_a   4.52255264
_cell_length_b   6.39516094
_cell_length_c   4.52246949
_cell_angle_alpha   89.93689314
_cell_angle_beta   89.92873201
_cell_angle_gamma   89.93660901
_symmetry_Int_Tables_number   1
_chemical_formula_structural   Ta4TcMoOs2
_chemical_formula_sum   'Ta4 Tc1 Mo1 Os2'
_cell_volume   130.80064648
_cell_formula_units_Z   1
loop_
 _symmetry_equiv_pos_site_id
 _symmetry_equiv_pos_as_xyz
  1  'x, y, z'
loop_
 _atom_site_type_symbol
 _atom_site_label
 _atom_site_symmetry_multiplicity
 _atom_site_fract_x
 _atom_site_fract_y
 _atom_site_fract_z
 _atom_site_occupancy
  Ta  Ta0  1  0.999972  0.999180  0.000038  1
  Ta  Ta1  1  0.499962  0.500825  0.500030  1
  Ta  Ta2  1  0.000030  0.500822  0.999962  1
  Ta  Ta3  1  0.500040  0.999177  0.499969  1
  Tc  Tc4  1  0.500001  0.250000  0.000001  1
  Mo  Mo5  1  0.000001  0.750001  0.500000  1
  Os  Os6  1  0.000001  0.250001  0.500000  1
  Os  Os7  1  0.500001  0.750001  0.000000  1
