# generated using pymatgen
data_BaLi6CeUN6
_symmetry_space_group_name_H-M   'P 1'
_cell_length_a   6.40324500
_cell_length_b   6.40324639
_cell_length_c   5.50137300
_cell_angle_alpha   90.00000000
_cell_angle_beta   90.00000000
_cell_angle_gamma   120.00000969
_symmetry_Int_Tables_number   1
_chemical_formula_structural   BaLi6CeUN6
_chemical_formula_sum   'Ba1 Li6 Ce1 U1 N6'
_cell_volume   195.34487127
_cell_formula_units_Z   1
loop_
 _symmetry_equiv_pos_site_id
 _symmetry_equiv_pos_as_xyz
  1  'x, y, z'
loop_
 _atom_site_type_symbol
 _atom_site_label
 _atom_site_symmetry_multiplicity
 _atom_site_fract_x
 _atom_site_fract_y
 _atom_site_fract_z
 _atom_site_occupancy
  Ba  Ba0  1  0.000000  0.000000  0.988620  1
  Li  Li1  1  0.890156  0.585175  0.578580  1
  Li  Li2  1  0.414825  0.304981  0.578580  1
  Li  Li3  1  0.695019  0.109844  0.578580  1
  Li  Li4  1  0.091265  0.392748  0.415800  1
  Li  Li5  1  0.607252  0.698516  0.415800  1
  Li  Li6  1  0.301484  0.908735  0.415800  1
  Ce  Ce7  1  0.333333  0.666667  0.966952  1
  U  U8  1  0.666667  0.333333  0.028756  1
  N  N9  1  0.992930  0.607839  0.232053  1
  N  N10  1  0.392161  0.385090  0.232053  1
  N  N11  1  0.614910  0.007070  0.232053  1
  N  N12  1  0.965355  0.374642  0.778792  1
  N  N13  1  0.625358  0.590712  0.778792  1
  N  N14  1  0.409288  0.034645  0.778792  1
