# generated using pymatgen
data_Dy12OsPdRh2
_symmetry_space_group_name_H-M   'P 1'
_cell_length_a   6.31823400
_cell_length_b   7.22539240
_cell_length_c   9.55612700
_cell_angle_alpha   90.00000000
_cell_angle_beta   90.00000000
_cell_angle_gamma   90.05556398
_symmetry_Int_Tables_number   1
_chemical_formula_structural   Dy12OsPdRh2
_chemical_formula_sum   'Dy12 Os1 Pd1 Rh2'
_cell_volume   436.25342809
_cell_formula_units_Z   1
loop_
 _symmetry_equiv_pos_site_id
 _symmetry_equiv_pos_as_xyz
  1  'x, y, z'
loop_
 _atom_site_type_symbol
 _atom_site_label
 _atom_site_symmetry_multiplicity
 _atom_site_fract_x
 _atom_site_fract_y
 _atom_site_fract_z
 _atom_site_occupancy
  Dy  Dy0  1  0.333637  0.672244  0.062134  1
  Dy  Dy1  1  0.173994  0.182672  0.438739  1
  Dy  Dy2  1  0.668807  0.323049  0.560690  1
  Dy  Dy3  1  0.829625  0.823274  0.934188  1
  Dy  Dy4  1  0.668807  0.323049  0.939310  1
  Dy  Dy5  1  0.829625  0.823274  0.565812  1
  Dy  Dy6  1  0.333637  0.672244  0.437866  1
  Dy  Dy7  1  0.173994  0.182672  0.061261  1
  Dy  Dy8  1  0.861958  0.524723  0.250000  1
  Dy  Dy9  1  0.627135  0.036701  0.250000  1
  Dy  Dy10  1  0.134416  0.466623  0.750000  1
  Dy  Dy11  1  0.362689  0.966327  0.750000  1
  Os  Os12  1  0.442592  0.382493  0.250000  1
  Pd  Pd13  1  0.061248  0.884445  0.250000  1
  Rh  Rh14  1  0.940931  0.118438  0.750000  1
  Rh  Rh15  1  0.556909  0.617774  0.750000  1
