# generated using pymatgen
data_TaTi3Si2(B2Ru5)2
_symmetry_space_group_name_H-M   'P 1'
_cell_length_a   9.21491140
_cell_length_b   9.21491140
_cell_length_c   2.94963100
_cell_angle_alpha   90.00000000
_cell_angle_beta   90.00000000
_cell_angle_gamma   89.86496343
_symmetry_Int_Tables_number   1
_chemical_formula_structural   TaTi3Si2(B2Ru5)2
_chemical_formula_sum   'Ta1 Ti3 Si2 B4 Ru10'
_cell_volume   250.46601751
_cell_formula_units_Z   1
loop_
 _symmetry_equiv_pos_site_id
 _symmetry_equiv_pos_as_xyz
  1  'x, y, z'
loop_
 _atom_site_type_symbol
 _atom_site_label
 _atom_site_symmetry_multiplicity
 _atom_site_fract_x
 _atom_site_fract_y
 _atom_site_fract_z
 _atom_site_occupancy
  Ta  Ta0  1  0.674345  0.174345  0.000000  1
  Ti  Ti1  1  0.826103  0.675017  0.000000  1
  Ti  Ti2  1  0.175017  0.326103  0.000000  1
  Ti  Ti3  1  0.323854  0.823854  0.000000  1
  Si  Si4  1  0.499731  0.500082  0.000000  1
  Si  Si5  1  0.000082  0.999731  0.000000  1
  B  B6  1  0.624884  0.873914  0.000000  1
  B  B7  1  0.373914  0.124884  0.000000  1
  B  B8  1  0.125413  0.625413  0.000000  1
  B  B9  1  0.875756  0.375756  0.000000  1
  Ru  Ru10  1  0.571642  0.708372  0.500000  1
  Ru  Ru11  1  0.430121  0.290533  0.500000  1
  Ru  Ru12  1  0.069752  0.790947  0.500000  1
  Ru  Ru13  1  0.932388  0.210191  0.500000  1
  Ru  Ru14  1  0.290947  0.569752  0.500000  1
  Ru  Ru15  1  0.710191  0.432388  0.500000  1
  Ru  Ru16  1  0.208372  0.071642  0.500000  1
  Ru  Ru17  1  0.790533  0.930121  0.500000  1
  Ru  Ru18  1  0.496327  0.996327  0.500000  1
  Ru  Ru19  1  0.000627  0.500627  0.500000  1
