# generated using pymatgen
data_YTmTh3BiPb2C
_symmetry_space_group_name_H-M   'P 1'
_cell_length_a   9.31152600
_cell_length_b   9.31152594
_cell_length_c   6.55385900
_cell_angle_alpha   90.00000000
_cell_angle_beta   90.00000000
_cell_angle_gamma   120.00000020
_symmetry_Int_Tables_number   1
_chemical_formula_structural   YTmTh3BiPb2C
_chemical_formula_sum   'Y2 Tm2 Th6 Bi2 Pb4 C2'
_cell_volume   492.11821773
_cell_formula_units_Z   2
loop_
 _symmetry_equiv_pos_site_id
 _symmetry_equiv_pos_as_xyz
  1  'x, y, z'
loop_
 _atom_site_type_symbol
 _atom_site_label
 _atom_site_symmetry_multiplicity
 _atom_site_fract_x
 _atom_site_fract_y
 _atom_site_fract_z
 _atom_site_occupancy
  Y  Y0  1  0.667977  0.334109  0.001476  1
  Y  Y1  1  0.332023  0.666133  0.001476  1
  Tm  Tm2  1  0.331795  0.666179  0.498059  1
  Tm  Tm3  1  0.668205  0.334383  0.498059  1
  Th  Th4  1  0.781191  0.779665  0.750081  1
  Th  Th5  1  0.218809  0.998473  0.750081  1
  Th  Th6  1  0.000000  0.221018  0.750008  1
  Th  Th7  1  0.219673  0.219981  0.250047  1
  Th  Th8  1  0.780327  0.000308  0.250047  1
  Th  Th9  1  0.000000  0.779134  0.250085  1
  Bi  Bi10  1  0.407190  0.407096  0.747698  1
  Bi  Bi11  1  0.592810  0.999906  0.747698  1
  Pb  Pb12  1  0.000000  0.591956  0.747305  1
  Pb  Pb13  1  0.593367  0.593212  0.252538  1
  Pb  Pb14  1  0.406633  0.999845  0.252538  1
  Pb  Pb15  1  0.000000  0.407514  0.252757  1
  C  C16  1  0.000000  0.000527  0.999341  1
  C  C17  1  0.000000  0.000561  0.500708  1
