# generated using pymatgen
data_Er5MnFeO12
_symmetry_space_group_name_H-M   'P 1'
_cell_length_a   6.73395643
_cell_length_b   6.73395658
_cell_length_c   7.12798604
_cell_angle_alpha   74.59134746
_cell_angle_beta   74.59134857
_cell_angle_gamma   50.64601216
_symmetry_Int_Tables_number   1
_chemical_formula_structural   Er5MnFeO12
_chemical_formula_sum   'Er5 Mn1 Fe1 O12'
_cell_volume   238.89133968
_cell_formula_units_Z   1
loop_
 _symmetry_equiv_pos_site_id
 _symmetry_equiv_pos_as_xyz
  1  'x, y, z'
loop_
 _atom_site_type_symbol
 _atom_site_label
 _atom_site_symmetry_multiplicity
 _atom_site_fract_x
 _atom_site_fract_y
 _atom_site_fract_z
 _atom_site_occupancy
  Er  Er0  1  0.300554  0.304365  0.358396  1
  Er  Er1  1  0.695635  0.699446  0.641604  1
  Er  Er2  1  0.307777  0.304077  0.835000  1
  Er  Er3  1  0.695923  0.692223  0.165000  1
  Er  Er4  1  0.995896  0.004104  0.500000  1
  Mn  Mn5  1  0.245345  0.754655  0.000000  1
  Fe  Fe6  1  0.756771  0.243229  0.000000  1
  O  O7  1  0.900032  0.420283  0.918730  1
  O  O8  1  0.424676  0.901414  0.918991  1
  O  O9  1  0.098586  0.575324  0.081009  1
  O  O10  1  0.579717  0.099968  0.081270  1
  O  O11  1  0.097136  0.598084  0.576145  1
  O  O12  1  0.597925  0.098241  0.573641  1
  O  O13  1  0.901759  0.402075  0.426359  1
  O  O14  1  0.401916  0.902864  0.423855  1
  O  O15  1  0.997293  0.002601  0.821086  1
  O  O16  1  0.997399  0.002707  0.178914  1
  O  O17  1  0.502871  0.497212  0.819006  1
  O  O18  1  0.502788  0.497129  0.180994  1
