# generated using pymatgen
data_Sc12Mn2Si12IrRu
_symmetry_space_group_name_H-M   'P 1'
_cell_length_a   3.98314200
_cell_length_b   10.28830720
_cell_length_c   11.71693208
_cell_angle_alpha   90.03583076
_cell_angle_beta   90.00000000
_cell_angle_gamma   90.00000000
_symmetry_Int_Tables_number   1
_chemical_formula_structural   Sc12Mn2Si12IrRu
_chemical_formula_sum   'Sc12 Mn2 Si12 Ir1 Ru1'
_cell_volume   480.15730468
_cell_formula_units_Z   1
loop_
 _symmetry_equiv_pos_site_id
 _symmetry_equiv_pos_as_xyz
  1  'x, y, z'
loop_
 _atom_site_type_symbol
 _atom_site_label
 _atom_site_symmetry_multiplicity
 _atom_site_fract_x
 _atom_site_fract_y
 _atom_site_fract_z
 _atom_site_occupancy
  Sc  Sc0  1  0.250000  0.878928  0.021423  1
  Sc  Sc1  1  0.250000  0.621495  0.521505  1
  Sc  Sc2  1  0.750000  0.123580  0.980388  1
  Sc  Sc3  1  0.750000  0.377346  0.479378  1
  Sc  Sc4  1  0.250000  0.921573  0.604044  1
  Sc  Sc5  1  0.250000  0.578663  0.103179  1
  Sc  Sc6  1  0.750000  0.077767  0.397673  1
  Sc  Sc7  1  0.750000  0.422124  0.897189  1
  Sc  Sc8  1  0.250000  0.658149  0.798433  1
  Sc  Sc9  1  0.250000  0.840933  0.298509  1
  Sc  Sc10  1  0.750000  0.338984  0.200915  1
  Sc  Sc11  1  0.750000  0.160211  0.700331  1
  Mn  Mn12  1  0.250000  0.387989  0.676542  1
  Mn  Mn13  1  0.250000  0.112299  0.176103  1
  Si  Si14  1  0.250000  0.015902  0.823441  1
  Si  Si15  1  0.250000  0.484944  0.322479  1
  Si  Si16  1  0.750000  0.985039  0.177761  1
  Si  Si17  1  0.750000  0.514829  0.677768  1
  Si  Si18  1  0.250000  0.252378  0.840986  1
  Si  Si19  1  0.250000  0.246788  0.341461  1
  Si  Si20  1  0.750000  0.748404  0.157456  1
  Si  Si21  1  0.750000  0.750902  0.657467  1
  Si  Si22  1  0.250000  0.194330  0.544647  1
  Si  Si23  1  0.250000  0.306329  0.044527  1
  Si  Si24  1  0.750000  0.805002  0.455684  1
  Si  Si25  1  0.750000  0.695289  0.955118  1
  Ir  Ir26  1  0.750000  0.888785  0.822965  1
  Ru  Ru27  1  0.750000  0.611035  0.322629  1
