# generated using pymatgen
data_BaAgBF10
_symmetry_space_group_name_H-M   'P 1'
_cell_length_a   10.74352000
_cell_length_b   10.74352029
_cell_length_c   6.58791700
_cell_angle_alpha   90.00000000
_cell_angle_beta   90.00000000
_cell_angle_gamma   120.00000527
_symmetry_Int_Tables_number   1
_chemical_formula_structural   BaAgBF10
_chemical_formula_sum   'Ba3 Ag3 B3 F30'
_cell_volume   658.52449268
_cell_formula_units_Z   3
loop_
 _symmetry_equiv_pos_site_id
 _symmetry_equiv_pos_as_xyz
  1  'x, y, z'
loop_
 _atom_site_type_symbol
 _atom_site_label
 _atom_site_symmetry_multiplicity
 _atom_site_fract_x
 _atom_site_fract_y
 _atom_site_fract_z
 _atom_site_occupancy
  Ba  Ba0  1  0.000000  0.000000  0.500000  1
  Ba  Ba1  1  0.666667  0.333333  0.000000  1
  Ba  Ba2  1  0.333333  0.666667  0.000000  1
  Ag  Ag3  1  0.435679  0.000000  0.500000  1
  Ag  Ag4  1  0.000000  0.435679  0.500000  1
  Ag  Ag5  1  0.564321  0.564321  0.500000  1
  B  B6  1  0.753379  0.000000  0.000000  1
  B  B7  1  0.000000  0.753379  0.000000  1
  B  B8  1  0.246621  0.246621  0.000000  1
  F  F9  1  0.614656  0.000000  0.500000  1
  F  F10  1  0.000000  0.614656  0.500000  1
  F  F11  1  0.385344  0.385344  0.500000  1
  F  F12  1  0.253946  0.000000  0.500000  1
  F  F13  1  0.000000  0.253946  0.500000  1
  F  F14  1  0.746054  0.746054  0.500000  1
  F  F15  1  0.507191  0.146571  0.708206  1
  F  F16  1  0.853429  0.360620  0.708206  1
  F  F17  1  0.639380  0.492809  0.708206  1
  F  F18  1  0.507191  0.146571  0.291794  1
  F  F19  1  0.853429  0.360620  0.291794  1
  F  F20  1  0.639380  0.492809  0.291794  1
  F  F21  1  0.360620  0.853429  0.708206  1
  F  F22  1  0.492809  0.639380  0.708206  1
  F  F23  1  0.146571  0.507191  0.708206  1
  F  F24  1  0.360620  0.853429  0.291794  1
  F  F25  1  0.492809  0.639380  0.291794  1
  F  F26  1  0.146571  0.507191  0.291794  1
  F  F27  1  0.828269  0.000000  0.823664  1
  F  F28  1  0.000000  0.828269  0.823664  1
  F  F29  1  0.171731  0.171731  0.823664  1
  F  F30  1  0.828269  0.000000  0.176336  1
  F  F31  1  0.000000  0.828269  0.176336  1
  F  F32  1  0.171731  0.171731  0.176336  1
  F  F33  1  0.386787  0.262846  0.000000  1
  F  F34  1  0.737154  0.123941  0.000000  1
  F  F35  1  0.876059  0.613213  0.000000  1
  F  F36  1  0.123941  0.737154  0.000000  1
  F  F37  1  0.613213  0.876059  0.000000  1
  F  F38  1  0.262846  0.386787  0.000000  1
