# generated using pymatgen
data_Er6Mn7P12Rh11
_symmetry_space_group_name_H-M   'P 1'
_cell_length_a   3.79653700
_cell_length_b   10.99659600
_cell_length_c   12.80509900
_cell_angle_alpha   90.00000000
_cell_angle_beta   90.00000000
_cell_angle_gamma   90.00000000
_symmetry_Int_Tables_number   1
_chemical_formula_structural   Er6Mn7P12Rh11
_chemical_formula_sum   'Er6 Mn7 P12 Rh11'
_cell_volume   534.59986799
_cell_formula_units_Z   1
loop_
 _symmetry_equiv_pos_site_id
 _symmetry_equiv_pos_as_xyz
  1  'x, y, z'
loop_
 _atom_site_type_symbol
 _atom_site_label
 _atom_site_symmetry_multiplicity
 _atom_site_fract_x
 _atom_site_fract_y
 _atom_site_fract_z
 _atom_site_occupancy
  Er  Er0  1  0.750000  0.250000  0.480162  1
  Er  Er1  1  0.250000  0.750000  0.520865  1
  Er  Er2  1  0.250000  0.927532  0.800659  1
  Er  Er3  1  0.250000  0.572468  0.800659  1
  Er  Er4  1  0.750000  0.069644  0.202765  1
  Er  Er5  1  0.750000  0.430356  0.202765  1
  Mn  Mn6  1  0.250000  0.250000  0.840993  1
  Mn  Mn7  1  0.750000  0.250000  0.011914  1
  Mn  Mn8  1  0.250000  0.750000  0.993259  1
  Mn  Mn9  1  0.250000  0.412799  0.002120  1
  Mn  Mn10  1  0.250000  0.087201  0.002120  1
  Mn  Mn11  1  0.750000  0.578494  0.996438  1
  Mn  Mn12  1  0.750000  0.921506  0.996438  1
  P  P13  1  0.250000  0.250000  0.114834  1
  P  P14  1  0.750000  0.750000  0.889884  1
  P  P15  1  0.250000  0.250000  0.652506  1
  P  P16  1  0.750000  0.750000  0.347352  1
  P  P17  1  0.250000  0.435205  0.380105  1
  P  P18  1  0.250000  0.064795  0.380105  1
  P  P19  1  0.750000  0.564571  0.621229  1
  P  P20  1  0.750000  0.935429  0.621229  1
  P  P21  1  0.250000  0.909595  0.101463  1
  P  P22  1  0.250000  0.590405  0.101463  1
  P  P23  1  0.750000  0.094477  0.894480  1
  P  P24  1  0.750000  0.405523  0.894480  1
  Rh  Rh25  1  0.750000  0.750000  0.156197  1
  Rh  Rh26  1  0.250000  0.250000  0.297465  1
  Rh  Rh27  1  0.750000  0.750000  0.703506  1
  Rh  Rh28  1  0.250000  0.455191  0.567727  1
  Rh  Rh29  1  0.250000  0.044809  0.567727  1
  Rh  Rh30  1  0.750000  0.546809  0.429908  1
  Rh  Rh31  1  0.750000  0.953191  0.429908  1
  Rh  Rh32  1  0.250000  0.876213  0.285236  1
  Rh  Rh33  1  0.250000  0.623787  0.285236  1
  Rh  Rh34  1  0.750000  0.124080  0.713401  1
  Rh  Rh35  1  0.750000  0.375920  0.713401  1
