# generated using pymatgen
data_LiTb9Tm7Cd3Co4
_symmetry_space_group_name_H-M   'P 1'
_cell_length_a   9.46243055
_cell_length_b   9.47065601
_cell_length_c   9.49012285
_cell_angle_alpha   59.88657220
_cell_angle_beta   59.86858850
_cell_angle_gamma   59.88648724
_symmetry_Int_Tables_number   1
_chemical_formula_structural   LiTb9Tm7Cd3Co4
_chemical_formula_sum   'Li1 Tb9 Tm7 Cd3 Co4'
_cell_volume   599.73710776
_cell_formula_units_Z   1
loop_
 _symmetry_equiv_pos_site_id
 _symmetry_equiv_pos_as_xyz
  1  'x, y, z'
loop_
 _atom_site_type_symbol
 _atom_site_label
 _atom_site_symmetry_multiplicity
 _atom_site_fract_x
 _atom_site_fract_y
 _atom_site_fract_z
 _atom_site_occupancy
  Li  Li0  1  0.821223  0.821927  0.533129  1
  Tb  Tb1  1  0.596856  0.212521  0.599261  1
  Tb  Tb2  1  0.809950  0.812423  0.187259  1
  Tb  Tb3  1  0.214241  0.597411  0.597475  1
  Tb  Tb4  1  0.808866  0.189851  0.188704  1
  Tb  Tb5  1  0.062743  0.434295  0.436610  1
  Tb  Tb6  1  0.190123  0.811647  0.186294  1
  Tb  Tb7  1  0.596428  0.599496  0.208087  1
  Tb  Tb8  1  0.187889  0.186387  0.810974  1
  Tb  Tb9  1  0.064464  0.435838  0.060167  1
  Tm  Tm10  1  0.440132  0.436965  0.058230  1
  Tm  Tm11  1  0.592822  0.594346  0.597410  1
  Tm  Tm12  1  0.188741  0.813419  0.810721  1
  Tm  Tm13  1  0.065467  0.062646  0.436156  1
  Tm  Tm14  1  0.437926  0.063348  0.062005  1
  Tm  Tm15  1  0.812156  0.188269  0.811790  1
  Tm  Tm16  1  0.434843  0.061755  0.435884  1
  Cd  Cd17  1  0.832099  0.833159  0.826128  1
  Cd  Cd18  1  0.508609  0.830285  0.826644  1
  Cd  Cd19  1  0.829760  0.508305  0.827502  1
  Co  Co20  1  0.391630  0.390877  0.387821  1
  Co  Co21  1  0.827149  0.392982  0.392610  1
  Co  Co22  1  0.392448  0.828732  0.391639  1
  Co  Co23  1  0.393438  0.393119  0.827499  1
