# generated using pymatgen
data_MgTi3Be2(B2Ir5)2
_symmetry_space_group_name_H-M   'P 1'
_cell_length_a   9.21457028
_cell_length_b   9.21457028
_cell_length_c   2.91851000
_cell_angle_alpha   90.00000000
_cell_angle_beta   90.00000000
_cell_angle_gamma   89.53067991
_symmetry_Int_Tables_number   1
_chemical_formula_structural   MgTi3Be2(B2Ir5)2
_chemical_formula_sum   'Mg1 Ti3 Be2 B4 Ir10'
_cell_volume   247.79742535
_cell_formula_units_Z   1
loop_
 _symmetry_equiv_pos_site_id
 _symmetry_equiv_pos_as_xyz
  1  'x, y, z'
loop_
 _atom_site_type_symbol
 _atom_site_label
 _atom_site_symmetry_multiplicity
 _atom_site_fract_x
 _atom_site_fract_y
 _atom_site_fract_z
 _atom_site_occupancy
  Mg  Mg0  1  0.322419  0.177581  0.000000  1
  Ti  Ti1  1  0.824298  0.321759  0.000000  1
  Ti  Ti2  1  0.178241  0.675702  0.000000  1
  Ti  Ti3  1  0.675928  0.824072  0.000000  1
  Be  Be4  1  0.000544  0.000670  0.000000  1
  Be  Be5  1  0.499330  0.499456  0.000000  1
  B  B6  1  0.627873  0.130071  0.000000  1
  B  B7  1  0.132394  0.367606  0.000000  1
  B  B8  1  0.870611  0.629388  0.000000  1
  B  B9  1  0.369929  0.872126  0.000000  1
  Ir  Ir10  1  0.501034  0.998966  0.499999  1
  Ir  Ir11  1  0.791738  0.065697  0.499999  1
  Ir  Ir12  1  0.060839  0.208979  0.499999  1
  Ir  Ir13  1  0.574795  0.294559  0.499999  1
  Ir  Ir14  1  0.291021  0.439162  0.499999  1
  Ir  Ir15  1  0.999919  0.500081  0.499999  1
  Ir  Ir16  1  0.708038  0.568698  0.499999  1
  Ir  Ir17  1  0.434304  0.708261  0.499999  1
  Ir  Ir18  1  0.931301  0.791961  0.499999  1
  Ir  Ir19  1  0.205441  0.925204  0.499999  1
