# generated using pymatgen
data_Er20Ir8Ru3Pt
_symmetry_space_group_name_H-M   'P 1'
_cell_length_a   10.77268813
_cell_length_b   10.77041524
_cell_length_c   6.39869447
_cell_angle_alpha   90.05614263
_cell_angle_beta   90.05379941
_cell_angle_gamma   89.95195998
_symmetry_Int_Tables_number   1
_chemical_formula_structural   Er20Ir8Ru3Pt
_chemical_formula_sum   'Er20 Ir8 Ru3 Pt1'
_cell_volume   742.41605665
_cell_formula_units_Z   1
loop_
 _symmetry_equiv_pos_site_id
 _symmetry_equiv_pos_as_xyz
  1  'x, y, z'
loop_
 _atom_site_type_symbol
 _atom_site_label
 _atom_site_symmetry_multiplicity
 _atom_site_fract_x
 _atom_site_fract_y
 _atom_site_fract_z
 _atom_site_occupancy
  Er  Er0  1  0.293166  0.086170  0.377310  1
  Er  Er1  1  0.293643  0.913806  0.877460  1
  Er  Er2  1  0.704536  0.085133  0.873968  1
  Er  Er3  1  0.705398  0.911572  0.378573  1
  Er  Er4  1  0.586063  0.793529  0.877554  1
  Er  Er5  1  0.583918  0.206509  0.377532  1
  Er  Er6  1  0.413361  0.793292  0.377384  1
  Er  Er7  1  0.413902  0.206533  0.877906  1
  Er  Er8  1  0.208176  0.412860  0.623933  1
  Er  Er9  1  0.207924  0.587519  0.121212  1
  Er  Er10  1  0.792029  0.415332  0.120648  1
  Er  Er11  1  0.791784  0.587249  0.623561  1
  Er  Er12  1  0.912906  0.708121  0.121298  1
  Er  Er13  1  0.913778  0.293785  0.627949  1
  Er  Er14  1  0.087306  0.708081  0.624368  1
  Er  Er15  1  0.089481  0.293290  0.119791  1
  Er  Er16  1  0.001313  0.998421  0.500769  1
  Er  Er17  1  0.001527  0.998684  0.997717  1
  Er  Er18  1  0.499869  0.500140  0.999050  1
  Er  Er19  1  0.499898  0.500143  0.499225  1
  Ir  Ir20  1  0.847574  0.848047  0.749843  1
  Ir  Ir21  1  0.151558  0.152747  0.749604  1
  Ir  Ir22  1  0.151954  0.847314  0.249993  1
  Ir  Ir23  1  0.653870  0.346441  0.749811  1
  Ir  Ir24  1  0.653066  0.652359  0.250008  1
  Ir  Ir25  1  0.347013  0.347632  0.249881  1
  Ir  Ir26  1  0.346992  0.652708  0.749702  1
  Ir  Ir27  1  0.999839  0.499438  0.377927  1
  Ru  Ru28  1  0.500464  0.000117  0.124293  1
  Ru  Ru29  1  0.500574  0.000090  0.623488  1
  Ru  Ru30  1  0.999882  0.499406  0.878156  1
  Pt  Pt31  1  0.847235  0.153530  0.250085  1
