# generated using pymatgen
data_CeTmTcB6
_symmetry_space_group_name_H-M   'P 1'
_cell_length_a   3.71509900
_cell_length_b   9.15201600
_cell_length_c   11.54158600
_cell_angle_alpha   90.00000000
_cell_angle_beta   90.00000000
_cell_angle_gamma   90.00000000
_symmetry_Int_Tables_number   1
_chemical_formula_structural   CeTmTcB6
_chemical_formula_sum   'Ce4 Tm4 Tc4 B24'
_cell_volume   392.42137397
_cell_formula_units_Z   4
loop_
 _symmetry_equiv_pos_site_id
 _symmetry_equiv_pos_as_xyz
  1  'x, y, z'
loop_
 _atom_site_type_symbol
 _atom_site_label
 _atom_site_symmetry_multiplicity
 _atom_site_fract_x
 _atom_site_fract_y
 _atom_site_fract_z
 _atom_site_occupancy
  Ce  Ce0  1  0.000000  0.323170  0.414302  1
  Ce  Ce1  1  0.000000  0.676830  0.585698  1
  Ce  Ce2  1  0.000000  0.823170  0.085698  1
  Ce  Ce3  1  0.000000  0.176830  0.914302  1
  Tm  Tm4  1  0.000000  0.944530  0.372222  1
  Tm  Tm5  1  0.000000  0.055470  0.627778  1
  Tm  Tm6  1  0.000000  0.444530  0.127778  1
  Tm  Tm7  1  0.000000  0.555470  0.872222  1
  Tc  Tc8  1  0.000000  0.639392  0.320215  1
  Tc  Tc9  1  0.000000  0.360608  0.679785  1
  Tc  Tc10  1  0.000000  0.139392  0.179785  1
  Tc  Tc11  1  0.000000  0.860608  0.820215  1
  B  B12  1  0.500000  0.554840  0.431299  1
  B  B13  1  0.500000  0.445160  0.568701  1
  B  B14  1  0.500000  0.054840  0.068701  1
  B  B15  1  0.500000  0.945160  0.931299  1
  B  B16  1  0.500000  0.749537  0.418569  1
  B  B17  1  0.500000  0.250463  0.581431  1
  B  B18  1  0.500000  0.249537  0.081431  1
  B  B19  1  0.500000  0.750463  0.918569  1
  B  B20  1  0.500000  0.792303  0.265980  1
  B  B21  1  0.500000  0.207697  0.734020  1
  B  B22  1  0.500000  0.292303  0.234020  1
  B  B23  1  0.500000  0.707697  0.765980  1
  B  B24  1  0.500000  0.631606  0.185431  1
  B  B25  1  0.500000  0.368394  0.814569  1
  B  B26  1  0.500000  0.131606  0.314569  1
  B  B27  1  0.500000  0.868394  0.685431  1
  B  B28  1  0.500000  0.983892  0.213356  1
  B  B29  1  0.500000  0.016108  0.786644  1
  B  B30  1  0.500000  0.483892  0.286644  1
  B  B31  1  0.500000  0.516108  0.713356  1
  B  B32  1  0.500000  0.605101  0.028846  1
  B  B33  1  0.500000  0.394899  0.971154  1
  B  B34  1  0.500000  0.105101  0.471154  1
  B  B35  1  0.500000  0.894899  0.528846  1
