# generated using pymatgen
data_Tb3Ho(CuP2)4
_symmetry_space_group_name_H-M   'P 1'
_cell_length_a   3.70737000
_cell_length_b   3.76710884
_cell_length_c   19.46019200
_cell_angle_alpha   90.20382272
_cell_angle_beta   90.00000000
_cell_angle_gamma   90.00000000
_symmetry_Int_Tables_number   1
_chemical_formula_structural   Tb3Ho(CuP2)4
_chemical_formula_sum   'Tb3 Ho1 Cu4 P8'
_cell_volume   271.78061172
_cell_formula_units_Z   1
loop_
 _symmetry_equiv_pos_site_id
 _symmetry_equiv_pos_as_xyz
  1  'x, y, z'
loop_
 _atom_site_type_symbol
 _atom_site_label
 _atom_site_symmetry_multiplicity
 _atom_site_fract_x
 _atom_site_fract_y
 _atom_site_fract_z
 _atom_site_occupancy
  Tb  Tb0  1  0.250000  0.714821  0.381436  1
  Tb  Tb1  1  0.250000  0.784440  0.884042  1
  Tb  Tb2  1  0.750000  0.285543  0.617730  1
  Ho  Ho3  1  0.750000  0.214773  0.117390  1
  Cu  Cu4  1  0.250000  0.215551  0.248297  1
  Cu  Cu5  1  0.750000  0.784595  0.751156  1
  Cu  Cu6  1  0.250000  0.284894  0.750592  1
  Cu  Cu7  1  0.750000  0.714927  0.248712  1
  P  P8  1  0.750000  0.805839  0.501445  1
  P  P9  1  0.750000  0.696673  0.003277  1
  P  P10  1  0.250000  0.194774  0.497660  1
  P  P11  1  0.250000  0.303005  0.999856  1
  P  P12  1  0.250000  0.715301  0.170582  1
  P  P13  1  0.750000  0.215294  0.326235  1
  P  P14  1  0.750000  0.284586  0.828472  1
  P  P15  1  0.250000  0.784984  0.673117  1
