# generated using pymatgen
data_Sc3Sn3RuPt2
_symmetry_space_group_name_H-M   'P 1'
_cell_length_a   7.61796600
_cell_length_b   7.61796593
_cell_length_c   6.92814100
_cell_angle_alpha   90.00000000
_cell_angle_beta   90.00000000
_cell_angle_gamma   120.00000031
_symmetry_Int_Tables_number   1
_chemical_formula_structural   Sc3Sn3RuPt2
_chemical_formula_sum   'Sc6 Sn6 Ru2 Pt4'
_cell_volume   348.19730398
_cell_formula_units_Z   2
loop_
 _symmetry_equiv_pos_site_id
 _symmetry_equiv_pos_as_xyz
  1  'x, y, z'
loop_
 _atom_site_type_symbol
 _atom_site_label
 _atom_site_symmetry_multiplicity
 _atom_site_fract_x
 _atom_site_fract_y
 _atom_site_fract_z
 _atom_site_occupancy
  Sc  Sc0  1  0.393919  0.006897  0.250000  1
  Sc  Sc1  1  0.612978  0.606081  0.250000  1
  Sc  Sc2  1  0.993103  0.387022  0.250000  1
  Sc  Sc3  1  0.387022  0.993103  0.750000  1
  Sc  Sc4  1  0.606081  0.612978  0.750000  1
  Sc  Sc5  1  0.006897  0.393919  0.750000  1
  Sn  Sn6  1  0.275089  0.275089  0.000000  1
  Sn  Sn7  1  0.000000  0.724911  0.000000  1
  Sn  Sn8  1  0.000000  0.724911  0.500000  1
  Sn  Sn9  1  0.724911  0.000000  0.500000  1
  Sn  Sn10  1  0.275089  0.275089  0.500000  1
  Sn  Sn11  1  0.724911  0.000000  0.000000  1
  Ru  Ru12  1  0.000000  0.000000  0.750000  1
  Ru  Ru13  1  0.000000  0.000000  0.250000  1
  Pt  Pt14  1  0.666667  0.333333  0.987065  1
  Pt  Pt15  1  0.333333  0.666667  0.487065  1
  Pt  Pt16  1  0.333333  0.666667  0.012935  1
  Pt  Pt17  1  0.666667  0.333333  0.512935  1
