# generated using pymatgen
data_Lu16Tl3InRuRh3
_symmetry_space_group_name_H-M   'P 1'
_cell_length_a   9.49186400
_cell_length_b   9.49389303
_cell_length_c   9.49389504
_cell_angle_alpha   59.75088239
_cell_angle_beta   59.75487358
_cell_angle_gamma   59.75487301
_symmetry_Int_Tables_number   1
_chemical_formula_structural   Lu16Tl3InRuRh3
_chemical_formula_sum   'Lu16 Tl3 In1 Ru1 Rh3'
_cell_volume   601.57247600
_cell_formula_units_Z   1
loop_
 _symmetry_equiv_pos_site_id
 _symmetry_equiv_pos_as_xyz
  1  'x, y, z'
loop_
 _atom_site_type_symbol
 _atom_site_label
 _atom_site_symmetry_multiplicity
 _atom_site_fract_x
 _atom_site_fract_y
 _atom_site_fract_z
 _atom_site_occupancy
  Lu  Lu0  1  0.598990  0.599760  0.599760  1
  Lu  Lu1  1  0.597846  0.598640  0.204861  1
  Lu  Lu2  1  0.597846  0.204861  0.598640  1
  Lu  Lu3  1  0.205026  0.598319  0.598319  1
  Lu  Lu4  1  0.060501  0.439827  0.439827  1
  Lu  Lu5  1  0.439072  0.059499  0.059499  1
  Lu  Lu6  1  0.439345  0.060181  0.440987  1
  Lu  Lu7  1  0.059908  0.439461  0.059992  1
  Lu  Lu8  1  0.439345  0.440987  0.060181  1
  Lu  Lu9  1  0.059908  0.059992  0.439461  1
  Lu  Lu10  1  0.189470  0.810769  0.810769  1
  Lu  Lu11  1  0.807267  0.191068  0.191068  1
  Lu  Lu12  1  0.810577  0.189105  0.810457  1
  Lu  Lu13  1  0.191216  0.807571  0.190082  1
  Lu  Lu14  1  0.810577  0.810457  0.189105  1
  Lu  Lu15  1  0.191216  0.190082  0.807571  1
  Tl  Tl16  1  0.834647  0.836138  0.836138  1
  Tl  Tl17  1  0.835357  0.836512  0.492247  1
  Tl  Tl18  1  0.835357  0.492247  0.836512  1
  In  In19  1  0.496893  0.834578  0.834578  1
  Ru  Ru20  1  0.390433  0.390484  0.390484  1
  Rh  Rh21  1  0.392019  0.392029  0.825377  1
  Rh  Rh22  1  0.392019  0.825377  0.392029  1
  Rh  Rh23  1  0.825167  0.392054  0.392054  1
