# generated using pymatgen
data_Ti10ZnGeBi4
_symmetry_space_group_name_H-M   'P 1'
_cell_length_a   7.99061134
_cell_length_b   7.99082637
_cell_length_c   7.99061102
_cell_angle_alpha   96.25324356
_cell_angle_beta   96.25860913
_cell_angle_gamma   141.44740685
_symmetry_Int_Tables_number   1
_chemical_formula_structural   Ti10ZnGeBi4
_chemical_formula_sum   'Ti10 Zn1 Ge1 Bi4'
_cell_volume   300.15884366
_cell_formula_units_Z   1
loop_
 _symmetry_equiv_pos_site_id
 _symmetry_equiv_pos_as_xyz
  1  'x, y, z'
loop_
 _atom_site_type_symbol
 _atom_site_label
 _atom_site_symmetry_multiplicity
 _atom_site_fract_x
 _atom_site_fract_y
 _atom_site_fract_z
 _atom_site_occupancy
  Ti  Ti0  1  0.572037  0.712637  0.282493  1
  Ti  Ti1  1  0.430205  0.289551  0.717573  1
  Ti  Ti2  1  0.749930  0.250000  0.499930  1
  Ti  Ti3  1  0.249997  0.750000  0.499997  1
  Ti  Ti4  1  0.712648  0.430244  0.140622  1
  Ti  Ti5  1  0.289517  0.572033  0.859323  1
  Ti  Ti6  1  0.928022  0.210449  0.140654  1
  Ti  Ti7  1  0.210378  0.069756  0.282403  1
  Ti  Ti8  1  0.069856  0.787363  0.859401  1
  Ti  Ti9  1  0.787291  0.927967  0.717485  1
  Zn  Zn10  1  0.250014  0.250000  0.000014  1
  Ge  Ge11  1  0.750026  0.750000  0.000026  1
  Bi  Bi12  1  0.334424  0.834447  0.168843  1
  Bi  Bi13  1  0.165644  0.334405  0.500021  1
  Bi  Bi14  1  0.665617  0.165595  0.831240  1
  Bi  Bi15  1  0.834396  0.665553  0.499977  1
