# generated using pymatgen
data_MgCrCo4P3
_symmetry_space_group_name_H-M   'P 1'
_cell_length_a   3.57286300
_cell_length_b   10.18928900
_cell_length_c   11.71688700
_cell_angle_alpha   90.00000000
_cell_angle_beta   90.00000000
_cell_angle_gamma   90.00000000
_symmetry_Int_Tables_number   1
_chemical_formula_structural   MgCrCo4P3
_chemical_formula_sum   'Mg4 Cr4 Co16 P12'
_cell_volume   426.55249399
_cell_formula_units_Z   4
loop_
 _symmetry_equiv_pos_site_id
 _symmetry_equiv_pos_as_xyz
  1  'x, y, z'
loop_
 _atom_site_type_symbol
 _atom_site_label
 _atom_site_symmetry_multiplicity
 _atom_site_fract_x
 _atom_site_fract_y
 _atom_site_fract_z
 _atom_site_occupancy
  Mg  Mg0  1  0.250000  0.920473  0.203925  1
  Mg  Mg1  1  0.750000  0.079527  0.796075  1
  Mg  Mg2  1  0.750000  0.420473  0.296075  1
  Mg  Mg3  1  0.250000  0.579527  0.703925  1
  Cr  Cr4  1  0.250000  0.791433  0.489495  1
  Cr  Cr5  1  0.750000  0.208567  0.510505  1
  Cr  Cr6  1  0.750000  0.291433  0.010505  1
  Cr  Cr7  1  0.250000  0.708567  0.989495  1
  Co  Co8  1  0.250000  0.092957  0.984316  1
  Co  Co9  1  0.750000  0.907043  0.015684  1
  Co  Co10  1  0.750000  0.592957  0.515684  1
  Co  Co11  1  0.250000  0.407043  0.484316  1
  Co  Co12  1  0.250000  0.279990  0.676719  1
  Co  Co13  1  0.750000  0.720010  0.323281  1
  Co  Co14  1  0.750000  0.779990  0.823281  1
  Co  Co15  1  0.250000  0.220010  0.176719  1
  Co  Co16  1  0.250000  0.612672  0.201843  1
  Co  Co17  1  0.750000  0.387328  0.798157  1
  Co  Co18  1  0.750000  0.112672  0.298157  1
  Co  Co19  1  0.250000  0.887328  0.701843  1
  Co  Co20  1  0.250000  0.034445  0.432601  1
  Co  Co21  1  0.750000  0.965555  0.567399  1
  Co  Co22  1  0.750000  0.534445  0.067399  1
  Co  Co23  1  0.250000  0.465555  0.932601  1
  P  P24  1  0.250000  0.082681  0.615831  1
  P  P25  1  0.750000  0.917319  0.384169  1
  P  P26  1  0.750000  0.582681  0.884169  1
  P  P27  1  0.250000  0.417319  0.115831  1
  P  P28  1  0.250000  0.235521  0.365549  1
  P  P29  1  0.750000  0.764479  0.634451  1
  P  P30  1  0.750000  0.735521  0.134451  1
  P  P31  1  0.250000  0.264479  0.865549  1
  P  P32  1  0.250000  0.903617  0.890731  1
  P  P33  1  0.750000  0.096383  0.109269  1
  P  P34  1  0.750000  0.403617  0.609269  1
  P  P35  1  0.250000  0.596383  0.390731  1
