# generated using pymatgen
data_CsScZnAs2
_symmetry_space_group_name_H-M   'P 1'
_cell_length_a   8.36334903
_cell_length_b   8.36334929
_cell_length_c   8.36334828
_cell_angle_alpha   149.70587848
_cell_angle_beta   149.70587826
_cell_angle_gamma   43.37331272
_symmetry_Int_Tables_number   1
_chemical_formula_structural   CsScZnAs2
_chemical_formula_sum   'Cs1 Sc1 Zn1 As2'
_cell_volume   148.45294573
_cell_formula_units_Z   1
loop_
 _symmetry_equiv_pos_site_id
 _symmetry_equiv_pos_as_xyz
  1  'x, y, z'
loop_
 _atom_site_type_symbol
 _atom_site_label
 _atom_site_symmetry_multiplicity
 _atom_site_fract_x
 _atom_site_fract_y
 _atom_site_fract_z
 _atom_site_occupancy
  Cs  Cs0  1  0.000000  0.000000  0.000000  1
  Sc  Sc1  1  0.750000  0.250000  0.500000  1
  Zn  Zn2  1  0.250000  0.750000  0.500000  1
  As  As3  1  0.654709  0.654709  0.000000  1
  As  As4  1  0.345291  0.345291  0.000000  1
