# generated using pymatgen
data_H5BrF8
_symmetry_space_group_name_H-M   'P 1'
_cell_length_a   4.24223532
_cell_length_b   6.95842854
_cell_length_c   7.73420990
_cell_angle_alpha   81.18208607
_cell_angle_beta   83.66350835
_cell_angle_gamma   59.64001702
_symmetry_Int_Tables_number   1
_chemical_formula_structural   H5BrF8
_chemical_formula_sum   'H5 Br1 F8'
_cell_volume   194.52646172
_cell_formula_units_Z   1
loop_
 _symmetry_equiv_pos_site_id
 _symmetry_equiv_pos_as_xyz
  1  'x, y, z'
loop_
 _atom_site_type_symbol
 _atom_site_label
 _atom_site_symmetry_multiplicity
 _atom_site_fract_x
 _atom_site_fract_y
 _atom_site_fract_z
 _atom_site_occupancy
  H  H0  1  0.680284  0.758283  0.885898  1
  H  H1  1  0.116663  0.746644  0.368623  1
  H  H2  1  0.811847  0.231288  0.635783  1
  H  H3  1  0.286117  0.523972  0.596999  1
  H  H4  1  0.313981  0.984217  0.680578  1
  Br  Br5  1  0.292842  0.441834  0.145039  1
  F  F6  1  0.645092  0.322053  0.308916  1
  F  F7  1  0.581465  0.347383  0.691309  1
  F  F8  1  0.487092  0.912932  0.840417  1
  F  F9  1  0.158217  0.780550  0.240569  1
  F  F10  1  0.155118  0.060436  0.576861  1
  F  F11  1  0.063127  0.656285  0.542483  1
  F  F12  1  0.928283  0.547294  0.960109  1
  F  F13  1  0.422396  0.168136  0.101904  1
