# generated using pymatgen
data_La8Ho2GaSn5
_symmetry_space_group_name_H-M   'P 1'
_cell_length_a   9.42804903
_cell_length_b   9.42805065
_cell_length_c   9.42804993
_cell_angle_alpha   96.37589038
_cell_angle_beta   96.37588580
_cell_angle_gamma   141.06855525
_symmetry_Int_Tables_number   1
_chemical_formula_structural   La8Ho2GaSn5
_chemical_formula_sum   'La8 Ho2 Ga1 Sn5'
_cell_volume   496.51622490
_cell_formula_units_Z   1
loop_
 _symmetry_equiv_pos_site_id
 _symmetry_equiv_pos_as_xyz
  1  'x, y, z'
loop_
 _atom_site_type_symbol
 _atom_site_label
 _atom_site_symmetry_multiplicity
 _atom_site_fract_x
 _atom_site_fract_y
 _atom_site_fract_z
 _atom_site_occupancy
  La  La0  1  0.907396  0.215778  0.132221  1
  La  La1  1  0.215778  0.083557  0.308382  1
  La  La2  1  0.775175  0.907396  0.691618  1
  La  La3  1  0.083557  0.775175  0.867779  1
  La  La4  1  0.724825  0.416443  0.132221  1
  La  La5  1  0.284222  0.592604  0.867779  1
  La  La6  1  0.592604  0.724825  0.308382  1
  La  La7  1  0.416443  0.284222  0.691618  1
  Ho  Ho8  1  0.750000  0.250000  0.500000  1
  Ho  Ho9  1  0.250000  0.750000  0.500000  1
  Ga  Ga10  1  0.750000  0.750000  0.000000  1
  Sn  Sn11  1  0.250000  0.250000  0.000000  1
  Sn  Sn12  1  0.845577  0.654423  0.500000  1
  Sn  Sn13  1  0.654423  0.154423  0.808847  1
  Sn  Sn14  1  0.345577  0.845577  0.191153  1
  Sn  Sn15  1  0.154423  0.345577  0.500000  1
