# generated using pymatgen
data_Pr8Zn2FeSi12Pd
_symmetry_space_group_name_H-M   'P 1'
_cell_length_a   8.22750500
_cell_length_b   8.22750496
_cell_length_c   8.62299900
_cell_angle_alpha   90.00000000
_cell_angle_beta   90.00000000
_cell_angle_gamma   120.00000420
_symmetry_Int_Tables_number   1
_chemical_formula_structural   Pr8Zn2FeSi12Pd
_chemical_formula_sum   'Pr8 Zn2 Fe1 Si12 Pd1'
_cell_volume   505.50476827
_cell_formula_units_Z   1
loop_
 _symmetry_equiv_pos_site_id
 _symmetry_equiv_pos_as_xyz
  1  'x, y, z'
loop_
 _atom_site_type_symbol
 _atom_site_label
 _atom_site_symmetry_multiplicity
 _atom_site_fract_x
 _atom_site_fract_y
 _atom_site_fract_z
 _atom_site_occupancy
  Pr  Pr0  1  0.502603  0.497397  0.754726  1
  Pr  Pr1  1  0.502849  0.497151  0.245508  1
  Pr  Pr2  1  0.994794  0.497397  0.754726  1
  Pr  Pr3  1  0.994301  0.497151  0.245508  1
  Pr  Pr4  1  0.502603  0.005206  0.754726  1
  Pr  Pr5  1  0.502849  0.005699  0.245508  1
  Pr  Pr6  1  0.000000  0.000000  0.749817  1
  Pr  Pr7  1  0.000000  0.000000  0.249977  1
  Zn  Zn8  1  0.333333  0.666667  0.001633  1
  Zn  Zn9  1  0.333333  0.666667  0.499257  1
  Fe  Fe10  1  0.666667  0.333333  0.998372  1
  Si  Si11  1  0.825268  0.174732  0.000138  1
  Si  Si12  1  0.162414  0.837586  0.999794  1
  Si  Si13  1  0.349463  0.174732  0.000138  1
  Si  Si14  1  0.163971  0.836029  0.499791  1
  Si  Si15  1  0.675171  0.837586  0.999794  1
  Si  Si16  1  0.832591  0.167409  0.500260  1
  Si  Si17  1  0.825268  0.650537  0.000138  1
  Si  Si18  1  0.672059  0.836029  0.499791  1
  Si  Si19  1  0.162414  0.324829  0.999794  1
  Si  Si20  1  0.334817  0.167409  0.500260  1
  Si  Si21  1  0.163971  0.327941  0.499791  1
  Si  Si22  1  0.832591  0.665183  0.500260  1
  Pd  Pd23  1  0.666667  0.333333  0.500290  1
