# generated using pymatgen
data_Er13Tm6Lu(CoBi2)4
_symmetry_space_group_name_H-M   'P 1'
_cell_length_a   7.89550280
_cell_length_b   8.85146851
_cell_length_c   12.36600934
_cell_angle_alpha   89.97403942
_cell_angle_beta   90.04943847
_cell_angle_gamma   89.99743965
_symmetry_Int_Tables_number   1
_chemical_formula_structural   Er13Tm6Lu(CoBi2)4
_chemical_formula_sum   'Er13 Tm6 Lu1 Co4 Bi8'
_cell_volume   864.22034036
_cell_formula_units_Z   1
loop_
 _symmetry_equiv_pos_site_id
 _symmetry_equiv_pos_as_xyz
  1  'x, y, z'
loop_
 _atom_site_type_symbol
 _atom_site_label
 _atom_site_symmetry_multiplicity
 _atom_site_fract_x
 _atom_site_fract_y
 _atom_site_fract_z
 _atom_site_occupancy
  Er  Er0  1  0.654176  0.749832  0.699352  1
  Er  Er1  1  0.345866  0.250087  0.300577  1
  Er  Er2  1  0.153723  0.250058  0.800814  1
  Er  Er3  1  0.846029  0.750036  0.199275  1
  Er  Er4  1  0.119769  0.750086  0.814671  1
  Er  Er5  1  0.879997  0.250062  0.185429  1
  Er  Er6  1  0.620355  0.250254  0.685654  1
  Er  Er7  1  0.380444  0.749632  0.314274  1
  Er  Er8  1  0.554866  0.749830  0.997180  1
  Er  Er9  1  0.445515  0.250075  0.002820  1
  Er  Er10  1  0.053663  0.250354  0.502753  1
  Er  Er11  1  0.945018  0.749794  0.497229  1
  Er  Er12  1  0.326259  0.963456  0.564146  1
  Tm  Tm13  1  0.172302  0.536593  0.064168  1
  Tm  Tm14  1  0.327491  0.536675  0.564140  1
  Tm  Tm15  1  0.172615  0.963423  0.064238  1
  Tm  Tm16  1  0.672545  0.463091  0.435557  1
  Tm  Tm17  1  0.827501  0.036557  0.935877  1
  Tm  Tm18  1  0.672641  0.036709  0.435681  1
  Lu  Lu19  1  0.828464  0.463369  0.935977  1
  Co  Co20  1  0.936737  0.749710  0.993321  1
  Co  Co21  1  0.062550  0.250284  0.006650  1
  Co  Co22  1  0.437256  0.250230  0.506687  1
  Co  Co23  1  0.563767  0.749683  0.493073  1
  Bi  Bi24  1  0.933120  0.007685  0.673429  1
  Bi  Bi25  1  0.066602  0.992416  0.326850  1
  Bi  Bi26  1  0.433878  0.992563  0.826773  1
  Bi  Bi27  1  0.066391  0.507550  0.326674  1
  Bi  Bi28  1  0.566308  0.007615  0.173234  1
  Bi  Bi29  1  0.933776  0.492519  0.673521  1
  Bi  Bi30  1  0.566392  0.492302  0.173142  1
  Bi  Bi31  1  0.433983  0.507464  0.826835  1
