# generated using pymatgen
data_Ti12Zn7PdO4
_symmetry_space_group_name_H-M   'P 1'
_cell_length_a   6.85487837
_cell_length_b   6.85487837
_cell_length_c   6.85487837
_cell_angle_alpha   89.97348411
_cell_angle_beta   90.02651589
_cell_angle_gamma   90.02651589
_symmetry_Int_Tables_number   1
_chemical_formula_structural   Ti12Zn7PdO4
_chemical_formula_sum   'Ti12 Zn7 Pd1 O4'
_cell_volume   322.10622625
_cell_formula_units_Z   1
loop_
 _symmetry_equiv_pos_site_id
 _symmetry_equiv_pos_as_xyz
  1  'x, y, z'
loop_
 _atom_site_type_symbol
 _atom_site_label
 _atom_site_symmetry_multiplicity
 _atom_site_fract_x
 _atom_site_fract_y
 _atom_site_fract_z
 _atom_site_occupancy
  Ti  Ti0  1  0.790984  0.959911  0.374057  1
  Ti  Ti1  1  0.708670  0.040002  0.873480  1
  Ti  Ti2  1  0.209152  0.460712  0.125934  1
  Ti  Ti3  1  0.286591  0.542447  0.620072  1
  Ti  Ti4  1  0.959998  0.373480  0.791330  1
  Ti  Ti5  1  0.040089  0.874057  0.709016  1
  Ti  Ti6  1  0.457553  0.120072  0.213409  1
  Ti  Ti7  1  0.539288  0.625934  0.290848  1
  Ti  Ti8  1  0.374066  0.790848  0.960712  1
  Ti  Ti9  1  0.879928  0.713409  0.042447  1
  Ti  Ti10  1  0.125943  0.209016  0.459911  1
  Ti  Ti11  1  0.626520  0.291330  0.540002  1
  Zn  Zn12  1  0.322022  0.180206  0.821474  1
  Zn  Zn13  1  0.819794  0.321474  0.177978  1
  Zn  Zn14  1  0.678526  0.677978  0.680206  1
  Zn  Zn15  1  0.571283  0.428717  0.928717  1
  Zn  Zn16  1  0.432802  0.930080  0.575495  1
  Zn  Zn17  1  0.924505  0.567198  0.430080  1
  Zn  Zn18  1  0.069920  0.075495  0.067198  1
  Pd  Pd19  1  0.178431  0.821569  0.321569  1
  O  O20  1  0.876223  0.123777  0.623777  1
  O  O21  1  0.625542  0.873501  0.124330  1
  O  O22  1  0.126499  0.624330  0.874458  1
  O  O23  1  0.375670  0.374458  0.373501  1
