# generated using pymatgen
data_ErLu4In4PtAu
_symmetry_space_group_name_H-M   'P 1'
_cell_length_a   3.59521900
_cell_length_b   8.07923067
_cell_length_c   18.10341300
_cell_angle_alpha   90.04535383
_cell_angle_beta   90.00000000
_cell_angle_gamma   90.00000000
_symmetry_Int_Tables_number   1
_chemical_formula_structural   ErLu4In4PtAu
_chemical_formula_sum   'Er2 Lu8 In8 Pt2 Au2'
_cell_volume   525.84249654
_cell_formula_units_Z   2
loop_
 _symmetry_equiv_pos_site_id
 _symmetry_equiv_pos_as_xyz
  1  'x, y, z'
loop_
 _atom_site_type_symbol
 _atom_site_label
 _atom_site_symmetry_multiplicity
 _atom_site_fract_x
 _atom_site_fract_y
 _atom_site_fract_z
 _atom_site_occupancy
  Er  Er0  1  0.000000  0.000000  0.000000  1
  Er  Er1  1  0.000000  0.500000  0.500000  1
  Lu  Lu2  1  0.000000  0.119893  0.419031  1
  Lu  Lu3  1  0.000000  0.880107  0.580969  1
  Lu  Lu4  1  0.000000  0.383497  0.916201  1
  Lu  Lu5  1  0.000000  0.616503  0.083799  1
  Lu  Lu6  1  0.000000  0.256052  0.217435  1
  Lu  Lu7  1  0.000000  0.743948  0.782565  1
  Lu  Lu8  1  0.000000  0.265477  0.722398  1
  Lu  Lu9  1  0.000000  0.734523  0.277602  1
  In  In10  1  0.500000  0.422929  0.352568  1
  In  In11  1  0.500000  0.577071  0.647432  1
  In  In12  1  0.500000  0.075948  0.853397  1
  In  In13  1  0.500000  0.924052  0.146603  1
  In  In14  1  0.500000  0.293173  0.064837  1
  In  In15  1  0.500000  0.706827  0.935163  1
  In  In16  1  0.500000  0.209556  0.566902  1
  In  In17  1  0.500000  0.790444  0.433098  1
  Pt  Pt18  1  0.500000  0.470274  0.804309  1
  Pt  Pt19  1  0.500000  0.529726  0.195691  1
  Au  Au20  1  0.500000  0.030357  0.302280  1
  Au  Au21  1  0.500000  0.969643  0.697720  1
