# generated using pymatgen
data_NaSm3HoI7N2
_symmetry_space_group_name_H-M   'P 1'
_cell_length_a   14.58507452
_cell_length_b   11.20421100
_cell_length_c   11.94232110
_cell_angle_alpha   90.00000000
_cell_angle_beta   89.57179983
_cell_angle_gamma   90.00000000
_symmetry_Int_Tables_number   1
_chemical_formula_structural   NaSm3HoI7N2
_chemical_formula_sum   'Na4 Sm12 Ho4 I28 N8'
_cell_volume   1951.49097532
_cell_formula_units_Z   4
loop_
 _symmetry_equiv_pos_site_id
 _symmetry_equiv_pos_as_xyz
  1  'x, y, z'
loop_
 _atom_site_type_symbol
 _atom_site_label
 _atom_site_symmetry_multiplicity
 _atom_site_fract_x
 _atom_site_fract_y
 _atom_site_fract_z
 _atom_site_occupancy
  Na  Na0  1  0.898019  0.052405  0.261925  1
  Na  Na1  1  0.398019  0.447594  0.261925  1
  Na  Na2  1  0.600839  0.553084  0.758089  1
  Na  Na3  1  0.100839  0.946917  0.758089  1
  Sm  Sm4  1  0.417363  0.100748  0.058380  1
  Sm  Sm5  1  0.917363  0.399253  0.058380  1
  Sm  Sm6  1  0.078549  0.620743  0.085268  1
  Sm  Sm7  1  0.578548  0.879258  0.085268  1
  Sm  Sm8  1  0.580041  0.124412  0.317614  1
  Sm  Sm9  1  0.080041  0.375588  0.317614  1
  Sm  Sm10  1  0.900318  0.574143  0.325240  1
  Sm  Sm11  1  0.400318  0.925856  0.325240  1
  Sm  Sm12  1  0.085066  0.599837  0.559596  1
  Sm  Sm13  1  0.585066  0.900162  0.559596  1
  Sm  Sm14  1  0.422072  0.119074  0.589996  1
  Sm  Sm15  1  0.922072  0.380926  0.589996  1
  Ho  Ho16  1  0.925629  0.620274  0.819443  1
  Ho  Ho17  1  0.425629  0.879727  0.819443  1
  Ho  Ho18  1  0.598262  0.067095  0.823203  1
  Ho  Ho19  1  0.098262  0.432906  0.823203  1
  I  I20  1  0.737585  0.063917  0.027877  1
  I  I21  1  0.237585  0.436082  0.027877  1
  I  I22  1  0.776848  0.625760  0.105171  1
  I  I23  1  0.276848  0.874239  0.105171  1
  I  I24  1  0.041646  0.181202  0.119740  1
  I  I25  1  0.541645  0.318798  0.119740  1
  I  I26  1  0.514535  0.696190  0.291909  1
  I  I27  1  0.014534  0.803810  0.291909  1
  I  I28  1  0.293969  0.191285  0.284714  1
  I  I29  1  0.793969  0.308715  0.284714  1
  I  I30  1  0.223502  0.587045  0.333762  1
  I  I31  1  0.723502  0.912955  0.333762  1
  I  I32  1  0.011432  0.155819  0.466219  1
  I  I33  1  0.511432  0.344179  0.466219  1
  I  I34  1  0.755983  0.554883  0.530588  1
  I  I35  1  0.255982  0.945117  0.530588  1
  I  I36  1  0.722108  0.127746  0.609225  1
  I  I37  1  0.222108  0.372255  0.609225  1
  I  I38  1  0.455166  0.688064  0.619321  1
  I  I39  1  0.955166  0.811937  0.619321  1
  I  I40  1  0.991460  0.203013  0.798303  1
  I  I41  1  0.491460  0.296988  0.798303  1
  I  I42  1  0.203679  0.688535  0.787944  1
  I  I43  1  0.703679  0.811465  0.787944  1
  I  I44  1  0.280446  0.079148  0.832825  1
  I  I45  1  0.780446  0.420854  0.832825  1
  I  I46  1  0.482724  0.658027  0.960492  1
  I  I47  1  0.982724  0.841973  0.960492  1
  N  N48  1  0.497314  0.008809  0.195761  1
  N  N49  1  0.997315  0.491191  0.195761  1
  N  N50  1  0.496824  0.018768  0.448796  1
  N  N51  1  0.996824  0.481231  0.448796  1
  N  N52  1  0.004278  0.509700  0.698755  1
  N  N53  1  0.504277  0.990300  0.698755  1
  N  N54  1  0.004344  0.519813  0.945647  1
  N  N55  1  0.504344  0.980187  0.945647  1
