# generated using pymatgen
data_Cs17KBi6
_symmetry_space_group_name_H-M   'P 1'
_cell_length_a   11.71447090
_cell_length_b   11.71475181
_cell_length_c   12.19533025
_cell_angle_alpha   89.99057511
_cell_angle_beta   90.00860803
_cell_angle_gamma   120.04866356
_symmetry_Int_Tables_number   1
_chemical_formula_structural   Cs17KBi6
_chemical_formula_sum   'Cs17 K1 Bi6'
_cell_volume   1448.66106331
_cell_formula_units_Z   1
loop_
 _symmetry_equiv_pos_site_id
 _symmetry_equiv_pos_as_xyz
  1  'x, y, z'
loop_
 _atom_site_type_symbol
 _atom_site_label
 _atom_site_symmetry_multiplicity
 _atom_site_fract_x
 _atom_site_fract_y
 _atom_site_fract_z
 _atom_site_occupancy
  Cs  Cs0  1  0.333251  0.666578  0.227922  1
  Cs  Cs1  1  0.666700  0.333360  0.729492  1
  Cs  Cs2  1  0.333337  0.666654  0.729458  1
  Cs  Cs3  1  0.666546  0.333246  0.227982  1
  Cs  Cs4  1  0.353082  0.353076  0.417843  1
  Cs  Cs5  1  0.651336  0.651363  0.918929  1
  Cs  Cs6  1  0.646930  0.999988  0.417772  1
  Cs  Cs7  1  0.000021  0.646940  0.417839  1
  Cs  Cs8  1  0.000009  0.348694  0.918850  1
  Cs  Cs9  1  0.348692  0.999996  0.918896  1
  Cs  Cs10  1  0.308842  0.308853  0.082891  1
  Cs  Cs11  1  0.691480  0.691493  0.582878  1
  Cs  Cs12  1  0.691100  0.999981  0.082799  1
  Cs  Cs13  1  0.999919  0.691016  0.082826  1
  Cs  Cs14  1  0.999984  0.308700  0.582746  1
  Cs  Cs15  1  0.308797  0.000046  0.582752  1
  Cs  Cs16  1  0.999914  0.999912  0.295087  1
  K  K17  1  0.000471  0.000399  0.770949  1
  Bi  Bi18  1  0.320076  0.320067  0.751868  1
  Bi  Bi19  1  0.668168  0.668200  0.252260  1
  Bi  Bi20  1  0.680177  0.000073  0.751803  1
  Bi  Bi21  1  0.000065  0.680145  0.751840  1
  Bi  Bi22  1  0.999763  0.331420  0.252139  1
  Bi  Bi23  1  0.331440  0.999798  0.252180  1
