# generated using pymatgen
data_Dy5Fe2P12Ir17
_symmetry_space_group_name_H-M   'P 1'
_cell_length_a   12.63133300
_cell_length_b   12.71110882
_cell_length_c   3.96707500
_cell_angle_alpha   90.00000000
_cell_angle_beta   90.00000000
_cell_angle_gamma   119.79260811
_symmetry_Int_Tables_number   1
_chemical_formula_structural   Dy5Fe2P12Ir17
_chemical_formula_sum   'Dy5 Fe2 P12 Ir17'
_cell_volume   552.76110009
_cell_formula_units_Z   1
loop_
 _symmetry_equiv_pos_site_id
 _symmetry_equiv_pos_as_xyz
  1  'x, y, z'
loop_
 _atom_site_type_symbol
 _atom_site_label
 _atom_site_symmetry_multiplicity
 _atom_site_fract_x
 _atom_site_fract_y
 _atom_site_fract_z
 _atom_site_occupancy
  Dy  Dy0  1  0.332484  0.663914  0.500000  1
  Dy  Dy1  1  0.668573  0.336086  0.500000  1
  Dy  Dy2  1  0.999804  0.809865  0.000000  1
  Dy  Dy3  1  0.189940  0.190135  0.000000  1
  Dy  Dy4  1  0.814278  0.000000  0.000000  1
  Fe  Fe5  1  0.999505  0.455635  0.500000  1
  Fe  Fe6  1  0.543871  0.544365  0.500000  1
  P  P7  1  0.999919  0.632793  0.500000  1
  P  P8  1  0.367125  0.367207  0.500000  1
  P  P9  1  0.643280  0.000000  0.500000  1
  P  P10  1  0.514691  0.684184  0.000000  1
  P  P11  1  0.308716  0.824873  0.000000  1
  P  P12  1  0.168715  0.482240  0.000000  1
  P  P13  1  0.483842  0.175127  0.000000  1
  P  P14  1  0.686475  0.517760  0.000000  1
  P  P15  1  0.830505  0.315816  0.000000  1
  P  P16  1  0.000182  0.178804  0.500000  1
  P  P17  1  0.821378  0.821196  0.500000  1
  P  P18  1  0.178067  0.000000  0.500000  1
  Ir  Ir19  1  0.505874  0.866576  0.000000  1
  Ir  Ir20  1  0.129775  0.638347  0.000000  1
  Ir  Ir21  1  0.358897  0.491156  0.000000  1
  Ir  Ir22  1  0.491430  0.361653  0.000000  1
  Ir  Ir23  1  0.867743  0.508844  0.000000  1
  Ir  Ir24  1  0.639300  0.133424  0.000000  1
  Ir  Ir25  1  0.461961  0.000000  0.500000  1
  Ir  Ir26  1  0.998139  0.285278  0.000000  1
  Ir  Ir27  1  0.712861  0.714722  0.000000  1
  Ir  Ir28  1  0.285570  0.000000  0.000000  1
  Ir  Ir29  1  0.622500  0.804691  0.500000  1
  Ir  Ir30  1  0.198049  0.821485  0.500000  1
  Ir  Ir31  1  0.178252  0.373610  0.500000  1
  Ir  Ir32  1  0.376564  0.178515  0.500000  1
  Ir  Ir33  1  0.804641  0.626390  0.500000  1
  Ir  Ir34  1  0.817808  0.195309  0.500000  1
  Ir  Ir35  1  0.999283  0.000000  0.500000  1
