# generated using pymatgen
data_Zr10FeSi(BiPb)3
_symmetry_space_group_name_H-M   'P 1'
_cell_length_a   8.83283100
_cell_length_b   8.83283122
_cell_length_c   5.92454400
_cell_angle_alpha   90.00000000
_cell_angle_beta   90.00000000
_cell_angle_gamma   120.00000292
_symmetry_Int_Tables_number   1
_chemical_formula_structural   Zr10FeSi(BiPb)3
_chemical_formula_sum   'Zr10 Fe1 Si1 Bi3 Pb3'
_cell_volume   400.29982588
_cell_formula_units_Z   1
loop_
 _symmetry_equiv_pos_site_id
 _symmetry_equiv_pos_as_xyz
  1  'x, y, z'
loop_
 _atom_site_type_symbol
 _atom_site_label
 _atom_site_symmetry_multiplicity
 _atom_site_fract_x
 _atom_site_fract_y
 _atom_site_fract_z
 _atom_site_occupancy
  Zr  Zr0  1  0.666667  0.333333  0.502576  1
  Zr  Zr1  1  0.333333  0.666667  0.502576  1
  Zr  Zr2  1  0.333333  0.666667  0.994221  1
  Zr  Zr3  1  0.666667  0.333333  0.994221  1
  Zr  Zr4  1  0.763440  0.763440  0.259209  1
  Zr  Zr5  1  0.236560  0.000000  0.259209  1
  Zr  Zr6  1  0.000000  0.236560  0.259209  1
  Zr  Zr7  1  0.259387  0.259387  0.740716  1
  Zr  Zr8  1  0.740613  0.000000  0.740716  1
  Zr  Zr9  1  0.000000  0.740613  0.740716  1
  Fe  Fe10  1  0.000000  0.000000  0.528575  1
  Si  Si11  1  0.000000  0.000000  0.974439  1
  Bi  Bi12  1  0.400458  0.400458  0.249667  1
  Bi  Bi13  1  0.599542  0.000000  0.249667  1
  Bi  Bi14  1  0.000000  0.599542  0.249667  1
  Pb  Pb15  1  0.613070  0.613070  0.751538  1
  Pb  Pb16  1  0.386930  0.000000  0.751538  1
  Pb  Pb17  1  0.000000  0.386930  0.751538  1
