# generated using pymatgen
data_Ca4Al13Si5Ir6
_symmetry_space_group_name_H-M   'P 1'
_cell_length_a   7.48470749
_cell_length_b   7.46105406
_cell_length_c   9.51373004
_cell_angle_alpha   89.94031183
_cell_angle_beta   90.05391476
_cell_angle_gamma   119.78628324
_symmetry_Int_Tables_number   1
_chemical_formula_structural   Ca4Al13Si5Ir6
_chemical_formula_sum   'Ca4 Al13 Si5 Ir6'
_cell_volume   461.09184446
_cell_formula_units_Z   1
loop_
 _symmetry_equiv_pos_site_id
 _symmetry_equiv_pos_as_xyz
  1  'x, y, z'
loop_
 _atom_site_type_symbol
 _atom_site_label
 _atom_site_symmetry_multiplicity
 _atom_site_fract_x
 _atom_site_fract_y
 _atom_site_fract_z
 _atom_site_occupancy
  Ca  Ca0  1  0.000012  0.662505  0.253128  1
  Ca  Ca1  1  0.005423  0.341233  0.749218  1
  Ca  Ca2  1  0.674565  0.007367  0.252285  1
  Ca  Ca3  1  0.320167  0.991387  0.745688  1
  Al  Al4  1  0.129458  0.127538  0.250640  1
  Al  Al5  1  0.871299  0.871529  0.750409  1
  Al  Al6  1  0.665239  0.997064  0.577135  1
  Al  Al7  1  0.662118  0.997480  0.924701  1
  Al  Al8  1  0.338646  0.002901  0.071046  1
  Al  Al9  1  0.337264  0.335230  0.558010  1
  Al  Al10  1  0.664034  0.668931  0.440041  1
  Al  Al11  1  0.663621  0.668898  0.058493  1
  Al  Al12  1  0.336925  0.332040  0.941712  1
  Al  Al13  1  0.335827  0.545372  0.250474  1
  Al  Al14  1  0.661867  0.450667  0.750455  1
  Al  Al15  1  0.545482  0.342921  0.250136  1
  Al  Al16  1  0.454548  0.658714  0.749334  1
  Si  Si17  1  0.001860  0.327412  0.066622  1
  Si  Si18  1  0.996995  0.670789  0.934548  1
  Si  Si19  1  0.990821  0.665960  0.570281  1
  Si  Si20  1  0.339843  0.006613  0.423726  1
  Si  Si21  1  0.003424  0.327796  0.430852  1
  Ir  Ir22  1  0.687516  0.338658  0.003362  1
  Ir  Ir23  1  0.312133  0.660563  0.998852  1
  Ir  Ir24  1  0.312171  0.670178  0.499798  1
  Ir  Ir25  1  0.680878  0.332078  0.497949  1
  Ir  Ir26  1  0.000704  0.999512  0.001061  1
  Ir  Ir27  1  0.007162  0.998666  0.500050  1
