# generated using pymatgen
data_Li8HoEr7(Sn3Sb)2
_symmetry_space_group_name_H-M   'P 1'
_cell_length_a   9.36141502
_cell_length_b   9.35093031
_cell_length_c   7.14184903
_cell_angle_alpha   90.07073512
_cell_angle_beta   90.00087897
_cell_angle_gamma   120.04512499
_symmetry_Int_Tables_number   1
_chemical_formula_structural   Li8HoEr7(Sn3Sb)2
_chemical_formula_sum   'Li8 Ho1 Er7 Sn6 Sb2'
_cell_volume   541.17722596
_cell_formula_units_Z   1
loop_
 _symmetry_equiv_pos_site_id
 _symmetry_equiv_pos_as_xyz
  1  'x, y, z'
loop_
 _atom_site_type_symbol
 _atom_site_label
 _atom_site_symmetry_multiplicity
 _atom_site_fract_x
 _atom_site_fract_y
 _atom_site_fract_z
 _atom_site_occupancy
  Li  Li0  1  0.166322  0.332632  0.215254  1
  Li  Li1  1  0.167386  0.834066  0.214039  1
  Li  Li2  1  0.666717  0.834066  0.214073  1
  Li  Li3  1  0.666313  0.332574  0.323520  1
  Li  Li4  1  0.833297  0.666621  0.714459  1
  Li  Li5  1  0.333680  0.166755  0.714519  1
  Li  Li6  1  0.833065  0.166774  0.714525  1
  Li  Li7  1  0.333363  0.666755  0.824422  1
  Ho  Ho8  1  0.000938  0.001876  0.998317  1
  Er  Er9  1  0.512394  0.024793  0.004616  1
  Er  Er10  1  0.510193  0.487341  0.003919  1
  Er  Er11  1  0.977195  0.487384  0.003955  1
  Er  Er12  1  0.001030  0.002097  0.501652  1
  Er  Er13  1  0.490038  0.980100  0.508324  1
  Er  Er14  1  0.020391  0.508006  0.509956  1
  Er  Er15  1  0.487590  0.508015  0.509929  1
  Sn  Sn16  1  0.334357  0.167764  0.267970  1
  Sn  Sn17  1  0.833387  0.167763  0.267917  1
  Sn  Sn18  1  0.667110  0.334201  0.739488  1
  Sn  Sn19  1  0.167243  0.334430  0.765850  1
  Sn  Sn20  1  0.166810  0.832125  0.766678  1
  Sn  Sn21  1  0.665347  0.832126  0.766685  1
  Sb  Sb22  1  0.332985  0.666012  0.241640  1
  Sb  Sb23  1  0.832849  0.665722  0.266275  1
