# generated using pymatgen
data_VBi6(PO8)2
_symmetry_space_group_name_H-M   'P 1'
_cell_length_a   8.22952111
_cell_length_b   8.22952050
_cell_length_c   11.52630024
_cell_angle_alpha   49.73819679
_cell_angle_beta   49.73820212
_cell_angle_gamma   38.75768716
_symmetry_Int_Tables_number   1
_chemical_formula_structural   VBi6(PO8)2
_chemical_formula_sum   'V1 Bi6 P2 O16'
_cell_volume   355.98753746
_cell_formula_units_Z   1
loop_
 _symmetry_equiv_pos_site_id
 _symmetry_equiv_pos_as_xyz
  1  'x, y, z'
loop_
 _atom_site_type_symbol
 _atom_site_label
 _atom_site_symmetry_multiplicity
 _atom_site_fract_x
 _atom_site_fract_y
 _atom_site_fract_z
 _atom_site_occupancy
  V  V0  1  0.780354  0.219646  0.500000  1
  Bi  Bi1  1  0.366598  0.952914  0.518328  1
  Bi  Bi2  1  0.047086  0.633402  0.481672  1
  Bi  Bi3  1  0.743997  0.271045  0.828032  1
  Bi  Bi4  1  0.728955  0.256003  0.171968  1
  Bi  Bi5  1  0.070230  0.599086  0.159638  1
  Bi  Bi6  1  0.400914  0.929770  0.840362  1
  P  P7  1  0.147943  0.562284  0.766776  1
  P  P8  1  0.437716  0.852057  0.233224  1
  O  O9  1  0.221485  0.651927  0.800032  1
  O  O10  1  0.348073  0.778515  0.199968  1
  O  O11  1  0.664877  0.678877  0.672556  1
  O  O12  1  0.321123  0.335123  0.327444  1
  O  O13  1  0.488763  0.511237  0.000000  1
  O  O14  1  0.640963  0.586242  0.336983  1
  O  O15  1  0.413758  0.359037  0.663017  1
  O  O16  1  0.035208  0.409395  0.914820  1
  O  O17  1  0.590605  0.964792  0.085180  1
  O  O18  1  0.740460  0.106339  0.433606  1
  O  O19  1  0.893661  0.259540  0.566394  1
  O  O20  1  0.940507  0.814808  0.666788  1
  O  O21  1  0.185192  0.059493  0.333212  1
  O  O22  1  0.169109  0.173017  0.678058  1
  O  O23  1  0.826983  0.830891  0.321942  1
  O  O24  1  0.997639  0.002361  0.000000  1
