# generated using pymatgen
data_PrAu2(SO4)4
_symmetry_space_group_name_H-M   'P 1'
_cell_length_a   6.47701404
_cell_length_b   6.47699928
_cell_length_c   8.86722547
_cell_angle_alpha   76.19507181
_cell_angle_beta   76.19522912
_cell_angle_gamma   88.96663760
_symmetry_Int_Tables_number   1
_chemical_formula_structural   PrAu2(SO4)4
_chemical_formula_sum   'Pr1 Au2 S4 O16'
_cell_volume   350.51540831
_cell_formula_units_Z   1
loop_
 _symmetry_equiv_pos_site_id
 _symmetry_equiv_pos_as_xyz
  1  'x, y, z'
loop_
 _atom_site_type_symbol
 _atom_site_label
 _atom_site_symmetry_multiplicity
 _atom_site_fract_x
 _atom_site_fract_y
 _atom_site_fract_z
 _atom_site_occupancy
  Pr  Pr0  1  0.000000  0.000000  0.000000  1
  Au  Au1  1  0.000000  0.000000  0.500000  1
  Au  Au2  1  0.500000  0.500000  0.500000  1
  S  S3  1  0.081369  0.578984  0.740636  1
  S  S4  1  0.578981  0.081369  0.740639  1
  S  S5  1  0.918631  0.421016  0.259364  1
  S  S6  1  0.421019  0.918631  0.259361  1
  O  O7  1  0.324063  0.622441  0.679150  1
  O  O8  1  0.622439  0.324064  0.679152  1
  O  O9  1  0.675937  0.377559  0.320850  1
  O  O10  1  0.377561  0.675936  0.320848  1
  O  O11  1  0.021946  0.699091  0.864334  1
  O  O12  1  0.699089  0.021946  0.864336  1
  O  O13  1  0.978054  0.300909  0.135666  1
  O  O14  1  0.300911  0.978054  0.135664  1
  O  O15  1  0.977875  0.659050  0.604824  1
  O  O16  1  0.659051  0.977874  0.604826  1
  O  O17  1  0.022125  0.340950  0.395176  1
  O  O18  1  0.340949  0.022126  0.395174  1
  O  O19  1  0.032203  0.349801  0.800148  1
  O  O20  1  0.349799  0.032203  0.800148  1
  O  O21  1  0.967797  0.650199  0.199852  1
  O  O22  1  0.650201  0.967797  0.199852  1
