# generated using pymatgen
data_Y3Cd3NiAg2
_symmetry_space_group_name_H-M   'P 1'
_cell_length_a   7.88406000
_cell_length_b   7.88405892
_cell_length_c   3.77978400
_cell_angle_alpha   90.00000000
_cell_angle_beta   90.00000000
_cell_angle_gamma   120.00000452
_symmetry_Int_Tables_number   1
_chemical_formula_structural   Y3Cd3NiAg2
_chemical_formula_sum   'Y3 Cd3 Ni1 Ag2'
_cell_volume   203.46859035
_cell_formula_units_Z   1
loop_
 _symmetry_equiv_pos_site_id
 _symmetry_equiv_pos_as_xyz
  1  'x, y, z'
loop_
 _atom_site_type_symbol
 _atom_site_label
 _atom_site_symmetry_multiplicity
 _atom_site_fract_x
 _atom_site_fract_y
 _atom_site_fract_z
 _atom_site_occupancy
  Y  Y0  1  0.609489  0.030277  0.000000  1
  Y  Y1  1  0.969723  0.579212  0.000000  1
  Y  Y2  1  0.420788  0.390511  0.000000  1
  Cd  Cd3  1  0.269805  0.998954  0.500000  1
  Cd  Cd4  1  0.001046  0.270851  0.500000  1
  Cd  Cd5  1  0.729149  0.730195  0.500000  1
  Ni  Ni6  1  0.666667  0.333333  0.500000  1
  Ag  Ag7  1  0.333333  0.666667  0.500000  1
  Ag  Ag8  1  0.000000  0.000000  0.000000  1
