# generated using pymatgen
data_Y2FeSi5Rh2
_symmetry_space_group_name_H-M   'P 1'
_cell_length_a   8.04027709
_cell_length_b   8.04027705
_cell_length_c   5.63988671
_cell_angle_alpha   70.95906200
_cell_angle_beta   70.95906070
_cell_angle_gamma   93.63141013
_symmetry_Int_Tables_number   1
_chemical_formula_structural   Y2FeSi5Rh2
_chemical_formula_sum   'Y4 Fe2 Si10 Rh4'
_cell_volume   319.85640100
_cell_formula_units_Z   2
loop_
 _symmetry_equiv_pos_site_id
 _symmetry_equiv_pos_as_xyz
  1  'x, y, z'
loop_
 _atom_site_type_symbol
 _atom_site_label
 _atom_site_symmetry_multiplicity
 _atom_site_fract_x
 _atom_site_fract_y
 _atom_site_fract_z
 _atom_site_occupancy
  Y  Y0  1  0.863980  0.596977  0.766476  1
  Y  Y1  1  0.129227  0.401036  0.243832  1
  Y  Y2  1  0.403023  0.136020  0.733524  1
  Y  Y3  1  0.598964  0.870773  0.256168  1
  Fe  Fe4  1  0.544102  0.261559  0.128429  1
  Fe  Fe5  1  0.738441  0.455898  0.371571  1
  Si  Si6  1  0.762656  0.237344  0.750000  1
  Si  Si7  1  0.220912  0.779088  0.250000  1
  Si  Si8  1  0.522068  0.477932  0.750000  1
  Si  Si9  1  0.497907  0.502093  0.250000  1
  Si  Si10  1  0.209545  0.790455  0.750000  1
  Si  Si11  1  0.783831  0.216169  0.250000  1
  Si  Si12  1  0.278362  0.069515  0.326371  1
  Si  Si13  1  0.734357  0.941308  0.662917  1
  Si  Si14  1  0.930485  0.721638  0.173629  1
  Si  Si15  1  0.058692  0.265643  0.837083  1
  Rh  Rh16  1  0.459016  0.737108  0.876255  1
  Rh  Rh17  1  0.262892  0.540984  0.623745  1
  Rh  Rh18  1  0.999107  0.000893  0.250000  1
  Rh  Rh19  1  0.002433  0.997567  0.750000  1
