# generated using pymatgen
data_Pr17Sm3(Ga2Sn)4
_symmetry_space_group_name_H-M   'P 1'
_cell_length_a   8.08890000
_cell_length_b   8.08890000
_cell_length_c   14.73922200
_cell_angle_alpha   90.00000000
_cell_angle_beta   90.00000000
_cell_angle_gamma   90.00000000
_symmetry_Int_Tables_number   1
_chemical_formula_structural   Pr17Sm3(Ga2Sn)4
_chemical_formula_sum   'Pr17 Sm3 Ga8 Sn4'
_cell_volume   964.39176454
_cell_formula_units_Z   1
loop_
 _symmetry_equiv_pos_site_id
 _symmetry_equiv_pos_as_xyz
  1  'x, y, z'
loop_
 _atom_site_type_symbol
 _atom_site_label
 _atom_site_symmetry_multiplicity
 _atom_site_fract_x
 _atom_site_fract_y
 _atom_site_fract_z
 _atom_site_occupancy
  Pr  Pr0  1  0.822248  0.839419  0.606905  1
  Pr  Pr1  1  0.177593  0.839390  0.107279  1
  Pr  Pr2  1  0.160511  0.822431  0.392695  1
  Pr  Pr3  1  0.839489  0.177569  0.392695  1
  Pr  Pr4  1  0.677569  0.660511  0.392695  1
  Pr  Pr5  1  0.660581  0.322248  0.606905  1
  Pr  Pr6  1  0.339419  0.677752  0.606905  1
  Pr  Pr7  1  0.660610  0.677593  0.107279  1
  Pr  Pr8  1  0.677994  0.339983  0.892968  1
  Pr  Pr9  1  0.839983  0.822006  0.892968  1
  Pr  Pr10  1  0.322431  0.339489  0.392695  1
  Pr  Pr11  1  0.177752  0.160581  0.606905  1
  Pr  Pr12  1  0.822407  0.160610  0.107279  1
  Pr  Pr13  1  0.322006  0.660017  0.892968  1
  Pr  Pr14  1  0.339390  0.322407  0.107279  1
  Pr  Pr15  1  0.160017  0.177994  0.892968  1
  Pr  Pr16  1  0.500000  0.000000  0.774859  1
  Sm  Sm17  1  0.000000  0.500000  0.726560  1
  Sm  Sm18  1  0.000000  0.500000  0.226639  1
  Sm  Sm19  1  0.500000  0.000000  0.273106  1
  Ga  Ga20  1  0.623606  0.376415  0.250090  1
  Ga  Ga21  1  0.121278  0.875618  0.749468  1
  Ga  Ga22  1  0.375618  0.378722  0.749468  1
  Ga  Ga23  1  0.376394  0.623585  0.250090  1
  Ga  Ga24  1  0.876415  0.876394  0.250090  1
  Ga  Ga25  1  0.624382  0.621278  0.749468  1
  Ga  Ga26  1  0.878722  0.124382  0.749468  1
  Ga  Ga27  1  0.123585  0.123606  0.250090  1
  Sn  Sn28  1  0.000000  0.500000  0.504873  1
  Sn  Sn29  1  0.500000  0.000000  0.494451  1
  Sn  Sn30  1  0.500000  0.000000  0.996837  1
  Sn  Sn31  1  0.000000  0.500000  0.005060  1
