# generated using pymatgen
data_Er2Pd2O7
_symmetry_space_group_name_H-M   'P 1'
_cell_length_a   7.21451589
_cell_length_b   7.21451647
_cell_length_c   7.21451600
_cell_angle_alpha   60.00000215
_cell_angle_beta   59.99999948
_cell_angle_gamma   59.99999703
_symmetry_Int_Tables_number   1
_chemical_formula_structural   Er2Pd2O7
_chemical_formula_sum   'Er4 Pd4 O14'
_cell_volume   265.52573626
_cell_formula_units_Z   2
loop_
 _symmetry_equiv_pos_site_id
 _symmetry_equiv_pos_as_xyz
  1  'x, y, z'
loop_
 _atom_site_type_symbol
 _atom_site_label
 _atom_site_symmetry_multiplicity
 _atom_site_fract_x
 _atom_site_fract_y
 _atom_site_fract_z
 _atom_site_occupancy
  Er  Er0  1  0.125000  0.125000  0.125000  1
  Er  Er1  1  0.125000  0.125000  0.625000  1
  Er  Er2  1  0.625000  0.125000  0.125000  1
  Er  Er3  1  0.125000  0.625000  0.125000  1
  Pd  Pd4  1  0.625000  0.125000  0.625000  1
  Pd  Pd5  1  0.625000  0.625000  0.125000  1
  Pd  Pd6  1  0.125000  0.625000  0.625000  1
  Pd  Pd7  1  0.625000  0.625000  0.625000  1
  O  O8  1  0.966134  0.533866  0.966134  1
  O  O9  1  0.250000  0.250000  0.250000  1
  O  O10  1  0.716134  0.283866  0.716134  1
  O  O11  1  0.716134  0.716134  0.283866  1
  O  O12  1  0.283866  0.716134  0.716134  1
  O  O13  1  0.966134  0.966134  0.533866  1
  O  O14  1  0.533866  0.966134  0.966134  1
  O  O15  1  0.966134  0.533866  0.533866  1
  O  O16  1  0.533866  0.533866  0.966134  1
  O  O17  1  0.716134  0.283866  0.283866  1
  O  O18  1  0.283866  0.283866  0.716134  1
  O  O19  1  0.000000  0.000000  0.000000  1
  O  O20  1  0.283866  0.716134  0.283866  1
  O  O21  1  0.533866  0.966134  0.533866  1
