# generated using pymatgen
data_Pr5Ho3(Si3Rh)4
_symmetry_space_group_name_H-M   'P 1'
_cell_length_a   8.24895100
_cell_length_b   8.24895115
_cell_length_c   8.21886700
_cell_angle_alpha   90.00000000
_cell_angle_beta   90.00000000
_cell_angle_gamma   120.00000343
_symmetry_Int_Tables_number   1
_chemical_formula_structural   Pr5Ho3(Si3Rh)4
_chemical_formula_sum   'Pr5 Ho3 Si12 Rh4'
_cell_volume   484.32849899
_cell_formula_units_Z   1
loop_
 _symmetry_equiv_pos_site_id
 _symmetry_equiv_pos_as_xyz
  1  'x, y, z'
loop_
 _atom_site_type_symbol
 _atom_site_label
 _atom_site_symmetry_multiplicity
 _atom_site_fract_x
 _atom_site_fract_y
 _atom_site_fract_z
 _atom_site_occupancy
  Pr  Pr0  1  0.000000  0.000000  0.250000  1
  Pr  Pr1  1  0.000000  0.000000  0.750000  1
  Pr  Pr2  1  0.505522  0.494478  0.250000  1
  Pr  Pr3  1  0.505522  0.011045  0.250000  1
  Pr  Pr4  1  0.988955  0.494478  0.250000  1
  Ho  Ho5  1  0.492279  0.507721  0.750000  1
  Ho  Ho6  1  0.492279  0.984559  0.750000  1
  Ho  Ho7  1  0.015441  0.507721  0.750000  1
  Si  Si8  1  0.167062  0.832938  0.507759  1
  Si  Si9  1  0.167062  0.334124  0.507759  1
  Si  Si10  1  0.665876  0.832938  0.507759  1
  Si  Si11  1  0.831534  0.168466  0.505682  1
  Si  Si12  1  0.831534  0.663070  0.505682  1
  Si  Si13  1  0.336930  0.168466  0.505682  1
  Si  Si14  1  0.831534  0.168466  0.994318  1
  Si  Si15  1  0.831534  0.663070  0.994318  1
  Si  Si16  1  0.336930  0.168466  0.994318  1
  Si  Si17  1  0.167062  0.832938  0.992241  1
  Si  Si18  1  0.167062  0.334124  0.992241  1
  Si  Si19  1  0.665876  0.832938  0.992241  1
  Rh  Rh20  1  0.333333  0.666667  0.489984  1
  Rh  Rh21  1  0.666667  0.333333  0.546574  1
  Rh  Rh22  1  0.666667  0.333333  0.953426  1
  Rh  Rh23  1  0.333333  0.666667  0.010016  1
