# generated using pymatgen
data_Ba4Zn3(SiAu4)5
_symmetry_space_group_name_H-M   'P 1'
_cell_length_a   7.15864500
_cell_length_b   9.23529825
_cell_length_c   10.20934151
_cell_angle_alpha   89.25458001
_cell_angle_beta   90.00000000
_cell_angle_gamma   90.00000000
_symmetry_Int_Tables_number   1
_chemical_formula_structural   Ba4Zn3(SiAu4)5
_chemical_formula_sum   'Ba4 Zn3 Si5 Au20'
_cell_volume   674.90512720
_cell_formula_units_Z   1
loop_
 _symmetry_equiv_pos_site_id
 _symmetry_equiv_pos_as_xyz
  1  'x, y, z'
loop_
 _atom_site_type_symbol
 _atom_site_label
 _atom_site_symmetry_multiplicity
 _atom_site_fract_x
 _atom_site_fract_y
 _atom_site_fract_z
 _atom_site_occupancy
  Ba  Ba0  1  0.250000  0.212845  0.100022  1
  Ba  Ba1  1  0.250000  0.716686  0.398698  1
  Ba  Ba2  1  0.750000  0.786494  0.898353  1
  Ba  Ba3  1  0.750000  0.284609  0.599340  1
  Zn  Zn4  1  0.250000  0.075661  0.614962  1
  Zn  Zn5  1  0.250000  0.571994  0.884662  1
  Zn  Zn6  1  0.750000  0.928913  0.381726  1
  Si  Si7  1  0.750000  0.431032  0.119933  1
  Si  Si8  1  0.250000  0.319152  0.456956  1
  Si  Si9  1  0.250000  0.812071  0.047604  1
  Si  Si10  1  0.750000  0.683707  0.547700  1
  Si  Si11  1  0.750000  0.172630  0.950366  1
  Au  Au12  1  0.047433  0.093825  0.390756  1
  Au  Au13  1  0.458823  0.592757  0.108255  1
  Au  Au14  1  0.546068  0.905559  0.607921  1
  Au  Au15  1  0.950161  0.404107  0.895231  1
  Au  Au16  1  0.953932  0.905559  0.607921  1
  Au  Au17  1  0.549839  0.404107  0.895231  1
  Au  Au18  1  0.452567  0.093825  0.390756  1
  Au  Au19  1  0.041177  0.592757  0.108255  1
  Au  Au20  1  0.025667  0.104670  0.824734  1
  Au  Au21  1  0.480687  0.604094  0.676152  1
  Au  Au22  1  0.522346  0.898790  0.171172  1
  Au  Au23  1  0.980093  0.393191  0.324455  1
  Au  Au24  1  0.977654  0.898790  0.171172  1
  Au  Au25  1  0.519907  0.393191  0.324455  1
  Au  Au26  1  0.474333  0.104670  0.824734  1
  Au  Au27  1  0.019313  0.604094  0.676152  1
  Au  Au28  1  0.250000  0.353534  0.693287  1
  Au  Au29  1  0.250000  0.848383  0.807873  1
  Au  Au30  1  0.750000  0.651250  0.313013  1
  Au  Au31  1  0.750000  0.157051  0.188157  1
