# generated using pymatgen
data_Dy3Y5(ErIn5)4
_symmetry_space_group_name_H-M   'P 1'
_cell_length_a   6.50381109
_cell_length_b   10.41064634
_cell_length_c   12.27324100
_cell_angle_alpha   89.92398459
_cell_angle_beta   89.99070590
_cell_angle_gamma   90.01049400
_symmetry_Int_Tables_number   1
_chemical_formula_structural   Dy3Y5(ErIn5)4
_chemical_formula_sum   'Dy3 Y5 Er4 In20'
_cell_volume   831.00660969
_cell_formula_units_Z   1
loop_
 _symmetry_equiv_pos_site_id
 _symmetry_equiv_pos_as_xyz
  1  'x, y, z'
loop_
 _atom_site_type_symbol
 _atom_site_label
 _atom_site_symmetry_multiplicity
 _atom_site_fract_x
 _atom_site_fract_y
 _atom_site_fract_z
 _atom_site_occupancy
  Dy  Dy0  1  0.890505  0.492871  0.141655  1
  Dy  Dy1  1  0.609411  0.007057  0.641520  1
  Dy  Dy2  1  0.109449  0.992814  0.858576  1
  Y  Y3  1  0.390077  0.507165  0.357933  1
  Y  Y4  1  0.109881  0.507375  0.858096  1
  Y  Y5  1  0.390287  0.992774  0.358304  1
  Y  Y6  1  0.890022  0.007334  0.141636  1
  Y  Y7  1  0.610054  0.492616  0.642320  1
  Er  Er8  1  0.350334  0.750127  0.055594  1
  Er  Er9  1  0.149768  0.749640  0.555659  1
  Er  Er10  1  0.649867  0.250526  0.944386  1
  Er  Er11  1  0.850627  0.249696  0.444505  1
  In  In12  1  0.615488  0.749941  0.505644  1
  In  In13  1  0.884808  0.750105  0.005392  1
  In  In14  1  0.384961  0.249777  0.494931  1
  In  In15  1  0.115438  0.249973  0.994441  1
  In  In16  1  0.651752  0.749800  0.244641  1
  In  In17  1  0.848388  0.751123  0.744823  1
  In  In18  1  0.348332  0.248936  0.755233  1
  In  In19  1  0.151233  0.250180  0.255009  1
  In  In20  1  0.124626  0.750115  0.283305  1
  In  In21  1  0.374652  0.750955  0.783398  1
  In  In22  1  0.874563  0.248902  0.716570  1
  In  In23  1  0.625254  0.250289  0.216612  1
  In  In24  1  0.875073  0.543537  0.400733  1
  In  In25  1  0.624739  0.956820  0.900531  1
  In  In26  1  0.124723  0.043132  0.599624  1
  In  In27  1  0.375016  0.456397  0.098796  1
  In  In28  1  0.124813  0.455981  0.599002  1
  In  In29  1  0.375470  0.043786  0.098785  1
  In  In30  1  0.875447  0.956205  0.401114  1
  In  In31  1  0.624947  0.544052  0.901231  1
