# generated using pymatgen
data_Y2Er2IrRh3O14
_symmetry_space_group_name_H-M   'P 1'
_cell_length_a   7.22619980
_cell_length_b   7.22620091
_cell_length_c   7.22697852
_cell_angle_alpha   59.87382958
_cell_angle_beta   59.87382539
_cell_angle_gamma   59.88657690
_symmetry_Int_Tables_number   1
_chemical_formula_structural   Y2Er2IrRh3O14
_chemical_formula_sum   'Y2 Er2 Ir1 Rh3 O14'
_cell_volume   266.10844033
_cell_formula_units_Z   1
loop_
 _symmetry_equiv_pos_site_id
 _symmetry_equiv_pos_as_xyz
  1  'x, y, z'
loop_
 _atom_site_type_symbol
 _atom_site_label
 _atom_site_symmetry_multiplicity
 _atom_site_fract_x
 _atom_site_fract_y
 _atom_site_fract_z
 _atom_site_occupancy
  Y  Y0  1  0.125000  0.125000  0.625000  1
  Y  Y1  1  0.125000  0.125000  0.125000  1
  Er  Er2  1  0.625000  0.125000  0.125000  1
  Er  Er3  1  0.125000  0.625000  0.125000  1
  Ir  Ir4  1  0.625000  0.625000  0.625000  1
  Rh  Rh5  1  0.125000  0.625000  0.625000  1
  Rh  Rh6  1  0.625000  0.125000  0.625000  1
  Rh  Rh7  1  0.625000  0.625000  0.125000  1
  O  O8  1  0.711229  0.711229  0.291105  1
  O  O9  1  0.286251  0.286251  0.711091  1
  O  O10  1  0.708952  0.291674  0.712710  1
  O  O11  1  0.285921  0.709633  0.285550  1
  O  O12  1  0.291674  0.708952  0.712710  1
  O  O13  1  0.709633  0.285921  0.285550  1
  O  O14  1  0.538771  0.538771  0.958895  1
  O  O15  1  0.963749  0.963749  0.538909  1
  O  O16  1  0.541048  0.958326  0.537290  1
  O  O17  1  0.964079  0.540367  0.964450  1
  O  O18  1  0.958326  0.541048  0.537290  1
  O  O19  1  0.540367  0.964079  0.964450  1
  O  O20  1  0.252457  0.252457  0.248711  1
  O  O21  1  0.997543  0.997543  0.001289  1
