# generated using pymatgen
data_Ni4Mo3W3N2
_symmetry_space_group_name_H-M   'P 1'
_cell_length_a   6.66774638
_cell_length_b   6.66150541
_cell_length_c   6.67514200
_cell_angle_alpha   90.00000000
_cell_angle_beta   90.00000000
_cell_angle_gamma   90.03951213
_symmetry_Int_Tables_number   1
_chemical_formula_structural   Ni4Mo3W3N2
_chemical_formula_sum   'Ni8 Mo6 W6 N4'
_cell_volume   296.49123765
_cell_formula_units_Z   2
loop_
 _symmetry_equiv_pos_site_id
 _symmetry_equiv_pos_as_xyz
  1  'x, y, z'
loop_
 _atom_site_type_symbol
 _atom_site_label
 _atom_site_symmetry_multiplicity
 _atom_site_fract_x
 _atom_site_fract_y
 _atom_site_fract_z
 _atom_site_occupancy
  Ni  Ni0  1  0.935511  0.566675  0.434400  1
  Ni  Ni1  1  0.185779  0.815509  0.315951  1
  Ni  Ni2  1  0.432849  0.932017  0.566353  1
  Ni  Ni3  1  0.684237  0.681876  0.682785  1
  Ni  Ni4  1  0.815763  0.318124  0.182785  1
  Ni  Ni5  1  0.314221  0.184491  0.815951  1
  Ni  Ni6  1  0.564489  0.433325  0.934400  1
  Ni  Ni7  1  0.067151  0.067983  0.066353  1
  Mo  Mo8  1  0.699203  0.047612  0.874999  1
  Mo  Mo9  1  0.624956  0.296692  0.549140  1
  Mo  Mo10  1  0.875044  0.703308  0.049140  1
  Mo  Mo11  1  0.375326  0.798354  0.951007  1
  Mo  Mo12  1  0.124674  0.201646  0.451007  1
  Mo  Mo13  1  0.800797  0.952388  0.374999  1
  W  W14  1  0.198827  0.452031  0.125236  1
  W  W15  1  0.050351  0.875366  0.700358  1
  W  W16  1  0.449649  0.124634  0.200358  1
  W  W17  1  0.301173  0.547969  0.625236  1
  W  W18  1  0.947833  0.374859  0.799456  1
  W  W19  1  0.552167  0.625141  0.299456  1
  N  N20  1  0.875797  0.124614  0.626573  1
  N  N21  1  0.624203  0.875386  0.126573  1
  N  N22  1  0.124585  0.624118  0.873741  1
  N  N23  1  0.375415  0.375882  0.373741  1
