# generated using pymatgen
data_ScGa11(RuRh)6
_symmetry_space_group_name_H-M   'P 1'
_cell_length_a   4.29422400
_cell_length_b   6.11136300
_cell_length_c   12.94851300
_cell_angle_alpha   89.99718217
_cell_angle_beta   90.00028849
_cell_angle_gamma   89.99896401
_symmetry_Int_Tables_number   1
_chemical_formula_structural   ScGa11(RuRh)6
_chemical_formula_sum   'Sc1 Ga11 Ru6 Rh6'
_cell_volume   339.81509918
_cell_formula_units_Z   1
loop_
 _symmetry_equiv_pos_site_id
 _symmetry_equiv_pos_as_xyz
  1  'x, y, z'
loop_
 _atom_site_type_symbol
 _atom_site_label
 _atom_site_symmetry_multiplicity
 _atom_site_fract_x
 _atom_site_fract_y
 _atom_site_fract_z
 _atom_site_occupancy
  Sc  Sc0  1  0.499997  0.249788  0.999997  1
  Ga  Ga1  1  0.499998  0.749398  0.000000  1
  Ga  Ga2  1  0.000053  0.249848  0.162646  1
  Ga  Ga3  1  0.000053  0.750081  0.170693  1
  Ga  Ga4  1  0.500049  0.250712  0.333031  1
  Ga  Ga5  1  0.500064  0.749542  0.337191  1
  Ga  Ga6  1  0.000028  0.249769  0.500019  1
  Ga  Ga7  1  0.000004  0.750019  0.499995  1
  Ga  Ga8  1  0.499947  0.250703  0.666939  1
  Ga  Ga9  1  0.499938  0.749527  0.662831  1
  Ga  Ga10  1  0.999941  0.249856  0.837356  1
  Ga  Ga11  1  0.999941  0.750075  0.829314  1
  Ru  Ru12  1  0.999997  0.516757  0.000002  1
  Ru  Ru13  1  0.500040  0.991902  0.171834  1
  Ru  Ru14  1  0.000063  0.499569  0.334488  1
  Ru  Ru15  1  0.500003  0.999775  0.499997  1
  Ru  Ru16  1  0.999940  0.499581  0.665510  1
  Ru  Ru17  1  0.499955  0.991909  0.828165  1
  Rh  Rh18  1  0.999997  0.987700  0.000004  1
  Rh  Rh19  1  0.500060  0.503617  0.170843  1
  Rh  Rh20  1  0.000048  0.004488  0.333850  1
  Rh  Rh21  1  0.500005  0.497295  0.499997  1
  Rh  Rh22  1  0.999944  0.004476  0.666147  1
  Rh  Rh23  1  0.499938  0.503610  0.829153  1
