# generated using pymatgen
data_Dy14ErTm5Bi12
_symmetry_space_group_name_H-M   'P 1'
_cell_length_a   8.22764734
_cell_length_b   9.53075535
_cell_length_c   12.03965400
_cell_angle_alpha   89.98854175
_cell_angle_beta   90.01639281
_cell_angle_gamma   89.98946482
_symmetry_Int_Tables_number   1
_chemical_formula_structural   Dy14ErTm5Bi12
_chemical_formula_sum   'Dy14 Er1 Tm5 Bi12'
_cell_volume   944.09774909
_cell_formula_units_Z   1
loop_
 _symmetry_equiv_pos_site_id
 _symmetry_equiv_pos_as_xyz
  1  'x, y, z'
loop_
 _atom_site_type_symbol
 _atom_site_label
 _atom_site_symmetry_multiplicity
 _atom_site_fract_x
 _atom_site_fract_y
 _atom_site_fract_z
 _atom_site_occupancy
  Dy  Dy0  1  0.186153  0.750037  0.719143  1
  Dy  Dy1  1  0.686940  0.750074  0.781056  1
  Dy  Dy2  1  0.813466  0.250083  0.280882  1
  Dy  Dy3  1  0.313477  0.250363  0.218819  1
  Dy  Dy4  1  0.806777  0.063546  0.559659  1
  Dy  Dy5  1  0.692559  0.936265  0.059119  1
  Dy  Dy6  1  0.193354  0.563481  0.440565  1
  Dy  Dy7  1  0.693583  0.563296  0.059550  1
  Dy  Dy8  1  0.193179  0.936469  0.440430  1
  Dy  Dy9  1  0.306633  0.063396  0.940544  1
  Dy  Dy10  1  0.806717  0.436551  0.559591  1
  Dy  Dy11  1  0.354866  0.750458  0.216199  1
  Dy  Dy12  1  0.854529  0.750255  0.283660  1
  Dy  Dy13  1  0.644805  0.250454  0.783909  1
  Er  Er14  1  0.146304  0.250570  0.716544  1
  Tm  Tm15  1  0.025416  0.750047  0.988677  1
  Tm  Tm16  1  0.525280  0.750146  0.511358  1
  Tm  Tm17  1  0.975322  0.250242  0.010989  1
  Tm  Tm18  1  0.474835  0.250089  0.488708  1
  Tm  Tm19  1  0.306227  0.434744  0.940520  1
  Bi  Bi20  1  0.433141  0.004118  0.672733  1
  Bi  Bi21  1  0.934136  0.495970  0.827428  1
  Bi  Bi22  1  0.566472  0.503882  0.327397  1
  Bi  Bi23  1  0.066685  0.996417  0.172507  1
  Bi  Bi24  1  0.566653  0.996424  0.327422  1
  Bi  Bi25  1  0.066685  0.503988  0.172346  1
  Bi  Bi26  1  0.432993  0.496237  0.672728  1
  Bi  Bi27  1  0.933611  0.004478  0.827319  1
  Bi  Bi28  1  0.406292  0.747462  0.957327  1
  Bi  Bi29  1  0.907031  0.750017  0.542334  1
  Bi  Bi30  1  0.592816  0.250465  0.042197  1
  Bi  Bi31  1  0.093068  0.249975  0.458343  1
