# generated using pymatgen
data_PuI15
_symmetry_space_group_name_H-M   'P 1'
_cell_length_a   4.61665174
_cell_length_b   13.35432633
_cell_length_c   16.97930600
_cell_angle_alpha   63.43083926
_cell_angle_beta   102.05668465
_cell_angle_gamma   99.99473284
_symmetry_Int_Tables_number   1
_chemical_formula_structural   PuI15
_chemical_formula_sum   'Pu1 I15'
_cell_volume   911.76120678
_cell_formula_units_Z   1
loop_
 _symmetry_equiv_pos_site_id
 _symmetry_equiv_pos_as_xyz
  1  'x, y, z'
loop_
 _atom_site_type_symbol
 _atom_site_label
 _atom_site_symmetry_multiplicity
 _atom_site_fract_x
 _atom_site_fract_y
 _atom_site_fract_z
 _atom_site_occupancy
  Pu  Pu0  1  0.173819  0.455701  0.991413  1
  I  I1  1  0.061880  0.435423  0.484517  1
  I  I2  1  0.231536  0.013728  0.512227  1
  I  I3  1  0.740954  0.981416  0.037253  1
  I  I4  1  0.130554  0.333721  0.374710  1
  I  I5  1  0.838667  0.234322  0.621947  1
  I  I6  1  0.030565  0.815761  0.206101  1
  I  I7  1  0.180308  0.703613  0.849125  1
  I  I8  1  0.777619  0.502463  0.095054  1
  I  I9  1  0.460996  0.840692  0.947693  1
  I  I10  1  0.209969  0.115257  0.321324  1
  I  I11  1  0.945438  0.530805  0.617548  1
  I  I12  1  0.567437  0.401047  0.889133  1
  I  I13  1  0.192589  0.201448  0.124191  1
  I  I14  1  0.093812  0.769263  0.556971  1
  I  I15  1  0.363855  0.665339  0.370791  1
