# generated using pymatgen
data_Tm4GaCo4Si2Ge
_symmetry_space_group_name_H-M   'P 1'
_cell_length_a   4.20111800
_cell_length_b   6.81577251
_cell_length_c   6.99242504
_cell_angle_alpha   89.56678822
_cell_angle_beta   90.00000000
_cell_angle_gamma   90.00000000
_symmetry_Int_Tables_number   1
_chemical_formula_structural   Tm4GaCo4Si2Ge
_chemical_formula_sum   'Tm4 Ga1 Co4 Si2 Ge1'
_cell_volume   200.21442856
_cell_formula_units_Z   1
loop_
 _symmetry_equiv_pos_site_id
 _symmetry_equiv_pos_as_xyz
  1  'x, y, z'
loop_
 _atom_site_type_symbol
 _atom_site_label
 _atom_site_symmetry_multiplicity
 _atom_site_fract_x
 _atom_site_fract_y
 _atom_site_fract_z
 _atom_site_occupancy
  Tm  Tm0  1  0.750000  0.514364  0.805896  1
  Tm  Tm1  1  0.750000  0.015506  0.691432  1
  Tm  Tm2  1  0.250000  0.487715  0.195434  1
  Tm  Tm3  1  0.250000  0.983603  0.306656  1
  Ga  Ga4  1  0.750000  0.198585  0.105145  1
  Co  Co5  1  0.750000  0.356329  0.446147  1
  Co  Co6  1  0.750000  0.834263  0.074763  1
  Co  Co7  1  0.250000  0.649500  0.557260  1
  Co  Co8  1  0.250000  0.158284  0.922097  1
  Si  Si9  1  0.750000  0.698453  0.394575  1
  Si  Si10  1  0.250000  0.302976  0.604079  1
  Ge  Ge11  1  0.250000  0.800421  0.896518  1
