# generated using pymatgen
data_Tb5Dy(LuSb10)2
_symmetry_space_group_name_H-M   'P 1'
_cell_length_a   4.25284700
_cell_length_b   13.16161150
_cell_length_c   14.64092050
_cell_angle_alpha   77.79184420
_cell_angle_beta   90.00000000
_cell_angle_gamma   90.00000000
_symmetry_Int_Tables_number   1
_chemical_formula_structural   Tb5Dy(LuSb10)2
_chemical_formula_sum   'Tb5 Dy1 Lu2 Sb20'
_cell_volume   800.98288275
_cell_formula_units_Z   1
loop_
 _symmetry_equiv_pos_site_id
 _symmetry_equiv_pos_as_xyz
  1  'x, y, z'
loop_
 _atom_site_type_symbol
 _atom_site_label
 _atom_site_symmetry_multiplicity
 _atom_site_fract_x
 _atom_site_fract_y
 _atom_site_fract_z
 _atom_site_occupancy
  Tb  Tb0  1  0.250000  0.662831  0.856219  1
  Tb  Tb1  1  0.750000  0.337296  0.143725  1
  Tb  Tb2  1  0.250000  0.668974  0.576529  1
  Tb  Tb3  1  0.750000  0.331057  0.423563  1
  Tb  Tb4  1  0.250000  0.951837  0.359694  1
  Dy  Dy5  1  0.750000  0.048089  0.639959  1
  Lu  Lu6  1  0.250000  0.395417  0.771442  1
  Lu  Lu7  1  0.750000  0.604529  0.228548  1
  Sb  Sb8  1  0.250000  0.145071  0.780951  1
  Sb  Sb9  1  0.750000  0.854641  0.218861  1
  Sb  Sb10  1  0.250000  0.142804  0.482519  1
  Sb  Sb11  1  0.750000  0.857181  0.517950  1
  Sb  Sb12  1  0.250000  0.152231  0.172994  1
  Sb  Sb13  1  0.750000  0.847981  0.826905  1
  Sb  Sb14  1  0.250000  0.420066  0.974298  1
  Sb  Sb15  1  0.750000  0.579964  0.025693  1
  Sb  Sb16  1  0.750000  0.030867  0.905851  1
  Sb  Sb17  1  0.250000  0.969211  0.094152  1
  Sb  Sb18  1  0.750000  0.138318  0.322666  1
  Sb  Sb19  1  0.250000  0.862116  0.677318  1
  Sb  Sb20  1  0.750000  0.280466  0.936463  1
  Sb  Sb21  1  0.250000  0.719529  0.063553  1
  Sb  Sb22  1  0.750000  0.288356  0.654115  1
  Sb  Sb23  1  0.250000  0.711297  0.345935  1
  Sb  Sb24  1  0.750000  0.573145  0.735499  1
  Sb  Sb25  1  0.250000  0.426858  0.264528  1
  Sb  Sb26  1  0.750000  0.573857  0.445070  1
  Sb  Sb27  1  0.250000  0.426009  0.555002  1
