# generated using pymatgen
data_Dy2Y5Er13Sn16
_symmetry_space_group_name_H-M   'P 1'
_cell_length_a   8.00145669
_cell_length_b   8.13345123
_cell_length_c   15.37681202
_cell_angle_alpha   90.01523977
_cell_angle_beta   90.09263663
_cell_angle_gamma   89.95262348
_symmetry_Int_Tables_number   1
_chemical_formula_structural   Dy2Y5Er13Sn16
_chemical_formula_sum   'Dy2 Y5 Er13 Sn16'
_cell_volume   1000.71290388
_cell_formula_units_Z   1
loop_
 _symmetry_equiv_pos_site_id
 _symmetry_equiv_pos_as_xyz
  1  'x, y, z'
loop_
 _atom_site_type_symbol
 _atom_site_label
 _atom_site_symmetry_multiplicity
 _atom_site_fract_x
 _atom_site_fract_y
 _atom_site_fract_z
 _atom_site_occupancy
  Dy  Dy0  1  0.520044  0.321166  0.596885  1
  Dy  Dy1  1  0.020634  0.179321  0.902919  1
  Y  Y2  1  0.020442  0.179247  0.597244  1
  Y  Y3  1  0.479707  0.679012  0.403292  1
  Y  Y4  1  0.979305  0.820803  0.096878  1
  Y  Y5  1  0.479345  0.678835  0.096828  1
  Y  Y6  1  0.979726  0.820850  0.403360  1
  Er  Er7  1  0.367115  0.837437  0.877149  1
  Er  Er8  1  0.866400  0.662721  0.622904  1
  Er  Er9  1  0.633113  0.162651  0.377311  1
  Er  Er10  1  0.132688  0.337550  0.122423  1
  Er  Er11  1  0.632587  0.162514  0.122510  1
  Er  Er12  1  0.133268  0.337289  0.377348  1
  Er  Er13  1  0.366800  0.837568  0.623049  1
  Er  Er14  1  0.867338  0.662584  0.877224  1
  Er  Er15  1  0.521624  0.321311  0.902587  1
  Er  Er16  1  0.198314  0.503549  0.750155  1
  Er  Er17  1  0.698145  0.996463  0.750148  1
  Er  Er18  1  0.801765  0.495945  0.249900  1
  Er  Er19  1  0.301893  0.003732  0.250068  1
  Sn  Sn20  1  0.293821  0.037682  0.041476  1
  Sn  Sn21  1  0.794408  0.461951  0.458556  1
  Sn  Sn22  1  0.705530  0.962231  0.541596  1
  Sn  Sn23  1  0.207238  0.536811  0.958039  1
  Sn  Sn24  1  0.705745  0.962686  0.958307  1
  Sn  Sn25  1  0.205148  0.538428  0.541577  1
  Sn  Sn26  1  0.294358  0.037976  0.458648  1
  Sn  Sn27  1  0.793235  0.461677  0.041056  1
  Sn  Sn28  1  0.564223  0.619212  0.750148  1
  Sn  Sn29  1  0.064207  0.880380  0.749970  1
  Sn  Sn30  1  0.435572  0.380392  0.249789  1
  Sn  Sn31  1  0.935689  0.119652  0.249816  1
  Sn  Sn32  1  0.331037  0.148858  0.750468  1
  Sn  Sn33  1  0.829929  0.351756  0.750118  1
  Sn  Sn34  1  0.669873  0.851365  0.250097  1
  Sn  Sn35  1  0.169734  0.648393  0.250154  1
