# generated using pymatgen
data_Y2Lu4Ir5Rh13
_symmetry_space_group_name_H-M   'P 1'
_cell_length_a   5.24906100
_cell_length_b   5.24906147
_cell_length_c   17.48395300
_cell_angle_alpha   90.00000000
_cell_angle_beta   90.00000000
_cell_angle_gamma   119.99999075
_symmetry_Int_Tables_number   1
_chemical_formula_structural   Y2Lu4Ir5Rh13
_chemical_formula_sum   'Y2 Lu4 Ir5 Rh13'
_cell_volume   417.18970302
_cell_formula_units_Z   1
loop_
 _symmetry_equiv_pos_site_id
 _symmetry_equiv_pos_as_xyz
  1  'x, y, z'
loop_
 _atom_site_type_symbol
 _atom_site_label
 _atom_site_symmetry_multiplicity
 _atom_site_fract_x
 _atom_site_fract_y
 _atom_site_fract_z
 _atom_site_occupancy
  Y  Y0  1  0.333333  0.666667  0.749874  1
  Y  Y1  1  0.666667  0.333333  0.250989  1
  Lu  Lu2  1  0.333333  0.666667  0.959287  1
  Lu  Lu3  1  0.666667  0.333333  0.040780  1
  Lu  Lu4  1  0.666667  0.333333  0.459013  1
  Lu  Lu5  1  0.333333  0.666667  0.540185  1
  Ir  Ir6  1  0.167808  0.832192  0.375240  1
  Ir  Ir7  1  0.167808  0.335617  0.375240  1
  Ir  Ir8  1  0.664383  0.832192  0.375240  1
  Ir  Ir9  1  0.000000  0.000000  0.500477  1
  Ir  Ir10  1  0.000000  0.000000  0.999970  1
  Rh  Rh11  1  0.832569  0.167431  0.624905  1
  Rh  Rh12  1  0.832569  0.665137  0.624905  1
  Rh  Rh13  1  0.334863  0.167431  0.624905  1
  Rh  Rh14  1  0.832608  0.167392  0.875627  1
  Rh  Rh15  1  0.832608  0.665216  0.875627  1
  Rh  Rh16  1  0.334784  0.167392  0.875627  1
  Rh  Rh17  1  0.167375  0.832625  0.123866  1
  Rh  Rh18  1  0.167375  0.334751  0.123866  1
  Rh  Rh19  1  0.665249  0.832625  0.123866  1
  Rh  Rh20  1  0.333333  0.666667  0.249709  1
  Rh  Rh21  1  0.666667  0.333333  0.750299  1
  Rh  Rh22  1  0.000000  0.000000  0.250792  1
  Rh  Rh23  1  0.000000  0.000000  0.749710  1
