# generated using pymatgen
data_CaHo4Tm3(B6Ru)4
_symmetry_space_group_name_H-M   'P 1'
_cell_length_a   3.63751300
_cell_length_b   9.10498480
_cell_length_c   11.49614702
_cell_angle_alpha   89.91929135
_cell_angle_beta   90.00000000
_cell_angle_gamma   90.00000000
_symmetry_Int_Tables_number   1
_chemical_formula_structural   CaHo4Tm3(B6Ru)4
_chemical_formula_sum   'Ca1 Ho4 Tm3 B24 Ru4'
_cell_volume   380.74626997
_cell_formula_units_Z   1
loop_
 _symmetry_equiv_pos_site_id
 _symmetry_equiv_pos_as_xyz
  1  'x, y, z'
loop_
 _atom_site_type_symbol
 _atom_site_label
 _atom_site_symmetry_multiplicity
 _atom_site_fract_x
 _atom_site_fract_y
 _atom_site_fract_z
 _atom_site_occupancy
  Ca  Ca0  1  0.000000  0.322357  0.414035  1
  Ho  Ho1  1  0.000000  0.676201  0.585226  1
  Ho  Ho2  1  0.000000  0.822139  0.086005  1
  Ho  Ho3  1  0.000000  0.178355  0.914535  1
  Ho  Ho4  1  0.000000  0.944005  0.371293  1
  Tm  Tm5  1  0.000000  0.057929  0.628535  1
  Tm  Tm6  1  0.000000  0.443038  0.129217  1
  Tm  Tm7  1  0.000000  0.556232  0.872321  1
  B  B8  1  0.500000  0.554584  0.432667  1
  B  B9  1  0.500000  0.446165  0.568076  1
  B  B10  1  0.500000  0.053394  0.066182  1
  B  B11  1  0.500000  0.945663  0.932481  1
  B  B12  1  0.500000  0.748547  0.419137  1
  B  B13  1  0.500000  0.251470  0.581841  1
  B  B14  1  0.500000  0.248380  0.080211  1
  B  B15  1  0.500000  0.751113  0.919478  1
  B  B16  1  0.500000  0.791296  0.265499  1
  B  B17  1  0.500000  0.209265  0.734784  1
  B  B18  1  0.500000  0.290383  0.232994  1
  B  B19  1  0.500000  0.708911  0.766234  1
  B  B20  1  0.500000  0.631439  0.185113  1
  B  B21  1  0.500000  0.369166  0.815805  1
  B  B22  1  0.500000  0.130770  0.313516  1
  B  B23  1  0.500000  0.868972  0.684960  1
  B  B24  1  0.500000  0.983019  0.211311  1
  B  B25  1  0.500000  0.016917  0.787183  1
  B  B26  1  0.500000  0.483699  0.287001  1
  B  B27  1  0.500000  0.517091  0.713333  1
  B  B28  1  0.500000  0.606234  0.029414  1
  B  B29  1  0.500000  0.394078  0.971101  1
  B  B30  1  0.500000  0.103188  0.472235  1
  B  B31  1  0.500000  0.895687  0.529431  1
  Ru  Ru32  1  0.000000  0.639522  0.319689  1
  Ru  Ru33  1  0.000000  0.361903  0.681441  1
  Ru  Ru34  1  0.000000  0.137038  0.176937  1
  Ru  Ru35  1  0.000000  0.861848  0.820779  1
