# generated using pymatgen
data_NdEr2Lu3Bi2Mo
_symmetry_space_group_name_H-M   'P 1'
_cell_length_a   8.19048800
_cell_length_b   8.24494228
_cell_length_c   4.37048600
_cell_angle_alpha   90.00000000
_cell_angle_beta   90.00000000
_cell_angle_gamma   119.78176210
_symmetry_Int_Tables_number   1
_chemical_formula_structural   NdEr2Lu3Bi2Mo
_chemical_formula_sum   'Nd1 Er2 Lu3 Bi2 Mo1'
_cell_volume   256.15841648
_cell_formula_units_Z   1
loop_
 _symmetry_equiv_pos_site_id
 _symmetry_equiv_pos_as_xyz
  1  'x, y, z'
loop_
 _atom_site_type_symbol
 _atom_site_label
 _atom_site_symmetry_multiplicity
 _atom_site_fract_x
 _atom_site_fract_y
 _atom_site_fract_z
 _atom_site_occupancy
  Nd  Nd0  1  0.603774  0.000000  0.000000  1
  Er  Er1  1  0.998828  0.612274  0.000000  1
  Er  Er2  1  0.386555  0.387726  0.000000  1
  Lu  Lu3  1  0.235522  0.000000  0.500000  1
  Lu  Lu4  1  0.000281  0.229662  0.500000  1
  Lu  Lu5  1  0.770620  0.770338  0.500000  1
  Bi  Bi6  1  0.327676  0.657963  0.500000  1
  Bi  Bi7  1  0.669714  0.342037  0.500000  1
  Mo  Mo8  1  0.007034  0.000000  0.000000  1
