# generated using pymatgen
data_Hf3Ti2ReSn2
_symmetry_space_group_name_H-M   'P 1'
_cell_length_a   8.26283774
_cell_length_b   8.26283908
_cell_length_c   5.56320900
_cell_angle_alpha   90.00000000
_cell_angle_beta   90.00000000
_cell_angle_gamma   121.90621202
_symmetry_Int_Tables_number   1
_chemical_formula_structural   Hf3Ti2ReSn2
_chemical_formula_sum   'Hf6 Ti4 Re2 Sn4'
_cell_volume   322.43916682
_cell_formula_units_Z   2
loop_
 _symmetry_equiv_pos_site_id
 _symmetry_equiv_pos_as_xyz
  1  'x, y, z'
loop_
 _atom_site_type_symbol
 _atom_site_label
 _atom_site_symmetry_multiplicity
 _atom_site_fract_x
 _atom_site_fract_y
 _atom_site_fract_z
 _atom_site_occupancy
  Hf  Hf0  1  0.247972  0.026946  0.250000  1
  Hf  Hf1  1  0.752028  0.973054  0.750000  1
  Hf  Hf2  1  0.026946  0.247972  0.250000  1
  Hf  Hf3  1  0.973054  0.752028  0.750000  1
  Hf  Hf4  1  0.754949  0.754949  0.250000  1
  Hf  Hf5  1  0.245051  0.245051  0.750000  1
  Ti  Ti6  1  0.348626  0.651374  0.000000  1
  Ti  Ti7  1  0.651374  0.348626  0.000000  1
  Ti  Ti8  1  0.651374  0.348626  0.500000  1
  Ti  Ti9  1  0.348626  0.651374  0.500000  1
  Re  Re10  1  0.410088  0.410088  0.250000  1
  Re  Re11  1  0.589912  0.589912  0.750000  1
  Sn  Sn12  1  0.609126  0.013806  0.250000  1
  Sn  Sn13  1  0.390874  0.986194  0.750000  1
  Sn  Sn14  1  0.013806  0.609126  0.250000  1
  Sn  Sn15  1  0.986194  0.390874  0.750000  1
