# generated using pymatgen
data_Rb4InMoCl12
_symmetry_space_group_name_H-M   'P 1'
_cell_length_a   7.36175911
_cell_length_b   7.36175911
_cell_length_c   10.24746500
_cell_angle_alpha   90.00000000
_cell_angle_beta   90.00000000
_cell_angle_gamma   90.28082261
_symmetry_Int_Tables_number   1
_chemical_formula_structural   Rb4InMoCl12
_chemical_formula_sum   'Rb4 In1 Mo1 Cl12'
_cell_volume   555.35978940
_cell_formula_units_Z   1
loop_
 _symmetry_equiv_pos_site_id
 _symmetry_equiv_pos_as_xyz
  1  'x, y, z'
loop_
 _atom_site_type_symbol
 _atom_site_label
 _atom_site_symmetry_multiplicity
 _atom_site_fract_x
 _atom_site_fract_y
 _atom_site_fract_z
 _atom_site_occupancy
  Rb  Rb0  1  0.500000  0.000000  0.779366  1
  Rb  Rb1  1  0.000000  0.500000  0.220634  1
  Rb  Rb2  1  0.500000  0.000000  0.220634  1
  Rb  Rb3  1  0.000000  0.500000  0.779366  1
  In  In4  1  0.000000  0.000000  0.000000  1
  Mo  Mo5  1  0.500000  0.500000  0.500000  1
  Cl  Cl6  1  0.000000  0.000000  0.750192  1
  Cl  Cl7  1  0.500000  0.500000  0.270583  1
  Cl  Cl8  1  0.726447  0.726447  0.500000  1
  Cl  Cl9  1  0.245460  0.245460  0.000000  1
  Cl  Cl10  1  0.726682  0.273318  0.500000  1
  Cl  Cl11  1  0.245227  0.754773  0.000000  1
  Cl  Cl12  1  0.000000  0.000000  0.249808  1
  Cl  Cl13  1  0.500000  0.500000  0.729417  1
  Cl  Cl14  1  0.273553  0.273553  0.500000  1
  Cl  Cl15  1  0.754540  0.754540  0.000000  1
  Cl  Cl16  1  0.273318  0.726682  0.500000  1
  Cl  Cl17  1  0.754773  0.245227  0.000000  1
