# generated using pymatgen
data_Pr5Si4Tc3(PIr2)8
_symmetry_space_group_name_H-M   'P 1'
_cell_length_a   12.87265715
_cell_length_b   12.86093630
_cell_length_c   4.00632000
_cell_angle_alpha   90.00000000
_cell_angle_beta   90.00000000
_cell_angle_gamma   120.05688760
_symmetry_Int_Tables_number   1
_chemical_formula_structural   Pr5Si4Tc3(PIr2)8
_chemical_formula_sum   'Pr5 Si4 Tc3 P8 Ir16'
_cell_volume   574.07391930
_cell_formula_units_Z   1
loop_
 _symmetry_equiv_pos_site_id
 _symmetry_equiv_pos_as_xyz
  1  'x, y, z'
loop_
 _atom_site_type_symbol
 _atom_site_label
 _atom_site_symmetry_multiplicity
 _atom_site_fract_x
 _atom_site_fract_y
 _atom_site_fract_z
 _atom_site_occupancy
  Pr  Pr0  1  0.333531  0.666278  0.500000  1
  Pr  Pr1  1  0.666689  0.333751  0.500000  1
  Pr  Pr2  1  0.000524  0.812985  0.000000  1
  Pr  Pr3  1  0.186084  0.186307  0.000000  1
  Pr  Pr4  1  0.811902  0.999541  0.000000  1
  Si  Si5  1  0.000440  0.632425  0.500000  1
  Si  Si6  1  0.367673  0.368691  0.500000  1
  Si  Si7  1  0.631316  0.999358  0.500000  1
  Si  Si8  1  0.520900  0.684090  0.000000  1
  Tc  Tc9  1  0.000104  0.448032  0.500000  1
  Tc  Tc10  1  0.552613  0.553369  0.500000  1
  Tc  Tc11  1  0.447957  0.001824  0.500000  1
  P  P12  1  0.314828  0.834161  0.000000  1
  P  P13  1  0.165790  0.479327  0.000000  1
  P  P14  1  0.479907  0.166397  0.000000  1
  P  P15  1  0.686445  0.520532  0.000000  1
  P  P16  1  0.833432  0.314062  0.000000  1
  P  P17  1  0.998530  0.179305  0.500000  1
  P  P18  1  0.820006  0.820029  0.500000  1
  P  P19  1  0.180020  0.999821  0.500000  1
  Ir  Ir20  1  0.510991  0.872818  0.000000  1
  Ir  Ir21  1  0.129921  0.640007  0.000000  1
  Ir  Ir22  1  0.356396  0.484166  0.000000  1
  Ir  Ir23  1  0.490022  0.359943  0.000000  1
  Ir  Ir24  1  0.871057  0.510344  0.000000  1
  Ir  Ir25  1  0.639934  0.130784  0.000000  1
  Ir  Ir26  1  0.998620  0.284365  0.000000  1
  Ir  Ir27  1  0.719641  0.716452  0.000000  1
  Ir  Ir28  1  0.284726  0.000085  0.000000  1
  Ir  Ir29  1  0.625260  0.802975  0.500000  1
  Ir  Ir30  1  0.199842  0.822669  0.500000  1
  Ir  Ir31  1  0.175265  0.375140  0.500000  1
  Ir  Ir32  1  0.375981  0.177879  0.500000  1
  Ir  Ir33  1  0.801500  0.622451  0.500000  1
  Ir  Ir34  1  0.821668  0.199211  0.500000  1
  Ir  Ir35  1  0.000485  0.000422  0.500000  1
