# generated using pymatgen
data_NdScCdCu9
_symmetry_space_group_name_H-M   'P 1'
_cell_length_a   5.06670100
_cell_length_b   5.06670094
_cell_length_c   16.29280800
_cell_angle_alpha   90.00000000
_cell_angle_beta   90.00000000
_cell_angle_gamma   119.99999386
_symmetry_Int_Tables_number   1
_chemical_formula_structural   NdScCdCu9
_chemical_formula_sum   'Nd2 Sc2 Cd2 Cu18'
_cell_volume   362.22393606
_cell_formula_units_Z   2
loop_
 _symmetry_equiv_pos_site_id
 _symmetry_equiv_pos_as_xyz
  1  'x, y, z'
loop_
 _atom_site_type_symbol
 _atom_site_label
 _atom_site_symmetry_multiplicity
 _atom_site_fract_x
 _atom_site_fract_y
 _atom_site_fract_z
 _atom_site_occupancy
  Nd  Nd0  1  0.666667  0.333333  0.239357  1
  Nd  Nd1  1  0.333333  0.666667  0.739357  1
  Sc  Sc2  1  0.666667  0.333333  0.472017  1
  Sc  Sc3  1  0.333333  0.666667  0.972017  1
  Cd  Cd4  1  0.666667  0.333333  0.033073  1
  Cd  Cd5  1  0.333333  0.666667  0.533073  1
  Cu  Cu6  1  0.333333  0.666667  0.250742  1
  Cu  Cu7  1  0.666667  0.333333  0.750742  1
  Cu  Cu8  1  0.168957  0.831043  0.377418  1
  Cu  Cu9  1  0.168957  0.337915  0.377418  1
  Cu  Cu10  1  0.000000  0.000000  0.753139  1
  Cu  Cu11  1  0.000000  0.000000  0.253139  1
  Cu  Cu12  1  0.000000  0.000000  0.000361  1
  Cu  Cu13  1  0.000000  0.000000  0.500361  1
  Cu  Cu14  1  0.166817  0.333633  0.123019  1
  Cu  Cu15  1  0.833183  0.166817  0.623019  1
  Cu  Cu16  1  0.333633  0.166817  0.623019  1
  Cu  Cu17  1  0.666367  0.833183  0.123019  1
  Cu  Cu18  1  0.166817  0.833183  0.123019  1
  Cu  Cu19  1  0.831043  0.662085  0.877418  1
  Cu  Cu20  1  0.831043  0.168957  0.877418  1
  Cu  Cu21  1  0.833183  0.666367  0.623019  1
  Cu  Cu22  1  0.337915  0.168957  0.877418  1
  Cu  Cu23  1  0.662085  0.831043  0.377418  1
