# generated using pymatgen
data_CaThBeSi4Ni
_symmetry_space_group_name_H-M   'P 1'
_cell_length_a   8.47332331
_cell_length_b   8.47332376
_cell_length_c   4.00269900
_cell_angle_alpha   90.00000000
_cell_angle_beta   90.00000000
_cell_angle_gamma   151.67974730
_symmetry_Int_Tables_number   1
_chemical_formula_structural   CaThBeSi4Ni
_chemical_formula_sum   'Ca1 Th1 Be1 Si4 Ni1'
_cell_volume   136.33414813
_cell_formula_units_Z   1
loop_
 _symmetry_equiv_pos_site_id
 _symmetry_equiv_pos_as_xyz
  1  'x, y, z'
loop_
 _atom_site_type_symbol
 _atom_site_label
 _atom_site_symmetry_multiplicity
 _atom_site_fract_x
 _atom_site_fract_y
 _atom_site_fract_z
 _atom_site_occupancy
  Ca  Ca0  1  0.603354  0.396646  0.250000  1
  Th  Th1  1  0.390790  0.609210  0.750000  1
  Be  Be2  1  0.825330  0.174670  0.250000  1
  Si  Si3  1  0.960878  0.039122  0.250000  1
  Si  Si4  1  0.041204  0.958796  0.750000  1
  Si  Si5  1  0.249583  0.750417  0.250000  1
  Si  Si6  1  0.747463  0.252537  0.750000  1
  Ni  Ni7  1  0.181398  0.818602  0.750000  1
