# generated using pymatgen
data_TbEr9(Al2Ru3)2
_symmetry_space_group_name_H-M   'P 1'
_cell_length_a   8.29296805
_cell_length_b   8.29296895
_cell_length_c   8.28306505
_cell_angle_alpha   109.28271728
_cell_angle_beta   109.53208508
_cell_angle_gamma   109.64731382
_symmetry_Int_Tables_number   1
_chemical_formula_structural   TbEr9(Al2Ru3)2
_chemical_formula_sum   'Tb1 Er9 Al4 Ru6'
_cell_volume   438.25390402
_cell_formula_units_Z   1
loop_
 _symmetry_equiv_pos_site_id
 _symmetry_equiv_pos_as_xyz
  1  'x, y, z'
loop_
 _atom_site_type_symbol
 _atom_site_label
 _atom_site_symmetry_multiplicity
 _atom_site_fract_x
 _atom_site_fract_y
 _atom_site_fract_z
 _atom_site_occupancy
  Tb  Tb0  1  0.181952  0.931952  0.250000  1
  Er  Er1  1  0.785122  0.787018  0.785572  1
  Er  Er2  1  0.318432  0.568432  0.750000  1
  Er  Er3  1  0.752011  0.321545  0.570997  1
  Er  Er4  1  0.569694  0.748923  0.318888  1
  Er  Er5  1  0.712643  0.498898  0.998015  1
  Er  Er6  1  0.000885  0.714628  0.501985  1
  Er  Er7  1  0.501446  0.999549  0.714428  1
  Er  Er8  1  0.250547  0.181013  0.929003  1
  Er  Er9  1  0.930033  0.250805  0.181112  1
  Al  Al10  1  0.411228  0.411195  0.409935  1
  Al  Al11  1  0.090969  0.499097  0.002382  1
  Al  Al12  1  0.996715  0.088588  0.497618  1
  Al  Al13  1  0.501260  0.001293  0.090065  1
  Ru  Ru14  1  0.876514  0.126514  0.750000  1
  Ru  Ru15  1  0.746572  0.874387  0.123048  1
  Ru  Ru16  1  0.126552  0.749536  0.877760  1
  Ru  Ru17  1  0.251339  0.623525  0.376952  1
  Ru  Ru18  1  0.371775  0.248791  0.622240  1
  Ru  Ru19  1  0.624310  0.374310  0.250000  1
