# generated using pymatgen
data_CeTm5Os2
_symmetry_space_group_name_H-M   'P 1'
_cell_length_a   7.29420272
_cell_length_b   9.05092400
_cell_length_c   6.29202767
_cell_angle_alpha   90.00000000
_cell_angle_beta   88.07346119
_cell_angle_gamma   90.00000000
_symmetry_Int_Tables_number   1
_chemical_formula_structural   CeTm5Os2
_chemical_formula_sum   'Ce2 Tm10 Os4'
_cell_volume   415.16030063
_cell_formula_units_Z   2
loop_
 _symmetry_equiv_pos_site_id
 _symmetry_equiv_pos_as_xyz
  1  'x, y, z'
loop_
 _atom_site_type_symbol
 _atom_site_label
 _atom_site_symmetry_multiplicity
 _atom_site_fract_x
 _atom_site_fract_y
 _atom_site_fract_z
 _atom_site_occupancy
  Ce  Ce0  1  0.051468  0.250000  0.643697  1
  Ce  Ce1  1  0.948532  0.750000  0.356303  1
  Tm  Tm2  1  0.464530  0.750000  0.130581  1
  Tm  Tm3  1  0.535470  0.250000  0.869419  1
  Tm  Tm4  1  0.174084  0.062529  0.165955  1
  Tm  Tm5  1  0.825916  0.937471  0.834045  1
  Tm  Tm6  1  0.325912  0.934745  0.668282  1
  Tm  Tm7  1  0.825916  0.562529  0.834045  1
  Tm  Tm8  1  0.674088  0.065255  0.331718  1
  Tm  Tm9  1  0.174084  0.437471  0.165955  1
  Tm  Tm10  1  0.674088  0.434745  0.331718  1
  Tm  Tm11  1  0.325912  0.565255  0.668282  1
  Os  Os12  1  0.372112  0.250000  0.464155  1
  Os  Os13  1  0.627888  0.750000  0.535845  1
  Os  Os14  1  0.117679  0.750000  0.974319  1
  Os  Os15  1  0.882321  0.250000  0.025681  1
