# generated using pymatgen
data_TbPr(CdIn2)2
_symmetry_space_group_name_H-M   'P 1'
_cell_length_a   6.60229568
_cell_length_b   6.60229505
_cell_length_c   9.39299200
_cell_angle_alpha   90.00000000
_cell_angle_beta   90.00000000
_cell_angle_gamma   90.93013299
_symmetry_Int_Tables_number   1
_chemical_formula_structural   TbPr(CdIn2)2
_chemical_formula_sum   'Tb2 Pr2 Cd4 In8'
_cell_volume   409.38942640
_cell_formula_units_Z   2
loop_
 _symmetry_equiv_pos_site_id
 _symmetry_equiv_pos_as_xyz
  1  'x, y, z'
loop_
 _atom_site_type_symbol
 _atom_site_label
 _atom_site_symmetry_multiplicity
 _atom_site_fract_x
 _atom_site_fract_y
 _atom_site_fract_z
 _atom_site_occupancy
  Tb  Tb0  1  0.996847  0.996847  0.250000  1
  Tb  Tb1  1  0.003153  0.003153  0.750000  1
  Pr  Pr2  1  0.503349  0.503349  0.250000  1
  Pr  Pr3  1  0.496651  0.496651  0.750000  1
  Cd  Cd4  1  0.246454  0.753546  0.500000  1
  Cd  Cd5  1  0.246454  0.753546  0.000000  1
  Cd  Cd6  1  0.753546  0.246454  0.500000  1
  Cd  Cd7  1  0.753546  0.246454  0.000000  1
  In  In8  1  0.245775  0.245775  0.002465  1
  In  In9  1  0.754225  0.754225  0.997535  1
  In  In10  1  0.245775  0.245775  0.497535  1
  In  In11  1  0.754225  0.754225  0.502465  1
  In  In12  1  0.497319  0.002717  0.250000  1
  In  In13  1  0.997283  0.502681  0.750000  1
  In  In14  1  0.502681  0.997283  0.750000  1
  In  In15  1  0.002717  0.497319  0.250000  1
