# generated using pymatgen
data_In2H13
_symmetry_space_group_name_H-M   'P 1'
_cell_length_a   7.60334378
_cell_length_b   3.29661020
_cell_length_c   11.44278800
_cell_angle_alpha   91.79814328
_cell_angle_beta   94.76711479
_cell_angle_gamma   93.56089280
_symmetry_Int_Tables_number   1
_chemical_formula_structural   In2H13
_chemical_formula_sum   'In2 H13'
_cell_volume   285.07988442
_cell_formula_units_Z   1
loop_
 _symmetry_equiv_pos_site_id
 _symmetry_equiv_pos_as_xyz
  1  'x, y, z'
loop_
 _atom_site_type_symbol
 _atom_site_label
 _atom_site_symmetry_multiplicity
 _atom_site_fract_x
 _atom_site_fract_y
 _atom_site_fract_z
 _atom_site_occupancy
  In  In0  1  0.468848  0.868658  0.296803  1
  In  In1  1  0.437328  0.378339  0.531820  1
  H  H2  1  0.302369  0.372213  0.368575  1
  H  H3  1  0.934146  0.357688  0.499329  1
  H  H4  1  0.585300  0.169067  0.033917  1
  H  H5  1  0.851641  0.330856  0.779204  1
  H  H6  1  0.297242  0.687216  0.029933  1
  H  H7  1  0.247824  0.631737  0.971581  1
  H  H8  1  0.767383  0.340933  0.740392  1
  H  H9  1  0.614032  0.268458  0.979859  1
  H  H10  1  0.990559  0.069722  0.211459  1
  H  H11  1  0.131520  0.995674  0.812194  1
  H  H12  1  0.971990  0.465224  0.449321  1
  H  H13  1  0.205603  0.132384  0.793342  1
  H  H14  1  0.919838  0.901064  0.199201  1
