# generated using pymatgen
data_HoSn6PdRu3
_symmetry_space_group_name_H-M   'P 1'
_cell_length_a   7.00668879
_cell_length_b   6.98194764
_cell_length_c   6.93711472
_cell_angle_alpha   120.04903773
_cell_angle_beta   120.16772130
_cell_angle_gamma   90.28254321
_symmetry_Int_Tables_number   1
_chemical_formula_structural   HoSn6PdRu3
_chemical_formula_sum   'Ho1 Sn6 Pd1 Ru3'
_cell_volume   238.57522517
_cell_formula_units_Z   1
loop_
 _symmetry_equiv_pos_site_id
 _symmetry_equiv_pos_as_xyz
  1  'x, y, z'
loop_
 _atom_site_type_symbol
 _atom_site_label
 _atom_site_symmetry_multiplicity
 _atom_site_fract_x
 _atom_site_fract_y
 _atom_site_fract_z
 _atom_site_occupancy
  Ho  Ho0  1  0.989127  0.018835  0.000000  1
  Sn  Sn1  1  0.868506  0.538680  0.000000  1
  Sn  Sn2  1  0.541768  0.873520  0.000000  1
  Sn  Sn3  1  0.128012  0.110210  0.652543  1
  Sn  Sn4  1  0.006308  0.505911  0.496710  1
  Sn  Sn5  1  0.475469  0.457667  0.347457  1
  Sn  Sn6  1  0.509598  0.009201  0.503290  1
  Pd  Pd7  1  0.235604  0.600471  0.000000  1
  Ru  Ru8  1  0.393695  0.397098  0.647122  1
  Ru  Ru9  1  0.605341  0.238430  0.000000  1
  Ru  Ru10  1  0.746574  0.749976  0.352878  1
