# generated using pymatgen
data_Ho2Er6Sc12Si15Bi
_symmetry_space_group_name_H-M   'P 1'
_cell_length_a   7.14826819
_cell_length_b   7.38753032
_cell_length_c   14.02488919
_cell_angle_alpha   90.06039780
_cell_angle_beta   88.60939384
_cell_angle_gamma   90.13541654
_symmetry_Int_Tables_number   1
_chemical_formula_structural   Ho2Er6Sc12Si15Bi
_chemical_formula_sum   'Ho2 Er6 Sc12 Si15 Bi1'
_cell_volume   740.40645731
_cell_formula_units_Z   1
loop_
 _symmetry_equiv_pos_site_id
 _symmetry_equiv_pos_as_xyz
  1  'x, y, z'
loop_
 _atom_site_type_symbol
 _atom_site_label
 _atom_site_symmetry_multiplicity
 _atom_site_fract_x
 _atom_site_fract_y
 _atom_site_fract_z
 _atom_site_occupancy
  Ho  Ho0  1  0.510919  0.316515  0.397508  1
  Ho  Ho1  1  0.512894  0.686885  0.601142  1
  Er  Er2  1  0.011805  0.177120  0.096518  1
  Er  Er3  1  0.988553  0.824201  0.904347  1
  Er  Er4  1  0.489470  0.676171  0.904061  1
  Er  Er5  1  0.994529  0.831736  0.598500  1
  Er  Er6  1  0.511043  0.323847  0.097501  1
  Er  Er7  1  0.997882  0.170127  0.398904  1
  Sc  Sc8  1  0.166425  0.501431  0.756238  1
  Sc  Sc9  1  0.833000  0.498527  0.251457  1
  Sc  Sc10  1  0.332876  0.002357  0.250352  1
  Sc  Sc11  1  0.669010  0.998140  0.751292  1
  Sc  Sc12  1  0.351363  0.155309  0.631525  1
  Sc  Sc13  1  0.656464  0.827973  0.372729  1
  Sc  Sc14  1  0.151921  0.683023  0.368627  1
  Sc  Sc15  1  0.666404  0.822265  0.123516  1
  Sc  Sc16  1  0.828431  0.326482  0.625897  1
  Sc  Sc17  1  0.331465  0.175721  0.875790  1
  Sc  Sc18  1  0.832604  0.323139  0.875920  1
  Sc  Sc19  1  0.167124  0.677171  0.124631  1
  Si  Si20  1  0.038470  0.118354  0.751392  1
  Si  Si21  1  0.958813  0.886197  0.245689  1
  Si  Si22  1  0.459387  0.615728  0.247378  1
  Si  Si23  1  0.537471  0.385009  0.753086  1
  Si  Si24  1  0.290510  0.866706  0.753518  1
  Si  Si25  1  0.709925  0.127110  0.246010  1
  Si  Si26  1  0.208239  0.372427  0.248490  1
  Si  Si27  1  0.795078  0.629520  0.752181  1
  Si  Si28  1  0.811251  0.541236  0.456618  1
  Si  Si29  1  0.325651  0.963020  0.459674  1
  Si  Si30  1  0.842584  0.533778  0.039752  1
  Si  Si31  1  0.675722  0.039054  0.538750  1
  Si  Si32  1  0.156655  0.465729  0.961510  1
  Si  Si33  1  0.656308  0.034314  0.960421  1
  Si  Si34  1  0.342321  0.966451  0.040028  1
  Bi  Bi35  1  0.187432  0.457224  0.539047  1
