# generated using pymatgen
data_Lu12Tc3S
_symmetry_space_group_name_H-M   'P 1'
_cell_length_a   6.16977639
_cell_length_b   7.30127998
_cell_length_c   8.89340600
_cell_angle_alpha   90.00000000
_cell_angle_beta   90.00000000
_cell_angle_gamma   90.08071289
_symmetry_Int_Tables_number   1
_chemical_formula_structural   Lu12Tc3S
_chemical_formula_sum   'Lu12 Tc3 S1'
_cell_volume   400.62321815
_cell_formula_units_Z   1
loop_
 _symmetry_equiv_pos_site_id
 _symmetry_equiv_pos_as_xyz
  1  'x, y, z'
loop_
 _atom_site_type_symbol
 _atom_site_label
 _atom_site_symmetry_multiplicity
 _atom_site_fract_x
 _atom_site_fract_y
 _atom_site_fract_z
 _atom_site_occupancy
  Lu  Lu0  1  0.330871  0.679662  0.067250  1
  Lu  Lu1  1  0.161175  0.176735  0.436643  1
  Lu  Lu2  1  0.657575  0.315156  0.561105  1
  Lu  Lu3  1  0.847794  0.829550  0.941692  1
  Lu  Lu4  1  0.657575  0.315156  0.938895  1
  Lu  Lu5  1  0.847794  0.829550  0.558308  1
  Lu  Lu6  1  0.330871  0.679662  0.432750  1
  Lu  Lu7  1  0.161175  0.176735  0.063357  1
  Lu  Lu8  1  0.869062  0.537806  0.250000  1
  Lu  Lu9  1  0.619012  0.034128  0.250000  1
  Lu  Lu10  1  0.138373  0.450302  0.750000  1
  Lu  Lu11  1  0.369978  0.971399  0.750000  1
  Tc  Tc12  1  0.036208  0.879273  0.250000  1
  Tc  Tc13  1  0.463490  0.383461  0.250000  1
  Tc  Tc14  1  0.951224  0.117757  0.750000  1
  S  S15  1  0.557821  0.623666  0.750000  1
