# generated using pymatgen
data_Pr4Ga24IrPd
_symmetry_space_group_name_H-M   'P 1'
_cell_length_a   6.19198600
_cell_length_b   6.19198600
_cell_length_c   15.56671100
_cell_angle_alpha   90.00000000
_cell_angle_beta   90.00000000
_cell_angle_gamma   90.00000000
_symmetry_Int_Tables_number   1
_chemical_formula_structural   Pr4Ga24IrPd
_chemical_formula_sum   'Pr4 Ga24 Ir1 Pd1'
_cell_volume   596.83845049
_cell_formula_units_Z   1
loop_
 _symmetry_equiv_pos_site_id
 _symmetry_equiv_pos_as_xyz
  1  'x, y, z'
loop_
 _atom_site_type_symbol
 _atom_site_label
 _atom_site_symmetry_multiplicity
 _atom_site_fract_x
 _atom_site_fract_y
 _atom_site_fract_z
 _atom_site_occupancy
  Pr  Pr0  1  0.750000  0.250000  0.244654  1
  Pr  Pr1  1  0.250000  0.750000  0.243006  1
  Pr  Pr2  1  0.250000  0.750000  0.756994  1
  Pr  Pr3  1  0.750000  0.250000  0.755346  1
  Ga  Ga4  1  0.250000  0.250000  0.187457  1
  Ga  Ga5  1  0.750000  0.750000  0.187457  1
  Ga  Ga6  1  0.750000  0.750000  0.812543  1
  Ga  Ga7  1  0.250000  0.250000  0.812543  1
  Ga  Ga8  1  0.250000  0.250000  0.346940  1
  Ga  Ga9  1  0.750000  0.750000  0.346940  1
  Ga  Ga10  1  0.750000  0.750000  0.653060  1
  Ga  Ga11  1  0.250000  0.250000  0.653060  1
  Ga  Ga12  1  0.502118  0.002118  0.912267  1
  Ga  Ga13  1  0.997966  0.002034  0.912659  1
  Ga  Ga14  1  0.502034  0.497966  0.912659  1
  Ga  Ga15  1  0.997882  0.497882  0.912267  1
  Ga  Ga16  1  0.502034  0.002034  0.087341  1
  Ga  Ga17  1  0.997882  0.002118  0.087733  1
  Ga  Ga18  1  0.502118  0.497882  0.087733  1
  Ga  Ga19  1  0.997966  0.497966  0.087341  1
  Ga  Ga20  1  0.582381  0.082381  0.432446  1
  Ga  Ga21  1  0.083190  0.916810  0.431439  1
  Ga  Ga22  1  0.416810  0.583190  0.431439  1
  Ga  Ga23  1  0.917619  0.417619  0.432446  1
  Ga  Ga24  1  0.416810  0.916810  0.568561  1
  Ga  Ga25  1  0.917619  0.082381  0.567554  1
  Ga  Ga26  1  0.582381  0.417619  0.567554  1
  Ga  Ga27  1  0.083190  0.583190  0.568561  1
  Ir  Ir28  1  0.750000  0.250000  0.000000  1
  Pd  Pd29  1  0.250000  0.750000  0.000000  1
