# generated using pymatgen
data_K2TbTa5O15
_symmetry_space_group_name_H-M   'P 1'
_cell_length_a   9.29397590
_cell_length_b   9.29397708
_cell_length_c   3.95303500
_cell_angle_alpha   90.00000000
_cell_angle_beta   90.00000000
_cell_angle_gamma   111.72846320
_symmetry_Int_Tables_number   1
_chemical_formula_structural   K2TbTa5O15
_chemical_formula_sum   'K2 Tb1 Ta5 O15'
_cell_volume   317.19443958
_cell_formula_units_Z   1
loop_
 _symmetry_equiv_pos_site_id
 _symmetry_equiv_pos_as_xyz
  1  'x, y, z'
loop_
 _atom_site_type_symbol
 _atom_site_label
 _atom_site_symmetry_multiplicity
 _atom_site_fract_x
 _atom_site_fract_y
 _atom_site_fract_z
 _atom_site_occupancy
  K  K0  1  0.299629  0.700371  0.000000  1
  K  K1  1  0.700371  0.299629  0.000000  1
  Tb  Tb2  1  0.000000  0.000000  0.000000  1
  Ta  Ta3  1  0.318958  0.059927  0.500000  1
  Ta  Ta4  1  0.059927  0.318958  0.500000  1
  Ta  Ta5  1  0.681042  0.940073  0.500000  1
  Ta  Ta6  1  0.940073  0.681042  0.500000  1
  Ta  Ta7  1  0.500000  0.500000  0.500000  1
  O  O8  1  0.129172  0.129172  0.500000  1
  O  O9  1  0.160046  0.839954  0.500000  1
  O  O10  1  0.273146  0.457633  0.500000  1
  O  O11  1  0.839954  0.160046  0.500000  1
  O  O12  1  0.870828  0.870828  0.500000  1
  O  O13  1  0.282639  0.048189  0.000000  1
  O  O14  1  0.717361  0.951811  0.000000  1
  O  O15  1  0.542367  0.726854  0.500000  1
  O  O16  1  0.048189  0.282639  0.000000  1
  O  O17  1  0.500000  0.000000  0.500000  1
  O  O18  1  0.457633  0.273146  0.500000  1
  O  O19  1  0.951811  0.717361  0.000000  1
  O  O20  1  0.500000  0.500000  0.000000  1
  O  O21  1  0.726854  0.542367  0.500000  1
  O  O22  1  0.000000  0.500000  0.500000  1
