# generated using pymatgen
data_Tb4YbPr2RuI12
_symmetry_space_group_name_H-M   'P 1'
_cell_length_a   9.98158502
_cell_length_b   9.90483836
_cell_length_c   9.92047140
_cell_angle_alpha   107.06212877
_cell_angle_beta   106.68897378
_cell_angle_gamma   107.31532303
_symmetry_Int_Tables_number   1
_chemical_formula_structural   Tb4YbPr2RuI12
_chemical_formula_sum   'Tb4 Yb1 Pr2 Ru1 I12'
_cell_volume   816.30433509
_cell_formula_units_Z   1
loop_
 _symmetry_equiv_pos_site_id
 _symmetry_equiv_pos_as_xyz
  1  'x, y, z'
loop_
 _atom_site_type_symbol
 _atom_site_label
 _atom_site_symmetry_multiplicity
 _atom_site_fract_x
 _atom_site_fract_y
 _atom_site_fract_z
 _atom_site_occupancy
  Tb  Tb0  1  0.695016  0.973729  0.902059  1
  Tb  Tb1  1  0.096856  0.293917  0.026476  1
  Tb  Tb2  1  0.025373  0.097696  0.292089  1
  Tb  Tb3  1  0.306719  0.027280  0.102130  1
  Yb  Yb4  1  0.499410  0.500205  0.499807  1
  Pr  Pr5  1  0.901342  0.697200  0.973810  1
  Pr  Pr6  1  0.975911  0.904203  0.699673  1
  Ru  Ru7  1  0.000869  0.999613  0.000237  1
  I  I8  1  0.613250  0.845790  0.543646  1
  I  I9  1  0.534216  0.620233  0.841341  1
  I  I10  1  0.838181  0.531958  0.610751  1
  I  I11  1  0.376310  0.153497  0.456068  1
  I  I12  1  0.455468  0.379556  0.153837  1
  I  I13  1  0.154148  0.456322  0.377934  1
  I  I14  1  0.683076  0.073409  0.224216  1
  I  I15  1  0.232526  0.683945  0.076161  1
  I  I16  1  0.077194  0.236084  0.686879  1
  I  I17  1  0.328150  0.930059  0.783561  1
  I  I18  1  0.777793  0.313515  0.927353  1
  I  I19  1  0.928193  0.781787  0.321973  1
