# generated using pymatgen
data_Dy6YHo(WO6)4
_symmetry_space_group_name_H-M   'P 1'
_cell_length_a   5.39792602
_cell_length_b   7.70722114
_cell_length_c   11.48042542
_cell_angle_alpha   75.47443876
_cell_angle_beta   90.00050560
_cell_angle_gamma   89.99073715
_symmetry_Int_Tables_number   1
_chemical_formula_structural   Dy6YHo(WO6)4
_chemical_formula_sum   'Dy6 Y1 Ho1 W4 O24'
_cell_volume   462.35351269
_cell_formula_units_Z   1
loop_
 _symmetry_equiv_pos_site_id
 _symmetry_equiv_pos_as_xyz
  1  'x, y, z'
loop_
 _atom_site_type_symbol
 _atom_site_label
 _atom_site_symmetry_multiplicity
 _atom_site_fract_x
 _atom_site_fract_y
 _atom_site_fract_z
 _atom_site_occupancy
  Dy  Dy0  1  0.739293  0.000062  0.749887  1
  Dy  Dy1  1  0.261425  0.000097  0.250121  1
  Dy  Dy2  1  0.185963  0.795764  0.577476  1
  Dy  Dy3  1  0.814258  0.795352  0.077953  1
  Dy  Dy4  1  0.316223  0.499863  0.250101  1
  Dy  Dy5  1  0.186013  0.204376  0.922461  1
  Y  Y6  1  0.683962  0.499986  0.749994  1
  Ho  Ho7  1  0.814227  0.204875  0.421867  1
  W  W8  1  0.254531  0.723502  0.885641  1
  W  W9  1  0.745474  0.722979  0.385277  1
  W  W10  1  0.254603  0.276370  0.614174  1
  W  W11  1  0.745561  0.276883  0.114849  1
  O  O12  1  0.041824  0.939202  0.895815  1
  O  O13  1  0.530584  0.848730  0.930765  1
  O  O14  1  0.957228  0.940076  0.395026  1
  O  O15  1  0.458237  0.790260  0.727841  1
  O  O16  1  0.469846  0.848777  0.430561  1
  O  O17  1  0.981536  0.710863  0.771537  1
  O  O18  1  0.540923  0.789394  0.227800  1
  O  O19  1  0.850642  0.634762  0.547730  1
  O  O20  1  0.360981  0.490170  0.886570  1
  O  O21  1  0.018621  0.709536  0.271830  1
  O  O22  1  0.360879  0.509736  0.613365  1
  O  O23  1  0.850614  0.365252  0.952290  1
  O  O24  1  0.150520  0.635261  0.048509  1
  O  O25  1  0.638217  0.489610  0.386168  1
  O  O26  1  0.981629  0.289135  0.728455  1
  O  O27  1  0.637662  0.509938  0.113894  1
  O  O28  1  0.149595  0.364316  0.451443  1
  O  O29  1  0.458245  0.209695  0.772086  1
  O  O30  1  0.018376  0.290443  0.228535  1
  O  O31  1  0.531305  0.151584  0.568784  1
  O  O32  1  0.541633  0.210398  0.272662  1
  O  O33  1  0.041593  0.060984  0.603961  1
  O  O34  1  0.469944  0.151141  0.069543  1
  O  O35  1  0.957834  0.060629  0.105029  1
