# generated using pymatgen
data_Ac3IrAu3
_symmetry_space_group_name_H-M   'P 1'
_cell_length_a   8.71503087
_cell_length_b   8.71503015
_cell_length_c   8.71503090
_cell_angle_alpha   114.45812199
_cell_angle_beta   114.45812368
_cell_angle_gamma   114.45811266
_symmetry_Int_Tables_number   1
_chemical_formula_structural   Ac3IrAu3
_chemical_formula_sum   'Ac6 Ir2 Au6'
_cell_volume   388.11309324
_cell_formula_units_Z   2
loop_
 _symmetry_equiv_pos_site_id
 _symmetry_equiv_pos_as_xyz
  1  'x, y, z'
loop_
 _atom_site_type_symbol
 _atom_site_label
 _atom_site_symmetry_multiplicity
 _atom_site_fract_x
 _atom_site_fract_y
 _atom_site_fract_z
 _atom_site_occupancy
  Ac  Ac0  1  0.045494  0.393470  0.282434  1
  Ac  Ac1  1  0.393470  0.282434  0.045494  1
  Ac  Ac2  1  0.717566  0.954506  0.606530  1
  Ac  Ac3  1  0.282434  0.045494  0.393470  1
  Ac  Ac4  1  0.606530  0.717566  0.954506  1
  Ac  Ac5  1  0.954506  0.606530  0.717566  1
  Ir  Ir6  1  0.000000  0.000000  0.000000  1
  Ir  Ir7  1  0.500000  0.500000  0.500000  1
  Au  Au8  1  0.434915  0.943734  0.776439  1
  Au  Au9  1  0.943734  0.776439  0.434915  1
  Au  Au10  1  0.223561  0.565085  0.056266  1
  Au  Au11  1  0.776439  0.434915  0.943734  1
  Au  Au12  1  0.056266  0.223561  0.565085  1
  Au  Au13  1  0.565085  0.056266  0.223561  1
