# generated using pymatgen
data_DyTiNbB2Ru5
_symmetry_space_group_name_H-M   'P 1'
_cell_length_a   9.48695173
_cell_length_b   9.48695199
_cell_length_c   3.07851500
_cell_angle_alpha   90.00000000
_cell_angle_beta   90.00000000
_cell_angle_gamma   90.71456941
_symmetry_Int_Tables_number   1
_chemical_formula_structural   DyTiNbB2Ru5
_chemical_formula_sum   'Dy2 Ti2 Nb2 B4 Ru10'
_cell_volume   277.05174623
_cell_formula_units_Z   2
loop_
 _symmetry_equiv_pos_site_id
 _symmetry_equiv_pos_as_xyz
  1  'x, y, z'
loop_
 _atom_site_type_symbol
 _atom_site_label
 _atom_site_symmetry_multiplicity
 _atom_site_fract_x
 _atom_site_fract_y
 _atom_site_fract_z
 _atom_site_occupancy
  Dy  Dy0  1  0.824105  0.675895  0.000000  1
  Dy  Dy1  1  0.175895  0.324105  0.000000  1
  Ti  Ti2  1  0.500000  0.500000  0.000000  1
  Ti  Ti3  1  0.000000  0.000000  0.000000  1
  Nb  Nb4  1  0.324782  0.824782  0.000000  1
  Nb  Nb5  1  0.675218  0.175218  0.000000  1
  B  B6  1  0.621944  0.878056  0.000000  1
  B  B7  1  0.378056  0.121944  0.000000  1
  B  B8  1  0.124097  0.624097  0.000000  1
  B  B9  1  0.875903  0.375903  0.000000  1
  Ru  Ru10  1  0.559236  0.721032  0.500000  1
  Ru  Ru11  1  0.440764  0.278968  0.500000  1
  Ru  Ru12  1  0.082297  0.787283  0.500000  1
  Ru  Ru13  1  0.917703  0.212717  0.500000  1
  Ru  Ru14  1  0.287283  0.582297  0.500000  1
  Ru  Ru15  1  0.712717  0.417703  0.500000  1
  Ru  Ru16  1  0.221032  0.059236  0.500000  1
  Ru  Ru17  1  0.778968  0.940764  0.500000  1
  Ru  Ru18  1  0.500000  0.000000  0.500000  1
  Ru  Ru19  1  0.000000  0.500000  0.500000  1
