# generated using pymatgen
data_Ho3(FeCo3)2
_symmetry_space_group_name_H-M   'P 1'
_cell_length_a   7.56707751
_cell_length_b   7.56599290
_cell_length_c   7.56763718
_cell_angle_alpha   109.45180887
_cell_angle_beta   109.48463060
_cell_angle_gamma   109.47582085
_symmetry_Int_Tables_number   1
_chemical_formula_structural   Ho3(FeCo3)2
_chemical_formula_sum   'Ho6 Fe4 Co12'
_cell_volume   333.53391928
_cell_formula_units_Z   2
loop_
 _symmetry_equiv_pos_site_id
 _symmetry_equiv_pos_as_xyz
  1  'x, y, z'
loop_
 _atom_site_type_symbol
 _atom_site_label
 _atom_site_symmetry_multiplicity
 _atom_site_fract_x
 _atom_site_fract_y
 _atom_site_fract_z
 _atom_site_occupancy
  Ho  Ho0  1  0.283724  0.283657  0.000003  1
  Ho  Ho1  1  0.716276  0.716343  0.999997  1
  Ho  Ho2  1  0.283724  0.000068  0.283721  1
  Ho  Ho3  1  0.716276  0.999932  0.716279  1
  Ho  Ho4  1  0.000000  0.716223  0.716199  1
  Ho  Ho5  1  0.000000  0.283777  0.283801  1
  Fe  Fe6  1  0.500000  0.500000  0.500000  1
  Fe  Fe7  1  0.000000  0.000000  0.500000  1
  Fe  Fe8  1  0.500000  0.000000  0.000000  1
  Fe  Fe9  1  0.000000  0.500000  0.000000  1
  Co  Co10  1  0.664686  0.000073  0.335445  1
  Co  Co11  1  0.335314  0.335387  0.670759  1
  Co  Co12  1  0.670904  0.335451  0.335451  1
  Co  Co13  1  0.000000  0.335393  0.664480  1
  Co  Co14  1  0.000000  0.664607  0.335520  1
  Co  Co15  1  0.335478  0.670940  0.335525  1
  Co  Co16  1  0.664686  0.664613  0.329241  1
  Co  Co17  1  0.664522  0.329060  0.664475  1
  Co  Co18  1  0.329096  0.664549  0.664549  1
  Co  Co19  1  0.664522  0.335461  0.000046  1
  Co  Co20  1  0.335314  0.999927  0.664555  1
  Co  Co21  1  0.335478  0.664539  0.999954  1
