# generated using pymatgen
data_Sr8CrTc3O16
_symmetry_space_group_name_H-M   'P 1'
_cell_length_a   5.55741341
_cell_length_b   8.93242407
_cell_length_c   8.93481562
_cell_angle_alpha   88.08711510
_cell_angle_beta   71.82320366
_cell_angle_gamma   108.05977234
_symmetry_Int_Tables_number   1
_chemical_formula_structural   Sr8CrTc3O16
_chemical_formula_sum   'Sr8 Cr1 Tc3 O16'
_cell_volume   396.46426198
_cell_formula_units_Z   1
loop_
 _symmetry_equiv_pos_site_id
 _symmetry_equiv_pos_as_xyz
  1  'x, y, z'
loop_
 _atom_site_type_symbol
 _atom_site_label
 _atom_site_symmetry_multiplicity
 _atom_site_fract_x
 _atom_site_fract_y
 _atom_site_fract_z
 _atom_site_occupancy
  Sr  Sr0  1  0.254725  0.402087  0.891619  1
  Sr  Sr1  1  0.000046  0.644745  0.644561  1
  Sr  Sr2  1  0.745188  0.891336  0.402125  1
  Sr  Sr3  1  0.500055  0.151221  0.151132  1
  Sr  Sr4  1  0.000160  0.355413  0.355283  1
  Sr  Sr5  1  0.745251  0.598014  0.108516  1
  Sr  Sr6  1  0.499870  0.848702  0.848956  1
  Sr  Sr7  1  0.254746  0.108502  0.597807  1
  Cr  Cr8  1  0.499838  0.499860  0.500111  1
  Tc  Tc9  1  0.252729  0.752664  0.247425  1
  Tc  Tc10  1  0.999980  0.999981  0.000036  1
  Tc  Tc11  1  0.747393  0.247444  0.752468  1
  O  O12  1  0.251262  0.589664  0.086633  1
  O  O13  1  0.999751  0.837272  0.837700  1
  O  O14  1  0.749190  0.086983  0.589193  1
  O  O15  1  0.499642  0.339601  0.339996  1
  O  O16  1  0.000278  0.162813  0.162233  1
  O  O17  1  0.748758  0.410431  0.913350  1
  O  O18  1  0.500297  0.660347  0.660057  1
  O  O19  1  0.250851  0.913003  0.410744  1
  O  O20  1  0.876624  0.125395  0.874377  1
  O  O21  1  0.619627  0.371172  0.628951  1
  O  O22  1  0.380372  0.628688  0.371135  1
  O  O23  1  0.123414  0.874709  0.125553  1
  O  O24  1  0.376358  0.123039  0.876669  1
  O  O25  1  0.118823  0.374879  0.625461  1
  O  O26  1  0.881057  0.624992  0.374644  1
  O  O27  1  0.623714  0.877042  0.123261  1
