# generated using pymatgen
data_HoLuNi12AsP6
_symmetry_space_group_name_H-M   'P 1'
_cell_length_a   9.10627600
_cell_length_b   9.10627570
_cell_length_c   3.65306000
_cell_angle_alpha   90.00000000
_cell_angle_beta   90.00000000
_cell_angle_gamma   120.00000110
_symmetry_Int_Tables_number   1
_chemical_formula_structural   HoLuNi12AsP6
_chemical_formula_sum   'Ho1 Lu1 Ni12 As1 P6'
_cell_volume   262.34273146
_cell_formula_units_Z   1
loop_
 _symmetry_equiv_pos_site_id
 _symmetry_equiv_pos_as_xyz
  1  'x, y, z'
loop_
 _atom_site_type_symbol
 _atom_site_label
 _atom_site_symmetry_multiplicity
 _atom_site_fract_x
 _atom_site_fract_y
 _atom_site_fract_z
 _atom_site_occupancy
  Ho  Ho0  1  0.333333  0.666667  0.000000  1
  Lu  Lu1  1  0.666667  0.333333  0.500000  1
  Ni  Ni2  1  0.618217  0.564637  0.000000  1
  Ni  Ni3  1  0.842351  0.713579  0.500000  1
  Ni  Ni4  1  0.946420  0.381783  0.000000  1
  Ni  Ni5  1  0.286421  0.128771  0.500000  1
  Ni  Ni6  1  0.135968  0.243799  0.000000  1
  Ni  Ni7  1  0.107831  0.864032  0.000000  1
  Ni  Ni8  1  0.756201  0.892169  0.000000  1
  Ni  Ni9  1  0.375242  0.437633  0.500000  1
  Ni  Ni10  1  0.562367  0.937608  0.500000  1
  Ni  Ni11  1  0.062392  0.624758  0.500000  1
  Ni  Ni12  1  0.871229  0.157649  0.500000  1
  Ni  Ni13  1  0.435363  0.053580  0.000000  1
  As  As14  1  0.000000  0.000000  0.500000  1
  P  P15  1  0.703556  0.113362  0.000000  1
  P  P16  1  0.113432  0.406704  0.500000  1
  P  P17  1  0.593296  0.706729  0.500000  1
  P  P18  1  0.293271  0.886568  0.500000  1
  P  P19  1  0.886638  0.590193  0.000000  1
  P  P20  1  0.409807  0.296444  0.000000  1
