# generated using pymatgen
data_Y5HoPa2(ReB6)4
_symmetry_space_group_name_H-M   'P 1'
_cell_length_a   3.70459900
_cell_length_b   9.19315538
_cell_length_c   11.55875503
_cell_angle_alpha   90.39297165
_cell_angle_beta   90.00000000
_cell_angle_gamma   90.00000000
_symmetry_Int_Tables_number   1
_chemical_formula_structural   Y5HoPa2(ReB6)4
_chemical_formula_sum   'Y5 Ho1 Pa2 Re4 B24'
_cell_volume   393.64673196
_cell_formula_units_Z   1
loop_
 _symmetry_equiv_pos_site_id
 _symmetry_equiv_pos_as_xyz
  1  'x, y, z'
loop_
 _atom_site_type_symbol
 _atom_site_label
 _atom_site_symmetry_multiplicity
 _atom_site_fract_x
 _atom_site_fract_y
 _atom_site_fract_z
 _atom_site_occupancy
  Y  Y0  1  0.000000  0.824013  0.085816  1
  Y  Y1  1  0.000000  0.175859  0.914048  1
  Y  Y2  1  0.000000  0.945017  0.373144  1
  Y  Y3  1  0.000000  0.054998  0.627026  1
  Y  Y4  1  0.000000  0.444073  0.126064  1
  Ho  Ho5  1  0.000000  0.556138  0.873216  1
  Pa  Pa6  1  0.000000  0.322425  0.412946  1
  Pa  Pa7  1  0.000000  0.677605  0.587170  1
  Re  Re8  1  0.000000  0.635081  0.325409  1
  Re  Re9  1  0.000000  0.365237  0.674928  1
  Re  Re10  1  0.000000  0.140721  0.181853  1
  Re  Re11  1  0.000000  0.858748  0.818178  1
  B  B12  1  0.500000  0.553162  0.433099  1
  B  B13  1  0.500000  0.446963  0.567052  1
  B  B14  1  0.500000  0.053335  0.067572  1
  B  B15  1  0.500000  0.946291  0.932409  1
  B  B16  1  0.500000  0.747230  0.420055  1
  B  B17  1  0.500000  0.252876  0.580074  1
  B  B18  1  0.500000  0.247554  0.080300  1
  B  B19  1  0.500000  0.751901  0.919485  1
  B  B20  1  0.500000  0.791266  0.266210  1
  B  B21  1  0.500000  0.208940  0.733896  1
  B  B22  1  0.500000  0.292373  0.233751  1
  B  B23  1  0.500000  0.707310  0.766413  1
  B  B24  1  0.500000  0.631730  0.185947  1
  B  B25  1  0.500000  0.368767  0.814030  1
  B  B26  1  0.500000  0.133257  0.313878  1
  B  B27  1  0.500000  0.866650  0.686265  1
  B  B28  1  0.500000  0.982790  0.212468  1
  B  B29  1  0.500000  0.017094  0.787647  1
  B  B30  1  0.500000  0.483132  0.286949  1
  B  B31  1  0.500000  0.517043  0.713355  1
  B  B32  1  0.500000  0.605461  0.029198  1
  B  B33  1  0.500000  0.394913  0.970002  1
  B  B34  1  0.500000  0.114401  0.468491  1
  B  B35  1  0.500000  0.885650  0.531654  1
