# generated using pymatgen
data_Tb6LuScO12
_symmetry_space_group_name_H-M   'P 1'
_cell_length_a   6.67408116
_cell_length_b   6.67408150
_cell_length_c   6.67408095
_cell_angle_alpha   92.39153282
_cell_angle_beta   92.39154885
_cell_angle_gamma   92.39154659
_symmetry_Int_Tables_number   1
_chemical_formula_structural   Tb6LuScO12
_chemical_formula_sum   'Tb6 Lu1 Sc1 O12'
_cell_volume   296.48685669
_cell_formula_units_Z   1
loop_
 _symmetry_equiv_pos_site_id
 _symmetry_equiv_pos_as_xyz
  1  'x, y, z'
loop_
 _atom_site_type_symbol
 _atom_site_label
 _atom_site_symmetry_multiplicity
 _atom_site_fract_x
 _atom_site_fract_y
 _atom_site_fract_z
 _atom_site_occupancy
  Tb  Tb0  1  0.744351  0.930540  0.439401  1
  Tb  Tb1  1  0.930540  0.439401  0.744351  1
  Tb  Tb2  1  0.439401  0.744351  0.930540  1
  Tb  Tb3  1  0.255649  0.069460  0.560599  1
  Tb  Tb4  1  0.069460  0.560599  0.255649  1
  Tb  Tb5  1  0.560599  0.255649  0.069460  1
  Lu  Lu6  1  0.000000  0.000000  0.000000  1
  Sc  Sc7  1  0.500000  0.500000  0.500000  1
  O  O8  1  0.592467  0.464121  0.804641  1
  O  O9  1  0.464121  0.804641  0.592467  1
  O  O10  1  0.804641  0.592467  0.464121  1
  O  O11  1  0.407533  0.535879  0.195359  1
  O  O12  1  0.535879  0.195359  0.407533  1
  O  O13  1  0.195359  0.407533  0.535879  1
  O  O14  1  0.068568  0.910001  0.311598  1
  O  O15  1  0.910001  0.311598  0.068568  1
  O  O16  1  0.688402  0.931432  0.089999  1
  O  O17  1  0.089999  0.688402  0.931432  1
  O  O18  1  0.931432  0.089999  0.688402  1
  O  O19  1  0.311598  0.068568  0.910001  1
