# generated using pymatgen
data_LiCePr2In3Pt2
_symmetry_space_group_name_H-M   'P 1'
_cell_length_a   7.80221645
_cell_length_b   7.96363010
_cell_length_c   3.98623300
_cell_angle_alpha   90.00000000
_cell_angle_beta   90.00000000
_cell_angle_gamma   120.68675321
_symmetry_Int_Tables_number   1
_chemical_formula_structural   LiCePr2In3Pt2
_chemical_formula_sum   'Li1 Ce1 Pr2 In3 Pt2'
_cell_volume   212.99784021
_cell_formula_units_Z   1
loop_
 _symmetry_equiv_pos_site_id
 _symmetry_equiv_pos_as_xyz
  1  'x, y, z'
loop_
 _atom_site_type_symbol
 _atom_site_label
 _atom_site_symmetry_multiplicity
 _atom_site_fract_x
 _atom_site_fract_y
 _atom_site_fract_z
 _atom_site_occupancy
  Li  Li0  1  0.000000  0.000489  0.500000  1
  Ce  Ce1  1  0.000000  0.422696  0.500000  1
  Pr  Pr2  1  0.418234  0.999851  0.500000  1
  Pr  Pr3  1  0.581766  0.581617  0.500000  1
  In  In4  1  0.000000  0.751293  0.000000  1
  In  In5  1  0.755014  0.003649  0.000000  1
  In  In6  1  0.244986  0.248634  0.000000  1
  Pt  Pt7  1  0.682068  0.336919  0.000000  1
  Pt  Pt8  1  0.317932  0.654852  0.000000  1
