# generated using pymatgen
data_Dy2Co2B4Ir3
_symmetry_space_group_name_H-M   'P 1'
_cell_length_a   7.41528246
_cell_length_b   6.19492317
_cell_length_c   5.48172594
_cell_angle_alpha   78.58662278
_cell_angle_beta   54.97542309
_cell_angle_gamma   47.24520327
_symmetry_Int_Tables_number   1
_chemical_formula_structural   Dy2Co2B4Ir3
_chemical_formula_sum   'Dy2 Co2 B4 Ir3'
_cell_volume   143.51093318
_cell_formula_units_Z   1
loop_
 _symmetry_equiv_pos_site_id
 _symmetry_equiv_pos_as_xyz
  1  'x, y, z'
loop_
 _atom_site_type_symbol
 _atom_site_label
 _atom_site_symmetry_multiplicity
 _atom_site_fract_x
 _atom_site_fract_y
 _atom_site_fract_z
 _atom_site_occupancy
  Dy  Dy0  1  0.857014  0.857015  0.142986  1
  Dy  Dy1  1  0.144431  0.144432  0.855569  1
  Co  Co2  1  0.500080  0.500081  0.999919  1
  Co  Co3  1  0.248824  0.248825  0.251176  1
  B  B4  1  0.469018  0.799752  0.217125  1
  B  B5  1  0.226774  0.504630  0.454214  1
  B  B6  1  0.799751  0.469019  0.514107  1
  B  B7  1  0.504629  0.226775  0.814384  1
  Ir  Ir8  1  0.001024  0.001024  0.498976  1
  Ir  Ir9  1  0.498728  0.498729  0.501272  1
  Ir  Ir10  1  0.749721  0.749723  0.750279  1
