# generated using pymatgen
data_Ho2Er8(InBi)3
_symmetry_space_group_name_H-M   'P 1'
_cell_length_a   8.98970434
_cell_length_b   8.99401348
_cell_length_c   6.52332400
_cell_angle_alpha   90.00000000
_cell_angle_beta   90.00000000
_cell_angle_gamma   120.01585280
_symmetry_Int_Tables_number   1
_chemical_formula_structural   Ho2Er8(InBi)3
_chemical_formula_sum   'Ho2 Er8 In3 Bi3'
_cell_volume   456.69801726
_cell_formula_units_Z   1
loop_
 _symmetry_equiv_pos_site_id
 _symmetry_equiv_pos_as_xyz
  1  'x, y, z'
loop_
 _atom_site_type_symbol
 _atom_site_label
 _atom_site_symmetry_multiplicity
 _atom_site_fract_x
 _atom_site_fract_y
 _atom_site_fract_z
 _atom_site_occupancy
  Ho  Ho0  1  0.763807  0.763904  0.750000  1
  Ho  Ho1  1  0.236193  0.000097  0.750000  1
  Er  Er2  1  0.666657  0.333292  0.007542  1
  Er  Er3  1  0.333343  0.666637  0.007542  1
  Er  Er4  1  0.333343  0.666637  0.492458  1
  Er  Er5  1  0.666657  0.333292  0.492458  1
  Er  Er6  1  0.000000  0.236252  0.750000  1
  Er  Er7  1  0.237936  0.238033  0.250000  1
  Er  Er8  1  0.762064  0.000097  0.250000  1
  Er  Er9  1  0.000000  0.761809  0.250000  1
  In  In10  1  0.606835  0.606849  0.250000  1
  In  In11  1  0.393165  0.000014  0.250000  1
  In  In12  1  0.000000  0.393247  0.250000  1
  Bi  Bi13  1  0.396319  0.396513  0.750000  1
  Bi  Bi14  1  0.603681  0.000195  0.750000  1
  Bi  Bi15  1  0.000000  0.603132  0.750000  1
