# generated using pymatgen
data_Ho3MgAl2Si2Rh
_symmetry_space_group_name_H-M   'P 1'
_cell_length_a   6.99758300
_cell_length_b   6.92212270
_cell_length_c   4.27166200
_cell_angle_alpha   90.00000000
_cell_angle_beta   90.00000000
_cell_angle_gamma   120.36126805
_symmetry_Int_Tables_number   1
_chemical_formula_structural   Ho3MgAl2Si2Rh
_chemical_formula_sum   'Ho3 Mg1 Al2 Si2 Rh1'
_cell_volume   178.53457361
_cell_formula_units_Z   1
loop_
 _symmetry_equiv_pos_site_id
 _symmetry_equiv_pos_as_xyz
  1  'x, y, z'
loop_
 _atom_site_type_symbol
 _atom_site_label
 _atom_site_symmetry_multiplicity
 _atom_site_fract_x
 _atom_site_fract_y
 _atom_site_fract_z
 _atom_site_occupancy
  Ho  Ho0  1  0.413838  0.000000  0.000000  1
  Ho  Ho1  1  0.999120  0.417275  0.000000  1
  Ho  Ho2  1  0.581846  0.582726  0.000000  1
  Mg  Mg3  1  0.762806  0.000000  0.500000  1
  Al  Al4  1  0.235645  0.235510  0.500000  1
  Al  Al5  1  0.000134  0.764490  0.500000  1
  Si  Si6  1  0.664065  0.339487  0.500000  1
  Si  Si7  1  0.324577  0.660513  0.500000  1
  Rh  Rh8  1  0.017970  0.000000  0.000000  1
