# generated using pymatgen
data_Sc8Te3C4
_symmetry_space_group_name_H-M   'P 1'
_cell_length_a   3.57155137
_cell_length_b   7.82049610
_cell_length_c   11.90722800
_cell_angle_alpha   73.43534535
_cell_angle_beta   89.97404361
_cell_angle_gamma   117.14701411
_symmetry_Int_Tables_number   1
_chemical_formula_structural   Sc8Te3C4
_chemical_formula_sum   'Sc8 Te3 C4'
_cell_volume   280.32238384
_cell_formula_units_Z   1
loop_
 _symmetry_equiv_pos_site_id
 _symmetry_equiv_pos_as_xyz
  1  'x, y, z'
loop_
 _atom_site_type_symbol
 _atom_site_label
 _atom_site_symmetry_multiplicity
 _atom_site_fract_x
 _atom_site_fract_y
 _atom_site_fract_z
 _atom_site_occupancy
  Sc  Sc0  1  0.339571  0.519219  0.699746  1
  Sc  Sc1  1  0.979898  0.159427  0.599523  1
  Sc  Sc2  1  0.832514  0.512168  0.451520  1
  Sc  Sc3  1  0.482547  0.161838  0.352632  1
  Sc  Sc4  1  0.963228  0.142319  0.101123  1
  Sc  Sc5  1  0.482146  0.161486  0.847056  1
  Sc  Sc6  1  0.818397  0.497777  0.956980  1
  Sc  Sc7  1  0.313609  0.492996  0.200271  1
  Te  Te8  1  0.143398  0.822340  0.078533  1
  Te  Te9  1  0.655149  0.834661  0.451749  1
  Te  Te10  1  0.155475  0.835292  0.741328  1
  C  C11  1  0.626066  0.305408  0.155632  1
  C  C12  1  0.166368  0.345910  0.398035  1
  C  C13  1  0.668778  0.348216  0.648134  1
  C  C14  1  0.149255  0.328536  0.902129  1
