# generated using pymatgen
data_Nd6IrI10
_symmetry_space_group_name_H-M   'P 1'
_cell_length_a   8.00626907
_cell_length_b   9.97119577
_cell_length_c   10.08264958
_cell_angle_alpha   107.24365247
_cell_angle_beta   97.06196070
_cell_angle_gamma   104.67129804
_symmetry_Int_Tables_number   1
_chemical_formula_structural   Nd6IrI10
_chemical_formula_sum   'Nd6 Ir1 I10'
_cell_volume   726.39306430
_cell_formula_units_Z   1
loop_
 _symmetry_equiv_pos_site_id
 _symmetry_equiv_pos_as_xyz
  1  'x, y, z'
loop_
 _atom_site_type_symbol
 _atom_site_label
 _atom_site_symmetry_multiplicity
 _atom_site_fract_x
 _atom_site_fract_y
 _atom_site_fract_z
 _atom_site_occupancy
  Nd  Nd0  1  0.117135  0.043206  0.755880  1
  Nd  Nd1  1  0.882865  0.956794  0.244120  1
  Nd  Nd2  1  0.968019  0.282109  0.083619  1
  Nd  Nd3  1  0.031981  0.717891  0.916381  1
  Nd  Nd4  1  0.353993  0.127032  0.169313  1
  Nd  Nd5  1  0.646007  0.872968  0.830687  1
  Ir  Ir6  1  0.000000  0.000000  0.000000  1
  I  I7  1  0.349966  0.451161  0.272063  1
  I  I8  1  0.650034  0.548839  0.727937  1
  I  I9  1  0.258359  0.087755  0.460678  1
  I  I10  1  0.741641  0.912245  0.539322  1
  I  I11  1  0.085608  0.371545  0.821531  1
  I  I12  1  0.914392  0.628455  0.178469  1
  I  I13  1  0.453748  0.815602  0.090411  1
  I  I14  1  0.546252  0.184398  0.909589  1
  I  I15  1  0.781490  0.257471  0.345107  1
  I  I16  1  0.218510  0.742529  0.654893  1
