# generated using pymatgen
data_HoMgB6Rh
_symmetry_space_group_name_H-M   'P 1'
_cell_length_a   3.55104600
_cell_length_b   8.90811500
_cell_length_c   11.31246000
_cell_angle_alpha   90.00000000
_cell_angle_beta   90.00000000
_cell_angle_gamma   90.00000000
_symmetry_Int_Tables_number   1
_chemical_formula_structural   HoMgB6Rh
_chemical_formula_sum   'Ho4 Mg4 B24 Rh4'
_cell_volume   357.84847411
_cell_formula_units_Z   4
loop_
 _symmetry_equiv_pos_site_id
 _symmetry_equiv_pos_as_xyz
  1  'x, y, z'
loop_
 _atom_site_type_symbol
 _atom_site_label
 _atom_site_symmetry_multiplicity
 _atom_site_fract_x
 _atom_site_fract_y
 _atom_site_fract_z
 _atom_site_occupancy
  Ho  Ho0  1  0.500000  0.320279  0.413820  1
  Ho  Ho1  1  0.500000  0.679721  0.586180  1
  Ho  Ho2  1  0.500000  0.179721  0.913820  1
  Ho  Ho3  1  0.500000  0.820279  0.086180  1
  Mg  Mg4  1  0.500000  0.447288  0.121179  1
  Mg  Mg5  1  0.500000  0.552712  0.878821  1
  Mg  Mg6  1  0.500000  0.052712  0.621179  1
  Mg  Mg7  1  0.500000  0.947288  0.378821  1
  B  B8  1  0.000000  0.099269  0.473135  1
  B  B9  1  0.000000  0.900731  0.526865  1
  B  B10  1  0.000000  0.400731  0.973135  1
  B  B11  1  0.000000  0.599269  0.026865  1
  B  B12  1  0.000000  0.128449  0.318876  1
  B  B13  1  0.000000  0.871551  0.681124  1
  B  B14  1  0.000000  0.371551  0.818876  1
  B  B15  1  0.000000  0.628449  0.181124  1
  B  B16  1  0.000000  0.055629  0.066781  1
  B  B17  1  0.000000  0.944371  0.933219  1
  B  B18  1  0.000000  0.444371  0.566781  1
  B  B19  1  0.000000  0.555629  0.433219  1
  B  B20  1  0.000000  0.482160  0.284977  1
  B  B21  1  0.000000  0.517840  0.715023  1
  B  B22  1  0.000000  0.017840  0.784977  1
  B  B23  1  0.000000  0.982160  0.215023  1
  B  B24  1  0.000000  0.255445  0.079756  1
  B  B25  1  0.000000  0.744555  0.920244  1
  B  B26  1  0.000000  0.244555  0.579756  1
  B  B27  1  0.000000  0.755445  0.420244  1
  B  B28  1  0.000000  0.294481  0.234687  1
  B  B29  1  0.000000  0.705519  0.765313  1
  B  B30  1  0.000000  0.205519  0.734687  1
  B  B31  1  0.000000  0.794481  0.265313  1
  Rh  Rh32  1  0.500000  0.141449  0.181899  1
  Rh  Rh33  1  0.500000  0.858551  0.818101  1
  Rh  Rh34  1  0.500000  0.358551  0.681899  1
  Rh  Rh35  1  0.500000  0.641449  0.318101  1
