# generated using pymatgen
data_ErTm3(ScIr)4
_symmetry_space_group_name_H-M   'P 1'
_cell_length_a   4.22012900
_cell_length_b   7.12026048
_cell_length_c   8.64004056
_cell_angle_alpha   90.08188309
_cell_angle_beta   90.00000000
_cell_angle_gamma   90.00000000
_symmetry_Int_Tables_number   1
_chemical_formula_structural   ErTm3(ScIr)4
_chemical_formula_sum   'Er1 Tm3 Sc4 Ir4'
_cell_volume   259.61928265
_cell_formula_units_Z   1
loop_
 _symmetry_equiv_pos_site_id
 _symmetry_equiv_pos_as_xyz
  1  'x, y, z'
loop_
 _atom_site_type_symbol
 _atom_site_label
 _atom_site_symmetry_multiplicity
 _atom_site_fract_x
 _atom_site_fract_y
 _atom_site_fract_z
 _atom_site_occupancy
  Er  Er0  1  0.750000  0.517427  0.827676  1
  Tm  Tm1  1  0.250000  0.982008  0.327678  1
  Tm  Tm2  1  0.250000  0.481412  0.172147  1
  Tm  Tm3  1  0.750000  0.018898  0.672116  1
  Sc  Sc4  1  0.250000  0.358591  0.565326  1
  Sc  Sc5  1  0.250000  0.857249  0.934259  1
  Sc  Sc6  1  0.750000  0.642922  0.434091  1
  Sc  Sc7  1  0.750000  0.141527  0.066068  1
  Ir  Ir8  1  0.250000  0.239813  0.892809  1
  Ir  Ir9  1  0.250000  0.741986  0.607316  1
  Ir  Ir10  1  0.750000  0.758737  0.108008  1
  Ir  Ir11  1  0.750000  0.259432  0.392508  1
