# generated using pymatgen
data_Ho16Cd3InPt4
_symmetry_space_group_name_H-M   'P 1'
_cell_length_a   9.66559063
_cell_length_b   9.66559105
_cell_length_c   9.66559100
_cell_angle_alpha   59.97960387
_cell_angle_beta   59.97960243
_cell_angle_gamma   59.97960038
_symmetry_Int_Tables_number   1
_chemical_formula_structural   Ho16Cd3InPt4
_chemical_formula_sum   'Ho16 Cd3 In1 Pt4'
_cell_volume   638.21838446
_cell_formula_units_Z   1
loop_
 _symmetry_equiv_pos_site_id
 _symmetry_equiv_pos_as_xyz
  1  'x, y, z'
loop_
 _atom_site_type_symbol
 _atom_site_label
 _atom_site_symmetry_multiplicity
 _atom_site_fract_x
 _atom_site_fract_y
 _atom_site_fract_z
 _atom_site_occupancy
  Ho  Ho0  1  0.599610  0.599610  0.599610  1
  Ho  Ho1  1  0.604396  0.604396  0.191520  1
  Ho  Ho2  1  0.604396  0.191520  0.604396  1
  Ho  Ho3  1  0.191520  0.604396  0.604396  1
  Ho  Ho4  1  0.060328  0.440409  0.440409  1
  Ho  Ho5  1  0.441213  0.059597  0.059597  1
  Ho  Ho6  1  0.440409  0.060328  0.440409  1
  Ho  Ho7  1  0.059597  0.441213  0.059597  1
  Ho  Ho8  1  0.440409  0.440409  0.060328  1
  Ho  Ho9  1  0.059597  0.059597  0.441213  1
  Ho  Ho10  1  0.185076  0.816234  0.816234  1
  Ho  Ho11  1  0.814221  0.186564  0.186564  1
  Ho  Ho12  1  0.816234  0.185076  0.816234  1
  Ho  Ho13  1  0.186564  0.814221  0.186564  1
  Ho  Ho14  1  0.816234  0.816234  0.185076  1
  Ho  Ho15  1  0.186564  0.186564  0.814221  1
  Cd  Cd16  1  0.830828  0.830828  0.502018  1
  Cd  Cd17  1  0.830828  0.502018  0.830828  1
  Cd  Cd18  1  0.502018  0.830828  0.830828  1
  In  In19  1  0.831327  0.831327  0.831327  1
  Pt  Pt20  1  0.394240  0.394240  0.394240  1
  Pt  Pt21  1  0.391423  0.391423  0.821541  1
  Pt  Pt22  1  0.391423  0.821541  0.391423  1
  Pt  Pt23  1  0.821541  0.391423  0.391423  1
