# generated using pymatgen
data_Ti8Al12Si3Ir7
_symmetry_space_group_name_H-M   'P 1'
_cell_length_a   8.60750958
_cell_length_b   8.60750859
_cell_length_c   8.60750938
_cell_angle_alpha   119.76924337
_cell_angle_beta   120.05521059
_cell_angle_gamma   90.15227442
_symmetry_Int_Tables_number   1
_chemical_formula_structural   Ti8Al12Si3Ir7
_chemical_formula_sum   'Ti8 Al12 Si3 Ir7'
_cell_volume   451.53169426
_cell_formula_units_Z   1
loop_
 _symmetry_equiv_pos_site_id
 _symmetry_equiv_pos_as_xyz
  1  'x, y, z'
loop_
 _atom_site_type_symbol
 _atom_site_label
 _atom_site_symmetry_multiplicity
 _atom_site_fract_x
 _atom_site_fract_y
 _atom_site_fract_z
 _atom_site_occupancy
  Ti  Ti0  1  0.804027  0.297229  0.091138  1
  Ti  Ti1  1  0.206090  0.297229  0.493202  1
  Ti  Ti2  1  0.198518  0.698518  0.500000  1
  Ti  Ti3  1  0.206090  0.712889  0.908862  1
  Ti  Ti4  1  0.804027  0.712889  0.506798  1
  Ti  Ti5  1  0.788114  0.288114  0.500000  1
  Ti  Ti6  1  0.378963  0.123870  0.744907  1
  Ti  Ti7  1  0.378963  0.634057  0.255093  1
  Al  Al8  1  0.152469  0.345898  0.806571  1
  Al  Al9  1  0.539326  0.345898  0.193429  1
  Al  Al10  1  0.840825  0.658139  0.817315  1
  Al  Al11  1  0.840825  0.023510  0.182685  1
  Al  Al12  1  0.838037  0.659084  0.178953  1
  Al  Al13  1  0.480131  0.659084  0.821047  1
  Al  Al14  1  0.382097  0.122023  0.260075  1
  Al  Al15  1  0.861948  0.122023  0.739925  1
  Al  Al16  1  0.619202  0.877129  0.257927  1
  Al  Al17  1  0.619202  0.361276  0.742073  1
  Al  Al18  1  0.620883  0.879062  0.741821  1
  Al  Al19  1  0.137240  0.879062  0.258179  1
  Si  Si20  1  0.992934  0.492934  0.500000  1
  Si  Si21  1  0.156970  0.346664  0.189693  1
  Si  Si22  1  0.156970  0.967277  0.810307  1
  Ir  Ir23  1  0.003782  0.998695  0.506092  1
  Ir  Ir24  1  0.492604  0.998695  0.994913  1
  Ir  Ir25  1  0.497355  0.497355  0.000000  1
  Ir  Ir26  1  0.492604  0.497689  0.493908  1
  Ir  Ir27  1  0.003782  0.497689  0.005087  1
  Ir  Ir28  1  0.008142  0.008142  0.000000  1
  Ir  Ir29  1  0.497876  0.997876  0.500000  1
