# generated using pymatgen
data_Ho5GeRhO12
_symmetry_space_group_name_H-M   'P 1'
_cell_length_a   6.79174139
_cell_length_b   6.79174001
_cell_length_c   7.22021971
_cell_angle_alpha   74.47447761
_cell_angle_beta   74.47447731
_cell_angle_gamma   51.07934976
_symmetry_Int_Tables_number   1
_chemical_formula_structural   Ho5GeRhO12
_chemical_formula_sum   'Ho5 Ge1 Rh1 O12'
_cell_volume   247.45602955
_cell_formula_units_Z   1
loop_
 _symmetry_equiv_pos_site_id
 _symmetry_equiv_pos_as_xyz
  1  'x, y, z'
loop_
 _atom_site_type_symbol
 _atom_site_label
 _atom_site_symmetry_multiplicity
 _atom_site_fract_x
 _atom_site_fract_y
 _atom_site_fract_z
 _atom_site_occupancy
  Ho  Ho0  1  0.308395  0.296577  0.359945  1
  Ho  Ho1  1  0.703423  0.691605  0.640055  1
  Ho  Ho2  1  0.305822  0.309790  0.830772  1
  Ho  Ho3  1  0.690210  0.694178  0.169228  1
  Ho  Ho4  1  0.000983  0.999017  0.500000  1
  Ge  Ge5  1  0.752727  0.247273  0.000000  1
  Rh  Rh6  1  0.242492  0.757508  0.000000  1
  O  O7  1  0.899867  0.424178  0.918308  1
  O  O8  1  0.426027  0.903125  0.916855  1
  O  O9  1  0.096875  0.573973  0.083145  1
  O  O10  1  0.575822  0.100133  0.081692  1
  O  O11  1  0.099241  0.597760  0.573481  1
  O  O12  1  0.597707  0.094379  0.575958  1
  O  O13  1  0.905621  0.402293  0.424042  1
  O  O14  1  0.402240  0.900759  0.426519  1
  O  O15  1  0.989699  0.010553  0.818949  1
  O  O16  1  0.989447  0.010301  0.181051  1
  O  O17  1  0.506733  0.493334  0.815765  1
  O  O18  1  0.506666  0.493267  0.184235  1
