# generated using pymatgen
data_Ho10MnGaCo10
_symmetry_space_group_name_H-M   'P 1'
_cell_length_a   5.46805352
_cell_length_b   5.46805324
_cell_length_c   20.48219647
_cell_angle_alpha   90.44204501
_cell_angle_beta   89.55795545
_cell_angle_gamma   137.09826011
_symmetry_Int_Tables_number   1
_chemical_formula_structural   Ho10MnGaCo10
_chemical_formula_sum   'Ho10 Mn1 Ga1 Co10'
_cell_volume   416.87932253
_cell_formula_units_Z   1
loop_
 _symmetry_equiv_pos_site_id
 _symmetry_equiv_pos_as_xyz
  1  'x, y, z'
loop_
 _atom_site_type_symbol
 _atom_site_label
 _atom_site_symmetry_multiplicity
 _atom_site_fract_x
 _atom_site_fract_y
 _atom_site_fract_z
 _atom_site_occupancy
  Ho  Ho0  1  0.288222  0.711778  0.250576  1
  Ho  Ho1  1  0.291127  0.708873  0.065919  1
  Ho  Ho2  1  0.997776  0.002224  0.842766  1
  Ho  Ho3  1  0.711778  0.288222  0.749424  1
  Ho  Ho4  1  0.708693  0.291307  0.565394  1
  Ho  Ho5  1  0.001566  0.998434  0.343516  1
  Ho  Ho6  1  0.998434  0.001566  0.656484  1
  Ho  Ho7  1  0.708873  0.291127  0.934081  1
  Ho  Ho8  1  0.002224  0.997776  0.157234  1
  Ho  Ho9  1  0.291307  0.708693  0.434606  1
  Mn  Mn10  1  0.000000  0.000000  0.500000  1
  Ga  Ga11  1  0.000000  0.000000  0.000000  1
  Co  Co12  1  0.295588  0.704412  0.654533  1
  Co  Co13  1  0.579558  0.420442  0.442780  1
  Co  Co14  1  0.414634  0.585366  0.750126  1
  Co  Co15  1  0.418472  0.581528  0.941422  1
  Co  Co16  1  0.585366  0.414634  0.249874  1
  Co  Co17  1  0.420442  0.579558  0.557220  1
  Co  Co18  1  0.704412  0.295588  0.345467  1
  Co  Co19  1  0.705635  0.294365  0.154034  1
  Co  Co20  1  0.581528  0.418472  0.058578  1
  Co  Co21  1  0.294365  0.705635  0.845966  1
