# generated using pymatgen
data_Y3Ho9(TcOs)2
_symmetry_space_group_name_H-M   'P 1'
_cell_length_a   6.26147226
_cell_length_b   7.43887696
_cell_length_c   9.05057200
_cell_angle_alpha   90.00000000
_cell_angle_beta   90.00000000
_cell_angle_gamma   89.79355719
_symmetry_Int_Tables_number   1
_chemical_formula_structural   Y3Ho9(TcOs)2
_chemical_formula_sum   'Y3 Ho9 Tc2 Os2'
_cell_volume   421.55771774
_cell_formula_units_Z   1
loop_
 _symmetry_equiv_pos_site_id
 _symmetry_equiv_pos_as_xyz
  1  'x, y, z'
loop_
 _atom_site_type_symbol
 _atom_site_label
 _atom_site_symmetry_multiplicity
 _atom_site_fract_x
 _atom_site_fract_y
 _atom_site_fract_z
 _atom_site_occupancy
  Y  Y0  1  0.877977  0.539170  0.250000  1
  Y  Y1  1  0.622332  0.039344  0.250000  1
  Y  Y2  1  0.129555  0.460041  0.750000  1
  Ho  Ho3  1  0.339036  0.675871  0.062062  1
  Ho  Ho4  1  0.161546  0.174607  0.438072  1
  Ho  Ho5  1  0.663759  0.323987  0.563065  1
  Ho  Ho6  1  0.835346  0.824808  0.937204  1
  Ho  Ho7  1  0.663759  0.323987  0.936935  1
  Ho  Ho8  1  0.835346  0.824808  0.562796  1
  Ho  Ho9  1  0.339036  0.675871  0.437938  1
  Ho  Ho10  1  0.161546  0.174607  0.061928  1
  Ho  Ho11  1  0.369135  0.958506  0.750000  1
  Tc  Tc12  1  0.043528  0.884985  0.250000  1
  Tc  Tc13  1  0.456405  0.384945  0.250000  1
  Os  Os14  1  0.958994  0.115961  0.750000  1
  Os  Os15  1  0.542701  0.618499  0.750000  1
