# generated using pymatgen
data_Y14Ho2MgHg3Pd4
_symmetry_space_group_name_H-M   'P 1'
_cell_length_a   9.70934239
_cell_length_b   9.72176545
_cell_length_c   9.72486700
_cell_angle_alpha   59.98944936
_cell_angle_beta   59.94709696
_cell_angle_gamma   59.94778737
_symmetry_Int_Tables_number   1
_chemical_formula_structural   Y14Ho2MgHg3Pd4
_chemical_formula_sum   'Y14 Ho2 Mg1 Hg3 Pd4'
_cell_volume   648.52030226
_cell_formula_units_Z   1
loop_
 _symmetry_equiv_pos_site_id
 _symmetry_equiv_pos_as_xyz
  1  'x, y, z'
loop_
 _atom_site_type_symbol
 _atom_site_label
 _atom_site_symmetry_multiplicity
 _atom_site_fract_x
 _atom_site_fract_y
 _atom_site_fract_z
 _atom_site_occupancy
  Y  Y0  1  0.358682  0.934378  0.353471  1
  Y  Y1  1  0.921437  0.361695  0.358434  1
  Y  Y2  1  0.809220  0.190819  0.190924  1
  Y  Y3  1  0.187201  0.812108  0.811357  1
  Y  Y4  1  0.187201  0.812108  0.189335  1
  Y  Y5  1  0.809220  0.190819  0.809037  1
  Y  Y6  1  0.188677  0.190253  0.810535  1
  Y  Y7  1  0.809980  0.810723  0.189649  1
  Y  Y8  1  0.934824  0.564728  0.565341  1
  Y  Y9  1  0.563808  0.935792  0.934826  1
  Y  Y10  1  0.563808  0.935792  0.565574  1
  Y  Y11  1  0.934824  0.564728  0.935108  1
  Y  Y12  1  0.564899  0.565226  0.934937  1
  Y  Y13  1  0.934891  0.935806  0.564652  1
  Ho  Ho14  1  0.354683  0.352638  0.349937  1
  Ho  Ho15  1  0.354683  0.352638  0.942742  1
  Mg  Mg16  1  0.282008  0.570163  0.573914  1
  Hg  Hg17  1  0.581921  0.588205  0.590439  1
  Hg  Hg18  1  0.581921  0.588205  0.239434  1
  Hg  Hg19  1  0.581132  0.239361  0.589753  1
  Pd  Pd20  1  0.143415  0.147601  0.147391  1
  Pd  Pd21  1  0.143415  0.147601  0.561593  1
  Pd  Pd22  1  0.143185  0.563000  0.146907  1
  Pd  Pd23  1  0.564960  0.145614  0.144712  1
