# generated using pymatgen
data_Pa4Al24TcPt8
_symmetry_space_group_name_H-M   'P 1'
_cell_length_a   7.55388571
_cell_length_b   7.55044709
_cell_length_c   13.07795900
_cell_angle_alpha   84.49234813
_cell_angle_beta   101.07687466
_cell_angle_gamma   119.78785667
_symmetry_Int_Tables_number   1
_chemical_formula_structural   Pa4Al24TcPt8
_chemical_formula_sum   'Pa4 Al24 Tc1 Pt8'
_cell_volume   635.28840459
_cell_formula_units_Z   1
loop_
 _symmetry_equiv_pos_site_id
 _symmetry_equiv_pos_as_xyz
  1  'x, y, z'
loop_
 _atom_site_type_symbol
 _atom_site_label
 _atom_site_symmetry_multiplicity
 _atom_site_fract_x
 _atom_site_fract_y
 _atom_site_fract_z
 _atom_site_occupancy
  Pa  Pa0  1  0.727408  0.994741  0.191633  1
  Pa  Pa1  1  0.266668  0.996230  0.808717  1
  Pa  Pa2  1  0.067288  0.669563  0.191419  1
  Pa  Pa3  1  0.941757  0.336658  0.808461  1
  Al  Al4  1  0.808089  0.867693  0.816062  1
  Al  Al5  1  0.193641  0.130943  0.183971  1
  Al  Al6  1  0.980430  0.667024  0.946283  1
  Al  Al7  1  0.020712  0.337809  0.055262  1
  Al  Al8  1  0.401462  0.663010  0.820023  1
  Al  Al9  1  0.600987  0.335378  0.182701  1
  Al  Al10  1  0.880477  0.665428  0.669557  1
  Al  Al11  1  0.118741  0.332603  0.328995  1
  Al  Al12  1  0.604275  0.458975  0.817121  1
  Al  Al13  1  0.396655  0.539304  0.180031  1
  Al  Al14  1  0.234300  0.342394  0.669738  1
  Al  Al15  1  0.767586  0.655561  0.330377  1
  Al  Al16  1  0.853113  0.332682  0.558675  1
  Al  Al17  1  0.187849  0.000589  0.558543  1
  Al  Al18  1  0.814420  0.999293  0.441490  1
  Al  Al19  1  0.350703  0.001482  0.053874  1
  Al  Al20  1  0.644155  0.998042  0.944676  1
  Al  Al21  1  0.558186  0.991772  0.671185  1
  Al  Al22  1  0.444289  0.008529  0.330206  1
  Al  Al23  1  0.520503  0.666440  0.560460  1
  Al  Al24  1  0.479308  0.333098  0.439020  1
  Al  Al25  1  0.675577  0.667961  0.044451  1
  Al  Al26  1  0.317185  0.339064  0.955493  1
  Al  Al27  1  0.147241  0.665137  0.441794  1
  Tc  Tc28  1  0.324462  0.675469  0.999792  1
  Pt  Pt29  1  0.547497  0.324061  0.638289  1
  Pt  Pt30  1  0.453364  0.673748  0.360599  1
  Pt  Pt31  1  0.890542  0.009806  0.639495  1
  Pt  Pt32  1  0.110353  0.989127  0.360502  1
  Pt  Pt33  1  0.670722  0.329143  0.000081  1
  Pt  Pt34  1  0.205949  0.667283  0.640157  1
  Pt  Pt35  1  0.796403  0.331569  0.360868  1
  Pt  Pt36  1  0.997703  0.002383  0.999993  1
