# generated using pymatgen
data_PrNd3Cu2(SeO3)8
_symmetry_space_group_name_H-M   'P 1'
_cell_length_a   7.14055945
_cell_length_b   8.31314863
_cell_length_c   10.87299652
_cell_angle_alpha   70.24695019
_cell_angle_beta   89.82370911
_cell_angle_gamma   89.93115799
_symmetry_Int_Tables_number   1
_chemical_formula_structural   PrNd3Cu2(SeO3)8
_chemical_formula_sum   'Pr1 Nd3 Cu2 Se8 O24'
_cell_volume   607.44578468
_cell_formula_units_Z   1
loop_
 _symmetry_equiv_pos_site_id
 _symmetry_equiv_pos_as_xyz
  1  'x, y, z'
loop_
 _atom_site_type_symbol
 _atom_site_label
 _atom_site_symmetry_multiplicity
 _atom_site_fract_x
 _atom_site_fract_y
 _atom_site_fract_z
 _atom_site_occupancy
  Pr  Pr0  1  0.839939  0.740441  0.412420  1
  Nd  Nd1  1  0.340457  0.758932  0.588917  1
  Nd  Nd2  1  0.159540  0.258531  0.588729  1
  Nd  Nd3  1  0.659607  0.240993  0.411498  1
  Cu  Cu4  1  0.000165  0.000153  0.999663  1
  Cu  Cu5  1  0.500000  0.500187  0.999843  1
  Se  Se6  1  0.824607  0.865174  0.683195  1
  Se  Se7  1  0.165917  0.376515  0.868870  1
  Se  Se8  1  0.674282  0.364004  0.682313  1
  Se  Se9  1  0.334456  0.876302  0.868816  1
  Se  Se10  1  0.324031  0.634654  0.318058  1
  Se  Se11  1  0.176248  0.135735  0.318143  1
  Se  Se12  1  0.833919  0.623650  0.129950  1
  Se  Se13  1  0.665478  0.124330  0.130626  1
  O  O14  1  0.716633  0.031875  0.294275  1
  O  O15  1  0.841566  0.409238  0.555970  1
  O  O16  1  0.158318  0.587327  0.445511  1
  O  O17  1  0.504110  0.285848  0.603220  1
  O  O18  1  0.217905  0.469831  0.705196  1
  O  O19  1  0.782454  0.529326  0.293602  1
  O  O20  1  0.658945  0.911154  0.556141  1
  O  O21  1  0.884099  0.821479  0.148072  1
  O  O22  1  0.115653  0.930634  0.337240  1
  O  O23  1  0.282854  0.969552  0.705317  1
  O  O24  1  0.120222  0.824744  0.947206  1
  O  O25  1  0.379694  0.324917  0.947278  1
  O  O26  1  0.885839  0.070302  0.663236  1
  O  O27  1  0.115849  0.178644  0.850707  1
  O  O28  1  0.384666  0.678167  0.851027  1
  O  O29  1  0.341789  0.089385  0.445163  1
  O  O30  1  0.615169  0.322545  0.148093  1
  O  O31  1  0.493827  0.714557  0.396211  1
  O  O32  1  0.004730  0.213504  0.397323  1
  O  O33  1  0.996369  0.786242  0.605080  1
  O  O34  1  0.614414  0.570107  0.661418  1
  O  O35  1  0.619795  0.675732  0.052072  1
  O  O36  1  0.879793  0.175513  0.052183  1
  O  O37  1  0.386661  0.429777  0.337419  1
