# generated using pymatgen
data_Sm3Y13(ErSn4)4
_symmetry_space_group_name_H-M   'P 1'
_cell_length_a   8.04556832
_cell_length_b   8.19362198
_cell_length_c   15.50786018
_cell_angle_alpha   90.00947233
_cell_angle_beta   90.20175254
_cell_angle_gamma   89.89657885
_symmetry_Int_Tables_number   1
_chemical_formula_structural   Sm3Y13(ErSn4)4
_chemical_formula_sum   'Sm3 Y13 Er4 Sn16'
_cell_volume   1022.30649904
_cell_formula_units_Z   1
loop_
 _symmetry_equiv_pos_site_id
 _symmetry_equiv_pos_as_xyz
  1  'x, y, z'
loop_
 _atom_site_type_symbol
 _atom_site_label
 _atom_site_symmetry_multiplicity
 _atom_site_fract_x
 _atom_site_fract_y
 _atom_site_fract_z
 _atom_site_occupancy
  Sm  Sm0  1  0.982722  0.821112  0.403194  1
  Sm  Sm1  1  0.516655  0.321398  0.595774  1
  Sm  Sm2  1  0.017541  0.178758  0.904519  1
  Y  Y3  1  0.366177  0.836715  0.877780  1
  Y  Y4  1  0.864378  0.663576  0.622658  1
  Y  Y5  1  0.635418  0.162857  0.376333  1
  Y  Y6  1  0.133846  0.337222  0.122226  1
  Y  Y7  1  0.633437  0.162923  0.122701  1
  Y  Y8  1  0.134662  0.337091  0.376768  1
  Y  Y9  1  0.365995  0.837034  0.623041  1
  Y  Y10  1  0.867904  0.662679  0.877793  1
  Y  Y11  1  0.521956  0.322037  0.902063  1
  Y  Y12  1  0.020295  0.179233  0.597722  1
  Y  Y13  1  0.480591  0.678921  0.402510  1
  Y  Y14  1  0.979152  0.820120  0.098167  1
  Y  Y15  1  0.479389  0.678108  0.096686  1
  Er  Er16  1  0.197933  0.503126  0.750385  1
  Er  Er17  1  0.697655  0.997043  0.750293  1
  Er  Er18  1  0.802200  0.497243  0.249324  1
  Er  Er19  1  0.302448  0.002815  0.249496  1
  Sn  Sn20  1  0.294958  0.034188  0.043222  1
  Sn  Sn21  1  0.795903  0.462775  0.457340  1
  Sn  Sn22  1  0.704602  0.964274  0.542356  1
  Sn  Sn23  1  0.208348  0.537095  0.958376  1
  Sn  Sn24  1  0.703147  0.959603  0.959403  1
  Sn  Sn25  1  0.201970  0.540818  0.540683  1
  Sn  Sn26  1  0.298018  0.039789  0.458853  1
  Sn  Sn27  1  0.793177  0.462994  0.041750  1
  Sn  Sn28  1  0.563526  0.619177  0.750605  1
  Sn  Sn29  1  0.063211  0.880563  0.750093  1
  Sn  Sn30  1  0.436871  0.381341  0.249719  1
  Sn  Sn31  1  0.937035  0.119272  0.249524  1
  Sn  Sn32  1  0.328400  0.147531  0.750839  1
  Sn  Sn33  1  0.828764  0.352507  0.749406  1
  Sn  Sn34  1  0.669170  0.850646  0.249312  1
  Sn  Sn35  1  0.172544  0.647418  0.249089  1
