# generated using pymatgen
data_Dy2RuC2
_symmetry_space_group_name_H-M   'P 1'
_cell_length_a   5.11639500
_cell_length_b   6.45289100
_cell_length_c   9.78953000
_cell_angle_alpha   90.00000000
_cell_angle_beta   90.00000000
_cell_angle_gamma   90.00000000
_symmetry_Int_Tables_number   1
_chemical_formula_structural   Dy2RuC2
_chemical_formula_sum   'Dy8 Ru4 C8'
_cell_volume   323.20661193
_cell_formula_units_Z   4
loop_
 _symmetry_equiv_pos_site_id
 _symmetry_equiv_pos_as_xyz
  1  'x, y, z'
loop_
 _atom_site_type_symbol
 _atom_site_label
 _atom_site_symmetry_multiplicity
 _atom_site_fract_x
 _atom_site_fract_y
 _atom_site_fract_z
 _atom_site_occupancy
  Dy  Dy0  1  0.250000  0.820972  0.946053  1
  Dy  Dy1  1  0.250000  0.320972  0.553947  1
  Dy  Dy2  1  0.750000  0.179028  0.053947  1
  Dy  Dy3  1  0.750000  0.679028  0.446053  1
  Dy  Dy4  1  0.250000  0.472290  0.217046  1
  Dy  Dy5  1  0.250000  0.972290  0.282954  1
  Dy  Dy6  1  0.750000  0.527710  0.782954  1
  Dy  Dy7  1  0.750000  0.027710  0.717046  1
  Ru  Ru8  1  0.250000  0.279732  0.865214  1
  Ru  Ru9  1  0.250000  0.779732  0.634786  1
  Ru  Ru10  1  0.750000  0.720268  0.134786  1
  Ru  Ru11  1  0.750000  0.220268  0.365214  1
  C  C12  1  0.250000  0.043530  0.742755  1
  C  C13  1  0.250000  0.543530  0.757245  1
  C  C14  1  0.750000  0.956470  0.257245  1
  C  C15  1  0.750000  0.456470  0.242755  1
  C  C16  1  0.250000  0.674478  0.447048  1
  C  C17  1  0.250000  0.174478  0.052952  1
  C  C18  1  0.750000  0.325522  0.552952  1
  C  C19  1  0.750000  0.825522  0.947048  1
