# generated using pymatgen
data_Yb2YLu(Ga3Ir)6
_symmetry_space_group_name_H-M   'P 1'
_cell_length_a   7.54297239
_cell_length_b   7.54851451
_cell_length_c   9.56704400
_cell_angle_alpha   90.00000000
_cell_angle_beta   90.00000000
_cell_angle_gamma   119.76701930
_symmetry_Int_Tables_number   1
_chemical_formula_structural   Yb2YLu(Ga3Ir)6
_chemical_formula_sum   'Yb2 Y1 Lu1 Ga18 Ir6'
_cell_volume   472.85416081
_cell_formula_units_Z   1
loop_
 _symmetry_equiv_pos_site_id
 _symmetry_equiv_pos_as_xyz
  1  'x, y, z'
loop_
 _atom_site_type_symbol
 _atom_site_label
 _atom_site_symmetry_multiplicity
 _atom_site_fract_x
 _atom_site_fract_y
 _atom_site_fract_z
 _atom_site_occupancy
  Yb  Yb0  1  0.996521  0.668757  0.250000  1
  Yb  Yb1  1  0.003348  0.331220  0.750000  1
  Y  Y2  1  0.331568  0.002610  0.750000  1
  Lu  Lu3  1  0.668401  0.997610  0.250000  1
  Ga  Ga4  1  0.126210  0.127839  0.250000  1
  Ga  Ga5  1  0.872452  0.871629  0.750000  1
  Ga  Ga6  1  0.999311  0.334723  0.079325  1
  Ga  Ga7  1  0.999479  0.664010  0.922023  1
  Ga  Ga8  1  0.999479  0.664010  0.577977  1
  Ga  Ga9  1  0.333901  0.998533  0.418890  1
  Ga  Ga10  1  0.999311  0.334723  0.420675  1
  Ga  Ga11  1  0.667374  0.001461  0.578836  1
  Ga  Ga12  1  0.667374  0.001461  0.921164  1
  Ga  Ga13  1  0.333901  0.998533  0.081110  1
  Ga  Ga14  1  0.331787  0.333048  0.563502  1
  Ga  Ga15  1  0.668236  0.668001  0.435013  1
  Ga  Ga16  1  0.668236  0.668001  0.064987  1
  Ga  Ga17  1  0.331787  0.333048  0.936498  1
  Ga  Ga18  1  0.339516  0.547356  0.250000  1
  Ga  Ga19  1  0.661541  0.454095  0.750000  1
  Ga  Ga20  1  0.546994  0.337605  0.250000  1
  Ga  Ga21  1  0.453434  0.661929  0.750000  1
  Ir  Ir22  1  0.671376  0.328345  0.000728  1
  Ir  Ir23  1  0.328851  0.671653  0.000219  1
  Ir  Ir24  1  0.328851  0.671653  0.499781  1
  Ir  Ir25  1  0.671376  0.328345  0.499272  1
  Ir  Ir26  1  0.999692  0.999900  0.000447  1
  Ir  Ir27  1  0.999692  0.999900  0.499553  1
