# generated using pymatgen
data_Dy8Er3TmGa20
_symmetry_space_group_name_H-M   'P 1'
_cell_length_a   6.07942000
_cell_length_b   9.60950300
_cell_length_c   11.48024201
_cell_angle_alpha   90.00000000
_cell_angle_beta   90.00450332
_cell_angle_gamma   90.00000000
_symmetry_Int_Tables_number   1
_chemical_formula_structural   Dy8Er3TmGa20
_chemical_formula_sum   'Dy8 Er3 Tm1 Ga20'
_cell_volume   670.67808693
_cell_formula_units_Z   1
loop_
 _symmetry_equiv_pos_site_id
 _symmetry_equiv_pos_as_xyz
  1  'x, y, z'
loop_
 _atom_site_type_symbol
 _atom_site_label
 _atom_site_symmetry_multiplicity
 _atom_site_fract_x
 _atom_site_fract_y
 _atom_site_fract_z
 _atom_site_occupancy
  Dy  Dy0  1  0.890988  0.509670  0.351521  1
  Dy  Dy1  1  0.609052  0.990307  0.851516  1
  Dy  Dy2  1  0.109115  0.009782  0.648420  1
  Dy  Dy3  1  0.390910  0.490265  0.148504  1
  Dy  Dy4  1  0.109115  0.490218  0.648420  1
  Dy  Dy5  1  0.390910  0.009735  0.148504  1
  Dy  Dy6  1  0.890988  0.990330  0.351521  1
  Dy  Dy7  1  0.609052  0.509693  0.851516  1
  Er  Er8  1  0.848171  0.750000  0.074171  1
  Er  Er9  1  0.651785  0.750000  0.574208  1
  Er  Er10  1  0.151847  0.250000  0.925814  1
  Tm  Tm11  1  0.348205  0.250000  0.425723  1
  Ga  Ga12  1  0.875688  0.053062  0.089956  1
  Ga  Ga13  1  0.624215  0.446889  0.589878  1
  Ga  Ga14  1  0.124284  0.553076  0.910072  1
  Ga  Ga15  1  0.375727  0.947109  0.410103  1
  Ga  Ga16  1  0.124284  0.946924  0.910072  1
  Ga  Ga17  1  0.375727  0.552891  0.410103  1
  Ga  Ga18  1  0.875688  0.446938  0.089956  1
  Ga  Ga19  1  0.624215  0.053111  0.589878  1
  Ga  Ga20  1  0.171738  0.750000  0.251569  1
  Ga  Ga21  1  0.328252  0.750000  0.751560  1
  Ga  Ga22  1  0.828256  0.250000  0.748400  1
  Ga  Ga23  1  0.671460  0.250000  0.248571  1
  Ga  Ga24  1  0.372940  0.750000  0.004551  1
  Ga  Ga25  1  0.127095  0.750000  0.504556  1
  Ga  Ga26  1  0.627061  0.250000  0.995480  1
  Ga  Ga27  1  0.873210  0.250000  0.495379  1
  Ga  Ga28  1  0.601902  0.750000  0.299085  1
  Ga  Ga29  1  0.898064  0.750000  0.799093  1
  Ga  Ga30  1  0.398057  0.250000  0.700815  1
  Ga  Ga31  1  0.101999  0.250000  0.201085  1
