# generated using pymatgen
data_CaDy3(ReB4)4
_symmetry_space_group_name_H-M   'P 1'
_cell_length_a   3.61163200
_cell_length_b   5.98277601
_cell_length_c   11.57816002
_cell_angle_alpha   90.00603534
_cell_angle_beta   90.00000000
_cell_angle_gamma   90.00000000
_symmetry_Int_Tables_number   1
_chemical_formula_structural   CaDy3(ReB4)4
_chemical_formula_sum   'Ca1 Dy3 Re4 B16'
_cell_volume   250.17607855
_cell_formula_units_Z   1
loop_
 _symmetry_equiv_pos_site_id
 _symmetry_equiv_pos_as_xyz
  1  'x, y, z'
loop_
 _atom_site_type_symbol
 _atom_site_label
 _atom_site_symmetry_multiplicity
 _atom_site_fract_x
 _atom_site_fract_y
 _atom_site_fract_z
 _atom_site_occupancy
  Ca  Ca0  1  0.000000  0.626931  0.349782  1
  Dy  Dy1  1  0.000000  0.373538  0.649948  1
  Dy  Dy2  1  0.000000  0.127923  0.150414  1
  Dy  Dy3  1  0.000000  0.872624  0.850075  1
  Re  Re4  1  0.000000  0.634041  0.086677  1
  Re  Re5  1  0.000000  0.366693  0.912155  1
  Re  Re6  1  0.000000  0.131986  0.415095  1
  Re  Re7  1  0.000000  0.869823  0.586498  1
  B  B8  1  0.500000  0.786172  0.184782  1
  B  B9  1  0.500000  0.213144  0.814936  1
  B  B10  1  0.500000  0.285869  0.315510  1
  B  B11  1  0.500000  0.712966  0.684268  1
  B  B12  1  0.500000  0.863503  0.031017  1
  B  B13  1  0.500000  0.136551  0.968708  1
  B  B14  1  0.500000  0.363697  0.468483  1
  B  B15  1  0.500000  0.636300  0.532033  1
  B  B16  1  0.500000  0.885109  0.452400  1
  B  B17  1  0.500000  0.113277  0.547103  1
  B  B18  1  0.500000  0.386503  0.047419  1
  B  B19  1  0.500000  0.613431  0.952622  1
  B  B20  1  0.500000  0.978148  0.308014  1
  B  B21  1  0.500000  0.022292  0.692219  1
  B  B22  1  0.500000  0.476123  0.192109  1
  B  B23  1  0.500000  0.523357  0.807734  1
