# generated using pymatgen
data_TbDy3Mn4F28
_symmetry_space_group_name_H-M   'P 1'
_cell_length_a   5.44238407
_cell_length_b   8.71741242
_cell_length_c   11.71539652
_cell_angle_alpha   62.45583926
_cell_angle_beta   89.98195096
_cell_angle_gamma   89.99376263
_symmetry_Int_Tables_number   1
_chemical_formula_structural   TbDy3Mn4F28
_chemical_formula_sum   'Tb1 Dy3 Mn4 F28'
_cell_volume   492.81992601
_cell_formula_units_Z   1
loop_
 _symmetry_equiv_pos_site_id
 _symmetry_equiv_pos_as_xyz
  1  'x, y, z'
loop_
 _atom_site_type_symbol
 _atom_site_label
 _atom_site_symmetry_multiplicity
 _atom_site_fract_x
 _atom_site_fract_y
 _atom_site_fract_z
 _atom_site_occupancy
  Tb  Tb0  1  0.761208  0.810309  0.764685  1
  Dy  Dy1  1  0.261596  0.190554  0.735276  1
  Dy  Dy2  1  0.238554  0.189822  0.235393  1
  Dy  Dy3  1  0.738513  0.810284  0.264618  1
  Mn  Mn4  1  0.758804  0.273041  0.956974  1
  Mn  Mn5  1  0.258419  0.726360  0.542842  1
  Mn  Mn6  1  0.241179  0.726181  0.043742  1
  Mn  Mn7  1  0.741093  0.273903  0.456541  1
  F  F8  1  0.430350  0.705262  0.922114  1
  F  F9  1  0.930751  0.294865  0.577902  1
  F  F10  1  0.569160  0.294316  0.078283  1
  F  F11  1  0.069190  0.705311  0.421307  1
  F  F12  1  0.454876  0.279780  0.539862  1
  F  F13  1  0.954820  0.720130  0.960761  1
  F  F14  1  0.545282  0.720493  0.459768  1
  F  F15  1  0.045251  0.279133  0.040245  1
  F  F16  1  0.774207  0.510965  0.862658  1
  F  F17  1  0.273720  0.488244  0.637230  1
  F  F18  1  0.226417  0.487988  0.137955  1
  F  F19  1  0.726155  0.512003  0.362225  1
  F  F20  1  0.756804  0.036576  0.047037  1
  F  F21  1  0.256583  0.962888  0.452947  1
  F  F22  1  0.243040  0.962619  0.953469  1
  F  F23  1  0.743196  0.037450  0.546515  1
  F  F24  1  0.979610  0.726756  0.631858  1
  F  F25  1  0.480185  0.272806  0.867583  1
  F  F26  1  0.019703  0.273071  0.367129  1
  F  F27  1  0.519962  0.727111  0.132832  1
  F  F28  1  0.054429  0.743396  0.169957  1
  F  F29  1  0.553996  0.256730  0.330336  1
  F  F30  1  0.945923  0.256164  0.830668  1
  F  F31  1  0.444341  0.743067  0.669309  1
  F  F32  1  0.408474  0.969505  0.228886  1
  F  F33  1  0.908437  0.030604  0.271166  1
  F  F34  1  0.592041  0.032350  0.771361  1
  F  F35  1  0.093729  0.969964  0.728568  1
