# generated using pymatgen
data_Hf4Sc3Co16P12W
_symmetry_space_group_name_H-M   'P 1'
_cell_length_a   11.99127153
_cell_length_b   11.99144348
_cell_length_c   3.62281000
_cell_angle_alpha   90.00000000
_cell_angle_beta   90.00000000
_cell_angle_gamma   119.94026427
_symmetry_Int_Tables_number   1
_chemical_formula_structural   Hf4Sc3Co16P12W
_chemical_formula_sum   'Hf4 Sc3 Co16 P12 W1'
_cell_volume   451.41293028
_cell_formula_units_Z   1
loop_
 _symmetry_equiv_pos_site_id
 _symmetry_equiv_pos_as_xyz
  1  'x, y, z'
loop_
 _atom_site_type_symbol
 _atom_site_label
 _atom_site_symmetry_multiplicity
 _atom_site_fract_x
 _atom_site_fract_y
 _atom_site_fract_z
 _atom_site_occupancy
  Hf  Hf0  1  0.819544  0.819937  0.500000  1
  Hf  Hf1  1  0.998474  0.175309  0.500000  1
  Hf  Hf2  1  0.000837  0.556154  0.000000  1
  Hf  Hf3  1  0.177100  0.998933  0.500000  1
  Sc  Sc4  1  0.556921  0.000520  0.000000  1
  Sc  Sc5  1  0.335859  0.666868  0.000000  1
  Sc  Sc6  1  0.666636  0.333908  0.000000  1
  Co  Co7  1  0.628114  0.819876  0.000000  1
  Co  Co8  1  0.369189  0.197031  0.000000  1
  Co  Co9  1  0.998630  0.721188  0.500000  1
  Co  Co10  1  0.279772  0.280129  0.500000  1
  Co  Co11  1  0.876497  0.353408  0.500000  1
  Co  Co12  1  0.720873  0.999002  0.500000  1
  Co  Co13  1  0.820468  0.628727  0.000000  1
  Co  Co14  1  0.176410  0.808307  0.000000  1
  Co  Co15  1  0.352990  0.876323  0.500000  1
  Co  Co16  1  0.130491  0.480594  0.500000  1
  Co  Co17  1  0.643860  0.517580  0.500000  1
  Co  Co18  1  0.999773  0.000225  0.000000  1
  Co  Co19  1  0.518011  0.644041  0.500000  1
  Co  Co20  1  0.479847  0.130582  0.500000  1
  Co  Co21  1  0.197170  0.369720  0.000000  1
  Co  Co22  1  0.807792  0.177425  0.000000  1
  P  P23  1  0.002738  0.346325  0.000000  1
  P  P24  1  0.825777  0.514677  0.500000  1
  P  P25  1  0.689222  0.172951  0.500000  1
  P  P26  1  0.173883  0.173793  0.000000  1
  P  P27  1  0.644568  0.644925  0.000000  1
  P  P28  1  0.823730  0.998055  0.000000  1
  P  P29  1  0.515357  0.827412  0.500000  1
  P  P30  1  0.174882  0.691002  0.500000  1
  P  P31  1  0.349580  0.003373  0.000000  1
  P  P32  1  0.482505  0.315464  0.500000  1
  P  P33  1  0.998047  0.825091  0.000000  1
  P  P34  1  0.316036  0.482907  0.500000  1
  W  W35  1  0.448416  0.448239  0.000000  1
