# generated using pymatgen
data_Tb3Y13Cd3HgPt4
_symmetry_space_group_name_H-M   'P 1'
_cell_length_a   9.69117062
_cell_length_b   9.70826028
_cell_length_c   9.70826047
_cell_angle_alpha   60.06936882
_cell_angle_beta   60.00548517
_cell_angle_gamma   60.00549014
_symmetry_Int_Tables_number   1
_chemical_formula_structural   Tb3Y13Cd3HgPt4
_chemical_formula_sum   'Tb3 Y13 Cd3 Hg1 Pt4'
_cell_volume   646.26002386
_cell_formula_units_Z   1
loop_
 _symmetry_equiv_pos_site_id
 _symmetry_equiv_pos_as_xyz
  1  'x, y, z'
loop_
 _atom_site_type_symbol
 _atom_site_label
 _atom_site_symmetry_multiplicity
 _atom_site_fract_x
 _atom_site_fract_y
 _atom_site_fract_z
 _atom_site_occupancy
  Tb  Tb0  1  0.350114  0.352382  0.352382  1
  Tb  Tb1  1  0.353315  0.355547  0.938206  1
  Tb  Tb2  1  0.353315  0.938206  0.355547  1
  Y  Y3  1  0.941698  0.353606  0.353606  1
  Y  Y4  1  0.809348  0.190704  0.190704  1
  Y  Y5  1  0.189324  0.810575  0.810575  1
  Y  Y6  1  0.190227  0.810947  0.189285  1
  Y  Y7  1  0.809096  0.189758  0.810423  1
  Y  Y8  1  0.190227  0.189285  0.810947  1
  Y  Y9  1  0.809096  0.810423  0.189758  1
  Y  Y10  1  0.934310  0.564630  0.564630  1
  Y  Y11  1  0.562548  0.937021  0.937021  1
  Y  Y12  1  0.563413  0.935411  0.563513  1
  Y  Y13  1  0.935705  0.563794  0.935845  1
  Y  Y14  1  0.563413  0.563513  0.935411  1
  Y  Y15  1  0.935705  0.935845  0.563794  1
  Cd  Cd16  1  0.582648  0.580450  0.253999  1
  Cd  Cd17  1  0.582648  0.253999  0.580450  1
  Cd  Cd18  1  0.254974  0.580840  0.580840  1
  Hg  Hg19  1  0.586844  0.584730  0.584730  1
  Pt  Pt20  1  0.146154  0.143263  0.143263  1
  Pt  Pt21  1  0.144324  0.141606  0.570067  1
  Pt  Pt22  1  0.144324  0.570067  0.141606  1
  Pt  Pt23  1  0.567231  0.143397  0.143397  1
