# generated using pymatgen
data_Sc2MnB2Ru5
_symmetry_space_group_name_H-M   'P 1'
_cell_length_a   9.34863100
_cell_length_b   9.34863100
_cell_length_c   3.01650600
_cell_angle_alpha   90.00000000
_cell_angle_beta   90.00000000
_cell_angle_gamma   90.00000000
_symmetry_Int_Tables_number   1
_chemical_formula_structural   Sc2MnB2Ru5
_chemical_formula_sum   'Sc4 Mn2 B4 Ru10'
_cell_volume   263.63327798
_cell_formula_units_Z   2
loop_
 _symmetry_equiv_pos_site_id
 _symmetry_equiv_pos_as_xyz
  1  'x, y, z'
loop_
 _atom_site_type_symbol
 _atom_site_label
 _atom_site_symmetry_multiplicity
 _atom_site_fract_x
 _atom_site_fract_y
 _atom_site_fract_z
 _atom_site_occupancy
  Sc  Sc0  1  0.674388  0.174388  0.000000  1
  Sc  Sc1  1  0.325612  0.825612  0.000000  1
  Sc  Sc2  1  0.174388  0.325612  0.000000  1
  Sc  Sc3  1  0.825612  0.674388  0.000000  1
  Mn  Mn4  1  0.000000  0.000000  0.000000  1
  Mn  Mn5  1  0.500000  0.500000  0.000000  1
  B  B6  1  0.123760  0.623760  0.000000  1
  B  B7  1  0.876240  0.376240  0.000000  1
  B  B8  1  0.623760  0.876240  0.000000  1
  B  B9  1  0.376240  0.123760  0.000000  1
  Ru  Ru10  1  0.212494  0.070823  0.500000  1
  Ru  Ru11  1  0.787506  0.929177  0.500000  1
  Ru  Ru12  1  0.070823  0.787506  0.500000  1
  Ru  Ru13  1  0.712494  0.429177  0.500000  1
  Ru  Ru14  1  0.929177  0.212494  0.500000  1
  Ru  Ru15  1  0.287506  0.570823  0.500000  1
  Ru  Ru16  1  0.570823  0.712494  0.500000  1
  Ru  Ru17  1  0.429177  0.287506  0.500000  1
  Ru  Ru18  1  0.500000  0.000000  0.500000  1
  Ru  Ru19  1  0.000000  0.500000  0.500000  1
