# generated using pymatgen
data_Tb3(H6Os)2
_symmetry_space_group_name_H-M   'P 1'
_cell_length_a   4.76495100
_cell_length_b   4.76495158
_cell_length_c   8.25085300
_cell_angle_alpha   90.00000000
_cell_angle_beta   90.00000000
_cell_angle_gamma   120.00000288
_symmetry_Int_Tables_number   1
_chemical_formula_structural   Tb3(H6Os)2
_chemical_formula_sum   'Tb3 H12 Os2'
_cell_volume   162.23568989
_cell_formula_units_Z   1
loop_
 _symmetry_equiv_pos_site_id
 _symmetry_equiv_pos_as_xyz
  1  'x, y, z'
loop_
 _atom_site_type_symbol
 _atom_site_label
 _atom_site_symmetry_multiplicity
 _atom_site_fract_x
 _atom_site_fract_y
 _atom_site_fract_z
 _atom_site_occupancy
  Tb  Tb0  1  0.000000  0.000000  0.000000  1
  Tb  Tb1  1  0.666667  0.333333  0.363832  1
  Tb  Tb2  1  0.333333  0.666667  0.636168  1
  H  H3  1  0.166076  0.833924  0.370242  1
  H  H4  1  0.667849  0.833924  0.370242  1
  H  H5  1  0.166076  0.332151  0.370242  1
  H  H6  1  0.833924  0.166076  0.629758  1
  H  H7  1  0.332151  0.166076  0.629758  1
  H  H8  1  0.833924  0.667849  0.629758  1
  H  H9  1  0.498468  0.996935  0.878624  1
  H  H10  1  0.498468  0.501532  0.878624  1
  H  H11  1  0.003065  0.501532  0.878624  1
  H  H12  1  0.501532  0.003065  0.121376  1
  H  H13  1  0.501532  0.498468  0.121376  1
  H  H14  1  0.996935  0.498468  0.121376  1
  Os  Os15  1  0.666667  0.333333  0.757300  1
  Os  Os16  1  0.333333  0.666667  0.242700  1
