# generated using pymatgen
data_Zr9ScCo8Si19As
_symmetry_space_group_name_H-M   'P 1'
_cell_length_a   12.01152654
_cell_length_b   12.01319454
_cell_length_c   3.93450600
_cell_angle_alpha   90.00000000
_cell_angle_beta   90.00000000
_cell_angle_gamma   90.05805245
_symmetry_Int_Tables_number   1
_chemical_formula_structural   Zr9ScCo8Si19As
_chemical_formula_sum   'Zr9 Sc1 Co8 Si19 As1'
_cell_volume   567.73635396
_cell_formula_units_Z   1
loop_
 _symmetry_equiv_pos_site_id
 _symmetry_equiv_pos_as_xyz
  1  'x, y, z'
loop_
 _atom_site_type_symbol
 _atom_site_label
 _atom_site_symmetry_multiplicity
 _atom_site_fract_x
 _atom_site_fract_y
 _atom_site_fract_z
 _atom_site_occupancy
  Zr  Zr0  1  0.000247  0.999926  0.000000  1
  Zr  Zr1  1  0.680181  0.181111  0.500000  1
  Zr  Zr2  1  0.179043  0.322164  0.500000  1
  Zr  Zr3  1  0.821144  0.678031  0.500000  1
  Zr  Zr4  1  0.320855  0.819941  0.500000  1
  Zr  Zr5  1  0.887107  0.387573  0.500000  1
  Zr  Zr6  1  0.382469  0.115583  0.500000  1
  Zr  Zr7  1  0.614908  0.881833  0.500000  1
  Zr  Zr8  1  0.113129  0.612584  0.500000  1
  Sc  Sc9  1  0.499945  0.500228  0.000000  1
  Co  Co10  1  0.526163  0.257618  0.000000  1
  Co  Co11  1  0.255977  0.473289  0.000000  1
  Co  Co12  1  0.744221  0.526908  0.000000  1
  Co  Co13  1  0.474138  0.744470  0.000000  1
  Co  Co14  1  0.972795  0.756079  0.000000  1
  Co  Co15  1  0.027383  0.244115  0.000000  1
  Co  Co16  1  0.757632  0.026763  0.000000  1
  Co  Co17  1  0.244391  0.973654  0.000000  1
  Si  Si18  1  0.068579  0.431805  0.000000  1
  Si  Si19  1  0.931533  0.568321  0.000000  1
  Si  Si20  1  0.428378  0.927997  0.000000  1
  Si  Si21  1  0.199545  0.154469  0.000000  1
  Si  Si22  1  0.153914  0.799963  0.000000  1
  Si  Si23  1  0.846741  0.200906  0.000000  1
  Si  Si24  1  0.800031  0.845146  0.000000  1
  Si  Si25  1  0.301936  0.652657  0.000000  1
  Si  Si26  1  0.698849  0.348029  0.000000  1
  Si  Si27  1  0.653136  0.697627  0.000000  1
  Si  Si28  1  0.346497  0.301974  0.000000  1
  Si  Si29  1  0.000463  0.165481  0.500000  1
  Si  Si30  1  0.164983  0.998943  0.500000  1
  Si  Si31  1  0.835993  0.000981  0.500000  1
  Si  Si32  1  0.000249  0.834481  0.500000  1
  Si  Si33  1  0.497101  0.661482  0.500000  1
  Si  Si34  1  0.503017  0.339507  0.500000  1
  Si  Si35  1  0.661912  0.502208  0.500000  1
  Si  Si36  1  0.338075  0.498369  0.500000  1
  As  As37  1  0.567340  0.067782  0.000000  1
