# generated using pymatgen
data_TbCe3(B4Os)4
_symmetry_space_group_name_H-M   'P 1'
_cell_length_a   6.00729799
_cell_length_b   11.65090892
_cell_length_c   3.61317600
_cell_angle_alpha   90.00000000
_cell_angle_beta   90.00000000
_cell_angle_gamma   89.93417267
_symmetry_Int_Tables_number   1
_chemical_formula_structural   TbCe3(B4Os)4
_chemical_formula_sum   'Tb1 Ce3 B16 Os4'
_cell_volume   252.88776204
_cell_formula_units_Z   1
loop_
 _symmetry_equiv_pos_site_id
 _symmetry_equiv_pos_as_xyz
  1  'x, y, z'
loop_
 _atom_site_type_symbol
 _atom_site_label
 _atom_site_symmetry_multiplicity
 _atom_site_fract_x
 _atom_site_fract_y
 _atom_site_fract_z
 _atom_site_occupancy
  Tb  Tb0  1  0.871684  0.850917  0.000000  1
  Ce  Ce1  1  0.628978  0.350208  0.000000  1
  Ce  Ce2  1  0.371294  0.650511  0.000000  1
  Ce  Ce3  1  0.128558  0.148786  0.000000  1
  B  B4  1  0.787243  0.185195  0.500000  1
  B  B5  1  0.212956  0.814109  0.500000  1
  B  B6  1  0.285498  0.313243  0.500000  1
  B  B7  1  0.714104  0.686619  0.500000  1
  B  B8  1  0.863105  0.030628  0.500000  1
  B  B9  1  0.137218  0.968462  0.500000  1
  B  B10  1  0.362177  0.469362  0.500000  1
  B  B11  1  0.637134  0.531190  0.500000  1
  B  B12  1  0.888070  0.454514  0.500000  1
  B  B13  1  0.111375  0.546645  0.500000  1
  B  B14  1  0.388433  0.044921  0.500000  1
  B  B15  1  0.612936  0.953225  0.500000  1
  B  B16  1  0.974184  0.309437  0.500000  1
  B  B17  1  0.025962  0.691343  0.500000  1
  B  B18  1  0.472045  0.189823  0.500000  1
  B  B19  1  0.527444  0.809594  0.500000  1
  Os  Os20  1  0.639772  0.094528  0.000000  1
  Os  Os21  1  0.359037  0.906520  0.000000  1
  Os  Os22  1  0.141180  0.405896  0.000000  1
  Os  Os23  1  0.859612  0.594325  0.000000  1
