# generated using pymatgen
data_Tm3Sc9In2Fe2Ir
_symmetry_space_group_name_H-M   'P 1'
_cell_length_a   7.94142184
_cell_length_b   7.94142168
_cell_length_c   7.92119100
_cell_angle_alpha   108.46501529
_cell_angle_beta   108.46501585
_cell_angle_gamma   111.60235357
_symmetry_Int_Tables_number   1
_chemical_formula_structural   Tm3Sc9In2Fe2Ir
_chemical_formula_sum   'Tm3 Sc9 In2 Fe2 Ir1'
_cell_volume   383.70621980
_cell_formula_units_Z   1
loop_
 _symmetry_equiv_pos_site_id
 _symmetry_equiv_pos_as_xyz
  1  'x, y, z'
loop_
 _atom_site_type_symbol
 _atom_site_label
 _atom_site_symmetry_multiplicity
 _atom_site_fract_x
 _atom_site_fract_y
 _atom_site_fract_z
 _atom_site_occupancy
  Tm  Tm0  1  0.696637  0.696637  0.393273  1
  Tm  Tm1  1  0.696149  0.302719  0.998868  1
  Tm  Tm2  1  0.302719  0.696149  0.998868  1
  Sc  Sc3  1  0.194482  0.429600  0.238569  1
  Sc  Sc4  1  0.802084  0.567150  0.762065  1
  Sc  Sc5  1  0.194915  0.959982  0.762065  1
  Sc  Sc6  1  0.959982  0.194915  0.762065  1
  Sc  Sc7  1  0.808969  0.044086  0.238569  1
  Sc  Sc8  1  0.044086  0.808969  0.238569  1
  Sc  Sc9  1  0.429600  0.194482  0.238569  1
  Sc  Sc10  1  0.567150  0.802084  0.762065  1
  Sc  Sc11  1  0.305621  0.305621  0.611243  1
  In  In12  1  0.001351  0.499873  0.501224  1
  In  In13  1  0.499873  0.001351  0.501224  1
  Fe  Fe14  1  0.377297  0.377297  0.996786  1
  Fe  Fe15  1  0.619489  0.619489  0.996786  1
  Ir  Ir16  1  0.999597  0.999597  0.999194  1
