# generated using pymatgen
data_Yb2VBrO4
_symmetry_space_group_name_H-M   'P 1'
_cell_length_a   6.27367300
_cell_length_b   7.14520100
_cell_length_c   11.16481400
_cell_angle_alpha   90.00000000
_cell_angle_beta   90.00000000
_cell_angle_gamma   90.00000000
_symmetry_Int_Tables_number   1
_chemical_formula_structural   Yb2VBrO4
_chemical_formula_sum   'Yb8 V4 Br4 O16'
_cell_volume   500.48126078
_cell_formula_units_Z   4
loop_
 _symmetry_equiv_pos_site_id
 _symmetry_equiv_pos_as_xyz
  1  'x, y, z'
loop_
 _atom_site_type_symbol
 _atom_site_label
 _atom_site_symmetry_multiplicity
 _atom_site_fract_x
 _atom_site_fract_y
 _atom_site_fract_z
 _atom_site_occupancy
  Yb  Yb0  1  0.620380  0.250000  0.000000  1
  Yb  Yb1  1  0.379620  0.750000  0.000000  1
  Yb  Yb2  1  0.379620  0.750000  0.500000  1
  Yb  Yb3  1  0.620380  0.250000  0.500000  1
  Yb  Yb4  1  0.122149  0.025676  0.250000  1
  Yb  Yb5  1  0.877851  0.974324  0.750000  1
  Yb  Yb6  1  0.877851  0.525676  0.250000  1
  Yb  Yb7  1  0.122149  0.474324  0.750000  1
  V  V8  1  0.122782  0.250000  0.000000  1
  V  V9  1  0.877218  0.750000  0.000000  1
  V  V10  1  0.877218  0.750000  0.500000  1
  V  V11  1  0.122782  0.250000  0.500000  1
  Br  Br12  1  0.461647  0.333757  0.250000  1
  Br  Br13  1  0.538353  0.666243  0.750000  1
  Br  Br14  1  0.538353  0.833757  0.250000  1
  Br  Br15  1  0.461647  0.166243  0.750000  1
  O  O16  1  0.045411  0.765385  0.124821  1
  O  O17  1  0.954589  0.234615  0.875179  1
  O  O18  1  0.954589  0.234615  0.624821  1
  O  O19  1  0.954589  0.265385  0.375179  1
  O  O20  1  0.045411  0.765385  0.375179  1
  O  O21  1  0.045411  0.734615  0.624821  1
  O  O22  1  0.045411  0.734615  0.875179  1
  O  O23  1  0.954589  0.265385  0.124821  1
  O  O24  1  0.290097  0.063062  0.029539  1
  O  O25  1  0.709903  0.936938  0.970461  1
  O  O26  1  0.709903  0.936938  0.529539  1
  O  O27  1  0.709903  0.563062  0.470461  1
  O  O28  1  0.290097  0.063062  0.470461  1
  O  O29  1  0.290097  0.436938  0.529539  1
  O  O30  1  0.290097  0.436938  0.970461  1
  O  O31  1  0.709903  0.563062  0.029539  1
