# generated using pymatgen
data_EuMoBrO4
_symmetry_space_group_name_H-M   'P 1'
_cell_length_a   6.79616947
_cell_length_b   6.79617136
_cell_length_c   7.11233767
_cell_angle_alpha   77.46734194
_cell_angle_beta   77.46734920
_cell_angle_gamma   67.42557436
_symmetry_Int_Tables_number   1
_chemical_formula_structural   EuMoBrO4
_chemical_formula_sum   'Eu2 Mo2 Br2 O8'
_cell_volume   292.83179059
_cell_formula_units_Z   2
loop_
 _symmetry_equiv_pos_site_id
 _symmetry_equiv_pos_as_xyz
  1  'x, y, z'
loop_
 _atom_site_type_symbol
 _atom_site_label
 _atom_site_symmetry_multiplicity
 _atom_site_fract_x
 _atom_site_fract_y
 _atom_site_fract_z
 _atom_site_occupancy
  Eu  Eu0  1  0.251680  0.251680  0.862447  1
  Eu  Eu1  1  0.748320  0.748320  0.137553  1
  Mo  Mo2  1  0.636442  0.636442  0.738344  1
  Mo  Mo3  1  0.363558  0.363558  0.261656  1
  Br  Br4  1  0.010971  0.010971  0.211249  1
  Br  Br5  1  0.989029  0.989029  0.788751  1
  O  O6  1  0.119762  0.491521  0.149612  1
  O  O7  1  0.880238  0.508479  0.850388  1
  O  O8  1  0.527218  0.527218  0.207450  1
  O  O9  1  0.700415  0.700415  0.481228  1
  O  O10  1  0.472782  0.472782  0.792550  1
  O  O11  1  0.299585  0.299585  0.518772  1
  O  O12  1  0.508479  0.880238  0.850388  1
  O  O13  1  0.491521  0.119762  0.149612  1
