# generated using pymatgen
data_Y6Fe7Co16
_symmetry_space_group_name_H-M   'P 1'
_cell_length_a   8.38607322
_cell_length_b   8.37918552
_cell_length_c   8.37918500
_cell_angle_alpha   60.04829219
_cell_angle_beta   59.97279909
_cell_angle_gamma   59.97280035
_symmetry_Int_Tables_number   1
_chemical_formula_structural   Y6Fe7Co16
_chemical_formula_sum   'Y6 Fe7 Co16'
_cell_volume   416.31943415
_cell_formula_units_Z   1
loop_
 _symmetry_equiv_pos_site_id
 _symmetry_equiv_pos_as_xyz
  1  'x, y, z'
loop_
 _atom_site_type_symbol
 _atom_site_label
 _atom_site_symmetry_multiplicity
 _atom_site_fract_x
 _atom_site_fract_y
 _atom_site_fract_z
 _atom_site_occupancy
  Y  Y0  1  0.711497  0.288367  0.288367  1
  Y  Y1  1  0.288233  0.711633  0.711633  1
  Y  Y2  1  0.287919  0.712117  0.287883  1
  Y  Y3  1  0.287919  0.287883  0.712117  1
  Y  Y4  1  0.711845  0.287783  0.712217  1
  Y  Y5  1  0.711845  0.712217  0.287783  1
  Fe  Fe6  1  0.500330  0.000000  0.000000  1
  Fe  Fe7  1  0.000385  0.500000  0.500000  1
  Fe  Fe8  1  0.999969  0.500383  0.999605  1
  Fe  Fe9  1  0.999969  0.999605  0.500383  1
  Fe  Fe10  1  0.499958  0.000395  0.499617  1
  Fe  Fe11  1  0.499958  0.499617  0.000395  1
  Fe  Fe12  1  0.000025  0.000000  0.000000  1
  Co  Co13  1  0.322928  0.322853  0.322853  1
  Co  Co14  1  0.322621  0.322931  0.031386  1
  Co  Co15  1  0.031635  0.322600  0.322600  1
  Co  Co16  1  0.322621  0.031386  0.322931  1
  Co  Co17  1  0.676833  0.677400  0.677400  1
  Co  Co18  1  0.676936  0.677069  0.968614  1
  Co  Co19  1  0.676936  0.968614  0.677069  1
  Co  Co20  1  0.968633  0.677147  0.677147  1
  Co  Co21  1  0.123505  0.123544  0.123544  1
  Co  Co22  1  0.123562  0.123277  0.629724  1
  Co  Co23  1  0.629905  0.123424  0.123424  1
  Co  Co24  1  0.123562  0.629724  0.123277  1
  Co  Co25  1  0.876752  0.876576  0.876576  1
  Co  Co26  1  0.876564  0.876723  0.370276  1
  Co  Co27  1  0.876564  0.370276  0.876723  1
  Co  Co28  1  0.370594  0.876456  0.876456  1
