# generated using pymatgen
data_Ba(YbBi)2
_symmetry_space_group_name_H-M   'P 1'
_cell_length_a   5.30559800
_cell_length_b   5.30559880
_cell_length_c   8.50588800
_cell_angle_alpha   90.00000000
_cell_angle_beta   90.00000000
_cell_angle_gamma   120.00000746
_symmetry_Int_Tables_number   1
_chemical_formula_structural   Ba(YbBi)2
_chemical_formula_sum   'Ba1 Yb2 Bi2'
_cell_volume   207.35714579
_cell_formula_units_Z   1
loop_
 _symmetry_equiv_pos_site_id
 _symmetry_equiv_pos_as_xyz
  1  'x, y, z'
loop_
 _atom_site_type_symbol
 _atom_site_label
 _atom_site_symmetry_multiplicity
 _atom_site_fract_x
 _atom_site_fract_y
 _atom_site_fract_z
 _atom_site_occupancy
  Ba  Ba0  1  0.000000  0.000000  0.000000  1
  Yb  Yb1  1  0.666667  0.333333  0.365431  1
  Yb  Yb2  1  0.333333  0.666667  0.634569  1
  Bi  Bi3  1  0.333333  0.666667  0.247829  1
  Bi  Bi4  1  0.666667  0.333333  0.752171  1
