# generated using pymatgen
data_Ho2Al16RuPt8
_symmetry_space_group_name_H-M   'P 1'
_cell_length_a   11.11462239
_cell_length_b   11.11462367
_cell_length_c   11.11462369
_cell_angle_alpha   158.43062411
_cell_angle_beta   116.46382089
_cell_angle_gamma   67.93824526
_symmetry_Int_Tables_number   1
_chemical_formula_structural   Ho2Al16RuPt8
_chemical_formula_sum   'Ho2 Al16 Ru1 Pt8'
_cell_volume   448.72210718
_cell_formula_units_Z   1
loop_
 _symmetry_equiv_pos_site_id
 _symmetry_equiv_pos_as_xyz
  1  'x, y, z'
loop_
 _atom_site_type_symbol
 _atom_site_label
 _atom_site_symmetry_multiplicity
 _atom_site_fract_x
 _atom_site_fract_y
 _atom_site_fract_z
 _atom_site_occupancy
  Ho  Ho0  1  0.229433  0.229612  0.999822  1
  Ho  Ho1  1  0.770210  0.770388  0.999822  1
  Al  Al2  1  0.272852  0.390444  0.882408  1
  Al  Al3  1  0.089453  0.922408  0.167046  1
  Al  Al4  1  0.508690  0.203108  0.305582  1
  Al  Al5  1  0.244638  0.077592  0.167046  1
  Al  Al6  1  0.910415  0.415703  0.494712  1
  Al  Al7  1  0.724995  0.601514  0.123480  1
  Al  Al8  1  0.899292  0.207108  0.692184  1
  Al  Al9  1  0.485076  0.792892  0.692184  1
  Al  Al10  1  0.388062  0.000000  0.388062  1
  Al  Al11  1  0.625260  0.000000  0.625260  1
  Al  Al12  1  0.491964  0.609556  0.882408  1
  Al  Al13  1  0.102474  0.796892  0.305582  1
  Al  Al14  1  0.904815  0.083104  0.821712  1
  Al  Al15  1  0.738608  0.916896  0.821712  1
  Al  Al16  1  0.521966  0.398486  0.123480  1
  Al  Al17  1  0.079008  0.584297  0.494712  1
  Ru  Ru18  1  0.775098  0.500000  0.275098  1
  Pt  Pt19  1  0.022345  0.341542  0.680803  1
  Pt  Pt20  1  0.629108  0.127226  0.501883  1
  Pt  Pt21  1  0.254204  0.500000  0.754204  1
  Pt  Pt22  1  0.374657  0.872774  0.501883  1
  Pt  Pt23  1  0.988316  0.000000  0.988316  1
  Pt  Pt24  1  0.652010  0.337110  0.314899  1
  Pt  Pt25  1  0.339260  0.658458  0.680803  1
  Pt  Pt26  1  0.977790  0.662890  0.314899  1
