# generated using pymatgen
data_Er10Si16Ge
_symmetry_space_group_name_H-M   'P 1'
_cell_length_a   10.96215717
_cell_length_b   10.95106789
_cell_length_c   10.96215665
_cell_angle_alpha   144.78622643
_cell_angle_beta   136.01757119
_cell_angle_gamma   57.56956538
_symmetry_Int_Tables_number   1
_chemical_formula_structural   Er10Si16Ge
_chemical_formula_sum   'Er10 Si16 Ge1'
_cell_volume   522.56644203
_cell_formula_units_Z   1
loop_
 _symmetry_equiv_pos_site_id
 _symmetry_equiv_pos_as_xyz
  1  'x, y, z'
loop_
 _atom_site_type_symbol
 _atom_site_label
 _atom_site_symmetry_multiplicity
 _atom_site_fract_x
 _atom_site_fract_y
 _atom_site_fract_z
 _atom_site_occupancy
  Er  Er0  1  0.755735  0.759384  0.515508  1
  Er  Er1  1  0.448525  0.964061  0.013351  1
  Er  Er2  1  0.848579  0.367895  0.016645  1
  Er  Er3  1  0.950709  0.964061  0.515536  1
  Er  Er4  1  0.151302  0.166952  0.519300  1
  Er  Er5  1  0.351250  0.367895  0.519315  1
  Er  Er6  1  0.243876  0.759384  0.003650  1
  Er  Er7  1  0.548961  0.561837  0.509298  1
  Er  Er8  1  0.052538  0.561837  0.012876  1
  Er  Er9  1  0.647651  0.166952  0.015649  1
  Si  Si10  1  0.199649  0.574294  0.374643  1
  Si  Si11  1  0.000283  0.080535  0.080252  1
  Si  Si12  1  0.698503  0.289615  0.591113  1
  Si  Si13  1  0.800311  0.177047  0.376736  1
  Si  Si14  1  0.895426  0.504151  0.608725  1
  Si  Si15  1  0.419187  0.875972  0.456786  1
  Si  Si16  1  0.104653  0.713835  0.609182  1
  Si  Si17  1  0.300977  0.896297  0.595320  1
  Si  Si18  1  0.579782  0.038477  0.458695  1
  Si  Si19  1  0.999925  0.430744  0.430819  1
  Si  Si20  1  0.879768  0.843658  0.963890  1
  Si  Si21  1  0.399907  0.500481  0.100574  1
  Si  Si22  1  0.121518  0.088064  0.966546  1
  Si  Si23  1  0.284630  0.241738  0.957109  1
  Si  Si24  1  0.499751  0.384336  0.884585  1
  Si  Si25  1  0.598619  0.702133  0.103515  1
  Ge  Ge26  1  0.717983  0.679864  0.961881  1
