# generated using pymatgen
data_Tm3Sc3Bi2Ru
_symmetry_space_group_name_H-M   'P 1'
_cell_length_a   7.94985400
_cell_length_b   7.94985355
_cell_length_c   4.16944600
_cell_angle_alpha   90.00000000
_cell_angle_beta   90.00000000
_cell_angle_gamma   120.00000188
_symmetry_Int_Tables_number   1
_chemical_formula_structural   Tm3Sc3Bi2Ru
_chemical_formula_sum   'Tm3 Sc3 Bi2 Ru1'
_cell_volume   228.20610477
_cell_formula_units_Z   1
loop_
 _symmetry_equiv_pos_site_id
 _symmetry_equiv_pos_as_xyz
  1  'x, y, z'
loop_
 _atom_site_type_symbol
 _atom_site_label
 _atom_site_symmetry_multiplicity
 _atom_site_fract_x
 _atom_site_fract_y
 _atom_site_fract_z
 _atom_site_occupancy
  Tm  Tm0  1  0.000000  0.615402  0.500000  1
  Tm  Tm1  1  0.384598  0.384598  0.500000  1
  Tm  Tm2  1  0.615402  0.000000  0.500000  1
  Sc  Sc3  1  0.226787  0.000000  0.000000  1
  Sc  Sc4  1  0.000000  0.226787  0.000000  1
  Sc  Sc5  1  0.773213  0.773213  0.000000  1
  Bi  Bi6  1  0.666667  0.333333  0.000000  1
  Bi  Bi7  1  0.333333  0.666667  0.000000  1
  Ru  Ru8  1  0.000000  0.000000  0.500000  1
