# generated using pymatgen
data_Pr5Y3(ErBi)12
_symmetry_space_group_name_H-M   'P 1'
_cell_length_a   8.33501322
_cell_length_b   9.52503900
_cell_length_c   12.22769931
_cell_angle_alpha   90.00000000
_cell_angle_beta   89.97396406
_cell_angle_gamma   90.00000000
_symmetry_Int_Tables_number   1
_chemical_formula_structural   Pr5Y3(ErBi)12
_chemical_formula_sum   'Pr5 Y3 Er12 Bi12'
_cell_volume   970.77316164
_cell_formula_units_Z   1
loop_
 _symmetry_equiv_pos_site_id
 _symmetry_equiv_pos_as_xyz
  1  'x, y, z'
loop_
 _atom_site_type_symbol
 _atom_site_label
 _atom_site_symmetry_multiplicity
 _atom_site_fract_x
 _atom_site_fract_y
 _atom_site_fract_z
 _atom_site_occupancy
  Pr  Pr0  1  0.183035  0.750000  0.719112  1
  Pr  Pr1  1  0.684658  0.750000  0.778739  1
  Pr  Pr2  1  0.817637  0.250000  0.280195  1
  Pr  Pr3  1  0.316804  0.250000  0.220196  1
  Pr  Pr4  1  0.353847  0.750000  0.216407  1
  Y  Y5  1  0.851664  0.750000  0.282643  1
  Y  Y6  1  0.647595  0.250000  0.782992  1
  Y  Y7  1  0.147242  0.250000  0.717528  1
  Er  Er8  1  0.023701  0.750000  0.987814  1
  Er  Er9  1  0.524114  0.750000  0.513435  1
  Er  Er10  1  0.975320  0.250000  0.010938  1
  Er  Er11  1  0.476398  0.250000  0.489445  1
  Er  Er12  1  0.307872  0.435152  0.939576  1
  Er  Er13  1  0.808555  0.064877  0.561057  1
  Er  Er14  1  0.691331  0.934794  0.059149  1
  Er  Er15  1  0.191829  0.564532  0.440876  1
  Er  Er16  1  0.691331  0.565206  0.059149  1
  Er  Er17  1  0.191829  0.935468  0.440876  1
  Er  Er18  1  0.307872  0.064848  0.939576  1
  Er  Er19  1  0.808555  0.435123  0.561057  1
  Bi  Bi20  1  0.434373  0.008985  0.670711  1
  Bi  Bi21  1  0.934317  0.491238  0.829336  1
  Bi  Bi22  1  0.568668  0.505969  0.332974  1
  Bi  Bi23  1  0.062461  0.993099  0.169659  1
  Bi  Bi24  1  0.568668  0.994031  0.332974  1
  Bi  Bi25  1  0.062461  0.506901  0.169659  1
  Bi  Bi26  1  0.434373  0.491015  0.670711  1
  Bi  Bi27  1  0.934317  0.008762  0.829336  1
  Bi  Bi28  1  0.404958  0.750000  0.957090  1
  Bi  Bi29  1  0.904916  0.750000  0.536346  1
  Bi  Bi30  1  0.594359  0.250000  0.037000  1
  Bi  Bi31  1  0.094943  0.250000  0.463443  1
