# generated using pymatgen
data_Tm2Mn3Fe5Co4P7
_symmetry_space_group_name_H-M   'P 1'
_cell_length_a   9.03839324
_cell_length_b   9.02626429
_cell_length_c   3.58409200
_cell_angle_alpha   90.00000000
_cell_angle_beta   90.00000000
_cell_angle_gamma   119.84765394
_symmetry_Int_Tables_number   1
_chemical_formula_structural   Tm2Mn3Fe5Co4P7
_chemical_formula_sum   'Tm2 Mn3 Fe5 Co4 P7'
_cell_volume   253.61428780
_cell_formula_units_Z   1
loop_
 _symmetry_equiv_pos_site_id
 _symmetry_equiv_pos_as_xyz
  1  'x, y, z'
loop_
 _atom_site_type_symbol
 _atom_site_label
 _atom_site_symmetry_multiplicity
 _atom_site_fract_x
 _atom_site_fract_y
 _atom_site_fract_z
 _atom_site_occupancy
  Tm  Tm0  1  0.332799  0.666213  0.000000  1
  Tm  Tm1  1  0.000490  0.000354  0.500000  1
  Mn  Mn2  1  0.770443  0.209584  0.500000  1
  Mn  Mn3  1  0.443626  0.230648  0.500000  1
  Mn  Mn4  1  0.786601  0.557477  0.500000  1
  Fe  Fe5  1  0.237160  0.275237  0.000000  1
  Fe  Fe6  1  0.038060  0.763328  0.000000  1
  Fe  Fe7  1  0.940734  0.451582  0.000000  1
  Fe  Fe8  1  0.510197  0.057202  0.000000  1
  Fe  Fe9  1  0.547859  0.490181  0.000000  1
  Co  Co10  1  0.726776  0.962191  0.000000  1
  Co  Co11  1  0.104387  0.386598  0.500000  1
  Co  Co12  1  0.280906  0.895564  0.500000  1
  Co  Co13  1  0.614357  0.720119  0.500000  1
  P  P14  1  0.968052  0.221286  0.000000  1
  P  P15  1  0.253494  0.034542  0.000000  1
  P  P16  1  0.781488  0.745690  0.000000  1
  P  P17  1  0.072135  0.622873  0.500000  1
  P  P18  1  0.546965  0.926883  0.500000  1
  P  P19  1  0.377256  0.449974  0.500000  1
  P  P20  1  0.666220  0.332474  0.000000  1
