# generated using pymatgen
data_Ti3AlSiIrN
_symmetry_space_group_name_H-M   'P 1'
_cell_length_a   8.08494496
_cell_length_b   8.07317124
_cell_length_c   8.08494500
_cell_angle_alpha   59.95174952
_cell_angle_beta   60.00000393
_cell_angle_gamma   59.95174584
_symmetry_Int_Tables_number   1
_chemical_formula_structural   Ti3AlSiIrN
_chemical_formula_sum   'Ti12 Al4 Si4 Ir4 N4'
_cell_volume   372.87750694
_cell_formula_units_Z   4
loop_
 _symmetry_equiv_pos_site_id
 _symmetry_equiv_pos_as_xyz
  1  'x, y, z'
loop_
 _atom_site_type_symbol
 _atom_site_label
 _atom_site_symmetry_multiplicity
 _atom_site_fract_x
 _atom_site_fract_y
 _atom_site_fract_z
 _atom_site_occupancy
  Ti  Ti0  1  0.814753  0.814317  0.185465  1
  Ti  Ti1  1  0.063116  0.437027  0.436741  1
  Ti  Ti2  1  0.436087  0.061090  0.066736  1
  Ti  Ti3  1  0.066736  0.061090  0.436087  1
  Ti  Ti4  1  0.063116  0.437027  0.063116  1
  Ti  Ti5  1  0.436087  0.061090  0.436087  1
  Ti  Ti6  1  0.185465  0.814317  0.185465  1
  Ti  Ti7  1  0.185465  0.814317  0.814753  1
  Ti  Ti8  1  0.814083  0.182828  0.189005  1
  Ti  Ti9  1  0.814083  0.182828  0.814083  1
  Ti  Ti10  1  0.436741  0.437027  0.063116  1
  Ti  Ti11  1  0.189005  0.182828  0.814083  1
  Al  Al12  1  0.753159  0.413575  0.416632  1
  Al  Al13  1  0.416632  0.413575  0.416632  1
  Al  Al14  1  0.416632  0.413575  0.753159  1
  Al  Al15  1  0.834688  0.495937  0.834688  1
  Si  Si16  1  0.414374  0.756875  0.414374  1
  Si  Si17  1  0.839091  0.833965  0.487856  1
  Si  Si18  1  0.487856  0.833965  0.839091  1
  Si  Si19  1  0.839091  0.833965  0.839091  1
  Ir  Ir20  1  0.630143  0.109572  0.630143  1
  Ir  Ir21  1  0.621569  0.635934  0.120928  1
  Ir  Ir22  1  0.120928  0.635934  0.621569  1
  Ir  Ir23  1  0.621569  0.635934  0.621569  1
  N  N24  1  0.125059  0.624822  0.125059  1
  N  N25  1  0.125226  0.125528  0.624020  1
  N  N26  1  0.624020  0.125528  0.125226  1
  N  N27  1  0.125226  0.125528  0.125226  1
