# generated using pymatgen
data_ErTmZn14Ni3
_symmetry_space_group_name_H-M   'P 1'
_cell_length_a   6.64936566
_cell_length_b   6.64910915
_cell_length_c   6.64907400
_cell_angle_alpha   82.64639028
_cell_angle_beta   97.35841578
_cell_angle_gamma   97.36319501
_symmetry_Int_Tables_number   1
_chemical_formula_structural   ErTmZn14Ni3
_chemical_formula_sum   'Er1 Tm1 Zn14 Ni3'
_cell_volume   287.27948942
_cell_formula_units_Z   1
loop_
 _symmetry_equiv_pos_site_id
 _symmetry_equiv_pos_as_xyz
  1  'x, y, z'
loop_
 _atom_site_type_symbol
 _atom_site_label
 _atom_site_symmetry_multiplicity
 _atom_site_fract_x
 _atom_site_fract_y
 _atom_site_fract_z
 _atom_site_occupancy
  Er  Er0  1  0.662234  0.337704  0.337767  1
  Tm  Tm1  1  0.336810  0.663158  0.663189  1
  Zn  Zn2  1  0.296040  0.295881  0.999849  1
  Zn  Zn3  1  0.704040  0.704014  0.999885  1
  Zn  Zn4  1  0.893592  0.106255  0.106273  1
  Zn  Zn5  1  0.348282  0.651777  0.149652  1
  Zn  Zn6  1  0.000112  0.703994  0.295942  1
  Zn  Zn7  1  0.296027  0.999848  0.295919  1
  Zn  Zn8  1  0.651619  0.850229  0.348287  1
  Zn  Zn9  1  0.149804  0.348328  0.348348  1
  Zn  Zn10  1  0.850335  0.651774  0.651744  1
  Zn  Zn11  1  0.348242  0.149619  0.651763  1
  Zn  Zn12  1  0.000134  0.295919  0.703991  1
  Zn  Zn13  1  0.704036  0.999863  0.704032  1
  Zn  Zn14  1  0.651629  0.348273  0.850237  1
  Zn  Zn15  1  0.106320  0.893729  0.893699  1
  Ni  Ni16  1  0.499692  0.999745  0.999476  1
  Ni  Ni17  1  0.000731  0.500284  0.999741  1
  Ni  Ni18  1  0.000319  0.999602  0.500203  1
