# generated using pymatgen
data_LaNdZn5Ga
_symmetry_space_group_name_H-M   'P 1'
_cell_length_a   8.45017804
_cell_length_b   8.45017801
_cell_length_c   8.93133700
_cell_angle_alpha   90.00000000
_cell_angle_beta   90.00000000
_cell_angle_gamma   148.91676101
_symmetry_Int_Tables_number   1
_chemical_formula_structural   LaNdZn5Ga
_chemical_formula_sum   'La2 Nd2 Zn10 Ga2'
_cell_volume   329.25764380
_cell_formula_units_Z   2
loop_
 _symmetry_equiv_pos_site_id
 _symmetry_equiv_pos_as_xyz
  1  'x, y, z'
loop_
 _atom_site_type_symbol
 _atom_site_label
 _atom_site_symmetry_multiplicity
 _atom_site_fract_x
 _atom_site_fract_y
 _atom_site_fract_z
 _atom_site_occupancy
  La  La0  1  0.000000  0.000000  0.500000  1
  La  La1  1  0.000000  0.000000  0.000000  1
  Nd  Nd2  1  0.205263  0.794737  0.250000  1
  Nd  Nd3  1  0.794737  0.205263  0.750000  1
  Zn  Zn4  1  0.813715  0.186285  0.393345  1
  Zn  Zn5  1  0.186285  0.813715  0.606655  1
  Zn  Zn6  1  0.813715  0.186285  0.106655  1
  Zn  Zn7  1  0.186285  0.813715  0.893345  1
  Zn  Zn8  1  0.651289  0.348711  0.480089  1
  Zn  Zn9  1  0.348711  0.651289  0.519911  1
  Zn  Zn10  1  0.651289  0.348711  0.019911  1
  Zn  Zn11  1  0.348711  0.651289  0.980089  1
  Zn  Zn12  1  0.404007  0.595993  0.250000  1
  Zn  Zn13  1  0.595993  0.404007  0.750000  1
  Ga  Ga14  1  0.560604  0.439396  0.250000  1
  Ga  Ga15  1  0.439396  0.560604  0.750000  1
