# generated using pymatgen
data_Ca2Eu8Cr(InSb4)3
_symmetry_space_group_name_H-M   'P 1'
_cell_length_a   4.65996300
_cell_length_b   12.33819600
_cell_length_c   14.66113600
_cell_angle_alpha   90.00000000
_cell_angle_beta   90.00000000
_cell_angle_gamma   90.00000000
_symmetry_Int_Tables_number   1
_chemical_formula_structural   Ca2Eu8Cr(InSb4)3
_chemical_formula_sum   'Ca2 Eu8 Cr1 In3 Sb12'
_cell_volume   842.94988510
_cell_formula_units_Z   1
loop_
 _symmetry_equiv_pos_site_id
 _symmetry_equiv_pos_as_xyz
  1  'x, y, z'
loop_
 _atom_site_type_symbol
 _atom_site_label
 _atom_site_symmetry_multiplicity
 _atom_site_fract_x
 _atom_site_fract_y
 _atom_site_fract_z
 _atom_site_occupancy
  Ca  Ca0  1  0.000000  0.000000  0.000000  1
  Ca  Ca1  1  0.000000  0.500000  0.500000  1
  Eu  Eu2  1  0.000000  0.671631  0.980748  1
  Eu  Eu3  1  0.000000  0.828369  0.480748  1
  Eu  Eu4  1  0.000000  0.411002  0.748263  1
  Eu  Eu5  1  0.000000  0.911002  0.751737  1
  Eu  Eu6  1  0.000000  0.588998  0.251737  1
  Eu  Eu7  1  0.000000  0.171631  0.519252  1
  Eu  Eu8  1  0.000000  0.088998  0.248263  1
  Eu  Eu9  1  0.000000  0.328369  0.019252  1
  Cr  Cr10  1  0.500000  0.664538  0.785050  1
  In  In11  1  0.500000  0.164538  0.714950  1
  In  In12  1  0.500000  0.835462  0.285050  1
  In  In13  1  0.500000  0.335462  0.214950  1
  Sb  Sb14  1  0.500000  0.965287  0.597520  1
  Sb  Sb15  1  0.500000  0.850135  0.908726  1
  Sb  Sb16  1  0.000000  0.663204  0.668514  1
  Sb  Sb17  1  0.500000  0.465287  0.902480  1
  Sb  Sb18  1  0.500000  0.649865  0.408726  1
  Sb  Sb19  1  0.500000  0.149865  0.091274  1
  Sb  Sb20  1  0.500000  0.034713  0.402480  1
  Sb  Sb21  1  0.000000  0.163204  0.831486  1
  Sb  Sb22  1  0.000000  0.836796  0.168514  1
  Sb  Sb23  1  0.500000  0.534713  0.097520  1
  Sb  Sb24  1  0.500000  0.350135  0.591274  1
  Sb  Sb25  1  0.000000  0.336796  0.331486  1
