# generated using pymatgen
data_Tm8Ta5Nb7Ge16
_symmetry_space_group_name_H-M   'P 1'
_cell_length_a   6.96188234
_cell_length_b   7.13180631
_cell_length_c   13.51437615
_cell_angle_alpha   89.99117384
_cell_angle_beta   90.01473298
_cell_angle_gamma   89.96728238
_symmetry_Int_Tables_number   1
_chemical_formula_structural   Tm8Ta5Nb7Ge16
_chemical_formula_sum   'Tm8 Ta5 Nb7 Ge16'
_cell_volume   670.99939956
_cell_formula_units_Z   1
loop_
 _symmetry_equiv_pos_site_id
 _symmetry_equiv_pos_as_xyz
  1  'x, y, z'
loop_
 _atom_site_type_symbol
 _atom_site_label
 _atom_site_symmetry_multiplicity
 _atom_site_fract_x
 _atom_site_fract_y
 _atom_site_fract_z
 _atom_site_occupancy
  Tm  Tm0  1  0.494385  0.675010  0.593834  1
  Tm  Tm1  1  0.994469  0.825221  0.906023  1
  Tm  Tm2  1  0.505538  0.325233  0.093832  1
  Tm  Tm3  1  0.005616  0.174626  0.406120  1
  Tm  Tm4  1  0.505783  0.325012  0.406192  1
  Tm  Tm5  1  0.005695  0.174947  0.093779  1
  Tm  Tm6  1  0.494380  0.674780  0.906015  1
  Tm  Tm7  1  0.994188  0.825625  0.593930  1
  Ta  Ta8  1  0.158836  0.330346  0.626587  1
  Ta  Ta9  1  0.836178  0.487096  0.749767  1
  Ta  Ta10  1  0.335285  0.013213  0.749934  1
  Ta  Ta11  1  0.164290  0.512919  0.250146  1
  Ta  Ta12  1  0.664296  0.986973  0.250029  1
  Nb  Nb13  1  0.659763  0.169320  0.626168  1
  Nb  Nb14  1  0.159533  0.330688  0.873643  1
  Nb  Nb15  1  0.340545  0.830478  0.126290  1
  Nb  Nb16  1  0.840841  0.669161  0.373712  1
  Nb  Nb17  1  0.340778  0.830669  0.373851  1
  Nb  Nb18  1  0.840320  0.669410  0.126299  1
  Nb  Nb19  1  0.659522  0.169516  0.873632  1
  Ge  Ge20  1  0.677567  0.962572  0.458129  1
  Ge  Ge21  1  0.177263  0.537126  0.041826  1
  Ge  Ge22  1  0.322748  0.037291  0.958127  1
  Ge  Ge23  1  0.822996  0.462742  0.541888  1
  Ge  Ge24  1  0.321843  0.037849  0.541921  1
  Ge  Ge25  1  0.822649  0.462780  0.958157  1
  Ge  Ge26  1  0.677315  0.962683  0.041735  1
  Ge  Ge27  1  0.177527  0.537188  0.458719  1
  Ge  Ge28  1  0.459745  0.380376  0.749709  1
  Ge  Ge29  1  0.959504  0.119465  0.750215  1
  Ge  Ge30  1  0.540286  0.619656  0.250062  1
  Ge  Ge31  1  0.040424  0.880282  0.250003  1
  Ge  Ge32  1  0.693983  0.855692  0.749925  1
  Ge  Ge33  1  0.194360  0.644144  0.749823  1
  Ge  Ge34  1  0.305800  0.144162  0.249925  1
  Ge  Ge35  1  0.805750  0.355751  0.250049  1
