# generated using pymatgen
data_HfZr2InFe8
_symmetry_space_group_name_H-M   'P 1'
_cell_length_a   8.59927658
_cell_length_b   8.59927635
_cell_length_c   8.59927664
_cell_angle_alpha   33.44023986
_cell_angle_beta   33.44023941
_cell_angle_gamma   33.44024300
_symmetry_Int_Tables_number   1
_chemical_formula_structural   HfZr2InFe8
_chemical_formula_sum   'Hf1 Zr2 In1 Fe8'
_cell_volume   171.97048761
_cell_formula_units_Z   1
loop_
 _symmetry_equiv_pos_site_id
 _symmetry_equiv_pos_as_xyz
  1  'x, y, z'
loop_
 _atom_site_type_symbol
 _atom_site_label
 _atom_site_symmetry_multiplicity
 _atom_site_fract_x
 _atom_site_fract_y
 _atom_site_fract_z
 _atom_site_occupancy
  Hf  Hf0  1  0.624590  0.624590  0.624590  1
  Zr  Zr1  1  0.001784  0.001784  0.001784  1
  Zr  Zr2  1  0.498422  0.498422  0.498422  1
  In  In3  1  0.125998  0.125998  0.125998  1
  Fe  Fe4  1  0.562557  0.059942  0.562557  1
  Fe  Fe5  1  0.062861  0.563697  0.062861  1
  Fe  Fe6  1  0.059942  0.562557  0.562557  1
  Fe  Fe7  1  0.563697  0.062861  0.062861  1
  Fe  Fe8  1  0.812645  0.812645  0.812645  1
  Fe  Fe9  1  0.312085  0.312085  0.312085  1
  Fe  Fe10  1  0.562557  0.562557  0.059942  1
  Fe  Fe11  1  0.062861  0.062861  0.563697  1
