# generated using pymatgen
data_Cs6Tm(RhBr6)3
_symmetry_space_group_name_H-M   'P 1'
_cell_length_a   7.87880800
_cell_length_b   7.87880710
_cell_length_c   19.92664600
_cell_angle_alpha   90.00000000
_cell_angle_beta   90.00000000
_cell_angle_gamma   119.99998697
_symmetry_Int_Tables_number   1
_chemical_formula_structural   Cs6Tm(RhBr6)3
_chemical_formula_sum   'Cs6 Tm1 Rh3 Br18'
_cell_volume   1071.23777641
_cell_formula_units_Z   1
loop_
 _symmetry_equiv_pos_site_id
 _symmetry_equiv_pos_as_xyz
  1  'x, y, z'
loop_
 _atom_site_type_symbol
 _atom_site_label
 _atom_site_symmetry_multiplicity
 _atom_site_fract_x
 _atom_site_fract_y
 _atom_site_fract_z
 _atom_site_occupancy
  Cs  Cs0  1  0.333333  0.666667  0.070089  1
  Cs  Cs1  1  0.666667  0.333333  0.939881  1
  Cs  Cs2  1  0.666667  0.333333  0.567423  1
  Cs  Cs3  1  0.333333  0.666667  0.433915  1
  Cs  Cs4  1  0.000000  0.000000  0.251099  1
  Cs  Cs5  1  0.000000  0.000000  0.744303  1
  Tm  Tm6  1  0.333333  0.666667  0.838095  1
  Rh  Rh7  1  0.333333  0.666667  0.665723  1
  Rh  Rh8  1  0.666667  0.333333  0.332648  1
  Rh  Rh9  1  0.666667  0.333333  0.168693  1
  Br  Br10  1  0.183345  0.366690  0.594352  1
  Br  Br11  1  0.817259  0.634520  0.403271  1
  Br  Br12  1  0.633310  0.816655  0.594352  1
  Br  Br13  1  0.817232  0.634464  0.097927  1
  Br  Br14  1  0.365480  0.182741  0.403271  1
  Br  Br15  1  0.166705  0.333410  0.909350  1
  Br  Br16  1  0.183345  0.816655  0.594352  1
  Br  Br17  1  0.365536  0.182768  0.097927  1
  Br  Br18  1  0.817259  0.182741  0.403271  1
  Br  Br19  1  0.666590  0.833295  0.909350  1
  Br  Br20  1  0.817232  0.182768  0.097927  1
  Br  Br21  1  0.166705  0.833295  0.909350  1
  Br  Br22  1  0.522394  0.044788  0.250569  1
  Br  Br23  1  0.486991  0.973982  0.740575  1
  Br  Br24  1  0.955212  0.477606  0.250569  1
  Br  Br25  1  0.026018  0.513009  0.740575  1
  Br  Br26  1  0.522394  0.477606  0.250569  1
  Br  Br27  1  0.486991  0.513009  0.740575  1
