# generated using pymatgen
data_BaTb(ZnGa)2
_symmetry_space_group_name_H-M   'P 1'
_cell_length_a   4.58112500
_cell_length_b   4.58112507
_cell_length_c   8.04258700
_cell_angle_alpha   90.00000000
_cell_angle_beta   90.00000000
_cell_angle_gamma   119.99999226
_symmetry_Int_Tables_number   1
_chemical_formula_structural   BaTb(ZnGa)2
_chemical_formula_sum   'Ba1 Tb1 Zn2 Ga2'
_cell_volume   146.17419946
_cell_formula_units_Z   1
loop_
 _symmetry_equiv_pos_site_id
 _symmetry_equiv_pos_as_xyz
  1  'x, y, z'
loop_
 _atom_site_type_symbol
 _atom_site_label
 _atom_site_symmetry_multiplicity
 _atom_site_fract_x
 _atom_site_fract_y
 _atom_site_fract_z
 _atom_site_occupancy
  Ba  Ba0  1  0.000000  0.000000  0.500000  1
  Tb  Tb1  1  0.000000  0.000000  0.000000  1
  Zn  Zn2  1  0.333333  0.666667  0.815066  1
  Zn  Zn3  1  0.666667  0.333333  0.184934  1
  Ga  Ga4  1  0.333333  0.666667  0.188595  1
  Ga  Ga5  1  0.666667  0.333333  0.811405  1
