# generated using pymatgen
data_LiEu2Ir3
_symmetry_space_group_name_H-M   'P 1'
_cell_length_a   5.44072748
_cell_length_b   5.44072688
_cell_length_c   5.44072742
_cell_angle_alpha   59.96302358
_cell_angle_beta   59.96302754
_cell_angle_gamma   59.96302600
_symmetry_Int_Tables_number   1
_chemical_formula_structural   LiEu2Ir3
_chemical_formula_sum   'Li1 Eu2 Ir3'
_cell_volume   113.78671580
_cell_formula_units_Z   1
loop_
 _symmetry_equiv_pos_site_id
 _symmetry_equiv_pos_as_xyz
  1  'x, y, z'
loop_
 _atom_site_type_symbol
 _atom_site_label
 _atom_site_symmetry_multiplicity
 _atom_site_fract_x
 _atom_site_fract_y
 _atom_site_fract_z
 _atom_site_occupancy
  Li  Li0  1  0.625000  0.625000  0.625000  1
  Eu  Eu1  1  0.245707  0.245707  0.245707  1
  Eu  Eu2  1  0.004293  0.004293  0.004293  1
  Ir  Ir3  1  0.625000  0.125000  0.625000  1
  Ir  Ir4  1  0.625000  0.625000  0.125000  1
  Ir  Ir5  1  0.125000  0.625000  0.625000  1
