# generated using pymatgen
data_Rb2Mn(CdTe2)2
_symmetry_space_group_name_H-M   'P 1'
_cell_length_a   10.50599331
_cell_length_b   10.58493744
_cell_length_c   10.50599300
_cell_angle_alpha   142.90324864
_cell_angle_beta   103.81700556
_cell_angle_gamma   87.58617940
_symmetry_Int_Tables_number   1
_chemical_formula_structural   Rb2Mn(CdTe2)2
_chemical_formula_sum   'Rb4 Mn2 Cd4 Te8'
_cell_volume   661.97699954
_cell_formula_units_Z   2
loop_
 _symmetry_equiv_pos_site_id
 _symmetry_equiv_pos_as_xyz
  1  'x, y, z'
loop_
 _atom_site_type_symbol
 _atom_site_label
 _atom_site_symmetry_multiplicity
 _atom_site_fract_x
 _atom_site_fract_y
 _atom_site_fract_z
 _atom_site_occupancy
  Rb  Rb0  1  0.122665  0.222028  0.350911  1
  Rb  Rb1  1  0.378428  0.738599  0.113321  1
  Rb  Rb2  1  0.628883  0.277972  0.900638  1
  Rb  Rb3  1  0.874723  0.761401  0.639829  1
  Mn  Mn4  1  0.246807  0.750000  0.496807  1
  Mn  Mn5  1  0.016000  0.250000  0.766000  1
  Cd  Cd6  1  0.520459  0.750000  0.770459  1
  Cd  Cd7  1  0.988247  0.750000  0.238247  1
  Cd  Cd8  1  0.466977  0.250000  0.216977  1
  Cd  Cd9  1  0.750968  0.250000  0.500968  1
  Te  Te10  1  0.232014  0.094132  0.615866  1
  Te  Te11  1  0.260224  0.857256  0.840837  1
  Te  Te12  1  0.021734  0.405868  0.137882  1
  Te  Te13  1  0.483581  0.642744  0.402967  1
  Te  Te14  1  0.774995  0.920391  0.419371  1
  Te  Te15  1  0.730975  0.138315  0.141654  1
  Te  Te16  1  0.998981  0.579609  0.854603  1
  Te  Te17  1  0.503339  0.361685  0.592661  1
