# generated using pymatgen
data_YbDyY2(ReC2)2
_symmetry_space_group_name_H-M   'P 1'
_cell_length_a   5.13109100
_cell_length_b   6.56096026
_cell_length_c   10.00922653
_cell_angle_alpha   88.82458337
_cell_angle_beta   90.00000000
_cell_angle_gamma   90.00000000
_symmetry_Int_Tables_number   1
_chemical_formula_structural   YbDyY2(ReC2)2
_chemical_formula_sum   'Yb2 Dy2 Y4 Re4 C8'
_cell_volume   336.88854743
_cell_formula_units_Z   2
loop_
 _symmetry_equiv_pos_site_id
 _symmetry_equiv_pos_as_xyz
  1  'x, y, z'
loop_
 _atom_site_type_symbol
 _atom_site_label
 _atom_site_symmetry_multiplicity
 _atom_site_fract_x
 _atom_site_fract_y
 _atom_site_fract_z
 _atom_site_occupancy
  Yb  Yb0  1  0.750000  0.965108  0.722114  1
  Yb  Yb1  1  0.250000  0.034892  0.277886  1
  Dy  Dy2  1  0.250000  0.688981  0.553950  1
  Dy  Dy3  1  0.750000  0.311019  0.446050  1
  Y  Y4  1  0.750000  0.818609  0.054439  1
  Y  Y5  1  0.250000  0.181391  0.945561  1
  Y  Y6  1  0.250000  0.534021  0.221914  1
  Y  Y7  1  0.750000  0.465979  0.778086  1
  Re  Re8  1  0.250000  0.720879  0.861554  1
  Re  Re9  1  0.750000  0.279121  0.138446  1
  Re  Re10  1  0.750000  0.773744  0.362582  1
  Re  Re11  1  0.250000  0.226256  0.637418  1
  C  C12  1  0.250000  0.456342  0.759134  1
  C  C13  1  0.750000  0.543658  0.240866  1
  C  C14  1  0.750000  0.043233  0.260565  1
  C  C15  1  0.250000  0.956767  0.739435  1
  C  C16  1  0.250000  0.813202  0.042121  1
  C  C17  1  0.750000  0.186798  0.957879  1
  C  C18  1  0.750000  0.678291  0.544178  1
  C  C19  1  0.250000  0.321709  0.455822  1
