# generated using pymatgen
data_La2Y6Er12Si15Pd
_symmetry_space_group_name_H-M   'P 1'
_cell_length_a   7.38267616
_cell_length_b   7.74090558
_cell_length_c   14.58322071
_cell_angle_alpha   89.62418353
_cell_angle_beta   89.90957206
_cell_angle_gamma   89.91710938
_symmetry_Int_Tables_number   1
_chemical_formula_structural   La2Y6Er12Si15Pd
_chemical_formula_sum   'La2 Y6 Er12 Si15 Pd1'
_cell_volume   833.39080713
_cell_formula_units_Z   1
loop_
 _symmetry_equiv_pos_site_id
 _symmetry_equiv_pos_as_xyz
  1  'x, y, z'
loop_
 _atom_site_type_symbol
 _atom_site_label
 _atom_site_symmetry_multiplicity
 _atom_site_fract_x
 _atom_site_fract_y
 _atom_site_fract_z
 _atom_site_occupancy
  La  La0  1  0.520471  0.571388  0.340644  1
  La  La1  1  0.020028  0.425823  0.658592  1
  Y  Y2  1  0.477766  0.932958  0.845053  1
  Y  Y3  1  0.976614  0.068337  0.153439  1
  Y  Y4  1  0.476164  0.933931  0.153642  1
  Y  Y5  1  0.974980  0.068153  0.847765  1
  Y  Y6  1  0.524699  0.567857  0.652717  1
  Y  Y7  1  0.025424  0.432683  0.346967  1
  Er  Er8  1  0.810954  0.577109  0.875735  1
  Er  Er9  1  0.317235  0.423975  0.124927  1
  Er  Er10  1  0.181902  0.926616  0.373658  1
  Er  Er11  1  0.681788  0.070300  0.626679  1
  Er  Er12  1  0.181867  0.926836  0.627761  1
  Er  Er13  1  0.682000  0.071519  0.371936  1
  Er  Er14  1  0.815538  0.573185  0.125317  1
  Er  Er15  1  0.320506  0.428157  0.874215  1
  Er  Er16  1  0.646079  0.232854  0.999110  1
  Er  Er17  1  0.156988  0.759276  0.000819  1
  Er  Er18  1  0.350208  0.262506  0.500060  1
  Er  Er19  1  0.848673  0.736432  0.499807  1
  Si  Si20  1  0.019100  0.353631  0.000248  1
  Si  Si21  1  0.477008  0.861600  0.500975  1
  Si  Si22  1  0.977668  0.137638  0.499177  1
  Si  Si23  1  0.651013  0.278215  0.790707  1
  Si  Si24  1  0.151799  0.720530  0.208823  1
  Si  Si25  1  0.349334  0.214740  0.287714  1
  Si  Si26  1  0.849617  0.784239  0.712852  1
  Si  Si27  1  0.358970  0.218436  0.710869  1
  Si  Si28  1  0.859032  0.781686  0.288508  1
  Si  Si29  1  0.648036  0.271333  0.206629  1
  Si  Si30  1  0.148322  0.726004  0.793209  1
  Si  Si31  1  0.775651  0.882088  0.000823  1
  Si  Si32  1  0.262600  0.124658  0.999479  1
  Si  Si33  1  0.231015  0.626465  0.501884  1
  Si  Si34  1  0.730671  0.373811  0.498442  1
  Pd  Pd35  1  0.520279  0.655027  0.000821  1
