# generated using pymatgen
data_Nd4ReTcC4
_symmetry_space_group_name_H-M   'P 1'
_cell_length_a   5.34866000
_cell_length_b   6.72512100
_cell_length_c   10.22288400
_cell_angle_alpha   90.00000000
_cell_angle_beta   90.00000000
_cell_angle_gamma   90.00000000
_symmetry_Int_Tables_number   1
_chemical_formula_structural   Nd4ReTcC4
_chemical_formula_sum   'Nd8 Re2 Tc2 C8'
_cell_volume   367.72108032
_cell_formula_units_Z   2
loop_
 _symmetry_equiv_pos_site_id
 _symmetry_equiv_pos_as_xyz
  1  'x, y, z'
loop_
 _atom_site_type_symbol
 _atom_site_label
 _atom_site_symmetry_multiplicity
 _atom_site_fract_x
 _atom_site_fract_y
 _atom_site_fract_z
 _atom_site_occupancy
  Nd  Nd0  1  0.250000  0.472824  0.785610  1
  Nd  Nd1  1  0.750000  0.027176  0.285610  1
  Nd  Nd2  1  0.250000  0.973936  0.713077  1
  Nd  Nd3  1  0.750000  0.526064  0.213077  1
  Nd  Nd4  1  0.250000  0.813991  0.051231  1
  Nd  Nd5  1  0.750000  0.686009  0.551231  1
  Nd  Nd6  1  0.250000  0.312579  0.447485  1
  Nd  Nd7  1  0.750000  0.187421  0.947485  1
  Re  Re8  1  0.250000  0.771044  0.357808  1
  Re  Re9  1  0.750000  0.728956  0.857808  1
  Tc  Tc10  1  0.250000  0.270881  0.142130  1
  Tc  Tc11  1  0.750000  0.229119  0.642130  1
  C  C12  1  0.250000  0.687171  0.537675  1
  C  C13  1  0.750000  0.812829  0.037675  1
  C  C14  1  0.250000  0.186937  0.963619  1
  C  C15  1  0.750000  0.313063  0.463619  1
  C  C16  1  0.250000  0.033906  0.258443  1
  C  C17  1  0.750000  0.466094  0.758443  1
  C  C18  1  0.250000  0.536242  0.242922  1
  C  C19  1  0.750000  0.963758  0.742922  1
