# generated using pymatgen
data_Ho5Tm5Tl4(InRh)4
_symmetry_space_group_name_H-M   'P 1'
_cell_length_a   3.61410100
_cell_length_b   7.99879010
_cell_length_c   18.26946237
_cell_angle_alpha   89.89623748
_cell_angle_beta   90.00000000
_cell_angle_gamma   90.00000000
_symmetry_Int_Tables_number   1
_chemical_formula_structural   Ho5Tm5Tl4(InRh)4
_chemical_formula_sum   'Ho5 Tm5 Tl4 In4 Rh4'
_cell_volume   528.14070510
_cell_formula_units_Z   1
loop_
 _symmetry_equiv_pos_site_id
 _symmetry_equiv_pos_as_xyz
  1  'x, y, z'
loop_
 _atom_site_type_symbol
 _atom_site_label
 _atom_site_symmetry_multiplicity
 _atom_site_fract_x
 _atom_site_fract_y
 _atom_site_fract_z
 _atom_site_occupancy
  Ho  Ho0  1  0.000000  0.000000  0.000000  1
  Ho  Ho1  1  0.000000  0.746368  0.779848  1
  Ho  Ho2  1  0.000000  0.253632  0.220152  1
  Ho  Ho3  1  0.000000  0.247578  0.718259  1
  Ho  Ho4  1  0.000000  0.752422  0.281741  1
  Tm  Tm5  1  0.000000  0.500000  0.500000  1
  Tm  Tm6  1  0.000000  0.881434  0.590352  1
  Tm  Tm7  1  0.000000  0.118566  0.409648  1
  Tm  Tm8  1  0.000000  0.379578  0.908264  1
  Tm  Tm9  1  0.000000  0.620422  0.091736  1
  Tl  Tl10  1  0.500000  0.797028  0.437385  1
  Tl  Tl11  1  0.500000  0.202972  0.562615  1
  Tl  Tl12  1  0.500000  0.299610  0.063598  1
  Tl  Tl13  1  0.500000  0.700390  0.936402  1
  In  In14  1  0.500000  0.928868  0.151946  1
  In  In15  1  0.500000  0.071132  0.848054  1
  In  In16  1  0.500000  0.427582  0.350149  1
  In  In17  1  0.500000  0.572418  0.649851  1
  Rh  Rh18  1  0.500000  0.962853  0.696007  1
  Rh  Rh19  1  0.500000  0.037147  0.303993  1
  Rh  Rh20  1  0.500000  0.462349  0.802313  1
  Rh  Rh21  1  0.500000  0.537651  0.197687  1
