# generated using pymatgen
data_Dy5V3Co16(SiP5)2
_symmetry_space_group_name_H-M   'P 1'
_cell_length_a   12.09734667
_cell_length_b   12.08632606
_cell_length_c   3.67507800
_cell_angle_alpha   90.00000000
_cell_angle_beta   90.00000000
_cell_angle_gamma   119.96986722
_symmetry_Int_Tables_number   1
_chemical_formula_structural   Dy5V3Co16(SiP5)2
_chemical_formula_sum   'Dy5 V3 Co16 Si2 P10'
_cell_volume   465.49327757
_cell_formula_units_Z   1
loop_
 _symmetry_equiv_pos_site_id
 _symmetry_equiv_pos_as_xyz
  1  'x, y, z'
loop_
 _atom_site_type_symbol
 _atom_site_label
 _atom_site_symmetry_multiplicity
 _atom_site_fract_x
 _atom_site_fract_y
 _atom_site_fract_z
 _atom_site_occupancy
  Dy  Dy0  1  0.666223  0.332766  0.000000  1
  Dy  Dy1  1  0.333777  0.666544  0.000000  1
  Dy  Dy2  1  0.183328  0.183647  0.500000  1
  Dy  Dy3  1  0.816672  0.000318  0.500000  1
  Dy  Dy4  1  0.000000  0.813879  0.500000  1
  V  V5  1  0.562085  0.561306  0.000000  1
  V  V6  1  0.437915  0.999220  0.000000  1
  V  V7  1  0.000000  0.442915  0.000000  1
  Co  Co8  1  0.825686  0.202764  0.000000  1
  Co  Co9  1  0.801170  0.623575  0.000000  1
  Co  Co10  1  0.376355  0.174402  0.000000  1
  Co  Co11  1  0.198830  0.822405  0.000000  1
  Co  Co12  1  0.623645  0.798047  0.000000  1
  Co  Co13  1  0.174314  0.377078  0.000000  1
  Co  Co14  1  0.644184  0.127182  0.500000  1
  Co  Co15  1  0.874463  0.519024  0.500000  1
  Co  Co16  1  0.483015  0.355728  0.500000  1
  Co  Co17  1  0.125537  0.644561  0.500000  1
  Co  Co18  1  0.516985  0.872713  0.500000  1
  Co  Co19  1  0.355816  0.482998  0.500000  1
  Co  Co20  1  0.718625  0.717363  0.500000  1
  Co  Co21  1  0.281375  0.998738  0.500000  1
  Co  Co22  1  0.000000  0.282959  0.500000  1
  Co  Co23  1  0.000000  0.999492  0.000000  1
  Si  Si24  1  0.362857  0.363263  0.000000  1
  Si  Si25  1  0.637143  0.000406  0.000000  1
  P  P26  1  0.000000  0.636300  0.000000  1
  P  P27  1  0.835133  0.315273  0.500000  1
  P  P28  1  0.684682  0.519621  0.500000  1
  P  P29  1  0.479682  0.164826  0.500000  1
  P  P30  1  0.315318  0.834939  0.500000  1
  P  P31  1  0.520318  0.685144  0.500000  1
  P  P32  1  0.164867  0.480140  0.500000  1
  P  P33  1  0.819786  0.819818  0.000000  1
  P  P34  1  0.180214  0.000032  0.000000  1
  P  P35  1  0.000000  0.180614  0.000000  1
