# generated using pymatgen
data_Zr10CdGe(BiPb)3
_symmetry_space_group_name_H-M   'P 1'
_cell_length_a   8.89570800
_cell_length_b   8.89570740
_cell_length_c   6.00576400
_cell_angle_alpha   90.00000000
_cell_angle_beta   90.00000000
_cell_angle_gamma   119.99999478
_symmetry_Int_Tables_number   1
_chemical_formula_structural   Zr10CdGe(BiPb)3
_chemical_formula_sum   'Zr10 Cd1 Ge1 Bi3 Pb3'
_cell_volume   411.58536640
_cell_formula_units_Z   1
loop_
 _symmetry_equiv_pos_site_id
 _symmetry_equiv_pos_as_xyz
  1  'x, y, z'
loop_
 _atom_site_type_symbol
 _atom_site_label
 _atom_site_symmetry_multiplicity
 _atom_site_fract_x
 _atom_site_fract_y
 _atom_site_fract_z
 _atom_site_occupancy
  Zr  Zr0  1  0.724186  0.000000  0.271733  1
  Zr  Zr1  1  0.000000  0.724186  0.271733  1
  Zr  Zr2  1  0.275814  0.275814  0.271733  1
  Zr  Zr3  1  0.267254  0.000000  0.729085  1
  Zr  Zr4  1  0.000000  0.267254  0.729085  1
  Zr  Zr5  1  0.732746  0.732746  0.729085  1
  Zr  Zr6  1  0.333333  0.666667  0.496680  1
  Zr  Zr7  1  0.666667  0.333333  0.496680  1
  Zr  Zr8  1  0.666667  0.333333  0.002631  1
  Zr  Zr9  1  0.333333  0.666667  0.002631  1
  Cd  Cd10  1  0.000000  0.000000  0.007652  1
  Ge  Ge11  1  0.000000  0.000000  0.491483  1
  Bi  Bi12  1  0.610340  0.000000  0.759120  1
  Bi  Bi13  1  0.000000  0.610340  0.759120  1
  Bi  Bi14  1  0.389660  0.389660  0.759120  1
  Pb  Pb15  1  0.382051  0.000000  0.240811  1
  Pb  Pb16  1  0.000000  0.382051  0.240811  1
  Pb  Pb17  1  0.617949  0.617949  0.240811  1
