# generated using pymatgen
data_Er10Cd7InPd4
_symmetry_space_group_name_H-M   'P 1'
_cell_length_a   3.61219500
_cell_length_b   7.96577485
_cell_length_c   18.29522892
_cell_angle_alpha   89.78955265
_cell_angle_beta   90.00000000
_cell_angle_gamma   90.00000000
_symmetry_Int_Tables_number   1
_chemical_formula_structural   Er10Cd7InPd4
_chemical_formula_sum   'Er10 Cd7 In1 Pd4'
_cell_volume   526.42212313
_cell_formula_units_Z   1
loop_
 _symmetry_equiv_pos_site_id
 _symmetry_equiv_pos_as_xyz
  1  'x, y, z'
loop_
 _atom_site_type_symbol
 _atom_site_label
 _atom_site_symmetry_multiplicity
 _atom_site_fract_x
 _atom_site_fract_y
 _atom_site_fract_z
 _atom_site_occupancy
  Er  Er0  1  0.000000  0.498276  0.500311  1
  Er  Er1  1  0.000000  0.001265  0.999787  1
  Er  Er2  1  0.000000  0.738667  0.280971  1
  Er  Er3  1  0.000000  0.261279  0.718790  1
  Er  Er4  1  0.000000  0.758891  0.780723  1
  Er  Er5  1  0.000000  0.240627  0.219447  1
  Er  Er6  1  0.000000  0.612792  0.083705  1
  Er  Er7  1  0.000000  0.388086  0.916436  1
  Er  Er8  1  0.000000  0.886936  0.583293  1
  Er  Er9  1  0.000000  0.113185  0.416232  1
  Cd  Cd10  1  0.500000  0.714972  0.931921  1
  Cd  Cd11  1  0.500000  0.285748  0.068407  1
  Cd  Cd12  1  0.500000  0.784178  0.431796  1
  Cd  Cd13  1  0.500000  0.214310  0.568712  1
  Cd  Cd14  1  0.500000  0.578495  0.648026  1
  Cd  Cd15  1  0.500000  0.422517  0.351822  1
  Cd  Cd16  1  0.500000  0.922528  0.148103  1
  In  In17  1  0.500000  0.076970  0.851214  1
  Pd  Pd18  1  0.500000  0.525543  0.195459  1
  Pd  Pd19  1  0.500000  0.474732  0.804463  1
  Pd  Pd20  1  0.500000  0.974745  0.695797  1
  Pd  Pd21  1  0.500000  0.025260  0.304587  1
