# generated using pymatgen
data_K16CeZrAs8
_symmetry_space_group_name_H-M   'P 1'
_cell_length_a   11.12693083
_cell_length_b   11.12693085
_cell_length_c   11.12693100
_cell_angle_alpha   60.00000254
_cell_angle_beta   60.00000246
_cell_angle_gamma   59.99999829
_symmetry_Int_Tables_number   1
_chemical_formula_structural   K16CeZrAs8
_chemical_formula_sum   'K16 Ce1 Zr1 As8'
_cell_volume   974.11714058
_cell_formula_units_Z   1
loop_
 _symmetry_equiv_pos_site_id
 _symmetry_equiv_pos_as_xyz
  1  'x, y, z'
loop_
 _atom_site_type_symbol
 _atom_site_label
 _atom_site_symmetry_multiplicity
 _atom_site_fract_x
 _atom_site_fract_y
 _atom_site_fract_z
 _atom_site_occupancy
  K  K0  1  0.624615  0.624615  0.126156  1
  K  K1  1  0.624615  0.126156  0.624615  1
  K  K2  1  0.126156  0.624615  0.624615  1
  K  K3  1  0.624615  0.624615  0.624615  1
  K  K4  1  0.030520  0.469480  0.469480  1
  K  K5  1  0.780058  0.219942  0.219942  1
  K  K6  1  0.469480  0.030520  0.469480  1
  K  K7  1  0.469480  0.469480  0.030520  1
  K  K8  1  0.030520  0.030520  0.469480  1
  K  K9  1  0.030520  0.469480  0.030520  1
  K  K10  1  0.469480  0.030520  0.030520  1
  K  K11  1  0.780058  0.219942  0.780058  1
  K  K12  1  0.219942  0.780058  0.219942  1
  K  K13  1  0.219942  0.219942  0.780058  1
  K  K14  1  0.780058  0.780058  0.219942  1
  K  K15  1  0.219942  0.780058  0.780058  1
  Ce  Ce16  1  0.750000  0.750000  0.750000  1
  Zr  Zr17  1  0.500000  0.500000  0.500000  1
  As  As18  1  0.854393  0.854393  0.436821  1
  As  As19  1  0.854393  0.436821  0.854393  1
  As  As20  1  0.401092  0.401092  0.796724  1
  As  As21  1  0.401092  0.796724  0.401092  1
  As  As22  1  0.796724  0.401092  0.401092  1
  As  As23  1  0.854393  0.854393  0.854393  1
  As  As24  1  0.436821  0.854393  0.854393  1
  As  As25  1  0.401092  0.401092  0.401092  1
