# generated using pymatgen
data_Al6CrIr3Ru2
_symmetry_space_group_name_H-M   'P 1'
_cell_length_a   4.23740000
_cell_length_b   6.04214000
_cell_length_c   12.84905500
_cell_angle_alpha   90.00001840
_cell_angle_beta   89.99819748
_cell_angle_gamma   90.00026797
_symmetry_Int_Tables_number   1
_chemical_formula_structural   Al6CrIr3Ru2
_chemical_formula_sum   'Al12 Cr2 Ir6 Ru4'
_cell_volume   328.97389300
_cell_formula_units_Z   2
loop_
 _symmetry_equiv_pos_site_id
 _symmetry_equiv_pos_as_xyz
  1  'x, y, z'
loop_
 _atom_site_type_symbol
 _atom_site_label
 _atom_site_symmetry_multiplicity
 _atom_site_fract_x
 _atom_site_fract_y
 _atom_site_fract_z
 _atom_site_occupancy
  Al  Al0  1  0.500000  0.244346  0.996161  1
  Al  Al1  1  0.499999  0.755655  0.996163  1
  Al  Al2  1  0.000145  0.255641  0.170507  1
  Al  Al3  1  0.000146  0.744364  0.170506  1
  Al  Al4  1  0.500129  0.254870  0.337752  1
  Al  Al5  1  0.500127  0.745133  0.337751  1
  Al  Al6  1  0.999997  0.249728  0.500269  1
  Al  Al7  1  0.000004  0.750273  0.500269  1
  Al  Al8  1  0.499872  0.250287  0.666400  1
  Al  Al9  1  0.499865  0.749714  0.666400  1
  Al  Al10  1  0.999864  0.245142  0.828915  1
  Al  Al11  1  0.999866  0.754858  0.828916  1
  Cr  Cr12  1  0.999983  0.499983  0.000754  1
  Cr  Cr13  1  0.500132  0.000002  0.165906  1
  Ir  Ir14  1  0.999988  0.000000  0.005012  1
  Ir  Ir15  1  0.500137  0.500001  0.161655  1
  Ir  Ir16  1  0.000122  0.000002  0.327835  1
  Ir  Ir17  1  0.500001  0.499998  0.500797  1
  Ir  Ir18  1  0.999888  0.000000  0.665877  1
  Ir  Ir19  1  0.499866  0.499999  0.838824  1
  Ru  Ru20  1  0.000123  0.500004  0.332449  1
  Ru  Ru21  1  0.499997  0.000003  0.499237  1
  Ru  Ru22  1  0.999881  0.500001  0.667428  1
  Ru  Ru23  1  0.499870  0.000001  0.834217  1
