# generated using pymatgen
data_Ce5NdZn4Pt13
_symmetry_space_group_name_H-M   'P 1'
_cell_length_a   8.36808979
_cell_length_b   8.36808979
_cell_length_c   8.36808952
_cell_angle_alpha   109.28109810
_cell_angle_beta   109.56636417
_cell_angle_gamma   109.56636839
_symmetry_Int_Tables_number   1
_chemical_formula_structural   Ce5NdZn4Pt13
_chemical_formula_sum   'Ce5 Nd1 Zn4 Pt13'
_cell_volume   451.07992112
_cell_formula_units_Z   1
loop_
 _symmetry_equiv_pos_site_id
 _symmetry_equiv_pos_as_xyz
  1  'x, y, z'
loop_
 _atom_site_type_symbol
 _atom_site_label
 _atom_site_symmetry_multiplicity
 _atom_site_fract_x
 _atom_site_fract_y
 _atom_site_fract_z
 _atom_site_occupancy
  Ce  Ce0  1  0.698707  0.698333  0.999626  1
  Ce  Ce1  1  0.301293  0.999626  0.300919  1
  Ce  Ce2  1  0.000000  0.306623  0.306623  1
  Ce  Ce3  1  0.301293  0.300919  0.999626  1
  Ce  Ce4  1  0.698707  0.999626  0.698333  1
  Nd  Nd5  1  0.000000  0.699606  0.699606  1
  Zn  Zn6  1  0.000000  0.999399  0.498980  1
  Zn  Zn7  1  0.000000  0.498980  0.999399  1
  Zn  Zn8  1  0.500419  0.999399  0.999399  1
  Zn  Zn9  1  0.499581  0.498980  0.498980  1
  Pt  Pt10  1  0.327988  0.327836  0.655822  1
  Pt  Pt11  1  0.672012  0.999848  0.327836  1
  Pt  Pt12  1  0.000000  0.675252  0.323615  1
  Pt  Pt13  1  0.672012  0.327836  0.999848  1
  Pt  Pt14  1  0.327988  0.655822  0.327836  1
  Pt  Pt15  1  0.000000  0.323615  0.675252  1
  Pt  Pt16  1  0.329258  0.670788  0.000046  1
  Pt  Pt17  1  0.329258  0.000046  0.670788  1
  Pt  Pt18  1  0.648362  0.323615  0.323615  1
  Pt  Pt19  1  0.670742  0.670788  0.341531  1
  Pt  Pt20  1  0.670742  0.341531  0.670788  1
  Pt  Pt21  1  0.351638  0.675252  0.675252  1
  Pt  Pt22  1  0.000000  0.006280  0.006280  1
