# generated using pymatgen
data_Ho17Er3(Sn3Pb5)2
_symmetry_space_group_name_H-M   'P 1'
_cell_length_a   8.12053701
_cell_length_b   15.53062500
_cell_length_c   8.19588301
_cell_angle_alpha   89.99962308
_cell_angle_beta   89.99500658
_cell_angle_gamma   89.99896844
_symmetry_Int_Tables_number   1
_chemical_formula_structural   Ho17Er3(Sn3Pb5)2
_chemical_formula_sum   'Ho17 Er3 Sn6 Pb10'
_cell_volume   1033.64029675
_cell_formula_units_Z   1
loop_
 _symmetry_equiv_pos_site_id
 _symmetry_equiv_pos_as_xyz
  1  'x, y, z'
loop_
 _atom_site_type_symbol
 _atom_site_label
 _atom_site_symmetry_multiplicity
 _atom_site_fract_x
 _atom_site_fract_y
 _atom_site_fract_z
 _atom_site_occupancy
  Ho  Ho0  1  0.622261  0.623156  0.159919  1
  Ho  Ho1  1  0.122172  0.876844  0.340144  1
  Ho  Ho2  1  0.377575  0.122179  0.838726  1
  Ho  Ho3  1  0.877578  0.377830  0.661289  1
  Ho  Ho4  1  0.377578  0.377823  0.838725  1
  Ho  Ho5  1  0.877568  0.122170  0.661287  1
  Ho  Ho6  1  0.622262  0.876844  0.159917  1
  Ho  Ho7  1  0.122166  0.623160  0.340153  1
  Ho  Ho8  1  0.465397  0.603295  0.676432  1
  Ho  Ho9  1  0.965350  0.896708  0.823516  1
  Ho  Ho10  1  0.534328  0.100434  0.325152  1
  Ho  Ho11  1  0.034329  0.399558  0.174840  1
  Ho  Ho12  1  0.534324  0.399567  0.325157  1
  Ho  Ho13  1  0.034334  0.100442  0.174838  1
  Ho  Ho14  1  0.465396  0.896702  0.676434  1
  Ho  Ho15  1  0.965359  0.603295  0.823519  1
  Ho  Ho16  1  0.290502  0.750002  0.003307  1
  Er  Er17  1  0.790377  0.750026  0.496682  1
  Er  Er18  1  0.210082  0.249986  0.507000  1
  Er  Er19  1  0.710081  0.249979  0.992983  1
  Sn  Sn20  1  0.425858  0.750002  0.376203  1
  Sn  Sn21  1  0.925689  0.750001  0.123938  1
  Sn  Sn22  1  0.573525  0.249998  0.625084  1
  Sn  Sn23  1  0.073511  0.250000  0.874900  1
  Sn  Sn24  1  0.657367  0.750001  0.851179  1
  Sn  Sn25  1  0.157268  0.750001  0.648639  1
  Pb  Pb26  1  0.717871  0.458085  0.966714  1
  Pb  Pb27  1  0.217870  0.041913  0.533295  1
  Pb  Pb28  1  0.281935  0.957920  0.033559  1
  Pb  Pb29  1  0.781945  0.542140  0.466443  1
  Pb  Pb30  1  0.281938  0.542081  0.033560  1
  Pb  Pb31  1  0.781934  0.957858  0.466439  1
  Pb  Pb32  1  0.717870  0.041911  0.966707  1
  Pb  Pb33  1  0.217870  0.458088  0.533296  1
  Pb  Pb34  1  0.344265  0.250001  0.151400  1
  Pb  Pb35  1  0.844265  0.249999  0.348623  1
