# generated using pymatgen
data_Y3BePd5
_symmetry_space_group_name_H-M   'P 1'
_cell_length_a   8.09753009
_cell_length_b   8.09753115
_cell_length_c   8.09753000
_cell_angle_alpha   126.41601054
_cell_angle_beta   125.69441937
_cell_angle_gamma   79.79876735
_symmetry_Int_Tables_number   1
_chemical_formula_structural   Y3BePd5
_chemical_formula_sum   'Y6 Be2 Pd10'
_cell_volume   335.16699312
_cell_formula_units_Z   2
loop_
 _symmetry_equiv_pos_site_id
 _symmetry_equiv_pos_as_xyz
  1  'x, y, z'
loop_
 _atom_site_type_symbol
 _atom_site_label
 _atom_site_symmetry_multiplicity
 _atom_site_fract_x
 _atom_site_fract_y
 _atom_site_fract_z
 _atom_site_occupancy
  Y  Y0  1  0.221245  0.446720  0.774526  1
  Y  Y1  1  0.778755  0.553280  0.225474  1
  Y  Y2  1  0.827806  0.053280  0.774526  1
  Y  Y3  1  0.172194  0.946720  0.225474  1
  Y  Y4  1  0.402444  0.250000  0.152444  1
  Y  Y5  1  0.597556  0.750000  0.847556  1
  Be  Be6  1  0.794611  0.250000  0.544611  1
  Be  Be7  1  0.205389  0.750000  0.455389  1
  Pd  Pd8  1  0.172564  0.409520  0.358947  1
  Pd  Pd9  1  0.827436  0.186383  0.236956  1
  Pd  Pd10  1  0.449427  0.090480  0.763044  1
  Pd  Pd11  1  0.550573  0.313617  0.641053  1
  Pd  Pd12  1  0.000000  0.500000  0.000000  1
  Pd  Pd13  1  0.000000  0.000000  0.500000  1
  Pd  Pd14  1  0.449427  0.686383  0.358947  1
  Pd  Pd15  1  0.550573  0.909520  0.236956  1
  Pd  Pd16  1  0.172564  0.813617  0.763044  1
  Pd  Pd17  1  0.827436  0.590480  0.641053  1
