# generated using pymatgen
data_Er3CdIn4Ru
_symmetry_space_group_name_H-M   'P 1'
_cell_length_a   8.25783000
_cell_length_b   8.25782951
_cell_length_c   3.64434400
_cell_angle_alpha   90.00000000
_cell_angle_beta   90.00000000
_cell_angle_gamma   120.00000888
_symmetry_Int_Tables_number   1
_chemical_formula_structural   Er3CdIn4Ru
_chemical_formula_sum   'Er3 Cd1 In4 Ru1'
_cell_volume   215.21959405
_cell_formula_units_Z   1
loop_
 _symmetry_equiv_pos_site_id
 _symmetry_equiv_pos_as_xyz
  1  'x, y, z'
loop_
 _atom_site_type_symbol
 _atom_site_label
 _atom_site_symmetry_multiplicity
 _atom_site_fract_x
 _atom_site_fract_y
 _atom_site_fract_z
 _atom_site_occupancy
  Er  Er0  1  0.712225  0.963510  0.500000  1
  Er  Er1  1  0.251285  0.287775  0.500000  1
  Er  Er2  1  0.036490  0.748715  0.500000  1
  Cd  Cd3  1  0.666667  0.333333  0.500000  1
  In  In4  1  0.952955  0.334197  0.000000  1
  In  In5  1  0.381243  0.047045  0.000000  1
  In  In6  1  0.665803  0.618757  0.000000  1
  In  In7  1  0.333333  0.666667  0.000000  1
  Ru  Ru8  1  0.000000  0.000000  0.000000  1
