# generated using pymatgen
data_KTi2CrS6
_symmetry_space_group_name_H-M   'P 1'
_cell_length_a   8.96910408
_cell_length_b   8.96910293
_cell_length_c   8.96910300
_cell_angle_alpha   38.60998799
_cell_angle_beta   38.60999718
_cell_angle_gamma   38.60999408
_symmetry_Int_Tables_number   1
_chemical_formula_structural   KTi2CrS6
_chemical_formula_sum   'K1 Ti2 Cr1 S6'
_cell_volume   252.48374873
_cell_formula_units_Z   1
loop_
 _symmetry_equiv_pos_site_id
 _symmetry_equiv_pos_as_xyz
  1  'x, y, z'
loop_
 _atom_site_type_symbol
 _atom_site_label
 _atom_site_symmetry_multiplicity
 _atom_site_fract_x
 _atom_site_fract_y
 _atom_site_fract_z
 _atom_site_occupancy
  K  K0  1  0.000062  0.000062  0.000062  1
  Ti  Ti1  1  0.501529  0.501529  0.501529  1
  Ti  Ti2  1  0.832258  0.832258  0.832258  1
  Cr  Cr3  1  0.166367  0.166367  0.166367  1
  S  S4  1  0.551839  0.222437  0.895249  1
  S  S5  1  0.895249  0.551839  0.222437  1
  S  S6  1  0.222437  0.895249  0.551839  1
  S  S7  1  0.777722  0.111731  0.440807  1
  S  S8  1  0.111731  0.440807  0.777722  1
  S  S9  1  0.440807  0.777722  0.111731  1
