# generated using pymatgen
data_TmVCo4As3
_symmetry_space_group_name_H-M   'P 1'
_cell_length_a   3.76571000
_cell_length_b   10.72032100
_cell_length_c   12.25661900
_cell_angle_alpha   90.00000000
_cell_angle_beta   90.00000000
_cell_angle_gamma   90.00000000
_symmetry_Int_Tables_number   1
_chemical_formula_structural   TmVCo4As3
_chemical_formula_sum   'Tm4 V4 Co16 As12'
_cell_volume   494.79505143
_cell_formula_units_Z   4
loop_
 _symmetry_equiv_pos_site_id
 _symmetry_equiv_pos_as_xyz
  1  'x, y, z'
loop_
 _atom_site_type_symbol
 _atom_site_label
 _atom_site_symmetry_multiplicity
 _atom_site_fract_x
 _atom_site_fract_y
 _atom_site_fract_z
 _atom_site_occupancy
  Tm  Tm0  1  0.250000  0.580042  0.704679  1
  Tm  Tm1  1  0.250000  0.919958  0.204679  1
  Tm  Tm2  1  0.750000  0.419958  0.295321  1
  Tm  Tm3  1  0.750000  0.080042  0.795321  1
  V  V4  1  0.250000  0.702585  0.989940  1
  V  V5  1  0.250000  0.797415  0.489940  1
  V  V6  1  0.750000  0.297415  0.010060  1
  V  V7  1  0.750000  0.202585  0.510060  1
  Co  Co8  1  0.250000  0.405383  0.488696  1
  Co  Co9  1  0.250000  0.094617  0.988696  1
  Co  Co10  1  0.750000  0.594617  0.511304  1
  Co  Co11  1  0.750000  0.905383  0.011304  1
  Co  Co12  1  0.250000  0.217208  0.176908  1
  Co  Co13  1  0.250000  0.282792  0.676908  1
  Co  Co14  1  0.750000  0.782792  0.823092  1
  Co  Co15  1  0.750000  0.717208  0.323092  1
  Co  Co16  1  0.250000  0.885440  0.697785  1
  Co  Co17  1  0.250000  0.614560  0.197785  1
  Co  Co18  1  0.750000  0.114560  0.302215  1
  Co  Co19  1  0.750000  0.385440  0.802215  1
  Co  Co20  1  0.250000  0.466424  0.933680  1
  Co  Co21  1  0.250000  0.033576  0.433680  1
  Co  Co22  1  0.750000  0.533576  0.066320  1
  Co  Co23  1  0.750000  0.966424  0.566320  1
  As  As24  1  0.250000  0.416988  0.116827  1
  As  As25  1  0.250000  0.083012  0.616827  1
  As  As26  1  0.750000  0.583012  0.883173  1
  As  As27  1  0.750000  0.916988  0.383173  1
  As  As28  1  0.250000  0.265663  0.866472  1
  As  As29  1  0.250000  0.234337  0.366472  1
  As  As30  1  0.750000  0.734337  0.133528  1
  As  As31  1  0.750000  0.765663  0.633528  1
  As  As32  1  0.250000  0.596382  0.390381  1
  As  As33  1  0.250000  0.903618  0.890381  1
  As  As34  1  0.750000  0.403618  0.609619  1
  As  As35  1  0.750000  0.096382  0.109619  1
