# generated using pymatgen
data_Sr2Th2As7Ir8
_symmetry_space_group_name_H-M   'P 1'
_cell_length_a   4.14185600
_cell_length_b   13.28550425
_cell_length_c   13.85570812
_cell_angle_alpha   98.65585431
_cell_angle_beta   90.00000000
_cell_angle_gamma   90.00000000
_symmetry_Int_Tables_number   1
_chemical_formula_structural   Sr2Th2As7Ir8
_chemical_formula_sum   'Sr4 Th4 As14 Ir16'
_cell_volume   753.74913042
_cell_formula_units_Z   2
loop_
 _symmetry_equiv_pos_site_id
 _symmetry_equiv_pos_as_xyz
  1  'x, y, z'
loop_
 _atom_site_type_symbol
 _atom_site_label
 _atom_site_symmetry_multiplicity
 _atom_site_fract_x
 _atom_site_fract_y
 _atom_site_fract_z
 _atom_site_occupancy
  Sr  Sr0  1  0.750000  0.285121  0.900290  1
  Sr  Sr1  1  0.250000  0.714879  0.099710  1
  Sr  Sr2  1  0.750000  0.100097  0.204517  1
  Sr  Sr3  1  0.250000  0.899903  0.795483  1
  Th  Th4  1  0.750000  0.205202  0.557544  1
  Th  Th5  1  0.250000  0.794798  0.442456  1
  Th  Th6  1  0.750000  0.518942  0.707308  1
  Th  Th7  1  0.250000  0.481058  0.292692  1
  As  As8  1  0.750000  0.742004  0.916521  1
  As  As9  1  0.250000  0.257996  0.083479  1
  As  As10  1  0.750000  0.908168  0.590929  1
  As  As11  1  0.250000  0.091832  0.409071  1
  As  As12  1  0.750000  0.531652  0.126983  1
  As  As13  1  0.250000  0.468348  0.873017  1
  As  As14  1  0.750000  0.842872  0.278470  1
  As  As15  1  0.250000  0.157128  0.721530  1
  As  As16  1  0.750000  0.606128  0.435776  1
  As  As17  1  0.250000  0.393872  0.564224  1
  As  As18  1  0.750000  0.311148  0.313074  1
  As  As19  1  0.250000  0.688852  0.686926  1
  As  As20  1  0.750000  0.057009  0.901209  1
  As  As21  1  0.250000  0.942991  0.098791  1
  Ir  Ir22  1  0.750000  0.348206  0.144712  1
  Ir  Ir23  1  0.250000  0.651794  0.855288  1
  Ir  Ir24  1  0.750000  0.721773  0.596728  1
  Ir  Ir25  1  0.250000  0.278227  0.403272  1
  Ir  Ir26  1  0.750000  0.918349  0.001755  1
  Ir  Ir27  1  0.250000  0.081651  0.998245  1
  Ir  Ir28  1  0.750000  0.424649  0.474516  1
  Ir  Ir29  1  0.250000  0.575351  0.525484  1
  Ir  Ir30  1  0.750000  0.061312  0.721055  1
  Ir  Ir31  1  0.250000  0.938688  0.278945  1
  Ir  Ir32  1  0.750000  0.549936  0.948199  1
  Ir  Ir33  1  0.250000  0.450064  0.051801  1
  Ir  Ir34  1  0.750000  0.659703  0.275274  1
  Ir  Ir35  1  0.250000  0.340297  0.724726  1
  Ir  Ir36  1  0.750000  0.982340  0.426777  1
  Ir  Ir37  1  0.250000  0.017660  0.573223  1
