# generated using pymatgen
data_Rb2CaTa6Cl18
_symmetry_space_group_name_H-M   'P 1'
_cell_length_a   10.29332305
_cell_length_b   10.29332291
_cell_length_c   10.29332197
_cell_angle_alpha   55.01382213
_cell_angle_beta   55.01381842
_cell_angle_gamma   55.01382039
_symmetry_Int_Tables_number   1
_chemical_formula_structural   Rb2CaTa6Cl18
_chemical_formula_sum   'Rb2 Ca1 Ta6 Cl18'
_cell_volume   681.71157628
_cell_formula_units_Z   1
loop_
 _symmetry_equiv_pos_site_id
 _symmetry_equiv_pos_as_xyz
  1  'x, y, z'
loop_
 _atom_site_type_symbol
 _atom_site_label
 _atom_site_symmetry_multiplicity
 _atom_site_fract_x
 _atom_site_fract_y
 _atom_site_fract_z
 _atom_site_occupancy
  Rb  Rb0  1  0.276622  0.276622  0.276622  1
  Rb  Rb1  1  0.723378  0.723378  0.723378  1
  Ca  Ca2  1  0.000000  0.000000  0.000000  1
  Ta  Ta3  1  0.417054  0.300394  0.646772  1
  Ta  Ta4  1  0.353228  0.582946  0.699606  1
  Ta  Ta5  1  0.699606  0.353228  0.582946  1
  Ta  Ta6  1  0.646772  0.417054  0.300394  1
  Ta  Ta7  1  0.582946  0.699606  0.353228  1
  Ta  Ta8  1  0.300394  0.646772  0.417054  1
  Cl  Cl9  1  0.639980  0.087318  0.771793  1
  Cl  Cl10  1  0.771793  0.639980  0.087318  1
  Cl  Cl11  1  0.087318  0.771793  0.639980  1
  Cl  Cl12  1  0.830432  0.313684  0.041054  1
  Cl  Cl13  1  0.162960  0.436458  0.575758  1
  Cl  Cl14  1  0.686316  0.958946  0.169568  1
  Cl  Cl15  1  0.912682  0.228207  0.360020  1
  Cl  Cl16  1  0.563542  0.424242  0.837040  1
  Cl  Cl17  1  0.424242  0.837040  0.563542  1
  Cl  Cl18  1  0.958946  0.169568  0.686316  1
  Cl  Cl19  1  0.169568  0.686316  0.958946  1
  Cl  Cl20  1  0.041054  0.830432  0.313684  1
  Cl  Cl21  1  0.313684  0.041054  0.830432  1
  Cl  Cl22  1  0.228207  0.360020  0.912682  1
  Cl  Cl23  1  0.575758  0.162960  0.436458  1
  Cl  Cl24  1  0.436458  0.575758  0.162960  1
  Cl  Cl25  1  0.360020  0.912682  0.228207  1
  Cl  Cl26  1  0.837040  0.563542  0.424242  1
