# generated using pymatgen
data_DyErCu10
_symmetry_space_group_name_H-M   'P 1'
_cell_length_a   4.12579200
_cell_length_b   5.01904400
_cell_length_c   8.65881700
_cell_angle_alpha   90.00000000
_cell_angle_beta   90.00000000
_cell_angle_gamma   90.00000000
_symmetry_Int_Tables_number   1
_chemical_formula_structural   DyErCu10
_chemical_formula_sum   'Dy1 Er1 Cu10'
_cell_volume   179.30272650
_cell_formula_units_Z   1
loop_
 _symmetry_equiv_pos_site_id
 _symmetry_equiv_pos_as_xyz
  1  'x, y, z'
loop_
 _atom_site_type_symbol
 _atom_site_label
 _atom_site_symmetry_multiplicity
 _atom_site_fract_x
 _atom_site_fract_y
 _atom_site_fract_z
 _atom_site_occupancy
  Dy  Dy0  1  0.000000  0.500000  0.000000  1
  Er  Er1  1  0.000000  0.000000  0.500000  1
  Cu  Cu2  1  0.000000  0.500000  0.332774  1
  Cu  Cu3  1  0.000000  0.000000  0.833186  1
  Cu  Cu4  1  0.000000  0.000000  0.166814  1
  Cu  Cu5  1  0.000000  0.500000  0.667226  1
  Cu  Cu6  1  0.500000  0.500000  0.500000  1
  Cu  Cu7  1  0.500000  0.000000  0.000000  1
  Cu  Cu8  1  0.500000  0.750490  0.250490  1
  Cu  Cu9  1  0.500000  0.249510  0.749510  1
  Cu  Cu10  1  0.500000  0.249510  0.250490  1
  Cu  Cu11  1  0.500000  0.750490  0.749510  1
