# generated using pymatgen
data_NpP2Cl8O3
_symmetry_space_group_name_H-M   'P 1'
_cell_length_a   10.21395814
_cell_length_b   11.44269694
_cell_length_c   9.31307939
_cell_angle_alpha   109.15809751
_cell_angle_beta   121.98879966
_cell_angle_gamma   90.73066064
_symmetry_Int_Tables_number   1
_chemical_formula_structural   NpP2Cl8O3
_chemical_formula_sum   'Np2 P4 Cl16 O6'
_cell_volume   848.07344341
_cell_formula_units_Z   2
loop_
 _symmetry_equiv_pos_site_id
 _symmetry_equiv_pos_as_xyz
  1  'x, y, z'
loop_
 _atom_site_type_symbol
 _atom_site_label
 _atom_site_symmetry_multiplicity
 _atom_site_fract_x
 _atom_site_fract_y
 _atom_site_fract_z
 _atom_site_occupancy
  Np  Np0  1  0.203663  0.235373  0.290068  1
  Np  Np1  1  0.796026  0.764550  0.709515  1
  P  P2  1  0.785155  0.067636  0.002879  1
  P  P3  1  0.806633  0.631980  0.035649  1
  P  P4  1  0.193574  0.367936  0.964387  1
  P  P5  1  0.214815  0.932358  0.997299  1
  Cl  Cl6  1  0.795276  0.453441  0.013637  1
  Cl  Cl7  1  0.618374  0.678691  0.030119  1
  Cl  Cl8  1  0.728181  0.088095  0.184146  1
  Cl  Cl9  1  0.399662  0.900221  0.202702  1
  Cl  Cl10  1  0.995662  0.736969  0.283911  1
  Cl  Cl11  1  0.194994  0.085710  0.438688  1
  Cl  Cl12  1  0.505244  0.295577  0.474620  1
  Cl  Cl13  1  0.182377  0.424277  0.508712  1
  Cl  Cl14  1  0.817516  0.575735  0.491140  1
  Cl  Cl15  1  0.494586  0.704543  0.525311  1
  Cl  Cl16  1  0.804731  0.914207  0.560998  1
  Cl  Cl17  1  0.004475  0.262964  0.716245  1
  Cl  Cl18  1  0.600370  0.099751  0.797378  1
  Cl  Cl19  1  0.271654  0.912085  0.815959  1
  Cl  Cl20  1  0.381722  0.321276  0.969551  1
  Cl  Cl21  1  0.204862  0.546476  0.986548  1
  O  O22  1  0.203697  0.068871  0.068288  1
  O  O23  1  0.930341  0.170605  0.090311  1
  O  O24  1  0.185937  0.351504  0.112742  1
  O  O25  1  0.814312  0.648424  0.887270  1
  O  O26  1  0.069560  0.829531  0.909884  1
  O  O27  1  0.796606  0.931212  0.932045  1
