# generated using pymatgen
data_TbErFe9Ni3P7
_symmetry_space_group_name_H-M   'P 1'
_cell_length_a   3.63527500
_cell_length_b   8.99660778
_cell_length_c   9.00405801
_cell_angle_alpha   119.68668970
_cell_angle_beta   90.00000000
_cell_angle_gamma   90.00000000
_symmetry_Int_Tables_number   1
_chemical_formula_structural   TbErFe9Ni3P7
_chemical_formula_sum   'Tb1 Er1 Fe9 Ni3 P7'
_cell_volume   255.82763401
_cell_formula_units_Z   1
loop_
 _symmetry_equiv_pos_site_id
 _symmetry_equiv_pos_as_xyz
  1  'x, y, z'
loop_
 _atom_site_type_symbol
 _atom_site_label
 _atom_site_symmetry_multiplicity
 _atom_site_fract_x
 _atom_site_fract_y
 _atom_site_fract_z
 _atom_site_occupancy
  Tb  Tb0  1  0.500000  0.337361  0.668590  1
  Er  Er1  1  0.000000  0.664332  0.331715  1
  Fe  Fe2  1  0.000000  0.571806  0.631985  1
  Fe  Fe3  1  0.000000  0.879921  0.724243  1
  Fe  Fe4  1  0.000000  0.271176  0.154681  1
  Fe  Fe5  1  0.000000  0.846749  0.120307  1
  Fe  Fe6  1  0.500000  0.433156  0.384710  1
  Fe  Fe7  1  0.500000  0.613762  0.049863  1
  Fe  Fe8  1  0.500000  0.125403  0.901704  1
  Fe  Fe9  1  0.500000  0.096394  0.214684  1
  Fe  Fe10  1  0.500000  0.780110  0.877843  1
  Ni  Ni11  1  0.000000  0.371768  0.940584  1
  Ni  Ni12  1  0.000000  0.061565  0.433312  1
  Ni  Ni13  1  0.500000  0.947408  0.562353  1
  P  P14  1  0.000000  0.111909  0.706722  1
  P  P15  1  0.000000  0.303521  0.410651  1
  P  P16  1  0.000000  0.597550  0.891222  1
  P  P17  1  0.500000  0.705065  0.599792  1
  P  P18  1  0.500000  0.403033  0.119270  1
  P  P19  1  0.500000  0.879731  0.278509  1
  P  P20  1  0.000000  0.998282  0.997256  1
