# generated using pymatgen
data_Pr10Sn5BiCl2
_symmetry_space_group_name_H-M   'P 1'
_cell_length_a   9.57791954
_cell_length_b   9.57792058
_cell_length_c   6.79351100
_cell_angle_alpha   90.00000000
_cell_angle_beta   90.00000000
_cell_angle_gamma   120.21970268
_symmetry_Int_Tables_number   1
_chemical_formula_structural   Pr10Sn5BiCl2
_chemical_formula_sum   'Pr10 Sn5 Bi1 Cl2'
_cell_volume   538.51970066
_cell_formula_units_Z   1
loop_
 _symmetry_equiv_pos_site_id
 _symmetry_equiv_pos_as_xyz
  1  'x, y, z'
loop_
 _atom_site_type_symbol
 _atom_site_label
 _atom_site_symmetry_multiplicity
 _atom_site_fract_x
 _atom_site_fract_y
 _atom_site_fract_z
 _atom_site_occupancy
  Pr  Pr0  1  0.668127  0.330907  0.001268  1
  Pr  Pr1  1  0.330907  0.668127  0.498732  1
  Pr  Pr2  1  0.668127  0.330907  0.498732  1
  Pr  Pr3  1  0.330907  0.668127  0.001268  1
  Pr  Pr4  1  0.740010  0.004716  0.750000  1
  Pr  Pr5  1  0.739398  0.739398  0.250000  1
  Pr  Pr6  1  0.000920  0.261326  0.250000  1
  Pr  Pr7  1  0.004716  0.740010  0.750000  1
  Pr  Pr8  1  0.257110  0.257110  0.750000  1
  Pr  Pr9  1  0.261326  0.000920  0.250000  1
  Sn  Sn10  1  0.999625  0.612577  0.250000  1
  Sn  Sn11  1  0.612577  0.999625  0.250000  1
  Sn  Sn12  1  0.388404  0.000905  0.750000  1
  Sn  Sn13  1  0.000905  0.388404  0.750000  1
  Sn  Sn14  1  0.387513  0.387513  0.250000  1
  Bi  Bi15  1  0.612892  0.612892  0.750000  1
  Cl  Cl16  1  0.998267  0.998267  0.500651  1
  Cl  Cl17  1  0.998267  0.998267  0.999349  1
