# generated using pymatgen
data_Pr10NdIn9Pd4
_symmetry_space_group_name_H-M   'P 1'
_cell_length_a   13.57714272
_cell_length_b   13.57714327
_cell_length_c   3.84122900
_cell_angle_alpha   90.00000000
_cell_angle_beta   90.00000000
_cell_angle_gamma   111.17847161
_symmetry_Int_Tables_number   1
_chemical_formula_structural   Pr10NdIn9Pd4
_chemical_formula_sum   'Pr10 Nd1 In9 Pd4'
_cell_volume   660.26307963
_cell_formula_units_Z   1
loop_
 _symmetry_equiv_pos_site_id
 _symmetry_equiv_pos_as_xyz
  1  'x, y, z'
loop_
 _atom_site_type_symbol
 _atom_site_label
 _atom_site_symmetry_multiplicity
 _atom_site_fract_x
 _atom_site_fract_y
 _atom_site_fract_z
 _atom_site_occupancy
  Pr  Pr0  1  0.417196  0.068714  0.000000  1
  Pr  Pr1  1  0.583050  0.930352  0.000000  1
  Pr  Pr2  1  0.068714  0.417196  0.000000  1
  Pr  Pr3  1  0.930352  0.583050  0.000000  1
  Pr  Pr4  1  0.159187  0.840262  0.000000  1
  Pr  Pr5  1  0.840262  0.159187  0.000000  1
  Pr  Pr6  1  0.370832  0.629465  0.000000  1
  Pr  Pr7  1  0.629465  0.370832  0.000000  1
  Pr  Pr8  1  0.308212  0.308212  0.000000  1
  Pr  Pr9  1  0.999975  0.999975  0.000000  1
  Nd  Nd10  1  0.692143  0.692143  0.000000  1
  In  In11  1  0.367485  0.838358  0.500000  1
  In  In12  1  0.632579  0.161535  0.500000  1
  In  In13  1  0.838358  0.367485  0.500000  1
  In  In14  1  0.161535  0.632579  0.500000  1
  In  In15  1  0.219624  0.076794  0.500000  1
  In  In16  1  0.780282  0.922053  0.500000  1
  In  In17  1  0.076794  0.219624  0.500000  1
  In  In18  1  0.922053  0.780282  0.500000  1
  In  In19  1  0.501092  0.501092  0.500000  1
  Pd  Pd20  1  0.449707  0.247733  0.500000  1
  Pd  Pd21  1  0.551922  0.751448  0.500000  1
  Pd  Pd22  1  0.247733  0.449707  0.500000  1
  Pd  Pd23  1  0.751448  0.551922  0.500000  1
