# generated using pymatgen
data_RbNaNp2(AgTe3)2
_symmetry_space_group_name_H-M   'P 1'
_cell_length_a   4.47477100
_cell_length_b   9.12682715
_cell_length_c   10.82419027
_cell_angle_alpha   71.03156633
_cell_angle_beta   90.00000000
_cell_angle_gamma   90.00000000
_symmetry_Int_Tables_number   1
_chemical_formula_structural   RbNaNp2(AgTe3)2
_chemical_formula_sum   'Rb1 Na1 Np2 Ag2 Te6'
_cell_volume   418.05982713
_cell_formula_units_Z   1
loop_
 _symmetry_equiv_pos_site_id
 _symmetry_equiv_pos_as_xyz
  1  'x, y, z'
loop_
 _atom_site_type_symbol
 _atom_site_label
 _atom_site_symmetry_multiplicity
 _atom_site_fract_x
 _atom_site_fract_y
 _atom_site_fract_z
 _atom_site_occupancy
  Rb  Rb0  1  0.250000  0.239299  0.717103  1
  Na  Na1  1  0.750000  0.766608  0.281034  1
  Np  Np2  1  0.250000  0.687985  0.840892  1
  Np  Np3  1  0.750000  0.313394  0.159415  1
  Ag  Ag4  1  0.250000  0.076417  0.408113  1
  Ag  Ag5  1  0.750000  0.918465  0.591491  1
  Te  Te6  1  0.250000  0.743191  0.546388  1
  Te  Te7  1  0.750000  0.906699  0.857474  1
  Te  Te8  1  0.750000  0.448853  0.859643  1
  Te  Te9  1  0.750000  0.252058  0.448116  1
  Te  Te10  1  0.250000  0.560170  0.145997  1
  Te  Te11  1  0.250000  0.086861  0.144333  1
