# generated using pymatgen
data_LiTa5(SiOs)6
_symmetry_space_group_name_H-M   'P 1'
_cell_length_a   7.45944781
_cell_length_b   7.42910089
_cell_length_c   7.45945023
_cell_angle_alpha   127.47849839
_cell_angle_beta   122.07129244
_cell_angle_gamma   82.09553609
_symmetry_Int_Tables_number   1
_chemical_formula_structural   LiTa5(SiOs)6
_chemical_formula_sum   'Li1 Ta5 Si6 Os6'
_cell_volume   267.19428148
_cell_formula_units_Z   1
loop_
 _symmetry_equiv_pos_site_id
 _symmetry_equiv_pos_as_xyz
  1  'x, y, z'
loop_
 _atom_site_type_symbol
 _atom_site_label
 _atom_site_symmetry_multiplicity
 _atom_site_fract_x
 _atom_site_fract_y
 _atom_site_fract_z
 _atom_site_occupancy
  Li  Li0  1  0.521536  0.035003  0.013469  1
  Ta  Ta1  1  0.467567  0.490627  0.523060  1
  Ta  Ta2  1  0.949056  0.493905  0.044849  1
  Ta  Ta3  1  0.061147  0.098938  0.537792  1
  Ta  Ta4  1  0.747158  0.910182  0.663024  1
  Ta  Ta5  1  0.250032  0.924156  0.174124  1
  Si  Si6  1  0.704914  0.468830  0.263915  1
  Si  Si7  1  0.280677  0.525729  0.745052  1
  Si  Si8  1  0.335389  0.833793  0.506401  1
  Si  Si9  1  0.672554  0.160938  0.489340  1
  Si  Si10  1  0.827392  0.833793  0.998404  1
  Si  Si11  1  0.171597  0.160938  0.988384  1
  Os  Os12  1  0.524713  0.250005  0.769990  1
  Os  Os13  1  0.980014  0.250005  0.225292  1
  Os  Os14  1  0.085174  0.746910  0.580814  1
  Os  Os15  1  0.916653  0.505768  0.667437  1
  Os  Os16  1  0.666096  0.746910  0.161737  1
  Os  Os17  1  0.338330  0.505768  0.089115  1
