# generated using pymatgen
data_CeDy2Al12Os3Ru
_symmetry_space_group_name_H-M   'P 1'
_cell_length_a   8.83230879
_cell_length_b   8.84647245
_cell_length_c   9.55370700
_cell_angle_alpha   90.00000000
_cell_angle_beta   90.00000000
_cell_angle_gamma   120.05306255
_symmetry_Int_Tables_number   1
_chemical_formula_structural   CeDy2Al12Os3Ru
_chemical_formula_sum   'Ce2 Dy4 Al24 Os6 Ru2'
_cell_volume   646.12189773
_cell_formula_units_Z   2
loop_
 _symmetry_equiv_pos_site_id
 _symmetry_equiv_pos_as_xyz
  1  'x, y, z'
loop_
 _atom_site_type_symbol
 _atom_site_label
 _atom_site_symmetry_multiplicity
 _atom_site_fract_x
 _atom_site_fract_y
 _atom_site_fract_z
 _atom_site_occupancy
  Ce  Ce0  1  0.804809  0.193321  0.750000  1
  Ce  Ce1  1  0.195191  0.388510  0.250000  1
  Dy  Dy2  1  0.808962  0.614604  0.750000  1
  Dy  Dy3  1  0.191038  0.805641  0.250000  1
  Dy  Dy4  1  0.611747  0.803793  0.250000  1
  Dy  Dy5  1  0.388253  0.192047  0.750000  1
  Al  Al6  1  0.334315  0.668815  0.487664  1
  Al  Al7  1  0.665685  0.334498  0.987664  1
  Al  Al8  1  0.665685  0.334498  0.512336  1
  Al  Al9  1  0.334315  0.668815  0.012336  1
  Al  Al10  1  0.162570  0.323822  0.578509  1
  Al  Al11  1  0.676009  0.836431  0.577820  1
  Al  Al12  1  0.161459  0.838254  0.576743  1
  Al  Al13  1  0.837430  0.161253  0.078509  1
  Al  Al14  1  0.837430  0.161253  0.421491  1
  Al  Al15  1  0.838541  0.676796  0.076743  1
  Al  Al16  1  0.323991  0.160423  0.077820  1
  Al  Al17  1  0.676009  0.836431  0.922180  1
  Al  Al18  1  0.162570  0.323822  0.921491  1
  Al  Al19  1  0.838541  0.676796  0.423257  1
  Al  Al20  1  0.999410  0.999332  0.250000  1
  Al  Al21  1  0.000590  0.999922  0.750000  1
  Al  Al22  1  0.560256  0.120803  0.250000  1
  Al  Al23  1  0.439744  0.560547  0.750000  1
  Al  Al24  1  0.123322  0.561572  0.750000  1
  Al  Al25  1  0.876678  0.438249  0.250000  1
  Al  Al26  1  0.562642  0.437581  0.250000  1
  Al  Al27  1  0.437358  0.874939  0.750000  1
  Al  Al28  1  0.161459  0.838254  0.923257  1
  Al  Al29  1  0.323991  0.160423  0.422180  1
  Os  Os30  1  0.500705  0.001664  0.502340  1
  Os  Os31  1  0.499295  0.500959  0.002340  1
  Os  Os32  1  0.000000  0.501580  0.000000  1
  Os  Os33  1  0.000000  0.501580  0.500000  1
  Os  Os34  1  0.499295  0.500959  0.497660  1
  Os  Os35  1  0.500705  0.001664  0.997660  1
  Ru  Ru36  1  0.000000  0.000075  0.500000  1
  Ru  Ru37  1  0.000000  0.000075  0.000000  1
