# generated using pymatgen
data_TbDy2Al3CuAu2
_symmetry_space_group_name_H-M   'P 1'
_cell_length_a   7.22590523
_cell_length_b   7.22273699
_cell_length_c   4.09744900
_cell_angle_alpha   90.00000000
_cell_angle_beta   90.00000000
_cell_angle_gamma   119.98549294
_symmetry_Int_Tables_number   1
_chemical_formula_structural   TbDy2Al3CuAu2
_chemical_formula_sum   'Tb1 Dy2 Al3 Cu1 Au2'
_cell_volume   185.22590190
_cell_formula_units_Z   1
loop_
 _symmetry_equiv_pos_site_id
 _symmetry_equiv_pos_as_xyz
  1  'x, y, z'
loop_
 _atom_site_type_symbol
 _atom_site_label
 _atom_site_symmetry_multiplicity
 _atom_site_fract_x
 _atom_site_fract_y
 _atom_site_fract_z
 _atom_site_occupancy
  Tb  Tb0  1  0.000000  0.407110  0.500000  1
  Dy  Dy1  1  0.593037  0.593049  0.500000  1
  Dy  Dy2  1  0.406963  0.000012  0.500000  1
  Al  Al3  1  0.000000  0.771441  0.000000  1
  Al  Al4  1  0.228696  0.228543  0.000000  1
  Al  Al5  1  0.771304  0.999847  0.000000  1
  Cu  Cu6  1  0.000000  0.999778  0.500000  1
  Au  Au7  1  0.333804  0.667013  0.000000  1
  Au  Au8  1  0.666196  0.333208  0.000000  1
