# generated using pymatgen
data_Hf13Ta3(Rh2N)4
_symmetry_space_group_name_H-M   'P 1'
_cell_length_a   8.62733731
_cell_length_b   8.62733659
_cell_length_c   8.62733737
_cell_angle_alpha   60.43660629
_cell_angle_beta   60.43661202
_cell_angle_gamma   60.43660732
_symmetry_Int_Tables_number   1
_chemical_formula_structural   Hf13Ta3(Rh2N)4
_chemical_formula_sum   'Hf13 Ta3 Rh8 N4'
_cell_volume   458.54437413
_cell_formula_units_Z   1
loop_
 _symmetry_equiv_pos_site_id
 _symmetry_equiv_pos_as_xyz
  1  'x, y, z'
loop_
 _atom_site_type_symbol
 _atom_site_label
 _atom_site_symmetry_multiplicity
 _atom_site_fract_x
 _atom_site_fract_y
 _atom_site_fract_z
 _atom_site_occupancy
  Hf  Hf0  1  0.625000  0.625000  0.625000  1
  Hf  Hf1  1  0.816269  0.816269  0.183020  1
  Hf  Hf2  1  0.185372  0.185372  0.814465  1
  Hf  Hf3  1  0.816269  0.183020  0.816269  1
  Hf  Hf4  1  0.185372  0.814465  0.185372  1
  Hf  Hf5  1  0.183020  0.816269  0.816269  1
  Hf  Hf6  1  0.814465  0.185372  0.185372  1
  Hf  Hf7  1  0.433731  0.433731  0.066980  1
  Hf  Hf8  1  0.064628  0.064628  0.435535  1
  Hf  Hf9  1  0.433731  0.066980  0.433731  1
  Hf  Hf10  1  0.064628  0.435535  0.064628  1
  Hf  Hf11  1  0.066980  0.433731  0.433731  1
  Hf  Hf12  1  0.435535  0.064628  0.064628  1
  Ta  Ta13  1  0.125000  0.625000  0.625000  1
  Ta  Ta14  1  0.625000  0.125000  0.625000  1
  Ta  Ta15  1  0.625000  0.625000  0.125000  1
  Rh  Rh16  1  0.767835  0.407977  0.407977  1
  Rh  Rh17  1  0.407977  0.767835  0.407977  1
  Rh  Rh18  1  0.407977  0.407977  0.767835  1
  Rh  Rh19  1  0.413180  0.413180  0.413180  1
  Rh  Rh20  1  0.482165  0.842023  0.842023  1
  Rh  Rh21  1  0.842023  0.482165  0.842023  1
  Rh  Rh22  1  0.842023  0.842023  0.482165  1
  Rh  Rh23  1  0.836820  0.836820  0.836820  1
  N  N24  1  0.625000  0.125000  0.125000  1
  N  N25  1  0.125000  0.625000  0.125000  1
  N  N26  1  0.125000  0.125000  0.625000  1
  N  N27  1  0.125000  0.125000  0.125000  1
