# generated using pymatgen
data_Lu8Cr3FeC8
_symmetry_space_group_name_H-M   'P 1'
_cell_length_a   4.90992100
_cell_length_b   6.32206933
_cell_length_c   9.51537238
_cell_angle_alpha   90.20021502
_cell_angle_beta   90.00000000
_cell_angle_gamma   90.00000000
_symmetry_Int_Tables_number   1
_chemical_formula_structural   Lu8Cr3FeC8
_chemical_formula_sum   'Lu8 Cr3 Fe1 C8'
_cell_volume   295.36354780
_cell_formula_units_Z   1
loop_
 _symmetry_equiv_pos_site_id
 _symmetry_equiv_pos_as_xyz
  1  'x, y, z'
loop_
 _atom_site_type_symbol
 _atom_site_label
 _atom_site_symmetry_multiplicity
 _atom_site_fract_x
 _atom_site_fract_y
 _atom_site_fract_z
 _atom_site_occupancy
  Lu  Lu0  1  0.250000  0.821700  0.943244  1
  Lu  Lu1  1  0.250000  0.320873  0.557106  1
  Lu  Lu2  1  0.750000  0.177839  0.059366  1
  Lu  Lu3  1  0.750000  0.676874  0.442103  1
  Lu  Lu4  1  0.250000  0.465437  0.217704  1
  Lu  Lu5  1  0.250000  0.968202  0.284389  1
  Lu  Lu6  1  0.750000  0.534826  0.782663  1
  Lu  Lu7  1  0.750000  0.033456  0.718350  1
  Cr  Cr8  1  0.250000  0.276831  0.863301  1
  Cr  Cr9  1  0.250000  0.775907  0.636287  1
  Cr  Cr10  1  0.750000  0.722834  0.138977  1
  Fe  Fe11  1  0.750000  0.224329  0.361723  1
  C  C12  1  0.250000  0.045540  0.737374  1
  C  C13  1  0.250000  0.545239  0.761334  1
  C  C14  1  0.750000  0.956247  0.261155  1
  C  C15  1  0.750000  0.454156  0.239125  1
  C  C16  1  0.250000  0.684268  0.454278  1
  C  C17  1  0.250000  0.184176  0.044994  1
  C  C18  1  0.750000  0.315640  0.540500  1
  C  C19  1  0.750000  0.815629  0.956029  1
