# generated using pymatgen
data_DyTm2Zn3Ge2Pt
_symmetry_space_group_name_H-M   'P 1'
_cell_length_a   6.90109495
_cell_length_b   6.89210883
_cell_length_c   4.26055800
_cell_angle_alpha   90.00000000
_cell_angle_beta   90.00000000
_cell_angle_gamma   119.95694094
_symmetry_Int_Tables_number   1
_chemical_formula_structural   DyTm2Zn3Ge2Pt
_chemical_formula_sum   'Dy1 Tm2 Zn3 Ge2 Pt1'
_cell_volume   175.57210512
_cell_formula_units_Z   1
loop_
 _symmetry_equiv_pos_site_id
 _symmetry_equiv_pos_as_xyz
  1  'x, y, z'
loop_
 _atom_site_type_symbol
 _atom_site_label
 _atom_site_symmetry_multiplicity
 _atom_site_fract_x
 _atom_site_fract_y
 _atom_site_fract_z
 _atom_site_occupancy
  Dy  Dy0  1  0.000000  0.586510  0.500000  1
  Tm  Tm1  1  0.412789  0.412697  0.500000  1
  Tm  Tm2  1  0.587211  0.999907  0.500000  1
  Zn  Zn3  1  0.762094  0.762664  0.000000  1
  Zn  Zn4  1  0.237906  0.000570  0.000000  1
  Zn  Zn5  1  0.000000  0.237029  0.000000  1
  Ge  Ge6  1  0.665328  0.332408  0.000000  1
  Ge  Ge7  1  0.334672  0.667081  0.000000  1
  Pt  Pt8  1  0.000000  0.001133  0.500000  1
