# generated using pymatgen
data_Ho16In3Hg3Pt2
_symmetry_space_group_name_H-M   'P 1'
_cell_length_a   10.33185100
_cell_length_b   10.33185037
_cell_length_c   7.02205700
_cell_angle_alpha   90.00000000
_cell_angle_beta   90.00000000
_cell_angle_gamma   119.99999880
_symmetry_Int_Tables_number   1
_chemical_formula_structural   Ho16In3Hg3Pt2
_chemical_formula_sum   'Ho16 In3 Hg3 Pt2'
_cell_volume   649.15922016
_cell_formula_units_Z   1
loop_
 _symmetry_equiv_pos_site_id
 _symmetry_equiv_pos_as_xyz
  1  'x, y, z'
loop_
 _atom_site_type_symbol
 _atom_site_label
 _atom_site_symmetry_multiplicity
 _atom_site_fract_x
 _atom_site_fract_y
 _atom_site_fract_z
 _atom_site_occupancy
  Ho  Ho0  1  0.532179  0.064357  0.510373  1
  Ho  Ho1  1  0.935643  0.467821  0.510373  1
  Ho  Ho2  1  0.532179  0.467821  0.510373  1
  Ho  Ho3  1  0.467087  0.934176  0.007320  1
  Ho  Ho4  1  0.065824  0.532913  0.007320  1
  Ho  Ho5  1  0.467087  0.532913  0.007320  1
  Ho  Ho6  1  0.170623  0.341247  0.718328  1
  Ho  Ho7  1  0.658753  0.829377  0.718328  1
  Ho  Ho8  1  0.170623  0.829377  0.718328  1
  Ho  Ho9  1  0.824766  0.649533  0.203636  1
  Ho  Ho10  1  0.350467  0.175234  0.203636  1
  Ho  Ho11  1  0.824766  0.175234  0.203636  1
  Ho  Ho12  1  0.666667  0.333333  0.877954  1
  Ho  Ho13  1  0.333333  0.666667  0.382435  1
  Ho  Ho14  1  0.000000  0.000000  0.487790  1
  Ho  Ho15  1  0.000000  0.000000  0.991608  1
  In  In16  1  0.163532  0.327063  0.255223  1
  In  In17  1  0.672937  0.836468  0.255223  1
  In  In18  1  0.163532  0.836468  0.255223  1
  Hg  Hg19  1  0.834546  0.669093  0.759522  1
  Hg  Hg20  1  0.330907  0.165454  0.759522  1
  Hg  Hg21  1  0.834546  0.165454  0.759522  1
  Pt  Pt22  1  0.666667  0.333333  0.278148  1
  Pt  Pt23  1  0.333333  0.666667  0.776903  1
