# generated using pymatgen
data_TbDy12Er3In4(IrRh)2
_symmetry_space_group_name_H-M   'P 1'
_cell_length_a   9.66750551
_cell_length_b   9.65503509
_cell_length_c   9.66299323
_cell_angle_alpha   59.79951785
_cell_angle_beta   59.81953442
_cell_angle_gamma   59.81126383
_symmetry_Int_Tables_number   1
_chemical_formula_structural   TbDy12Er3In4(IrRh)2
_chemical_formula_sum   'Tb1 Dy12 Er3 In4 Ir2 Rh2'
_cell_volume   635.02213243
_cell_formula_units_Z   1
loop_
 _symmetry_equiv_pos_site_id
 _symmetry_equiv_pos_as_xyz
  1  'x, y, z'
loop_
 _atom_site_type_symbol
 _atom_site_label
 _atom_site_symmetry_multiplicity
 _atom_site_fract_x
 _atom_site_fract_y
 _atom_site_fract_z
 _atom_site_occupancy
  Tb  Tb0  1  0.937324  0.939284  0.560725  1
  Dy  Dy1  1  0.149537  0.149620  0.548662  1
  Dy  Dy2  1  0.561199  0.938909  0.560572  1
  Dy  Dy3  1  0.150552  0.150965  0.152102  1
  Dy  Dy4  1  0.310369  0.310942  0.689791  1
  Dy  Dy5  1  0.939037  0.559875  0.559437  1
  Dy  Dy6  1  0.560582  0.560532  0.940457  1
  Dy  Dy7  1  0.561865  0.936705  0.938629  1
  Dy  Dy8  1  0.936947  0.560287  0.941126  1
  Dy  Dy9  1  0.148825  0.549977  0.149511  1
  Dy  Dy10  1  0.311948  0.689532  0.688800  1
  Dy  Dy11  1  0.689874  0.312214  0.688624  1
  Dy  Dy12  1  0.549493  0.148937  0.149730  1
  Er  Er13  1  0.690333  0.311511  0.310131  1
  Er  Er14  1  0.689772  0.688711  0.311401  1
  Er  Er15  1  0.311146  0.689979  0.310244  1
  In  In16  1  0.917152  0.917486  0.248535  1
  In  In17  1  0.249144  0.917254  0.917276  1
  In  In18  1  0.917116  0.248953  0.917334  1
  In  In19  1  0.916548  0.917054  0.917280  1
  Ir  Ir20  1  0.358917  0.359136  0.357669  1
  Ir  Ir21  1  0.924994  0.359218  0.357577  1
  Rh  Rh22  1  0.358047  0.358585  0.926167  1
  Rh  Rh23  1  0.359280  0.924333  0.358223  1
