# generated using pymatgen
data_Dy2Ho2Cd2CoCu3
_symmetry_space_group_name_H-M   'P 1'
_cell_length_a   7.51182159
_cell_length_b   7.51182110
_cell_length_c   3.67750600
_cell_angle_alpha   90.00000000
_cell_angle_beta   90.00000000
_cell_angle_gamma   90.26480132
_symmetry_Int_Tables_number   1
_chemical_formula_structural   Dy2Ho2Cd2CoCu3
_chemical_formula_sum   'Dy2 Ho2 Cd2 Co1 Cu3'
_cell_volume   207.51010629
_cell_formula_units_Z   1
loop_
 _symmetry_equiv_pos_site_id
 _symmetry_equiv_pos_as_xyz
  1  'x, y, z'
loop_
 _atom_site_type_symbol
 _atom_site_label
 _atom_site_symmetry_multiplicity
 _atom_site_fract_x
 _atom_site_fract_y
 _atom_site_fract_z
 _atom_site_occupancy
  Dy  Dy0  1  0.671670  0.171670  0.500000  1
  Dy  Dy1  1  0.310956  0.810956  0.500000  1
  Ho  Ho2  1  0.180344  0.344343  0.500000  1
  Ho  Ho3  1  0.844343  0.680344  0.500000  1
  Cd  Cd4  1  0.000986  0.004626  0.000000  1
  Cd  Cd5  1  0.504626  0.500986  0.000000  1
  Co  Co6  1  0.115711  0.615711  0.000000  1
  Cu  Cu7  1  0.880332  0.380332  0.000000  1
  Cu  Cu8  1  0.615462  0.875570  0.000000  1
  Cu  Cu9  1  0.375570  0.115462  0.000000  1
