# generated using pymatgen
data_InAg(NO3)4
_symmetry_space_group_name_H-M   'P 1'
_cell_length_a   8.06936122
_cell_length_b   8.00078800
_cell_length_c   7.98262712
_cell_angle_alpha   90.00000000
_cell_angle_beta   89.85933366
_cell_angle_gamma   90.00000000
_symmetry_Int_Tables_number   1
_chemical_formula_structural   InAg(NO3)4
_chemical_formula_sum   'In2 Ag2 N8 O24'
_cell_volume   515.36681890
_cell_formula_units_Z   2
loop_
 _symmetry_equiv_pos_site_id
 _symmetry_equiv_pos_as_xyz
  1  'x, y, z'
loop_
 _atom_site_type_symbol
 _atom_site_label
 _atom_site_symmetry_multiplicity
 _atom_site_fract_x
 _atom_site_fract_y
 _atom_site_fract_z
 _atom_site_occupancy
  In  In0  1  0.000000  0.500000  0.000000  1
  In  In1  1  0.000000  0.000000  0.500000  1
  Ag  Ag2  1  0.500000  0.500000  0.500000  1
  Ag  Ag3  1  0.500000  0.000000  0.000000  1
  N  N4  1  0.688912  0.147820  0.333774  1
  N  N5  1  0.688912  0.352180  0.833774  1
  N  N6  1  0.844746  0.811000  0.824671  1
  N  N7  1  0.844746  0.689000  0.324671  1
  N  N8  1  0.155254  0.189000  0.175329  1
  N  N9  1  0.155254  0.311000  0.675329  1
  N  N10  1  0.311088  0.647820  0.166226  1
  N  N11  1  0.311088  0.852180  0.666226  1
  O  O12  1  0.573873  0.249988  0.821040  1
  O  O13  1  0.573873  0.250012  0.321040  1
  O  O14  1  0.711390  0.470815  0.734333  1
  O  O15  1  0.711390  0.029185  0.234333  1
  O  O16  1  0.741138  0.706076  0.437790  1
  O  O17  1  0.741138  0.793924  0.937790  1
  O  O18  1  0.792516  0.332843  0.959961  1
  O  O19  1  0.792516  0.167157  0.459961  1
  O  O20  1  0.830322  0.928745  0.717122  1
  O  O21  1  0.830322  0.571255  0.217122  1
  O  O22  1  0.969542  0.711682  0.811139  1
  O  O23  1  0.969542  0.788318  0.311139  1
  O  O24  1  0.030458  0.211682  0.688861  1
  O  O25  1  0.030458  0.288318  0.188861  1
  O  O26  1  0.169678  0.428745  0.782878  1
  O  O27  1  0.169678  0.071255  0.282878  1
  O  O28  1  0.207484  0.667157  0.040039  1
  O  O29  1  0.207484  0.832843  0.540039  1
  O  O30  1  0.258862  0.206076  0.062210  1
  O  O31  1  0.258862  0.293924  0.562210  1
  O  O32  1  0.288610  0.529185  0.265667  1
  O  O33  1  0.288610  0.970815  0.765667  1
  O  O34  1  0.426127  0.749988  0.678960  1
  O  O35  1  0.426127  0.750012  0.178960  1
