# generated using pymatgen
data_Tb3(ZnGa)4
_symmetry_space_group_name_H-M   'P 1'
_cell_length_a   8.25430491
_cell_length_b   8.25430601
_cell_length_c   8.25430492
_cell_angle_alpha   149.35769480
_cell_angle_beta   131.20318916
_cell_angle_gamma   58.72828068
_symmetry_Int_Tables_number   1
_chemical_formula_structural   Tb3(ZnGa)4
_chemical_formula_sum   'Tb3 Zn4 Ga4'
_cell_volume   213.98989713
_cell_formula_units_Z   1
loop_
 _symmetry_equiv_pos_site_id
 _symmetry_equiv_pos_as_xyz
  1  'x, y, z'
loop_
 _atom_site_type_symbol
 _atom_site_label
 _atom_site_symmetry_multiplicity
 _atom_site_fract_x
 _atom_site_fract_y
 _atom_site_fract_z
 _atom_site_occupancy
  Tb  Tb0  1  0.500000  0.000000  0.500000  1
  Tb  Tb1  1  0.873474  0.873474  0.000000  1
  Tb  Tb2  1  0.126526  0.126526  0.000000  1
  Zn  Zn3  1  0.476463  0.665624  0.810839  1
  Zn  Zn4  1  0.854786  0.665624  0.189161  1
  Zn  Zn5  1  0.145214  0.334376  0.810839  1
  Zn  Zn6  1  0.523537  0.334376  0.189161  1
  Ga  Ga7  1  0.282043  0.782043  0.500000  1
  Ga  Ga8  1  0.717957  0.217957  0.500000  1
  Ga  Ga9  1  0.813177  0.500000  0.313177  1
  Ga  Ga10  1  0.186823  0.500000  0.686823  1
