# generated using pymatgen
data_Cs4Zr6NCl18
_symmetry_space_group_name_H-M   'P 1'
_cell_length_a   10.68274599
_cell_length_b   10.68274562
_cell_length_c   10.28664295
_cell_angle_alpha   77.05828464
_cell_angle_beta   77.05828684
_cell_angle_gamma   117.38855876
_symmetry_Int_Tables_number   1
_chemical_formula_structural   Cs4Zr6NCl18
_chemical_formula_sum   'Cs4 Zr6 N1 Cl18'
_cell_volume   940.54263890
_cell_formula_units_Z   1
loop_
 _symmetry_equiv_pos_site_id
 _symmetry_equiv_pos_as_xyz
  1  'x, y, z'
loop_
 _atom_site_type_symbol
 _atom_site_label
 _atom_site_symmetry_multiplicity
 _atom_site_fract_x
 _atom_site_fract_y
 _atom_site_fract_z
 _atom_site_occupancy
  Cs  Cs0  1  0.767743  0.447016  0.687354  1
  Cs  Cs1  1  0.552984  0.232257  0.312646  1
  Cs  Cs2  1  0.232257  0.552984  0.312646  1
  Cs  Cs3  1  0.447016  0.767743  0.687354  1
  Zr  Zr4  1  0.115733  0.115733  0.138745  1
  Zr  Zr5  1  0.884267  0.884267  0.861255  1
  Zr  Zr6  1  0.949570  0.773508  0.144624  1
  Zr  Zr7  1  0.226492  0.050430  0.855376  1
  Zr  Zr8  1  0.050430  0.226492  0.855376  1
  Zr  Zr9  1  0.773508  0.949570  0.144624  1
  N  N10  1  0.000000  0.000000  0.000000  1
  Cl  Cl11  1  0.815275  0.616136  0.007623  1
  Cl  Cl12  1  0.383865  0.184725  0.992377  1
  Cl  Cl13  1  0.184725  0.383865  0.992377  1
  Cl  Cl14  1  0.616135  0.815275  0.007623  1
  Cl  Cl15  1  0.197720  0.802280  0.000000  1
  Cl  Cl16  1  0.802280  0.197720  0.000000  1
  Cl  Cl17  1  0.312440  0.312440  0.678396  1
  Cl  Cl18  1  0.687560  0.687560  0.321604  1
  Cl  Cl19  1  0.891456  0.512235  0.312350  1
  Cl  Cl20  1  0.487765  0.108544  0.687650  1
  Cl  Cl21  1  0.108544  0.487765  0.687650  1
  Cl  Cl22  1  0.512235  0.891456  0.312350  1
  Cl  Cl23  1  0.247741  0.247741  0.293136  1
  Cl  Cl24  1  0.752259  0.752259  0.706864  1
  Cl  Cl25  1  0.074541  0.875461  0.313132  1
  Cl  Cl26  1  0.124539  0.925459  0.686868  1
  Cl  Cl27  1  0.925459  0.124539  0.686868  1
  Cl  Cl28  1  0.875461  0.074541  0.313132  1
