# generated using pymatgen
data_Zr4BCl6
_symmetry_space_group_name_H-M   'P 1'
_cell_length_a   12.18056800
_cell_length_b   12.50887100
_cell_length_c   3.51639800
_cell_angle_alpha   90.00000000
_cell_angle_beta   90.00000000
_cell_angle_gamma   90.00000000
_symmetry_Int_Tables_number   1
_chemical_formula_structural   Zr4BCl6
_chemical_formula_sum   'Zr8 B2 Cl12'
_cell_volume   535.77652216
_cell_formula_units_Z   2
loop_
 _symmetry_equiv_pos_site_id
 _symmetry_equiv_pos_as_xyz
  1  'x, y, z'
loop_
 _atom_site_type_symbol
 _atom_site_label
 _atom_site_symmetry_multiplicity
 _atom_site_fract_x
 _atom_site_fract_y
 _atom_site_fract_z
 _atom_site_occupancy
  Zr  Zr0  1  0.101786  0.080589  0.000000  1
  Zr  Zr1  1  0.601786  0.419411  0.000000  1
  Zr  Zr2  1  0.398214  0.580589  0.000000  1
  Zr  Zr3  1  0.898214  0.919411  0.000000  1
  Zr  Zr4  1  0.879233  0.141375  0.499999  1
  Zr  Zr5  1  0.379233  0.358625  0.499999  1
  Zr  Zr6  1  0.620766  0.641375  0.499999  1
  Zr  Zr7  1  0.120766  0.858625  0.499999  1
  B  B8  1  0.000000  0.000000  0.499999  1
  B  B9  1  0.500000  0.500000  0.499999  1
  Cl  Cl10  1  0.740560  0.064477  0.000000  1
  Cl  Cl11  1  0.485144  0.241804  0.000000  1
  Cl  Cl12  1  0.985144  0.258196  0.000000  1
  Cl  Cl13  1  0.240560  0.435523  0.000000  1
  Cl  Cl14  1  0.759440  0.564477  0.000000  1
  Cl  Cl15  1  0.014856  0.741804  0.000000  1
  Cl  Cl16  1  0.514856  0.758196  0.000000  1
  Cl  Cl17  1  0.259440  0.935523  0.000000  1
  Cl  Cl18  1  0.234882  0.182038  0.499999  1
  Cl  Cl19  1  0.734882  0.317962  0.499999  1
  Cl  Cl20  1  0.265118  0.682037  0.499999  1
  Cl  Cl21  1  0.765118  0.817962  0.499999  1
