# generated using pymatgen
data_Dy3TiCo8(SiP2)2
_symmetry_space_group_name_H-M   'P 1'
_cell_length_a   3.73330500
_cell_length_b   10.66511900
_cell_length_c   12.35426700
_cell_angle_alpha   90.00000000
_cell_angle_beta   90.00000000
_cell_angle_gamma   90.00000000
_symmetry_Int_Tables_number   1
_chemical_formula_structural   Dy3TiCo8(SiP2)2
_chemical_formula_sum   'Dy6 Ti2 Co16 Si4 P8'
_cell_volume   491.89925027
_cell_formula_units_Z   2
loop_
 _symmetry_equiv_pos_site_id
 _symmetry_equiv_pos_as_xyz
  1  'x, y, z'
loop_
 _atom_site_type_symbol
 _atom_site_label
 _atom_site_symmetry_multiplicity
 _atom_site_fract_x
 _atom_site_fract_y
 _atom_site_fract_z
 _atom_site_occupancy
  Dy  Dy0  1  0.000000  0.500000  0.527864  1
  Dy  Dy1  1  0.500000  0.000000  0.472136  1
  Dy  Dy2  1  0.500000  0.819204  0.206516  1
  Dy  Dy3  1  0.500000  0.180796  0.206516  1
  Dy  Dy4  1  0.000000  0.680796  0.793484  1
  Dy  Dy5  1  0.000000  0.319204  0.793484  1
  Ti  Ti6  1  0.500000  0.500000  0.148442  1
  Ti  Ti7  1  0.000000  0.000000  0.851558  1
  Co  Co8  1  0.500000  0.500000  0.697282  1
  Co  Co9  1  0.000000  0.000000  0.302718  1
  Co  Co10  1  0.000000  0.500000  0.991203  1
  Co  Co11  1  0.500000  0.000000  0.008797  1
  Co  Co12  1  0.500000  0.329689  0.996760  1
  Co  Co13  1  0.500000  0.670311  0.996760  1
  Co  Co14  1  0.000000  0.170311  0.003240  1
  Co  Co15  1  0.000000  0.829689  0.003240  1
  Co  Co16  1  0.500000  0.293993  0.433212  1
  Co  Co17  1  0.500000  0.706007  0.433212  1
  Co  Co18  1  0.000000  0.206007  0.566788  1
  Co  Co19  1  0.000000  0.793993  0.566788  1
  Co  Co20  1  0.500000  0.878006  0.706623  1
  Co  Co21  1  0.500000  0.121994  0.706623  1
  Co  Co22  1  0.000000  0.621994  0.293377  1
  Co  Co23  1  0.000000  0.378006  0.293377  1
  Si  Si24  1  0.500000  0.500000  0.884584  1
  Si  Si25  1  0.000000  0.000000  0.115416  1
  Si  Si26  1  0.500000  0.500000  0.351010  1
  Si  Si27  1  0.000000  0.000000  0.648990  1
  P  P28  1  0.500000  0.306877  0.615732  1
  P  P29  1  0.500000  0.693123  0.615732  1
  P  P30  1  0.000000  0.193123  0.384268  1
  P  P31  1  0.000000  0.806877  0.384268  1
  P  P32  1  0.500000  0.842271  0.892938  1
  P  P33  1  0.500000  0.157729  0.892938  1
  P  P34  1  0.000000  0.657729  0.107062  1
  P  P35  1  0.000000  0.342271  0.107062  1
