# generated using pymatgen
data_ErTmFe8(MoP3)2
_symmetry_space_group_name_H-M   'P 1'
_cell_length_a   3.70399300
_cell_length_b   10.41234700
_cell_length_c   11.95164100
_cell_angle_alpha   90.00000000
_cell_angle_beta   90.00000000
_cell_angle_gamma   90.00000000
_symmetry_Int_Tables_number   1
_chemical_formula_structural   ErTmFe8(MoP3)2
_chemical_formula_sum   'Er2 Tm2 Fe16 Mo4 P12'
_cell_volume   460.94205067
_cell_formula_units_Z   2
loop_
 _symmetry_equiv_pos_site_id
 _symmetry_equiv_pos_as_xyz
  1  'x, y, z'
loop_
 _atom_site_type_symbol
 _atom_site_label
 _atom_site_symmetry_multiplicity
 _atom_site_fract_x
 _atom_site_fract_y
 _atom_site_fract_z
 _atom_site_occupancy
  Er  Er0  1  0.250000  0.582255  0.707510  1
  Er  Er1  1  0.250000  0.917745  0.207510  1
  Tm  Tm2  1  0.750000  0.417432  0.292471  1
  Tm  Tm3  1  0.750000  0.082568  0.792471  1
  Fe  Fe4  1  0.250000  0.409136  0.492215  1
  Fe  Fe5  1  0.250000  0.090864  0.992215  1
  Fe  Fe6  1  0.750000  0.590664  0.507247  1
  Fe  Fe7  1  0.750000  0.909336  0.007247  1
  Fe  Fe8  1  0.250000  0.217510  0.177782  1
  Fe  Fe9  1  0.250000  0.282490  0.677782  1
  Fe  Fe10  1  0.750000  0.782997  0.822286  1
  Fe  Fe11  1  0.750000  0.717003  0.322286  1
  Fe  Fe12  1  0.250000  0.876729  0.701659  1
  Fe  Fe13  1  0.250000  0.623271  0.201659  1
  Fe  Fe14  1  0.750000  0.123964  0.298524  1
  Fe  Fe15  1  0.750000  0.376036  0.798524  1
  Fe  Fe16  1  0.250000  0.462879  0.932608  1
  Fe  Fe17  1  0.250000  0.037121  0.432608  1
  Fe  Fe18  1  0.750000  0.536617  0.067626  1
  Fe  Fe19  1  0.750000  0.963383  0.567626  1
  Mo  Mo20  1  0.250000  0.706362  0.987588  1
  Mo  Mo21  1  0.250000  0.793638  0.487588  1
  Mo  Mo22  1  0.750000  0.293646  0.012366  1
  Mo  Mo23  1  0.750000  0.206354  0.512366  1
  P  P24  1  0.250000  0.425430  0.114303  1
  P  P25  1  0.250000  0.074570  0.614303  1
  P  P26  1  0.750000  0.574137  0.886247  1
  P  P27  1  0.750000  0.925863  0.386247  1
  P  P28  1  0.250000  0.264652  0.867252  1
  P  P29  1  0.250000  0.235348  0.367252  1
  P  P30  1  0.750000  0.734877  0.132483  1
  P  P31  1  0.750000  0.765123  0.632483  1
  P  P32  1  0.250000  0.592761  0.389532  1
  P  P33  1  0.250000  0.907239  0.889532  1
  P  P34  1  0.750000  0.406495  0.610301  1
  P  P35  1  0.750000  0.093505  0.110301  1
