# generated using pymatgen
data_Er9Th(Sn3C)2
_symmetry_space_group_name_H-M   'P 1'
_cell_length_a   8.94507040
_cell_length_b   8.94506987
_cell_length_c   6.47793700
_cell_angle_alpha   90.00000000
_cell_angle_beta   90.00000000
_cell_angle_gamma   120.11364827
_symmetry_Int_Tables_number   1
_chemical_formula_structural   Er9Th(Sn3C)2
_chemical_formula_sum   'Er9 Th1 Sn6 C2'
_cell_volume   448.36980701
_cell_formula_units_Z   1
loop_
 _symmetry_equiv_pos_site_id
 _symmetry_equiv_pos_as_xyz
  1  'x, y, z'
loop_
 _atom_site_type_symbol
 _atom_site_label
 _atom_site_symmetry_multiplicity
 _atom_site_fract_x
 _atom_site_fract_y
 _atom_site_fract_z
 _atom_site_occupancy
  Er  Er0  1  0.667002  0.333808  0.500665  1
  Er  Er1  1  0.333808  0.667002  0.500665  1
  Er  Er2  1  0.333808  0.667002  0.999335  1
  Er  Er3  1  0.667002  0.333808  0.999335  1
  Er  Er4  1  0.216135  0.001839  0.250000  1
  Er  Er5  1  0.001839  0.216135  0.250000  1
  Er  Er6  1  0.213100  0.213100  0.750000  1
  Er  Er7  1  0.788363  0.001576  0.750000  1
  Er  Er8  1  0.001576  0.788363  0.750000  1
  Th  Th9  1  0.782742  0.782742  0.250000  1
  Sn  Sn10  1  0.404514  0.404514  0.250000  1
  Sn  Sn11  1  0.590142  0.004135  0.250000  1
  Sn  Sn12  1  0.004135  0.590142  0.250000  1
  Sn  Sn13  1  0.594121  0.594121  0.750000  1
  Sn  Sn14  1  0.405769  0.000544  0.750000  1
  Sn  Sn15  1  0.000544  0.405769  0.750000  1
  C  C16  1  0.997700  0.997700  0.499991  1
  C  C17  1  0.997700  0.997700  0.000009  1
