# generated using pymatgen
data_Y7Sn23(Ir2Os)2
_symmetry_space_group_name_H-M   'P 1'
_cell_length_a   9.88293200
_cell_length_b   9.88376206
_cell_length_c   10.12256426
_cell_angle_alpha   90.04940033
_cell_angle_beta   90.00000000
_cell_angle_gamma   119.99722861
_symmetry_Int_Tables_number   1
_chemical_formula_structural   Y7Sn23(Ir2Os)2
_chemical_formula_sum   'Y7 Sn23 Ir4 Os2'
_cell_volume   856.33003216
_cell_formula_units_Z   1
loop_
 _symmetry_equiv_pos_site_id
 _symmetry_equiv_pos_as_xyz
  1  'x, y, z'
loop_
 _atom_site_type_symbol
 _atom_site_label
 _atom_site_symmetry_multiplicity
 _atom_site_fract_x
 _atom_site_fract_y
 _atom_site_fract_z
 _atom_site_occupancy
  Y  Y0  1  0.998315  0.996631  0.996023  1
  Y  Y1  1  0.040207  0.520133  0.306688  1
  Y  Y2  1  0.479499  0.958999  0.306459  1
  Y  Y3  1  0.479926  0.520133  0.306688  1
  Y  Y4  1  0.961799  0.481885  0.693535  1
  Y  Y5  1  0.518893  0.037785  0.694017  1
  Y  Y6  1  0.520086  0.481885  0.693535  1
  Sn  Sn7  1  0.999992  0.999985  0.497608  1
  Sn  Sn8  1  0.118170  0.881958  0.283898  1
  Sn  Sn9  1  0.763788  0.881958  0.283898  1
  Sn  Sn10  1  0.117683  0.235365  0.284216  1
  Sn  Sn11  1  0.882027  0.116241  0.717776  1
  Sn  Sn12  1  0.234213  0.116241  0.717776  1
  Sn  Sn13  1  0.883015  0.766030  0.719167  1
  Sn  Sn14  1  0.350323  0.998866  0.999573  1
  Sn  Sn15  1  0.648789  0.650097  0.999550  1
  Sn  Sn16  1  0.999965  0.352225  0.000070  1
  Sn  Sn17  1  0.352260  0.352225  0.000070  1
  Sn  Sn18  1  0.001308  0.650097  0.999550  1
  Sn  Sn19  1  0.648544  0.998866  0.999573  1
  Sn  Sn20  1  0.778191  0.556383  0.456270  1
  Sn  Sn21  1  0.778103  0.222368  0.456103  1
  Sn  Sn22  1  0.444265  0.222368  0.456103  1
  Sn  Sn23  1  0.222339  0.444678  0.544389  1
  Sn  Sn24  1  0.221702  0.778094  0.544519  1
  Sn  Sn25  1  0.556392  0.778094  0.544519  1
  Sn  Sn26  1  0.666551  0.333102  0.174823  1
  Sn  Sn27  1  0.334503  0.669007  0.824440  1
  Sn  Sn28  1  0.666546  0.333091  0.880204  1
  Sn  Sn29  1  0.333025  0.666051  0.120832  1
  Ir  Ir30  1  0.168467  0.336933  0.801008  1
  Ir  Ir31  1  0.831046  0.169100  0.198656  1
  Ir  Ir32  1  0.338053  0.169100  0.198656  1
  Ir  Ir33  1  0.830787  0.661575  0.198426  1
  Os  Os34  1  0.167814  0.831226  0.800690  1
  Os  Os35  1  0.663413  0.831226  0.800690  1
