# generated using pymatgen
data_Tb8In2IrPt
_symmetry_space_group_name_H-M   'P 1'
_cell_length_a   9.74440013
_cell_length_b   9.74439996
_cell_length_c   9.71409800
_cell_angle_alpha   60.10280738
_cell_angle_beta   60.10280795
_cell_angle_gamma   60.27647690
_symmetry_Int_Tables_number   1
_chemical_formula_structural   Tb8In2IrPt
_chemical_formula_sum   'Tb16 In4 Ir2 Pt2'
_cell_volume   654.59528967
_cell_formula_units_Z   2
loop_
 _symmetry_equiv_pos_site_id
 _symmetry_equiv_pos_as_xyz
  1  'x, y, z'
loop_
 _atom_site_type_symbol
 _atom_site_label
 _atom_site_symmetry_multiplicity
 _atom_site_fract_x
 _atom_site_fract_y
 _atom_site_fract_z
 _atom_site_occupancy
  Tb  Tb0  1  0.104785  0.696633  0.099291  1
  Tb  Tb1  1  0.941938  0.941938  0.558062  1
  Tb  Tb2  1  0.941947  0.554966  0.940607  1
  Tb  Tb3  1  0.313538  0.689032  0.309079  1
  Tb  Tb4  1  0.941947  0.554966  0.562479  1
  Tb  Tb5  1  0.311730  0.311730  0.688270  1
  Tb  Tb6  1  0.100497  0.100497  0.095023  1
  Tb  Tb7  1  0.559292  0.559292  0.940708  1
  Tb  Tb8  1  0.100497  0.100497  0.703982  1
  Tb  Tb9  1  0.689032  0.313538  0.688351  1
  Tb  Tb10  1  0.688971  0.688971  0.311029  1
  Tb  Tb11  1  0.689032  0.313538  0.309079  1
  Tb  Tb12  1  0.313538  0.689032  0.688351  1
  Tb  Tb13  1  0.554966  0.941947  0.562479  1
  Tb  Tb14  1  0.696633  0.104785  0.099291  1
  Tb  Tb15  1  0.554966  0.941947  0.940607  1
  In  In16  1  0.332907  0.332907  0.332887  1
  In  In17  1  0.002532  0.331919  0.332774  1
  In  In18  1  0.331919  0.002532  0.332774  1
  In  In19  1  0.332907  0.332907  0.001298  1
  Ir  Ir20  1  0.324293  0.889867  0.892920  1
  Ir  Ir21  1  0.889867  0.324293  0.892920  1
  Pt  Pt22  1  0.891132  0.891132  0.894662  1
  Pt  Pt23  1  0.891132  0.891132  0.323073  1
