# generated using pymatgen
data_YTm2In3NiPt2
_symmetry_space_group_name_H-M   'P 1'
_cell_length_a   7.66215528
_cell_length_b   7.66215531
_cell_length_c   3.73858900
_cell_angle_alpha   90.00000000
_cell_angle_beta   90.00000000
_cell_angle_gamma   120.48376805
_symmetry_Int_Tables_number   1
_chemical_formula_structural   YTm2In3NiPt2
_chemical_formula_sum   'Y1 Tm2 In3 Ni1 Pt2'
_cell_volume   189.14830878
_cell_formula_units_Z   1
loop_
 _symmetry_equiv_pos_site_id
 _symmetry_equiv_pos_as_xyz
  1  'x, y, z'
loop_
 _atom_site_type_symbol
 _atom_site_label
 _atom_site_symmetry_multiplicity
 _atom_site_fract_x
 _atom_site_fract_y
 _atom_site_fract_z
 _atom_site_occupancy
  Y  Y0  1  0.408663  0.408663  0.500000  1
  Tm  Tm1  1  0.590280  0.000260  0.500000  1
  Tm  Tm2  1  0.000260  0.590280  0.500000  1
  In  In3  1  0.998956  0.249098  0.000000  1
  In  In4  1  0.750834  0.750834  0.000000  1
  In  In5  1  0.249098  0.998956  0.000000  1
  Ni  Ni6  1  0.999160  0.999160  0.500000  1
  Pt  Pt7  1  0.670640  0.332110  0.000000  1
  Pt  Pt8  1  0.332110  0.670640  0.000000  1
