# generated using pymatgen
data_Tb4TmTl3Br
_symmetry_space_group_name_H-M   'P 1'
_cell_length_a   9.21794900
_cell_length_b   9.21794838
_cell_length_c   6.75402700
_cell_angle_alpha   90.00000000
_cell_angle_beta   90.00000000
_cell_angle_gamma   120.00000581
_symmetry_Int_Tables_number   1
_chemical_formula_structural   Tb4TmTl3Br
_chemical_formula_sum   'Tb8 Tm2 Tl6 Br2'
_cell_volume   497.00638881
_cell_formula_units_Z   2
loop_
 _symmetry_equiv_pos_site_id
 _symmetry_equiv_pos_as_xyz
  1  'x, y, z'
loop_
 _atom_site_type_symbol
 _atom_site_label
 _atom_site_symmetry_multiplicity
 _atom_site_fract_x
 _atom_site_fract_y
 _atom_site_fract_z
 _atom_site_occupancy
  Tb  Tb0  1  0.733841  0.733841  0.250703  1
  Tb  Tb1  1  0.000000  0.733841  0.749297  1
  Tb  Tb2  1  0.733841  0.000000  0.749297  1
  Tb  Tb3  1  0.266159  0.266159  0.749297  1
  Tb  Tb4  1  0.000000  0.266159  0.250703  1
  Tb  Tb5  1  0.266159  0.000000  0.250703  1
  Tb  Tb6  1  0.333333  0.666667  0.000000  1
  Tb  Tb7  1  0.666667  0.333333  0.000000  1
  Tm  Tm8  1  0.333333  0.666667  0.500000  1
  Tm  Tm9  1  0.666667  0.333333  0.500000  1
  Tl  Tl10  1  0.393532  0.000000  0.749044  1
  Tl  Tl11  1  0.000000  0.606468  0.250956  1
  Tl  Tl12  1  0.606468  0.000000  0.250956  1
  Tl  Tl13  1  0.000000  0.393532  0.749044  1
  Tl  Tl14  1  0.393532  0.393532  0.250956  1
  Tl  Tl15  1  0.606468  0.606468  0.749044  1
  Br  Br16  1  0.000000  0.000000  0.500000  1
  Br  Br17  1  0.000000  0.000000  0.000000  1
