# generated using pymatgen
data_Tb3Ho5(PBr6)2
_symmetry_space_group_name_H-M   'P 1'
_cell_length_a   3.99474400
_cell_length_b   13.09403077
_cell_length_c   13.80317665
_cell_angle_alpha   90.10483003
_cell_angle_beta   90.00000000
_cell_angle_gamma   90.00000000
_symmetry_Int_Tables_number   1
_chemical_formula_structural   Tb3Ho5(PBr6)2
_chemical_formula_sum   'Tb3 Ho5 P2 Br12'
_cell_volume   722.00570513
_cell_formula_units_Z   1
loop_
 _symmetry_equiv_pos_site_id
 _symmetry_equiv_pos_as_xyz
  1  'x, y, z'
loop_
 _atom_site_type_symbol
 _atom_site_label
 _atom_site_symmetry_multiplicity
 _atom_site_fract_x
 _atom_site_fract_y
 _atom_site_fract_z
 _atom_site_occupancy
  Tb  Tb0  1  0.000000  0.884840  0.423381  1
  Tb  Tb1  1  0.000000  0.615701  0.922936  1
  Tb  Tb2  1  0.000000  0.384202  0.076953  1
  Ho  Ho3  1  0.500000  0.116993  0.343306  1
  Ho  Ho4  1  0.500000  0.883159  0.656787  1
  Ho  Ho5  1  0.500000  0.616990  0.156829  1
  Ho  Ho6  1  0.500000  0.382850  0.843073  1
  Ho  Ho7  1  0.000000  0.115070  0.576507  1
  P  P8  1  0.500000  0.001195  0.500783  1
  P  P9  1  0.500000  0.499938  0.999918  1
  Br  Br10  1  0.500000  0.241758  0.164285  1
  Br  Br11  1  0.500000  0.758421  0.835845  1
  Br  Br12  1  0.500000  0.742039  0.335986  1
  Br  Br13  1  0.500000  0.256175  0.663159  1
  Br  Br14  1  0.000000  0.256178  0.412095  1
  Br  Br15  1  0.000000  0.743458  0.589426  1
  Br  Br16  1  0.000000  0.756442  0.089407  1
  Br  Br17  1  0.000000  0.243435  0.910477  1
  Br  Br18  1  0.000000  0.002408  0.241522  1
  Br  Br19  1  0.000000  0.999078  0.757484  1
  Br  Br20  1  0.000000  0.502420  0.258439  1
  Br  Br21  1  0.000000  0.497248  0.741402  1
