# generated using pymatgen
data_Ho4TmOsRu
_symmetry_space_group_name_H-M   'P 1'
_cell_length_a   6.31151968
_cell_length_b   7.29491191
_cell_length_c   8.39611649
_cell_angle_alpha   96.78415859
_cell_angle_beta   112.07744365
_cell_angle_gamma   90.00000481
_symmetry_Int_Tables_number   1
_chemical_formula_structural   Ho4TmOsRu
_chemical_formula_sum   'Ho8 Tm2 Os2 Ru2'
_cell_volume   355.30637240
_cell_formula_units_Z   2
loop_
 _symmetry_equiv_pos_site_id
 _symmetry_equiv_pos_as_xyz
  1  'x, y, z'
loop_
 _atom_site_type_symbol
 _atom_site_label
 _atom_site_symmetry_multiplicity
 _atom_site_fract_x
 _atom_site_fract_y
 _atom_site_fract_z
 _atom_site_occupancy
  Ho  Ho0  1  0.793317  0.083533  0.817237  1
  Ho  Ho1  1  0.976081  0.416467  0.182763  1
  Ho  Ho2  1  0.208337  0.915585  0.185118  1
  Ho  Ho3  1  0.023219  0.584415  0.814882  1
  Ho  Ho4  1  0.204842  0.183528  0.565126  1
  Ho  Ho5  1  0.639716  0.316472  0.434874  1
  Ho  Ho6  1  0.794434  0.816439  0.434304  1
  Ho  Ho7  1  0.360130  0.683561  0.565696  1
  Tm  Tm8  1  0.422210  0.250000  0.000000  1
  Tm  Tm9  1  0.579522  0.750000  0.000000  1
  Os  Os10  1  0.602564  0.423418  0.782135  1
  Os  Os11  1  0.820428  0.076582  0.217865  1
  Ru  Ru12  1  0.397040  0.577083  0.218880  1
  Ru  Ru13  1  0.178161  0.922917  0.781120  1
