# generated using pymatgen
data_La9Pr7(CdPt)4
_symmetry_space_group_name_H-M   'P 1'
_cell_length_a   10.16792877
_cell_length_b   10.16792934
_cell_length_c   10.12701600
_cell_angle_alpha   60.13300948
_cell_angle_beta   60.13300766
_cell_angle_gamma   60.61240063
_symmetry_Int_Tables_number   1
_chemical_formula_structural   La9Pr7(CdPt)4
_chemical_formula_sum   'La9 Pr7 Cd4 Pt4'
_cell_volume   745.21162315
_cell_formula_units_Z   1
loop_
 _symmetry_equiv_pos_site_id
 _symmetry_equiv_pos_as_xyz
  1  'x, y, z'
loop_
 _atom_site_type_symbol
 _atom_site_label
 _atom_site_symmetry_multiplicity
 _atom_site_fract_x
 _atom_site_fract_y
 _atom_site_fract_z
 _atom_site_occupancy
  La  La0  1  0.349632  0.349632  0.349096  1
  La  La1  1  0.349632  0.349632  0.951640  1
  La  La2  1  0.351638  0.949369  0.349496  1
  La  La3  1  0.949369  0.351638  0.349496  1
  La  La4  1  0.806405  0.192733  0.193950  1
  La  La5  1  0.192733  0.806405  0.806911  1
  La  La6  1  0.192733  0.806405  0.193950  1
  La  La7  1  0.806405  0.192733  0.806911  1
  La  La8  1  0.193503  0.193503  0.806497  1
  Pr  Pr9  1  0.805659  0.805659  0.194341  1
  Pr  Pr10  1  0.935507  0.564927  0.565695  1
  Pr  Pr11  1  0.564927  0.935507  0.933871  1
  Pr  Pr12  1  0.564927  0.935507  0.565695  1
  Pr  Pr13  1  0.935507  0.564927  0.933871  1
  Pr  Pr14  1  0.564876  0.564876  0.935124  1
  Pr  Pr15  1  0.934397  0.934397  0.565603  1
  Cd  Cd16  1  0.580972  0.580972  0.579899  1
  Cd  Cd17  1  0.580972  0.580972  0.258156  1
  Cd  Cd18  1  0.580647  0.258430  0.580461  1
  Cd  Cd19  1  0.258430  0.580647  0.580461  1
  Pt  Pt20  1  0.142517  0.142517  0.142655  1
  Pt  Pt21  1  0.142517  0.142517  0.572311  1
  Pt  Pt22  1  0.143764  0.572331  0.141953  1
  Pt  Pt23  1  0.572331  0.143764  0.141953  1
