# generated using pymatgen
data_Tb5Y3(AgIr)2
_symmetry_space_group_name_H-M   'P 1'
_cell_length_a   9.58672131
_cell_length_b   9.58672132
_cell_length_c   9.58672100
_cell_angle_alpha   59.99999767
_cell_angle_beta   59.99999764
_cell_angle_gamma   59.99999845
_symmetry_Int_Tables_number   1
_chemical_formula_structural   Tb5Y3(AgIr)2
_chemical_formula_sum   'Tb10 Y6 Ag4 Ir4'
_cell_volume   623.01037031
_cell_formula_units_Z   2
loop_
 _symmetry_equiv_pos_site_id
 _symmetry_equiv_pos_as_xyz
  1  'x, y, z'
loop_
 _atom_site_type_symbol
 _atom_site_label
 _atom_site_symmetry_multiplicity
 _atom_site_fract_x
 _atom_site_fract_y
 _atom_site_fract_z
 _atom_site_occupancy
  Tb  Tb0  1  0.351522  0.351522  0.351522  1
  Tb  Tb1  1  0.351522  0.351522  0.945433  1
  Tb  Tb2  1  0.351522  0.945433  0.351522  1
  Tb  Tb3  1  0.945433  0.351522  0.351522  1
  Tb  Tb4  1  0.810962  0.189038  0.189038  1
  Tb  Tb5  1  0.189038  0.810962  0.810962  1
  Tb  Tb6  1  0.189038  0.810962  0.189038  1
  Tb  Tb7  1  0.810962  0.189038  0.810962  1
  Tb  Tb8  1  0.189038  0.189038  0.810962  1
  Tb  Tb9  1  0.810962  0.810962  0.189038  1
  Y  Y10  1  0.936800  0.563200  0.563200  1
  Y  Y11  1  0.563200  0.936800  0.936800  1
  Y  Y12  1  0.563200  0.936800  0.563200  1
  Y  Y13  1  0.936800  0.563200  0.936800  1
  Y  Y14  1  0.563200  0.563200  0.936800  1
  Y  Y15  1  0.936800  0.936800  0.563200  1
  Ag  Ag16  1  0.581623  0.581623  0.581623  1
  Ag  Ag17  1  0.581623  0.581623  0.255133  1
  Ag  Ag18  1  0.581623  0.255133  0.581623  1
  Ag  Ag19  1  0.255133  0.581623  0.581623  1
  Ir  Ir20  1  0.142507  0.142507  0.142507  1
  Ir  Ir21  1  0.142507  0.142507  0.572478  1
  Ir  Ir22  1  0.142507  0.572478  0.142507  1
  Ir  Ir23  1  0.572478  0.142507  0.142507  1
