# generated using pymatgen
data_Rb7Pa(SO4)6
_symmetry_space_group_name_H-M   'P 1'
_cell_length_a   9.78555819
_cell_length_b   9.78555813
_cell_length_c   9.78555900
_cell_angle_alpha   109.71073928
_cell_angle_beta   109.71074537
_cell_angle_gamma   109.71076020
_symmetry_Int_Tables_number   1
_chemical_formula_structural   Rb7Pa(SO4)6
_chemical_formula_sum   'Rb7 Pa1 S6 O24'
_cell_volume   714.86308804
_cell_formula_units_Z   1
loop_
 _symmetry_equiv_pos_site_id
 _symmetry_equiv_pos_as_xyz
  1  'x, y, z'
loop_
 _atom_site_type_symbol
 _atom_site_label
 _atom_site_symmetry_multiplicity
 _atom_site_fract_x
 _atom_site_fract_y
 _atom_site_fract_z
 _atom_site_occupancy
  Rb  Rb0  1  0.500000  0.500000  0.500000  1
  Rb  Rb1  1  0.838449  0.337527  0.683514  1
  Rb  Rb2  1  0.337527  0.683514  0.838449  1
  Rb  Rb3  1  0.683514  0.838449  0.337527  1
  Rb  Rb4  1  0.161551  0.662473  0.316486  1
  Rb  Rb5  1  0.662473  0.316486  0.161551  1
  Rb  Rb6  1  0.316486  0.161551  0.662473  1
  Pa  Pa7  1  0.000000  0.000000  0.000000  1
  S  S8  1  0.966303  0.739997  0.610227  1
  S  S9  1  0.739997  0.610227  0.966303  1
  S  S10  1  0.610227  0.966303  0.739997  1
  S  S11  1  0.033697  0.260003  0.389773  1
  S  S12  1  0.260003  0.389773  0.033697  1
  S  S13  1  0.389773  0.033697  0.260003  1
  O  O14  1  0.430151  0.912332  0.173292  1
  O  O15  1  0.912332  0.173292  0.430151  1
  O  O16  1  0.173292  0.430151  0.912332  1
  O  O17  1  0.569849  0.087668  0.826708  1
  O  O18  1  0.087668  0.826708  0.569849  1
  O  O19  1  0.826708  0.569849  0.087668  1
  O  O20  1  0.317518  0.988240  0.357953  1
  O  O21  1  0.988240  0.357953  0.317518  1
  O  O22  1  0.357953  0.317518  0.988240  1
  O  O23  1  0.682482  0.011760  0.642047  1
  O  O24  1  0.011760  0.642047  0.682482  1
  O  O25  1  0.642047  0.682482  0.011760  1
  O  O26  1  0.751857  0.971368  0.884372  1
  O  O27  1  0.971368  0.884372  0.751857  1
  O  O28  1  0.641116  0.468112  0.791057  1
  O  O29  1  0.791057  0.641116  0.468112  1
  O  O30  1  0.468112  0.791057  0.641116  1
  O  O31  1  0.358884  0.531888  0.208943  1
  O  O32  1  0.208943  0.358884  0.531888  1
  O  O33  1  0.531888  0.208943  0.358884  1
  O  O34  1  0.115628  0.248143  0.028632  1
  O  O35  1  0.028632  0.115628  0.248143  1
  O  O36  1  0.248143  0.028632  0.115628  1
  O  O37  1  0.884372  0.751857  0.971368  1
