# generated using pymatgen
data_Nd3RuCl3
_symmetry_space_group_name_H-M   'P 1'
_cell_length_a   4.17244500
_cell_length_b   12.52886400
_cell_length_c   14.21243900
_cell_angle_alpha   90.00000000
_cell_angle_beta   90.00000000
_cell_angle_gamma   90.00000000
_symmetry_Int_Tables_number   1
_chemical_formula_structural   Nd3RuCl3
_chemical_formula_sum   'Nd12 Ru4 Cl12'
_cell_volume   742.96940364
_cell_formula_units_Z   4
loop_
 _symmetry_equiv_pos_site_id
 _symmetry_equiv_pos_as_xyz
  1  'x, y, z'
loop_
 _atom_site_type_symbol
 _atom_site_label
 _atom_site_symmetry_multiplicity
 _atom_site_fract_x
 _atom_site_fract_y
 _atom_site_fract_z
 _atom_site_occupancy
  Nd  Nd0  1  0.250000  0.822250  0.085241  1
  Nd  Nd1  1  0.250000  0.429222  0.865899  1
  Nd  Nd2  1  0.250000  0.070778  0.365899  1
  Nd  Nd3  1  0.750000  0.929222  0.634101  1
  Nd  Nd4  1  0.750000  0.177750  0.914759  1
  Nd  Nd5  1  0.750000  0.823183  0.393718  1
  Nd  Nd6  1  0.750000  0.570778  0.134101  1
  Nd  Nd7  1  0.250000  0.677750  0.585241  1
  Nd  Nd8  1  0.250000  0.176817  0.606282  1
  Nd  Nd9  1  0.750000  0.322250  0.414759  1
  Nd  Nd10  1  0.750000  0.676817  0.893718  1
  Nd  Nd11  1  0.250000  0.323183  0.106282  1
  Ru  Ru12  1  0.250000  0.901539  0.510907  1
  Ru  Ru13  1  0.750000  0.401539  0.989093  1
  Ru  Ru14  1  0.250000  0.598461  0.010907  1
  Ru  Ru15  1  0.750000  0.098461  0.489093  1
  Cl  Cl16  1  0.750000  0.894361  0.959598  1
  Cl  Cl17  1  0.250000  0.105639  0.040402  1
  Cl  Cl18  1  0.250000  0.394361  0.540402  1
  Cl  Cl19  1  0.750000  0.924822  0.204517  1
  Cl  Cl20  1  0.750000  0.605639  0.459598  1
  Cl  Cl21  1  0.750000  0.210748  0.236107  1
  Cl  Cl22  1  0.250000  0.075178  0.795483  1
  Cl  Cl23  1  0.250000  0.710748  0.263893  1
  Cl  Cl24  1  0.750000  0.289252  0.736107  1
  Cl  Cl25  1  0.750000  0.575178  0.704517  1
  Cl  Cl26  1  0.250000  0.424822  0.295483  1
  Cl  Cl27  1  0.250000  0.789252  0.763893  1
