# generated using pymatgen
data_Li2Lu6Ru3Rh
_symmetry_space_group_name_H-M   'P 1'
_cell_length_a   4.76609800
_cell_length_b   6.70564500
_cell_length_c   14.47384900
_cell_angle_alpha   90.00000000
_cell_angle_beta   90.00000000
_cell_angle_gamma   90.00000000
_symmetry_Int_Tables_number   1
_chemical_formula_structural   Li2Lu6Ru3Rh
_chemical_formula_sum   'Li4 Lu12 Ru6 Rh2'
_cell_volume   462.58075802
_cell_formula_units_Z   2
loop_
 _symmetry_equiv_pos_site_id
 _symmetry_equiv_pos_as_xyz
  1  'x, y, z'
loop_
 _atom_site_type_symbol
 _atom_site_label
 _atom_site_symmetry_multiplicity
 _atom_site_fract_x
 _atom_site_fract_y
 _atom_site_fract_z
 _atom_site_occupancy
  Li  Li0  1  0.999978  0.000000  0.996216  1
  Li  Li1  1  0.499841  0.500001  0.164056  1
  Li  Li2  1  0.999841  0.000000  0.335945  1
  Li  Li3  1  0.499978  0.500001  0.503784  1
  Lu  Lu4  1  0.500003  0.254756  0.996118  1
  Lu  Lu5  1  0.500003  0.745244  0.996118  1
  Lu  Lu6  1  0.999980  0.249926  0.166303  1
  Lu  Lu7  1  0.999980  0.750074  0.166303  1
  Lu  Lu8  1  0.499980  0.250073  0.333698  1
  Lu  Lu9  1  0.499980  0.749927  0.333698  1
  Lu  Lu10  1  0.000003  0.245244  0.503882  1
  Lu  Lu11  1  0.000003  0.754756  0.503882  1
  Lu  Lu12  1  0.500021  0.246110  0.669852  1
  Lu  Lu13  1  0.500021  0.753890  0.669852  1
  Lu  Lu14  1  0.000021  0.253889  0.830148  1
  Lu  Lu15  1  0.000021  0.746111  0.830148  1
  Ru  Ru16  1  0.000011  0.500001  0.002757  1
  Ru  Ru17  1  0.499978  0.000000  0.167978  1
  Ru  Ru18  1  0.999978  0.500001  0.332022  1
  Ru  Ru19  1  0.500011  0.000000  0.497243  1
  Ru  Ru20  1  0.000039  0.500001  0.664184  1
  Ru  Ru21  1  0.500039  0.000000  0.835816  1
  Rh  Rh22  1  0.000147  0.000000  0.667756  1
  Rh  Rh23  1  0.500147  0.500001  0.832244  1
