# generated using pymatgen
data_DyY7Ti7Ge16Mo5
_symmetry_space_group_name_H-M   'P 1'
_cell_length_a   6.94469217
_cell_length_b   7.11022010
_cell_length_c   13.41859205
_cell_angle_alpha   89.95101637
_cell_angle_beta   89.95835250
_cell_angle_gamma   90.02467716
_symmetry_Int_Tables_number   1
_chemical_formula_structural   DyY7Ti7Ge16Mo5
_chemical_formula_sum   'Dy1 Y7 Ti7 Ge16 Mo5'
_cell_volume   662.58664846
_cell_formula_units_Z   1
loop_
 _symmetry_equiv_pos_site_id
 _symmetry_equiv_pos_as_xyz
  1  'x, y, z'
loop_
 _atom_site_type_symbol
 _atom_site_label
 _atom_site_symmetry_multiplicity
 _atom_site_fract_x
 _atom_site_fract_y
 _atom_site_fract_z
 _atom_site_occupancy
  Dy  Dy0  1  0.005716  0.169997  0.095710  1
  Y  Y1  1  0.003465  0.172094  0.404215  1
  Y  Y2  1  0.503921  0.325797  0.095770  1
  Y  Y3  1  0.496739  0.672187  0.596106  1
  Y  Y4  1  0.995808  0.827357  0.903877  1
  Y  Y5  1  0.996273  0.827174  0.596491  1
  Y  Y6  1  0.495995  0.673345  0.905873  1
  Y  Y7  1  0.502852  0.328363  0.403086  1
  Ti  Ti8  1  0.837590  0.670092  0.371150  1
  Ti  Ti9  1  0.662291  0.168212  0.627599  1
  Ti  Ti10  1  0.162171  0.331126  0.873672  1
  Ti  Ti11  1  0.162542  0.331629  0.627388  1
  Ti  Ti12  1  0.661911  0.167792  0.872708  1
  Ti  Ti13  1  0.841408  0.669526  0.127367  1
  Ti  Ti14  1  0.335462  0.830948  0.371833  1
  Ge  Ge15  1  0.328979  0.043594  0.544168  1
  Ge  Ge16  1  0.828648  0.456758  0.956083  1
  Ge  Ge17  1  0.668904  0.956909  0.044699  1
  Ge  Ge18  1  0.170627  0.544120  0.455821  1
  Ge  Ge19  1  0.172765  0.542888  0.044024  1
  Ge  Ge20  1  0.669567  0.956743  0.455517  1
  Ge  Ge21  1  0.829896  0.456176  0.544724  1
  Ge  Ge22  1  0.327269  0.044525  0.956641  1
  Ge  Ge23  1  0.807743  0.366488  0.249027  1
  Ge  Ge24  1  0.308860  0.133014  0.250386  1
  Ge  Ge25  1  0.692671  0.866033  0.750103  1
  Ge  Ge26  1  0.193988  0.633766  0.750423  1
  Ge  Ge27  1  0.037252  0.872706  0.250520  1
  Ge  Ge28  1  0.536213  0.629795  0.249018  1
  Ge  Ge29  1  0.462882  0.370719  0.750365  1
  Ge  Ge30  1  0.963373  0.129203  0.750182  1
  Mo  Mo31  1  0.335137  0.832474  0.127117  1
  Mo  Mo32  1  0.333900  0.010001  0.750234  1
  Mo  Mo33  1  0.666842  0.987014  0.249039  1
  Mo  Mo34  1  0.165176  0.513464  0.248786  1
  Mo  Mo35  1  0.835158  0.487975  0.750284  1
