# generated using pymatgen
data_Ho8Re3B24Ir
_symmetry_space_group_name_H-M   'P 1'
_cell_length_a   3.66781200
_cell_length_b   9.15300602
_cell_length_c   11.53132200
_cell_angle_alpha   90.13269605
_cell_angle_beta   90.00000000
_cell_angle_gamma   90.00000000
_symmetry_Int_Tables_number   1
_chemical_formula_structural   Ho8Re3B24Ir
_chemical_formula_sum   'Ho8 Re3 B24 Ir1'
_cell_volume   387.12279960
_cell_formula_units_Z   1
loop_
 _symmetry_equiv_pos_site_id
 _symmetry_equiv_pos_as_xyz
  1  'x, y, z'
loop_
 _atom_site_type_symbol
 _atom_site_label
 _atom_site_symmetry_multiplicity
 _atom_site_fract_x
 _atom_site_fract_y
 _atom_site_fract_z
 _atom_site_occupancy
  Ho  Ho0  1  0.000000  0.317984  0.415565  1
  Ho  Ho1  1  0.000000  0.678656  0.591414  1
  Ho  Ho2  1  0.000000  0.827196  0.081295  1
  Ho  Ho3  1  0.000000  0.177389  0.912601  1
  Ho  Ho4  1  0.000000  0.943925  0.370300  1
  Ho  Ho5  1  0.000000  0.055972  0.629020  1
  Ho  Ho6  1  0.000000  0.440866  0.128425  1
  Ho  Ho7  1  0.000000  0.556800  0.871541  1
  Re  Re8  1  0.000000  0.362900  0.677404  1
  Re  Re9  1  0.000000  0.138328  0.179924  1
  Re  Re10  1  0.000000  0.861752  0.820937  1
  B  B11  1  0.500000  0.553865  0.433758  1
  B  B12  1  0.500000  0.446735  0.566616  1
  B  B13  1  0.500000  0.053339  0.066593  1
  B  B14  1  0.500000  0.947049  0.932784  1
  B  B15  1  0.500000  0.749104  0.420107  1
  B  B16  1  0.500000  0.250555  0.581029  1
  B  B17  1  0.500000  0.248983  0.081225  1
  B  B18  1  0.500000  0.751676  0.918904  1
  B  B19  1  0.500000  0.791140  0.265120  1
  B  B20  1  0.500000  0.208466  0.734198  1
  B  B21  1  0.500000  0.291620  0.235094  1
  B  B22  1  0.500000  0.708196  0.765833  1
  B  B23  1  0.500000  0.631789  0.184312  1
  B  B24  1  0.500000  0.369321  0.814170  1
  B  B25  1  0.500000  0.130874  0.314862  1
  B  B26  1  0.500000  0.868447  0.685477  1
  B  B27  1  0.500000  0.982946  0.212003  1
  B  B28  1  0.500000  0.017352  0.787111  1
  B  B29  1  0.500000  0.482946  0.287960  1
  B  B30  1  0.500000  0.518118  0.712331  1
  B  B31  1  0.500000  0.603756  0.029331  1
  B  B32  1  0.500000  0.397182  0.971865  1
  B  B33  1  0.500000  0.101994  0.471134  1
  B  B34  1  0.500000  0.895166  0.528357  1
  Ir  Ir35  1  0.000000  0.637614  0.321401  1
