# generated using pymatgen
data_La3SBr3
_symmetry_space_group_name_H-M   'P 1'
_cell_length_a   10.34076536
_cell_length_b   10.34076601
_cell_length_c   10.34076600
_cell_angle_alpha   109.47122062
_cell_angle_beta   109.47122189
_cell_angle_gamma   109.47122087
_symmetry_Int_Tables_number   1
_chemical_formula_structural   La3SBr3
_chemical_formula_sum   'La12 S4 Br12'
_cell_volume   851.20899934
_cell_formula_units_Z   4
loop_
 _symmetry_equiv_pos_site_id
 _symmetry_equiv_pos_as_xyz
  1  'x, y, z'
loop_
 _atom_site_type_symbol
 _atom_site_label
 _atom_site_symmetry_multiplicity
 _atom_site_fract_x
 _atom_site_fract_y
 _atom_site_fract_z
 _atom_site_occupancy
  La  La0  1  0.262337  0.750000  0.237663  1
  La  La1  1  0.487663  0.750000  0.012337  1
  La  La2  1  0.237663  0.475325  0.487663  1
  La  La3  1  0.012337  0.024675  0.262337  1
  La  La4  1  0.237663  0.262337  0.750000  1
  La  La5  1  0.012337  0.487663  0.750000  1
  La  La6  1  0.487663  0.237663  0.475325  1
  La  La7  1  0.262337  0.012337  0.024675  1
  La  La8  1  0.750000  0.237663  0.262337  1
  La  La9  1  0.750000  0.012337  0.487663  1
  La  La10  1  0.475325  0.487663  0.237663  1
  La  La11  1  0.024675  0.262337  0.012337  1
  S  S12  1  0.500000  0.000000  0.250000  1
  S  S13  1  0.250000  0.500000  0.000000  1
  S  S14  1  0.000000  0.250000  0.500000  1
  S  S15  1  0.250000  0.250000  0.250000  1
  Br  Br16  1  0.250000  0.991087  0.508913  1
  Br  Br17  1  0.517825  0.508913  0.758913  1
  Br  Br18  1  0.250000  0.758913  0.741087  1
  Br  Br19  1  0.982175  0.741087  0.991087  1
  Br  Br20  1  0.991087  0.508913  0.250000  1
  Br  Br21  1  0.741087  0.991087  0.982175  1
  Br  Br22  1  0.758913  0.741087  0.250000  1
  Br  Br23  1  0.508913  0.758913  0.517825  1
  Br  Br24  1  0.508913  0.250000  0.991087  1
  Br  Br25  1  0.758913  0.517825  0.508913  1
  Br  Br26  1  0.741087  0.250000  0.758913  1
  Br  Br27  1  0.991087  0.982175  0.741087  1
