# generated using pymatgen
data_Dy19Ho(IrRh3)3
_symmetry_space_group_name_H-M   'P 1'
_cell_length_a   10.89675501
_cell_length_b   10.89673435
_cell_length_c   6.36725900
_cell_angle_alpha   90.00153250
_cell_angle_beta   90.00020483
_cell_angle_gamma   89.94158808
_symmetry_Int_Tables_number   1
_chemical_formula_structural   Dy19Ho(IrRh3)3
_chemical_formula_sum   'Dy19 Ho1 Ir3 Rh9'
_cell_volume   756.04185744
_cell_formula_units_Z   1
loop_
 _symmetry_equiv_pos_site_id
 _symmetry_equiv_pos_as_xyz
  1  'x, y, z'
loop_
 _atom_site_type_symbol
 _atom_site_label
 _atom_site_symmetry_multiplicity
 _atom_site_fract_x
 _atom_site_fract_y
 _atom_site_fract_z
 _atom_site_occupancy
  Dy  Dy0  1  0.290962  0.089688  0.378239  1
  Dy  Dy1  1  0.291096  0.910064  0.878092  1
  Dy  Dy2  1  0.709125  0.088306  0.878119  1
  Dy  Dy3  1  0.708831  0.910162  0.378005  1
  Dy  Dy4  1  0.587558  0.789670  0.879188  1
  Dy  Dy5  1  0.587200  0.209559  0.377985  1
  Dy  Dy6  1  0.412412  0.789900  0.378668  1
  Dy  Dy7  1  0.410885  0.209561  0.879303  1
  Dy  Dy8  1  0.210360  0.412440  0.620790  1
  Dy  Dy9  1  0.210070  0.587591  0.121356  1
  Dy  Dy10  1  0.790469  0.412798  0.122039  1
  Dy  Dy11  1  0.790411  0.589111  0.620671  1
  Dy  Dy12  1  0.910323  0.709037  0.121753  1
  Dy  Dy13  1  0.911685  0.290874  0.621891  1
  Dy  Dy14  1  0.089948  0.708903  0.621918  1
  Dy  Dy15  1  0.089828  0.291168  0.121983  1
  Dy  Dy16  1  0.999854  0.999923  0.499859  1
  Dy  Dy17  1  0.000078  0.000148  0.000139  1
  Dy  Dy18  1  0.499755  0.499970  0.999846  1
  Ho  Ho19  1  0.500011  0.500265  0.500137  1
  Ir  Ir20  1  0.654650  0.654021  0.250140  1
  Ir  Ir21  1  0.345975  0.345353  0.250047  1
  Ir  Ir22  1  0.345327  0.654675  0.749906  1
  Rh  Rh23  1  0.845955  0.154048  0.249999  1
  Rh  Rh24  1  0.846382  0.846837  0.750221  1
  Rh  Rh25  1  0.153164  0.153616  0.749784  1
  Rh  Rh26  1  0.153361  0.846641  0.249996  1
  Rh  Rh27  1  0.654913  0.345086  0.749927  1
  Rh  Rh28  1  0.500271  0.000480  0.122212  1
  Rh  Rh29  1  0.500356  0.000734  0.622791  1
  Rh  Rh30  1  0.999268  0.499639  0.877211  1
  Rh  Rh31  1  0.999522  0.499726  0.377784  1
