# generated using pymatgen
data_Er7Tm(BeSi3)4
_symmetry_space_group_name_H-M   'P 1'
_cell_length_a   7.80947840
_cell_length_b   7.81382033
_cell_length_c   7.96467000
_cell_angle_alpha   90.00000000
_cell_angle_beta   90.00000000
_cell_angle_gamma   120.01838437
_symmetry_Int_Tables_number   1
_chemical_formula_structural   Er7Tm(BeSi3)4
_chemical_formula_sum   'Er7 Tm1 Be4 Si12'
_cell_volume   420.82679334
_cell_formula_units_Z   1
loop_
 _symmetry_equiv_pos_site_id
 _symmetry_equiv_pos_as_xyz
  1  'x, y, z'
loop_
 _atom_site_type_symbol
 _atom_site_label
 _atom_site_symmetry_multiplicity
 _atom_site_fract_x
 _atom_site_fract_y
 _atom_site_fract_z
 _atom_site_occupancy
  Er  Er0  1  0.500846  0.499161  0.250000  1
  Er  Er1  1  0.499161  0.998317  0.750000  1
  Er  Er2  1  0.001643  0.500821  0.750000  1
  Er  Er3  1  0.499161  0.500842  0.750000  1
  Er  Er4  1  0.500846  0.001687  0.250000  1
  Er  Er5  1  0.000051  0.000026  0.750000  1
  Er  Er6  1  0.999957  0.999978  0.250000  1
  Tm  Tm7  1  0.998451  0.499226  0.250000  1
  Be  Be8  1  0.333183  0.666592  0.005924  1
  Be  Be9  1  0.666758  0.333378  0.994375  1
  Be  Be10  1  0.666758  0.333378  0.505625  1
  Be  Be11  1  0.333183  0.666592  0.494076  1
  Si  Si12  1  0.172736  0.827152  0.499437  1
  Si  Si13  1  0.172736  0.345583  0.499437  1
  Si  Si14  1  0.654546  0.827273  0.499588  1
  Si  Si15  1  0.345458  0.172730  0.999683  1
  Si  Si16  1  0.827262  0.654402  0.500214  1
  Si  Si17  1  0.827262  0.172861  0.999786  1
  Si  Si18  1  0.827262  0.654402  0.999786  1
  Si  Si19  1  0.172736  0.345583  0.000563  1
  Si  Si20  1  0.654546  0.827273  0.000412  1
  Si  Si21  1  0.345458  0.172730  0.500317  1
  Si  Si22  1  0.827262  0.172861  0.500214  1
  Si  Si23  1  0.172736  0.827152  0.000563  1
