# generated using pymatgen
data_Th(BrO3)4
_symmetry_space_group_name_H-M   'P 1'
_cell_length_a   10.39987000
_cell_length_b   10.39987000
_cell_length_c   5.39419400
_cell_angle_alpha   90.00000000
_cell_angle_beta   90.00000000
_cell_angle_gamma   90.00000000
_symmetry_Int_Tables_number   1
_chemical_formula_structural   Th(BrO3)4
_chemical_formula_sum   'Th2 Br8 O24'
_cell_volume   583.42143723
_cell_formula_units_Z   2
loop_
 _symmetry_equiv_pos_site_id
 _symmetry_equiv_pos_as_xyz
  1  'x, y, z'
loop_
 _atom_site_type_symbol
 _atom_site_label
 _atom_site_symmetry_multiplicity
 _atom_site_fract_x
 _atom_site_fract_y
 _atom_site_fract_z
 _atom_site_occupancy
  Th  Th0  1  0.000000  0.000000  0.000000  1
  Th  Th1  1  0.500000  0.500000  0.500000  1
  Br  Br2  1  0.020640  0.263705  0.531899  1
  Br  Br3  1  0.763705  0.479360  0.031899  1
  Br  Br4  1  0.236295  0.520640  0.031899  1
  Br  Br5  1  0.979360  0.736295  0.531899  1
  Br  Br6  1  0.479360  0.236295  0.968101  1
  Br  Br7  1  0.736295  0.020640  0.468101  1
  Br  Br8  1  0.263705  0.979360  0.468101  1
  Br  Br9  1  0.520640  0.763705  0.968101  1
  O  O10  1  0.072014  0.152027  0.316606  1
  O  O11  1  0.652027  0.427986  0.816606  1
  O  O12  1  0.347973  0.572014  0.816606  1
  O  O13  1  0.927986  0.847973  0.316606  1
  O  O14  1  0.427986  0.347973  0.183394  1
  O  O15  1  0.847973  0.072014  0.683394  1
  O  O16  1  0.152027  0.927986  0.683394  1
  O  O17  1  0.572014  0.652027  0.183394  1
  O  O18  1  0.075017  0.193998  0.801061  1
  O  O19  1  0.693998  0.424983  0.301061  1
  O  O20  1  0.616347  0.887397  0.003433  1
  O  O21  1  0.387397  0.883653  0.503433  1
  O  O22  1  0.612603  0.116347  0.503433  1
  O  O23  1  0.383653  0.112603  0.003433  1
  O  O24  1  0.883653  0.612603  0.496567  1
  O  O25  1  0.112603  0.616347  0.996567  1
  O  O26  1  0.887397  0.383653  0.996567  1
  O  O27  1  0.116347  0.387397  0.496567  1
  O  O28  1  0.575017  0.693998  0.698939  1
  O  O29  1  0.193998  0.924983  0.198939  1
  O  O30  1  0.806002  0.075017  0.198939  1
  O  O31  1  0.424983  0.306002  0.698939  1
  O  O32  1  0.924983  0.806002  0.801061  1
  O  O33  1  0.306002  0.575017  0.301061  1
