# generated using pymatgen
data_NaYb2Ge2(PPd5)4
_symmetry_space_group_name_H-M   'P 1'
_cell_length_a   8.66566934
_cell_length_b   8.72565952
_cell_length_c   8.72566052
_cell_angle_alpha   59.54565366
_cell_angle_beta   60.22717851
_cell_angle_gamma   60.22717497
_symmetry_Int_Tables_number   1
_chemical_formula_structural   NaYb2Ge2(PPd5)4
_chemical_formula_sum   'Na1 Yb2 Ge2 P4 Pd20'
_cell_volume   466.49063943
_cell_formula_units_Z   1
loop_
 _symmetry_equiv_pos_site_id
 _symmetry_equiv_pos_as_xyz
  1  'x, y, z'
loop_
 _atom_site_type_symbol
 _atom_site_label
 _atom_site_symmetry_multiplicity
 _atom_site_fract_x
 _atom_site_fract_y
 _atom_site_fract_z
 _atom_site_occupancy
  Na  Na0  1  0.000000  0.000000  0.000000  1
  Yb  Yb1  1  0.250000  0.250000  0.250000  1
  Yb  Yb2  1  0.750000  0.750000  0.750000  1
  Ge  Ge3  1  0.737296  0.262704  0.262704  1
  Ge  Ge4  1  0.262704  0.737296  0.737296  1
  P  P5  1  0.265058  0.734942  0.265058  1
  P  P6  1  0.734942  0.265058  0.734942  1
  P  P7  1  0.265058  0.265058  0.734942  1
  P  P8  1  0.734942  0.734942  0.265058  1
  Pd  Pd9  1  0.378375  0.387169  0.387169  1
  Pd  Pd10  1  0.621625  0.612831  0.612831  1
  Pd  Pd11  1  0.387169  0.378375  0.847286  1
  Pd  Pd12  1  0.387169  0.847286  0.378375  1
  Pd  Pd13  1  0.612831  0.621625  0.152714  1
  Pd  Pd14  1  0.612831  0.152714  0.621625  1
  Pd  Pd15  1  0.847286  0.387169  0.387169  1
  Pd  Pd16  1  0.152714  0.612831  0.612831  1
  Pd  Pd17  1  0.344239  0.000000  0.000000  1
  Pd  Pd18  1  0.655761  0.000000  0.000000  1
  Pd  Pd19  1  0.000000  0.344239  0.655761  1
  Pd  Pd20  1  0.000000  0.655761  0.344239  1
  Pd  Pd21  1  0.009699  0.347325  0.990301  1
  Pd  Pd22  1  0.652675  0.990301  0.347325  1
  Pd  Pd23  1  0.990301  0.652675  0.009699  1
  Pd  Pd24  1  0.347325  0.009699  0.652675  1
  Pd  Pd25  1  0.009699  0.990301  0.347325  1
  Pd  Pd26  1  0.990301  0.009699  0.652675  1
  Pd  Pd27  1  0.652675  0.347325  0.990301  1
  Pd  Pd28  1  0.347325  0.652675  0.009699  1
