# generated using pymatgen
data_Tb17Er3(SnBi)8
_symmetry_space_group_name_H-M   'P 1'
_cell_length_a   8.18066306
_cell_length_b   8.22010606
_cell_length_c   15.67255400
_cell_angle_alpha   90.00000000
_cell_angle_beta   90.00000000
_cell_angle_gamma   90.01412062
_symmetry_Int_Tables_number   1
_chemical_formula_structural   Tb17Er3(SnBi)8
_chemical_formula_sum   'Tb17 Er3 Sn8 Bi8'
_cell_volume   1053.91524962
_cell_formula_units_Z   1
loop_
 _symmetry_equiv_pos_site_id
 _symmetry_equiv_pos_as_xyz
  1  'x, y, z'
loop_
 _atom_site_type_symbol
 _atom_site_label
 _atom_site_symmetry_multiplicity
 _atom_site_fract_x
 _atom_site_fract_y
 _atom_site_fract_z
 _atom_site_occupancy
  Tb  Tb0  1  0.386425  0.838166  0.876623  1
  Tb  Tb1  1  0.886547  0.661855  0.623363  1
  Tb  Tb2  1  0.613576  0.162061  0.376706  1
  Tb  Tb3  1  0.113334  0.338247  0.123269  1
  Tb  Tb4  1  0.613576  0.162061  0.123294  1
  Tb  Tb5  1  0.113334  0.338247  0.376731  1
  Tb  Tb6  1  0.386425  0.838166  0.623377  1
  Tb  Tb7  1  0.886547  0.661855  0.876637  1
  Tb  Tb8  1  0.552945  0.327889  0.889841  1
  Tb  Tb9  1  0.053107  0.172025  0.610123  1
  Tb  Tb10  1  0.447128  0.672020  0.389893  1
  Tb  Tb11  1  0.946966  0.827750  0.110131  1
  Tb  Tb12  1  0.447128  0.672020  0.110107  1
  Tb  Tb13  1  0.946966  0.827750  0.389869  1
  Tb  Tb14  1  0.552945  0.327889  0.610159  1
  Tb  Tb15  1  0.053107  0.172025  0.889877  1
  Tb  Tb16  1  0.282440  0.998057  0.250000  1
  Er  Er17  1  0.217886  0.498019  0.750000  1
  Er  Er18  1  0.717955  0.002108  0.750000  1
  Er  Er19  1  0.782170  0.502023  0.250000  1
  Sn  Sn20  1  0.582335  0.626356  0.750000  1
  Sn  Sn21  1  0.082251  0.873571  0.750000  1
  Sn  Sn22  1  0.417814  0.374125  0.250000  1
  Sn  Sn23  1  0.916856  0.126629  0.250000  1
  Sn  Sn24  1  0.356971  0.144338  0.750000  1
  Sn  Sn25  1  0.856916  0.355694  0.750000  1
  Sn  Sn26  1  0.643969  0.855497  0.250000  1
  Sn  Sn27  1  0.142789  0.643389  0.250000  1
  Bi  Bi28  1  0.270412  0.020726  0.044233  1
  Bi  Bi29  1  0.770600  0.479342  0.455252  1
  Bi  Bi30  1  0.729337  0.979356  0.544804  1
  Bi  Bi31  1  0.229445  0.520660  0.955175  1
  Bi  Bi32  1  0.729337  0.979356  0.955196  1
  Bi  Bi33  1  0.229445  0.520660  0.544825  1
  Bi  Bi34  1  0.270412  0.020726  0.455767  1
  Bi  Bi35  1  0.770600  0.479342  0.044748  1
