# generated using pymatgen
data_CaTmTh2(NiAs)4
_symmetry_space_group_name_H-M   'P 1'
_cell_length_a   4.09716200
_cell_length_b   4.09716204
_cell_length_c   15.73342700
_cell_angle_alpha   90.00000000
_cell_angle_beta   90.00000000
_cell_angle_gamma   119.99998352
_symmetry_Int_Tables_number   1
_chemical_formula_structural   CaTmTh2(NiAs)4
_chemical_formula_sum   'Ca1 Tm1 Th2 Ni4 As4'
_cell_volume   228.72851470
_cell_formula_units_Z   1
loop_
 _symmetry_equiv_pos_site_id
 _symmetry_equiv_pos_as_xyz
  1  'x, y, z'
loop_
 _atom_site_type_symbol
 _atom_site_label
 _atom_site_symmetry_multiplicity
 _atom_site_fract_x
 _atom_site_fract_y
 _atom_site_fract_z
 _atom_site_occupancy
  Ca  Ca0  1  0.000000  0.000000  0.250000  1
  Tm  Tm1  1  0.000000  0.000000  0.750000  1
  Th  Th2  1  0.000000  0.000000  0.996994  1
  Th  Th3  1  0.000000  0.000000  0.503006  1
  Ni  Ni4  1  0.333333  0.666667  0.114958  1
  Ni  Ni5  1  0.666667  0.333333  0.853849  1
  Ni  Ni6  1  0.666667  0.333333  0.646151  1
  Ni  Ni7  1  0.333333  0.666667  0.385042  1
  As  As8  1  0.333333  0.666667  0.627437  1
  As  As9  1  0.666667  0.333333  0.378062  1
  As  As10  1  0.666667  0.333333  0.121938  1
  As  As11  1  0.333333  0.666667  0.872563  1
