# generated using pymatgen
data_Pr17Tm3(Ga5Bi)2
_symmetry_space_group_name_H-M   'P 1'
_cell_length_a   8.05768600
_cell_length_b   8.05768600
_cell_length_c   14.39258000
_cell_angle_alpha   90.00000000
_cell_angle_beta   90.00000000
_cell_angle_gamma   90.00000000
_symmetry_Int_Tables_number   1
_chemical_formula_structural   Pr17Tm3(Ga5Bi)2
_chemical_formula_sum   'Pr17 Tm3 Ga10 Bi2'
_cell_volume   934.45701974
_cell_formula_units_Z   1
loop_
 _symmetry_equiv_pos_site_id
 _symmetry_equiv_pos_as_xyz
  1  'x, y, z'
loop_
 _atom_site_type_symbol
 _atom_site_label
 _atom_site_symmetry_multiplicity
 _atom_site_fract_x
 _atom_site_fract_y
 _atom_site_fract_z
 _atom_site_occupancy
  Pr  Pr0  1  0.826035  0.841117  0.610525  1
  Pr  Pr1  1  0.174503  0.837273  0.100303  1
  Pr  Pr2  1  0.159265  0.829550  0.387884  1
  Pr  Pr3  1  0.840735  0.170450  0.387884  1
  Pr  Pr4  1  0.670450  0.659265  0.387884  1
  Pr  Pr5  1  0.658883  0.326035  0.610525  1
  Pr  Pr6  1  0.341117  0.673965  0.610525  1
  Pr  Pr7  1  0.662727  0.674503  0.100303  1
  Pr  Pr8  1  0.679012  0.341629  0.900135  1
  Pr  Pr9  1  0.841629  0.820988  0.900135  1
  Pr  Pr10  1  0.329550  0.340735  0.387884  1
  Pr  Pr11  1  0.173965  0.158883  0.610525  1
  Pr  Pr12  1  0.825497  0.162727  0.100303  1
  Pr  Pr13  1  0.320988  0.658371  0.900135  1
  Pr  Pr14  1  0.337273  0.325497  0.100303  1
  Pr  Pr15  1  0.158371  0.179012  0.900135  1
  Pr  Pr16  1  0.500000  0.000000  0.798850  1
  Tm  Tm17  1  0.000000  0.500000  0.753937  1
  Tm  Tm18  1  0.000000  0.500000  0.212571  1
  Tm  Tm19  1  0.500000  0.000000  0.238760  1
  Ga  Ga20  1  0.627362  0.370632  0.246875  1
  Ga  Ga21  1  0.122413  0.869874  0.751451  1
  Ga  Ga22  1  0.369874  0.377587  0.751451  1
  Ga  Ga23  1  0.372638  0.629368  0.246875  1
  Ga  Ga24  1  0.870632  0.872638  0.246875  1
  Ga  Ga25  1  0.630126  0.622413  0.751451  1
  Ga  Ga26  1  0.877587  0.130126  0.751451  1
  Ga  Ga27  1  0.500000  0.000000  0.012682  1
  Ga  Ga28  1  0.129368  0.127362  0.246875  1
  Ga  Ga29  1  0.000000  0.500000  0.999933  1
  Bi  Bi30  1  0.000000  0.500000  0.510048  1
  Bi  Bi31  1  0.500000  0.000000  0.484524  1
