# generated using pymatgen
data_SrCa4La2Ni4Sn13
_symmetry_space_group_name_H-M   'P 1'
_cell_length_a   11.34799344
_cell_length_b   11.32735443
_cell_length_c   4.65926700
_cell_angle_alpha   90.00000000
_cell_angle_beta   90.00000000
_cell_angle_gamma   90.05767127
_symmetry_Int_Tables_number   1
_chemical_formula_structural   SrCa4La2Ni4Sn13
_chemical_formula_sum   'Sr1 Ca4 La2 Ni4 Sn13'
_cell_volume   598.91466081
_cell_formula_units_Z   1
loop_
 _symmetry_equiv_pos_site_id
 _symmetry_equiv_pos_as_xyz
  1  'x, y, z'
loop_
 _atom_site_type_symbol
 _atom_site_label
 _atom_site_symmetry_multiplicity
 _atom_site_fract_x
 _atom_site_fract_y
 _atom_site_fract_z
 _atom_site_occupancy
  Sr  Sr0  1  0.000000  0.500000  0.000000  1
  Ca  Ca1  1  0.838401  0.170374  0.000000  1
  Ca  Ca2  1  0.829476  0.838173  0.000000  1
  Ca  Ca3  1  0.161599  0.829626  0.000000  1
  Ca  Ca4  1  0.170524  0.161827  0.000000  1
  La  La5  1  0.500000  0.500000  0.500000  1
  La  La6  1  0.500000  0.000000  0.000000  1
  Ni  Ni7  1  0.776138  0.619527  0.500000  1
  Ni  Ni8  1  0.381674  0.777813  0.500000  1
  Ni  Ni9  1  0.618326  0.222187  0.500000  1
  Ni  Ni10  1  0.223862  0.380473  0.500000  1
  Sn  Sn11  1  0.018950  0.280062  0.500000  1
  Sn  Sn12  1  0.981050  0.719938  0.500000  1
  Sn  Sn13  1  0.216084  0.613320  0.500000  1
  Sn  Sn14  1  0.575227  0.304288  0.000000  1
  Sn  Sn15  1  0.695227  0.575508  0.000000  1
  Sn  Sn16  1  0.783916  0.386680  0.500000  1
  Sn  Sn17  1  0.717509  0.018868  0.500000  1
  Sn  Sn18  1  0.000000  0.000000  0.500000  1
  Sn  Sn19  1  0.282491  0.981132  0.500000  1
  Sn  Sn20  1  0.424773  0.695712  0.000000  1
  Sn  Sn21  1  0.612542  0.785514  0.500000  1
  Sn  Sn22  1  0.304773  0.424492  0.000000  1
  Sn  Sn23  1  0.387458  0.214486  0.500000  1
