# generated using pymatgen
data_Eu4Zr3O12
_symmetry_space_group_name_H-M   'P 1'
_cell_length_a   6.48907313
_cell_length_b   6.51051482
_cell_length_c   6.71383441
_cell_angle_alpha   99.46511674
_cell_angle_beta   97.96676081
_cell_angle_gamma   99.73701468
_symmetry_Int_Tables_number   1
_chemical_formula_structural   Eu4Zr3O12
_chemical_formula_sum   'Eu4 Zr3 O12'
_cell_volume   271.67904749
_cell_formula_units_Z   1
loop_
 _symmetry_equiv_pos_site_id
 _symmetry_equiv_pos_as_xyz
  1  'x, y, z'
loop_
 _atom_site_type_symbol
 _atom_site_label
 _atom_site_symmetry_multiplicity
 _atom_site_fract_x
 _atom_site_fract_y
 _atom_site_fract_z
 _atom_site_occupancy
  Eu  Eu0  1  0.702033  0.865875  0.396468  1
  Eu  Eu1  1  0.389238  0.701685  0.867936  1
  Eu  Eu2  1  0.297967  0.134125  0.603532  1
  Eu  Eu3  1  0.610762  0.298315  0.132064  1
  Zr  Zr4  1  0.000000  0.000000  0.000000  1
  Zr  Zr5  1  0.850507  0.400825  0.670497  1
  Zr  Zr6  1  0.149493  0.599175  0.329503  1
  O  O7  1  0.588778  0.412997  0.817994  1
  O  O8  1  0.830288  0.564888  0.423047  1
  O  O9  1  0.405545  0.810156  0.562900  1
  O  O10  1  0.411222  0.587003  0.182006  1
  O  O11  1  0.169712  0.435112  0.576953  1
  O  O12  1  0.594455  0.189844  0.437100  1
  O  O13  1  0.008419  0.680993  0.874144  1
  O  O14  1  0.922589  0.098431  0.703421  1
  O  O15  1  0.689513  0.938516  0.058755  1
  O  O16  1  0.991581  0.319007  0.125856  1
  O  O17  1  0.077411  0.901569  0.296579  1
  O  O18  1  0.310487  0.061484  0.941245  1
