# generated using pymatgen
data_Sc8CuSi16Tc11
_symmetry_space_group_name_H-M   'P 1'
_cell_length_a   6.61731212
_cell_length_b   6.63875429
_cell_length_c   12.43366415
_cell_angle_alpha   90.58936110
_cell_angle_beta   90.07799582
_cell_angle_gamma   89.60856156
_symmetry_Int_Tables_number   1
_chemical_formula_structural   Sc8CuSi16Tc11
_chemical_formula_sum   'Sc8 Cu1 Si16 Tc11'
_cell_volume   546.17758535
_cell_formula_units_Z   1
loop_
 _symmetry_equiv_pos_site_id
 _symmetry_equiv_pos_as_xyz
  1  'x, y, z'
loop_
 _atom_site_type_symbol
 _atom_site_label
 _atom_site_symmetry_multiplicity
 _atom_site_fract_x
 _atom_site_fract_y
 _atom_site_fract_z
 _atom_site_occupancy
  Sc  Sc0  1  0.010787  0.662573  0.032678  1
  Sc  Sc1  1  0.846639  0.506065  0.280121  1
  Sc  Sc2  1  0.160072  0.499969  0.781264  1
  Sc  Sc3  1  0.504978  0.846264  0.719162  1
  Sc  Sc4  1  0.495153  0.156374  0.216822  1
  Sc  Sc5  1  0.989532  0.338858  0.533431  1
  Sc  Sc6  1  0.662795  0.014468  0.968063  1
  Sc  Sc7  1  0.341721  0.991671  0.470682  1
  Cu  Cu8  1  0.796540  0.001034  0.369736  1
  Si  Si9  1  0.288917  0.975567  0.061337  1
  Si  Si10  1  0.514500  0.759237  0.313930  1
  Si  Si11  1  0.476978  0.232239  0.811410  1
  Si  Si12  1  0.771992  0.526146  0.689207  1
  Si  Si13  1  0.232161  0.471729  0.188022  1
  Si  Si14  1  0.726843  0.017522  0.563759  1
  Si  Si15  1  0.974644  0.291085  0.934181  1
  Si  Si16  1  0.024333  0.721297  0.440182  1
  Si  Si17  1  0.698439  0.383430  0.069829  1
  Si  Si18  1  0.107898  0.184016  0.311927  1
  Si  Si19  1  0.878753  0.810580  0.818034  1
  Si  Si20  1  0.197168  0.124312  0.683499  1
  Si  Si21  1  0.807544  0.886052  0.184135  1
  Si  Si22  1  0.304797  0.616289  0.569052  1
  Si  Si23  1  0.379114  0.700455  0.930471  1
  Si  Si24  1  0.624502  0.302832  0.426636  1
  Tc  Tc25  1  0.340287  0.337995  0.997536  1
  Tc  Tc26  1  0.161272  0.827755  0.258389  1
  Tc  Tc27  1  0.831028  0.172155  0.750517  1
  Tc  Tc28  1  0.664645  0.662073  0.499332  1
  Tc  Tc29  1  0.992802  0.176944  0.122162  1
  Tc  Tc30  1  0.301212  0.459584  0.386048  1
  Tc  Tc31  1  0.688932  0.531773  0.884511  1
  Tc  Tc32  1  0.483279  0.306502  0.613076  1
  Tc  Tc33  1  0.521419  0.693440  0.116536  1
  Tc  Tc34  1  0.021254  0.821269  0.633766  1
  Tc  Tc35  1  0.177069  0.990448  0.870553  1
