# generated using pymatgen
data_Tb2YSi3Ru2
_symmetry_space_group_name_H-M   'P 1'
_cell_length_a   5.78002085
_cell_length_b   5.78002015
_cell_length_c   13.81317600
_cell_angle_alpha   90.00000000
_cell_angle_beta   90.00000000
_cell_angle_gamma   137.56078949
_symmetry_Int_Tables_number   1
_chemical_formula_structural   Tb2YSi3Ru2
_chemical_formula_sum   'Tb4 Y2 Si6 Ru4'
_cell_volume   311.40979170
_cell_formula_units_Z   2
loop_
 _symmetry_equiv_pos_site_id
 _symmetry_equiv_pos_as_xyz
  1  'x, y, z'
loop_
 _atom_site_type_symbol
 _atom_site_label
 _atom_site_symmetry_multiplicity
 _atom_site_fract_x
 _atom_site_fract_y
 _atom_site_fract_z
 _atom_site_occupancy
  Tb  Tb0  1  0.924122  0.075878  0.385274  1
  Tb  Tb1  1  0.075878  0.924122  0.614726  1
  Tb  Tb2  1  0.924122  0.075878  0.114726  1
  Tb  Tb3  1  0.075878  0.924122  0.885274  1
  Y  Y4  1  0.642646  0.357354  0.250000  1
  Y  Y5  1  0.357354  0.642646  0.750000  1
  Si  Si6  1  0.618898  0.381102  0.461518  1
  Si  Si7  1  0.381102  0.618898  0.538482  1
  Si  Si8  1  0.618898  0.381102  0.038482  1
  Si  Si9  1  0.381102  0.618898  0.961518  1
  Si  Si10  1  0.328785  0.671215  0.250000  1
  Si  Si11  1  0.671215  0.328785  0.750000  1
  Ru  Ru12  1  0.786252  0.213748  0.919483  1
  Ru  Ru13  1  0.213748  0.786252  0.080517  1
  Ru  Ru14  1  0.786252  0.213748  0.580517  1
  Ru  Ru15  1  0.213748  0.786252  0.419483  1
