# generated using pymatgen
data_Ho2ErMg3Pb2Au
_symmetry_space_group_name_H-M   'P 1'
_cell_length_a   7.54626549
_cell_length_b   7.54626593
_cell_length_c   4.49186700
_cell_angle_alpha   90.00000000
_cell_angle_beta   90.00000000
_cell_angle_gamma   119.84660282
_symmetry_Int_Tables_number   1
_chemical_formula_structural   Ho2ErMg3Pb2Au
_chemical_formula_sum   'Ho2 Er1 Mg3 Pb2 Au1'
_cell_volume   221.86609324
_cell_formula_units_Z   1
loop_
 _symmetry_equiv_pos_site_id
 _symmetry_equiv_pos_as_xyz
  1  'x, y, z'
loop_
 _atom_site_type_symbol
 _atom_site_label
 _atom_site_symmetry_multiplicity
 _atom_site_fract_x
 _atom_site_fract_y
 _atom_site_fract_z
 _atom_site_occupancy
  Ho  Ho0  1  0.595065  0.999388  0.000000  1
  Ho  Ho1  1  0.999388  0.595065  0.000000  1
  Er  Er2  1  0.402591  0.402591  0.000000  1
  Mg  Mg3  1  0.233834  0.999785  0.500000  1
  Mg  Mg4  1  0.999785  0.233834  0.500000  1
  Mg  Mg5  1  0.767174  0.767174  0.500000  1
  Pb  Pb6  1  0.333771  0.665660  0.500000  1
  Pb  Pb7  1  0.665660  0.333771  0.500000  1
  Au  Au8  1  0.002731  0.002731  0.000000  1
