# generated using pymatgen
data_Nd2GdLu3Ta2O14
_symmetry_space_group_name_H-M   'P 1'
_cell_length_a   6.46397377
_cell_length_b   6.44718726
_cell_length_c   7.56747400
_cell_angle_alpha   90.00000000
_cell_angle_beta   90.00000000
_cell_angle_gamma   109.26777214
_symmetry_Int_Tables_number   1
_chemical_formula_structural   Nd2GdLu3Ta2O14
_chemical_formula_sum   'Nd2 Gd1 Lu3 Ta2 O14'
_cell_volume   297.70538339
_cell_formula_units_Z   1
loop_
 _symmetry_equiv_pos_site_id
 _symmetry_equiv_pos_as_xyz
  1  'x, y, z'
loop_
 _atom_site_type_symbol
 _atom_site_label
 _atom_site_symmetry_multiplicity
 _atom_site_fract_x
 _atom_site_fract_y
 _atom_site_fract_z
 _atom_site_occupancy
  Nd  Nd0  1  0.504186  0.504477  0.502101  1
  Nd  Nd1  1  0.504186  0.504477  0.997899  1
  Gd  Gd2  1  0.468049  0.000305  0.250000  1
  Lu  Lu3  1  0.002750  0.530359  0.250000  1
  Lu  Lu4  1  0.998066  0.468763  0.750000  1
  Lu  Lu5  1  0.533075  0.001577  0.750000  1
  Ta  Ta6  1  0.001135  0.000545  0.502226  1
  Ta  Ta7  1  0.001135  0.000545  0.997774  1
  O  O8  1  0.935927  0.073941  0.750000  1
  O  O9  1  0.059973  0.932491  0.250000  1
  O  O10  1  0.353324  0.638795  0.250000  1
  O  O11  1  0.648325  0.353386  0.750000  1
  O  O12  1  0.358237  0.638354  0.750000  1
  O  O13  1  0.645743  0.372246  0.250000  1
  O  O14  1  0.319834  0.070167  0.959744  1
  O  O15  1  0.674021  0.922633  0.477136  1
  O  O16  1  0.319834  0.070167  0.540256  1
  O  O17  1  0.674021  0.922633  0.022864  1
  O  O18  1  0.063698  0.319538  0.462559  1
  O  O19  1  0.935392  0.677532  0.964773  1
  O  O20  1  0.935392  0.677532  0.535227  1
  O  O21  1  0.063698  0.319538  0.037441  1
