# generated using pymatgen
data_DyYFe3Co8NiP7
_symmetry_space_group_name_H-M   'P 1'
_cell_length_a   8.98936100
_cell_length_b   8.98972771
_cell_length_c   3.64294500
_cell_angle_alpha   90.00000000
_cell_angle_beta   90.00000000
_cell_angle_gamma   119.80266919
_symmetry_Int_Tables_number   1
_chemical_formula_structural   DyYFe3Co8NiP7
_chemical_formula_sum   'Dy1 Y1 Fe3 Co8 Ni1 P7'
_cell_volume   255.45754965
_cell_formula_units_Z   1
loop_
 _symmetry_equiv_pos_site_id
 _symmetry_equiv_pos_as_xyz
  1  'x, y, z'
loop_
 _atom_site_type_symbol
 _atom_site_label
 _atom_site_symmetry_multiplicity
 _atom_site_fract_x
 _atom_site_fract_y
 _atom_site_fract_z
 _atom_site_occupancy
  Dy  Dy0  1  0.331926  0.666430  0.000000  1
  Y  Y1  1  0.000970  0.000551  0.500000  1
  Fe  Fe2  1  0.760076  0.550670  0.500000  1
  Fe  Fe3  1  0.450364  0.210007  0.500000  1
  Fe  Fe4  1  0.789562  0.240341  0.500000  1
  Co  Co5  1  0.237027  0.963595  0.000000  1
  Co  Co6  1  0.037155  0.273039  0.000000  1
  Co  Co7  1  0.940056  0.489589  0.000000  1
  Co  Co8  1  0.509493  0.451731  0.000000  1
  Co  Co9  1  0.548862  0.058632  0.000000  1
  Co  Co10  1  0.100880  0.716819  0.500000  1
  Co  Co11  1  0.281456  0.381642  0.500000  1
  Co  Co12  1  0.617880  0.898908  0.500000  1
  Ni  Ni13  1  0.727944  0.765112  0.000000  1
  P  P14  1  0.969234  0.744104  0.000000  1
  P  P15  1  0.257391  0.221372  0.000000  1
  P  P16  1  0.779288  0.039573  0.000000  1
  P  P17  1  0.067876  0.444059  0.500000  1
  P  P18  1  0.549451  0.619747  0.500000  1
  P  P19  1  0.377346  0.931501  0.500000  1
  P  P20  1  0.665761  0.332575  0.000000  1
