# generated using pymatgen
data_LiTm(Si7Rh3)2
_symmetry_space_group_name_H-M   'P 1'
_cell_length_a   7.93561250
_cell_length_b   7.93561219
_cell_length_c   7.93561365
_cell_angle_alpha   57.16333978
_cell_angle_beta   57.16334260
_cell_angle_gamma   57.16333484
_symmetry_Int_Tables_number   1
_chemical_formula_structural   LiTm(Si7Rh3)2
_chemical_formula_sum   'Li1 Tm1 Si14 Rh6'
_cell_volume   330.27348859
_cell_formula_units_Z   1
loop_
 _symmetry_equiv_pos_site_id
 _symmetry_equiv_pos_as_xyz
  1  'x, y, z'
loop_
 _atom_site_type_symbol
 _atom_site_label
 _atom_site_symmetry_multiplicity
 _atom_site_fract_x
 _atom_site_fract_y
 _atom_site_fract_z
 _atom_site_occupancy
  Li  Li0  1  0.000000  0.000000  0.000000  1
  Tm  Tm1  1  0.500000  0.500000  0.500000  1
  Si  Si2  1  0.749586  0.749586  0.749586  1
  Si  Si3  1  0.250414  0.250414  0.250414  1
  Si  Si4  1  0.852433  0.066024  0.674968  1
  Si  Si5  1  0.674968  0.852433  0.066024  1
  Si  Si6  1  0.066024  0.674968  0.852433  1
  Si  Si7  1  0.651055  0.829805  0.430530  1
  Si  Si8  1  0.430530  0.651055  0.829805  1
  Si  Si9  1  0.829805  0.430530  0.651055  1
  Si  Si10  1  0.170195  0.569470  0.348945  1
  Si  Si11  1  0.569470  0.348945  0.170195  1
  Si  Si12  1  0.348945  0.170195  0.569470  1
  Si  Si13  1  0.933976  0.325032  0.147567  1
  Si  Si14  1  0.325032  0.147567  0.933976  1
  Si  Si15  1  0.147567  0.933976  0.325032  1
  Rh  Rh16  1  0.073293  0.430578  0.748151  1
  Rh  Rh17  1  0.251849  0.926707  0.569422  1
  Rh  Rh18  1  0.569422  0.251849  0.926707  1
  Rh  Rh19  1  0.926707  0.569422  0.251849  1
  Rh  Rh20  1  0.430578  0.748151  0.073293  1
  Rh  Rh21  1  0.748151  0.073293  0.430578  1
