# generated using pymatgen
data_Ta2BeNb2Co4P3
_symmetry_space_group_name_H-M   'P 1'
_cell_length_a   3.56727900
_cell_length_b   6.10793995
_cell_length_c   6.97934258
_cell_angle_alpha   89.92532771
_cell_angle_beta   90.00000000
_cell_angle_gamma   90.00000000
_symmetry_Int_Tables_number   1
_chemical_formula_structural   Ta2BeNb2Co4P3
_chemical_formula_sum   'Ta2 Be1 Nb2 Co4 P3'
_cell_volume   152.07085356
_cell_formula_units_Z   1
loop_
 _symmetry_equiv_pos_site_id
 _symmetry_equiv_pos_as_xyz
  1  'x, y, z'
loop_
 _atom_site_type_symbol
 _atom_site_label
 _atom_site_symmetry_multiplicity
 _atom_site_fract_x
 _atom_site_fract_y
 _atom_site_fract_z
 _atom_site_occupancy
  Ta  Ta0  1  0.750000  0.968703  0.184183  1
  Ta  Ta1  1  0.750000  0.486390  0.325852  1
  Be  Be2  1  0.250000  0.774263  0.380426  1
  Nb  Nb3  1  0.250000  0.023561  0.823539  1
  Nb  Nb4  1  0.250000  0.528818  0.671318  1
  Co  Co5  1  0.250000  0.142309  0.435987  1
  Co  Co6  1  0.250000  0.641124  0.061228  1
  Co  Co7  1  0.750000  0.859284  0.557960  1
  Co  Co8  1  0.750000  0.355349  0.940015  1
  P  P9  1  0.250000  0.272774  0.124040  1
  P  P10  1  0.750000  0.222779  0.616928  1
  P  P11  1  0.750000  0.724645  0.878522  1
