# generated using pymatgen
data_Sc10Tl4In4Co3Ru
_symmetry_space_group_name_H-M   'P 1'
_cell_length_a   3.36221600
_cell_length_b   7.62840577
_cell_length_c   17.53066071
_cell_angle_alpha   90.07059815
_cell_angle_beta   90.00000000
_cell_angle_gamma   90.00000000
_symmetry_Int_Tables_number   1
_chemical_formula_structural   Sc10Tl4In4Co3Ru
_chemical_formula_sum   'Sc10 Tl4 In4 Co3 Ru1'
_cell_volume   449.63214432
_cell_formula_units_Z   1
loop_
 _symmetry_equiv_pos_site_id
 _symmetry_equiv_pos_as_xyz
  1  'x, y, z'
loop_
 _atom_site_type_symbol
 _atom_site_label
 _atom_site_symmetry_multiplicity
 _atom_site_fract_x
 _atom_site_fract_y
 _atom_site_fract_z
 _atom_site_occupancy
  Sc  Sc0  1  0.500000  0.500529  0.502563  1
  Sc  Sc1  1  0.500000  0.000895  0.997784  1
  Sc  Sc2  1  0.500000  0.874461  0.412020  1
  Sc  Sc3  1  0.500000  0.123067  0.594070  1
  Sc  Sc4  1  0.500000  0.622289  0.906849  1
  Sc  Sc5  1  0.500000  0.378755  0.090593  1
  Sc  Sc6  1  0.500000  0.242029  0.277612  1
  Sc  Sc7  1  0.500000  0.757177  0.722545  1
  Sc  Sc8  1  0.500000  0.257505  0.778700  1
  Sc  Sc9  1  0.500000  0.742020  0.219146  1
  Tl  Tl10  1  0.000000  0.203002  0.436399  1
  Tl  Tl11  1  0.000000  0.798239  0.569773  1
  Tl  Tl12  1  0.000000  0.299521  0.932502  1
  Tl  Tl13  1  0.000000  0.701109  0.063130  1
  In  In14  1  0.000000  0.566004  0.347932  1
  In  In15  1  0.000000  0.431967  0.653586  1
  In  In16  1  0.000000  0.932092  0.847180  1
  In  In17  1  0.000000  0.068934  0.148359  1
  Co  Co18  1  0.000000  0.043873  0.697545  1
  Co  Co19  1  0.000000  0.543905  0.803082  1
  Co  Co20  1  0.000000  0.456500  0.195327  1
  Ru  Ru21  1  0.000000  0.956131  0.303302  1
