# generated using pymatgen
data_Yb3Y7Rh6
_symmetry_space_group_name_H-M   'P 1'
_cell_length_a   6.32642467
_cell_length_b   10.89107000
_cell_length_c   10.97641300
_cell_angle_alpha   90.00000000
_cell_angle_beta   90.25297831
_cell_angle_gamma   90.00000000
_symmetry_Int_Tables_number   1
_chemical_formula_structural   Yb3Y7Rh6
_chemical_formula_sum   'Yb6 Y14 Rh12'
_cell_volume   756.28432042
_cell_formula_units_Z   2
loop_
 _symmetry_equiv_pos_site_id
 _symmetry_equiv_pos_as_xyz
  1  'x, y, z'
loop_
 _atom_site_type_symbol
 _atom_site_label
 _atom_site_symmetry_multiplicity
 _atom_site_fract_x
 _atom_site_fract_y
 _atom_site_fract_z
 _atom_site_occupancy
  Yb  Yb0  1  0.621429  0.458762  0.340346  1
  Yb  Yb1  1  0.121429  0.041239  0.340346  1
  Yb  Yb2  1  0.501874  0.744526  0.250101  1
  Yb  Yb3  1  0.001874  0.755474  0.250101  1
  Yb  Yb4  1  0.005530  0.247793  0.752670  1
  Yb  Yb5  1  0.505530  0.252207  0.752670  1
  Y  Y6  1  0.377957  0.840607  0.538817  1
  Y  Y7  1  0.877957  0.659393  0.538817  1
  Y  Y8  1  0.879957  0.839829  0.957404  1
  Y  Y9  1  0.379957  0.660171  0.957404  1
  Y  Y10  1  0.881367  0.539008  0.837911  1
  Y  Y11  1  0.381367  0.960992  0.837911  1
  Y  Y12  1  0.377979  0.540568  0.658799  1
  Y  Y13  1  0.877979  0.959432  0.658799  1
  Y  Y14  1  0.617306  0.162135  0.459244  1
  Y  Y15  1  0.117306  0.337865  0.459244  1
  Y  Y16  1  0.118328  0.157322  0.045452  1
  Y  Y17  1  0.618328  0.342678  0.045452  1
  Y  Y18  1  0.115741  0.459638  0.161104  1
  Y  Y19  1  0.615741  0.040363  0.161104  1
  Rh  Rh20  1  0.259264  0.897695  0.086175  1
  Rh  Rh21  1  0.759264  0.602305  0.086175  1
  Rh  Rh22  1  0.742293  0.905800  0.406500  1
  Rh  Rh23  1  0.242293  0.594200  0.406500  1
  Rh  Rh24  1  0.750719  0.094813  0.908311  1
  Rh  Rh25  1  0.250719  0.405187  0.908311  1
  Rh  Rh26  1  0.254578  0.094667  0.599603  1
  Rh  Rh27  1  0.754578  0.405333  0.599603  1
  Rh  Rh28  1  0.119852  0.750206  0.747570  1
  Rh  Rh29  1  0.619852  0.749794  0.747570  1
  Rh  Rh30  1  0.875827  0.250221  0.249995  1
  Rh  Rh31  1  0.375827  0.249779  0.249995  1
