# generated using pymatgen
data_Y5MoWC7
_symmetry_space_group_name_H-M   'P 1'
_cell_length_a   8.44442317
_cell_length_b   8.44442167
_cell_length_c   3.43886700
_cell_angle_alpha   90.00000000
_cell_angle_beta   90.00000000
_cell_angle_gamma   122.59176694
_symmetry_Int_Tables_number   1
_chemical_formula_structural   Y5MoWC7
_chemical_formula_sum   'Y5 Mo1 W1 C7'
_cell_volume   206.60486979
_cell_formula_units_Z   1
loop_
 _symmetry_equiv_pos_site_id
 _symmetry_equiv_pos_as_xyz
  1  'x, y, z'
loop_
 _atom_site_type_symbol
 _atom_site_label
 _atom_site_symmetry_multiplicity
 _atom_site_fract_x
 _atom_site_fract_y
 _atom_site_fract_z
 _atom_site_occupancy
  Y  Y0  1  0.500052  0.499948  0.000000  1
  Y  Y1  1  0.073989  0.331859  0.500000  1
  Y  Y2  1  0.925495  0.666901  0.500000  1
  Y  Y3  1  0.668141  0.926011  0.500000  1
  Y  Y4  1  0.333099  0.074505  0.500000  1
  Mo  Mo5  1  0.712084  0.287916  0.000000  1
  W  W6  1  0.287517  0.712483  0.000000  1
  C  C7  1  0.625098  0.374902  0.500000  1
  C  C8  1  0.374230  0.625770  0.500000  1
  C  C9  1  0.999962  0.000038  0.000000  1
  C  C10  1  0.166939  0.166861  0.000000  1
  C  C11  1  0.833139  0.833061  0.000000  1
  C  C12  1  0.001029  0.500776  0.000000  1
  C  C13  1  0.499224  0.998971  0.000000  1
