# generated using pymatgen
data_TbCeP7Ru12
_symmetry_space_group_name_H-M   'P 1'
_cell_length_a   9.45064000
_cell_length_b   9.45063959
_cell_length_c   3.94836700
_cell_angle_alpha   90.00000000
_cell_angle_beta   90.00000000
_cell_angle_gamma   119.99999351
_symmetry_Int_Tables_number   1
_chemical_formula_structural   TbCeP7Ru12
_chemical_formula_sum   'Tb1 Ce1 P7 Ru12'
_cell_volume   305.40109841
_cell_formula_units_Z   1
loop_
 _symmetry_equiv_pos_site_id
 _symmetry_equiv_pos_as_xyz
  1  'x, y, z'
loop_
 _atom_site_type_symbol
 _atom_site_label
 _atom_site_symmetry_multiplicity
 _atom_site_fract_x
 _atom_site_fract_y
 _atom_site_fract_z
 _atom_site_occupancy
  Tb  Tb0  1  0.666667  0.333333  0.500000  1
  Ce  Ce1  1  0.333333  0.666667  0.000000  1
  P  P2  1  0.603729  0.716222  0.500000  1
  P  P3  1  0.000000  0.000000  0.000000  1
  P  P4  1  0.283778  0.887507  0.500000  1
  P  P5  1  0.112493  0.396271  0.500000  1
  P  P6  1  0.886562  0.574751  0.000000  1
  P  P7  1  0.425249  0.311809  0.000000  1
  P  P8  1  0.688191  0.113438  0.000000  1
  Ru  Ru9  1  0.556290  0.947197  0.500000  1
  Ru  Ru10  1  0.390907  0.443710  0.500000  1
  Ru  Ru11  1  0.912713  0.120723  0.500000  1
  Ru  Ru12  1  0.208010  0.087287  0.500000  1
  Ru  Ru13  1  0.879277  0.791990  0.500000  1
  Ru  Ru14  1  0.727722  0.891141  0.000000  1
  Ru  Ru15  1  0.108859  0.836580  0.000000  1
  Ru  Ru16  1  0.163420  0.272278  0.000000  1
  Ru  Ru17  1  0.424642  0.067783  0.000000  1
  Ru  Ru18  1  0.932217  0.356860  0.000000  1
  Ru  Ru19  1  0.643140  0.575358  0.000000  1
  Ru  Ru20  1  0.052803  0.609093  0.500000  1
