# generated using pymatgen
data_ErPa3(TcB4)4
_symmetry_space_group_name_H-M   'P 1'
_cell_length_a   3.64330500
_cell_length_b   5.96516703
_cell_length_c   11.54591149
_cell_angle_alpha   89.91679886
_cell_angle_beta   90.00000000
_cell_angle_gamma   90.00000000
_symmetry_Int_Tables_number   1
_chemical_formula_structural   ErPa3(TcB4)4
_chemical_formula_sum   'Er1 Pa3 Tc4 B16'
_cell_volume   250.92613912
_cell_formula_units_Z   1
loop_
 _symmetry_equiv_pos_site_id
 _symmetry_equiv_pos_as_xyz
  1  'x, y, z'
loop_
 _atom_site_type_symbol
 _atom_site_label
 _atom_site_symmetry_multiplicity
 _atom_site_fract_x
 _atom_site_fract_y
 _atom_site_fract_z
 _atom_site_occupancy
  Er  Er0  1  0.000000  0.872113  0.850657  1
  Pa  Pa1  1  0.000000  0.628148  0.349911  1
  Pa  Pa2  1  0.000000  0.371785  0.651854  1
  Pa  Pa3  1  0.000000  0.127880  0.148407  1
  Tc  Tc4  1  0.000000  0.638183  0.093786  1
  Tc  Tc5  1  0.000000  0.361167  0.908684  1
  Tc  Tc6  1  0.000000  0.138602  0.405879  1
  Tc  Tc7  1  0.000000  0.861524  0.592679  1
  B  B8  1  0.500000  0.789831  0.186190  1
  B  B9  1  0.500000  0.212630  0.813391  1
  B  B10  1  0.500000  0.289346  0.312458  1
  B  B11  1  0.500000  0.711136  0.686442  1
  B  B12  1  0.500000  0.864832  0.031846  1
  B  B13  1  0.500000  0.137010  0.967738  1
  B  B14  1  0.500000  0.364031  0.468499  1
  B  B15  1  0.500000  0.633932  0.532505  1
  B  B16  1  0.500000  0.886851  0.454529  1
  B  B17  1  0.500000  0.111798  0.547023  1
  B  B18  1  0.500000  0.388070  0.044875  1
  B  B19  1  0.500000  0.614674  0.952921  1
  B  B20  1  0.500000  0.973102  0.308513  1
  B  B21  1  0.500000  0.025888  0.691822  1
  B  B22  1  0.500000  0.472942  0.190810  1
  B  B23  1  0.500000  0.524523  0.808579  1
