# generated using pymatgen
data_Ca3TbYbIr2
_symmetry_space_group_name_H-M   'P 1'
_cell_length_a   6.61008018
_cell_length_b   7.39490763
_cell_length_c   8.63952832
_cell_angle_alpha   97.34862543
_cell_angle_beta   112.49163229
_cell_angle_gamma   89.99999506
_symmetry_Int_Tables_number   1
_chemical_formula_structural   Ca3TbYbIr2
_chemical_formula_sum   'Ca6 Tb2 Yb2 Ir4'
_cell_volume   386.42852908
_cell_formula_units_Z   2
loop_
 _symmetry_equiv_pos_site_id
 _symmetry_equiv_pos_as_xyz
  1  'x, y, z'
loop_
 _atom_site_type_symbol
 _atom_site_label
 _atom_site_symmetry_multiplicity
 _atom_site_fract_x
 _atom_site_fract_y
 _atom_site_fract_z
 _atom_site_occupancy
  Ca  Ca0  1  0.022315  0.080221  0.827083  1
  Ca  Ca1  1  0.195233  0.419779  0.172917  1
  Ca  Ca2  1  0.641789  0.819903  0.436426  1
  Ca  Ca3  1  0.205363  0.680097  0.563574  1
  Ca  Ca4  1  0.358432  0.179948  0.563808  1
  Ca  Ca5  1  0.794623  0.320052  0.436192  1
  Tb  Tb6  1  0.437636  0.750000  0.000000  1
  Tb  Tb7  1  0.562880  0.250000  0.000000  1
  Yb  Yb8  1  0.976990  0.918351  0.171761  1
  Yb  Yb9  1  0.805228  0.581649  0.828239  1
  Ir  Ir10  1  0.810275  0.576749  0.207421  1
  Ir  Ir11  1  0.602855  0.923251  0.792579  1
  Ir  Ir12  1  0.188958  0.427092  0.791534  1
  Ir  Ir13  1  0.397424  0.072908  0.208466  1
