# generated using pymatgen
data_Gd5Lu(BiO7)2
_symmetry_space_group_name_H-M   'P 1'
_cell_length_a   6.56025584
_cell_length_b   6.54695636
_cell_length_c   7.70632000
_cell_angle_alpha   106.89816544
_cell_angle_beta   89.73186348
_cell_angle_gamma   98.85914597
_symmetry_Int_Tables_number   1
_chemical_formula_structural   Gd5Lu(BiO7)2
_chemical_formula_sum   'Gd5 Lu1 Bi2 O14'
_cell_volume   312.63368590
_cell_formula_units_Z   1
loop_
 _symmetry_equiv_pos_site_id
 _symmetry_equiv_pos_as_xyz
  1  'x, y, z'
loop_
 _atom_site_type_symbol
 _atom_site_label
 _atom_site_symmetry_multiplicity
 _atom_site_fract_x
 _atom_site_fract_y
 _atom_site_fract_z
 _atom_site_occupancy
  Gd  Gd0  1  0.537535  0.994481  0.747428  1
  Gd  Gd1  1  0.270000  0.539685  0.884601  1
  Gd  Gd2  1  0.727926  0.462883  0.118267  1
  Gd  Gd3  1  0.735887  0.475748  0.611268  1
  Gd  Gd4  1  0.262509  0.521640  0.382678  1
  Lu  Lu5  1  0.462587  0.006123  0.252366  1
  Bi  Bi6  1  0.000181  0.000274  0.498216  1
  Bi  Bi7  1  0.999950  0.000153  0.002621  1
  O  O8  1  0.447611  0.657876  0.170334  1
  O  O9  1  0.554514  0.353137  0.833406  1
  O  O10  1  0.304205  0.927563  0.958036  1
  O  O11  1  0.697475  0.072111  0.054865  1
  O  O12  1  0.300557  0.928179  0.507907  1
  O  O13  1  0.700456  0.070251  0.478105  1
  O  O14  1  0.540651  0.355093  0.341852  1
  O  O15  1  0.452221  0.635682  0.653186  1
  O  O16  1  0.926747  0.666990  0.960002  1
  O  O17  1  0.073637  0.333532  0.042016  1
  O  O18  1  0.066315  0.347185  0.620699  1
  O  O19  1  0.928828  0.650662  0.381584  1
  O  O20  1  0.878728  0.903268  0.725528  1
  O  O21  1  0.131481  0.097487  0.275038  1
