# generated using pymatgen
data_PrGd5Ta2O14
_symmetry_space_group_name_H-M   'P 1'
_cell_length_a   6.48266250
_cell_length_b   6.60976932
_cell_length_c   7.70678010
_cell_angle_alpha   106.61993978
_cell_angle_beta   89.73436669
_cell_angle_gamma   97.19452155
_symmetry_Int_Tables_number   1
_chemical_formula_structural   PrGd5Ta2O14
_chemical_formula_sum   'Pr1 Gd5 Ta2 O14'
_cell_volume   313.77090196
_cell_formula_units_Z   1
loop_
 _symmetry_equiv_pos_site_id
 _symmetry_equiv_pos_as_xyz
  1  'x, y, z'
loop_
 _atom_site_type_symbol
 _atom_site_label
 _atom_site_symmetry_multiplicity
 _atom_site_fract_x
 _atom_site_fract_y
 _atom_site_fract_z
 _atom_site_occupancy
  Pr  Pr0  1  0.741533  0.465441  0.117450  1
  Gd  Gd1  1  0.735707  0.455404  0.609408  1
  Gd  Gd2  1  0.546299  0.992603  0.749826  1
  Gd  Gd3  1  0.452993  0.006928  0.250392  1
  Gd  Gd4  1  0.263290  0.547669  0.395480  1
  Gd  Gd5  1  0.260322  0.536249  0.882335  1
  Ta  Ta6  1  0.002615  0.000201  0.998677  1
  Ta  Ta7  1  0.000911  0.002853  0.501701  1
  O  O8  1  0.711933  0.065319  0.481868  1
  O  O9  1  0.926721  0.679604  0.936091  1
  O  O10  1  0.712100  0.065712  0.050691  1
  O  O11  1  0.928002  0.674952  0.405456  1
  O  O12  1  0.920120  0.970337  0.741717  1
  O  O13  1  0.553978  0.346645  0.829714  1
  O  O14  1  0.536514  0.360292  0.346271  1
  O  O15  1  0.458317  0.640500  0.659865  1
  O  O16  1  0.432544  0.651892  0.165771  1
  O  O17  1  0.077005  0.031333  0.258171  1
  O  O18  1  0.074889  0.325266  0.601740  1
  O  O19  1  0.291816  0.931430  0.951231  1
  O  O20  1  0.082626  0.315010  0.049189  1
  O  O21  1  0.289764  0.934360  0.516955  1
