# generated using pymatgen
data_Pr2Y4FeBr10
_symmetry_space_group_name_H-M   'P 1'
_cell_length_a   7.43521442
_cell_length_b   9.33360656
_cell_length_c   9.17667961
_cell_angle_alpha   106.60620858
_cell_angle_beta   95.51745764
_cell_angle_gamma   105.77868408
_symmetry_Int_Tables_number   1
_chemical_formula_structural   Pr2Y4FeBr10
_chemical_formula_sum   'Pr2 Y4 Fe1 Br10'
_cell_volume   576.74842171
_cell_formula_units_Z   1
loop_
 _symmetry_equiv_pos_site_id
 _symmetry_equiv_pos_as_xyz
  1  'x, y, z'
loop_
 _atom_site_type_symbol
 _atom_site_label
 _atom_site_symmetry_multiplicity
 _atom_site_fract_x
 _atom_site_fract_y
 _atom_site_fract_z
 _atom_site_occupancy
  Pr  Pr0  1  0.117116  0.044938  0.767488  1
  Pr  Pr1  1  0.882884  0.955062  0.232512  1
  Y  Y2  1  0.969987  0.297708  0.091235  1
  Y  Y3  1  0.030013  0.702292  0.908765  1
  Y  Y4  1  0.360867  0.132974  0.173740  1
  Y  Y5  1  0.639133  0.867026  0.826260  1
  Fe  Fe6  1  0.000000  0.000000  0.000000  1
  Br  Br7  1  0.343170  0.443407  0.266958  1
  Br  Br8  1  0.656830  0.556593  0.733042  1
  Br  Br9  1  0.262797  0.086963  0.451489  1
  Br  Br10  1  0.737203  0.913037  0.548511  1
  Br  Br11  1  0.083502  0.376369  0.826544  1
  Br  Br12  1  0.916498  0.623631  0.173456  1
  Br  Br13  1  0.451209  0.820957  0.087460  1
  Br  Br14  1  0.548791  0.179043  0.912540  1
  Br  Br15  1  0.777707  0.259227  0.340545  1
  Br  Br16  1  0.222293  0.740773  0.659455  1
