# generated using pymatgen
data_Tb9Dy(Ga2Ru3)2
_symmetry_space_group_name_H-M   'P 1'
_cell_length_a   8.36777022
_cell_length_b   8.36776960
_cell_length_c   8.36777100
_cell_angle_alpha   109.47026537
_cell_angle_beta   109.47026386
_cell_angle_gamma   109.47026167
_symmetry_Int_Tables_number   1
_chemical_formula_structural   Tb9Dy(Ga2Ru3)2
_chemical_formula_sum   'Tb9 Dy1 Ga4 Ru6'
_cell_volume   451.04798014
_cell_formula_units_Z   1
loop_
 _symmetry_equiv_pos_site_id
 _symmetry_equiv_pos_as_xyz
  1  'x, y, z'
loop_
 _atom_site_type_symbol
 _atom_site_label
 _atom_site_symmetry_multiplicity
 _atom_site_fract_x
 _atom_site_fract_y
 _atom_site_fract_z
 _atom_site_occupancy
  Tb  Tb0  1  0.318147  0.568069  0.750110  1
  Tb  Tb1  1  0.750110  0.318147  0.568069  1
  Tb  Tb2  1  0.568069  0.750110  0.318147  1
  Tb  Tb3  1  0.715394  0.500135  0.999870  1
  Tb  Tb4  1  0.999870  0.715394  0.500135  1
  Tb  Tb5  1  0.500135  0.999870  0.715394  1
  Tb  Tb6  1  0.249961  0.182157  0.932321  1
  Tb  Tb7  1  0.932321  0.249961  0.182157  1
  Tb  Tb8  1  0.182157  0.932321  0.249961  1
  Dy  Dy9  1  0.785432  0.785432  0.785432  1
  Ga  Ga10  1  0.412221  0.412221  0.412221  1
  Ga  Ga11  1  0.088280  0.499833  0.999799  1
  Ga  Ga12  1  0.999799  0.088280  0.499833  1
  Ga  Ga13  1  0.499833  0.999799  0.088280  1
  Ru  Ru14  1  0.875650  0.125566  0.749810  1
  Ru  Ru15  1  0.749810  0.875650  0.125566  1
  Ru  Ru16  1  0.125566  0.749810  0.875650  1
  Ru  Ru17  1  0.249893  0.623685  0.373665  1
  Ru  Ru18  1  0.373665  0.249893  0.623685  1
  Ru  Ru19  1  0.623685  0.373665  0.249893  1
