# generated using pymatgen
data_CeZn10Cu
_symmetry_space_group_name_H-M   'P 1'
_cell_length_a   8.22687354
_cell_length_b   8.20772264
_cell_length_c   8.22173564
_cell_angle_alpha   99.83141248
_cell_angle_beta   99.94361807
_cell_angle_gamma   131.02480771
_symmetry_Int_Tables_number   1
_chemical_formula_structural   CeZn10Cu
_chemical_formula_sum   'Ce2 Zn20 Cu2'
_cell_volume   381.19870152
_cell_formula_units_Z   2
loop_
 _symmetry_equiv_pos_site_id
 _symmetry_equiv_pos_as_xyz
  1  'x, y, z'
loop_
 _atom_site_type_symbol
 _atom_site_label
 _atom_site_symmetry_multiplicity
 _atom_site_fract_x
 _atom_site_fract_y
 _atom_site_fract_z
 _atom_site_occupancy
  Ce  Ce0  1  0.251702  0.751702  0.503405  1
  Ce  Ce1  1  0.998298  0.998298  0.996595  1
  Zn  Zn2  1  0.427371  0.103319  0.921977  1
  Zn  Zn3  1  0.185108  0.512903  0.089220  1
  Zn  Zn4  1  0.504268  0.504268  0.008536  1
  Zn  Zn5  1  0.745732  0.245732  0.491464  1
  Zn  Zn6  1  0.625000  0.375000  0.750000  1
  Zn  Zn7  1  0.125000  0.375000  0.750000  1
  Zn  Zn8  1  0.180345  0.094352  0.671988  1
  Zn  Zn9  1  0.755393  0.931342  0.578023  1
  Zn  Zn10  1  0.345888  0.173684  0.410780  1
  Zn  Zn11  1  0.428151  0.509708  0.324693  1
  Zn  Zn12  1  0.896543  0.814986  0.324693  1
  Zn  Zn13  1  0.491642  0.577636  0.671988  1
  Zn  Zn14  1  0.064892  0.237097  0.410780  1
  Zn  Zn15  1  0.822629  0.646681  0.578023  1
  Zn  Zn16  1  0.069655  0.655648  0.828012  1
  Zn  Zn17  1  0.494607  0.818658  0.921977  1
  Zn  Zn18  1  0.904112  0.576316  0.089220  1
  Zn  Zn19  1  0.821849  0.240292  0.175307  1
  Zn  Zn20  1  0.353457  0.935014  0.175307  1
  Zn  Zn21  1  0.758358  0.172364  0.828012  1
  Cu  Cu22  1  0.625000  0.375000  0.250000  1
  Cu  Cu23  1  0.625000  0.875000  0.250000  1
