# generated using pymatgen
data_Sm3ScZn2Pt3
_symmetry_space_group_name_H-M   'P 1'
_cell_length_a   7.31141700
_cell_length_b   7.43012477
_cell_length_c   4.11178500
_cell_angle_alpha   90.00000000
_cell_angle_beta   90.00000000
_cell_angle_gamma   119.47288793
_symmetry_Int_Tables_number   1
_chemical_formula_structural   Sm3ScZn2Pt3
_chemical_formula_sum   'Sm3 Sc1 Zn2 Pt3'
_cell_volume   194.46481733
_cell_formula_units_Z   1
loop_
 _symmetry_equiv_pos_site_id
 _symmetry_equiv_pos_as_xyz
  1  'x, y, z'
loop_
 _atom_site_type_symbol
 _atom_site_label
 _atom_site_symmetry_multiplicity
 _atom_site_fract_x
 _atom_site_fract_y
 _atom_site_fract_z
 _atom_site_occupancy
  Sm  Sm0  1  0.384271  0.000000  0.000000  1
  Sm  Sm1  1  0.017234  0.433272  0.000000  1
  Sm  Sm2  1  0.583961  0.566727  0.000000  1
  Sc  Sc3  1  0.767538  0.000000  0.500000  1
  Zn  Zn4  1  0.244147  0.248269  0.500000  1
  Zn  Zn5  1  0.995877  0.751731  0.500000  1
  Pt  Pt6  1  0.992285  0.000000  0.000000  1
  Pt  Pt7  1  0.667738  0.320788  0.500000  1
  Pt  Pt8  1  0.346952  0.679213  0.500000  1
