# generated using pymatgen
data_Y3TmGa5Ir9
_symmetry_space_group_name_H-M   'P 1'
_cell_length_a   5.56888700
_cell_length_b   5.56888709
_cell_length_c   23.64959800
_cell_angle_alpha   90.00000000
_cell_angle_beta   90.00000000
_cell_angle_gamma   119.99999355
_symmetry_Int_Tables_number   1
_chemical_formula_structural   Y3TmGa5Ir9
_chemical_formula_sum   'Y6 Tm2 Ga10 Ir18'
_cell_volume   635.17184732
_cell_formula_units_Z   2
loop_
 _symmetry_equiv_pos_site_id
 _symmetry_equiv_pos_as_xyz
  1  'x, y, z'
loop_
 _atom_site_type_symbol
 _atom_site_label
 _atom_site_symmetry_multiplicity
 _atom_site_fract_x
 _atom_site_fract_y
 _atom_site_fract_z
 _atom_site_occupancy
  Y  Y0  1  0.666667  0.333333  0.029907  1
  Y  Y1  1  0.333333  0.666667  0.970093  1
  Y  Y2  1  0.333333  0.666667  0.677593  1
  Y  Y3  1  0.666667  0.333333  0.322407  1
  Y  Y4  1  0.666667  0.333333  0.178027  1
  Y  Y5  1  0.333333  0.666667  0.821973  1
  Tm  Tm6  1  0.333333  0.666667  0.529587  1
  Tm  Tm7  1  0.666667  0.333333  0.470413  1
  Ga  Ga8  1  0.000000  0.000000  0.000000  1
  Ga  Ga9  1  0.000000  0.000000  0.500000  1
  Ga  Ga10  1  0.333333  0.666667  0.168105  1
  Ga  Ga11  1  0.666667  0.333333  0.831895  1
  Ga  Ga12  1  0.666667  0.333333  0.667767  1
  Ga  Ga13  1  0.333333  0.666667  0.332233  1
  Ga  Ga14  1  0.000000  0.000000  0.165285  1
  Ga  Ga15  1  0.000000  0.000000  0.834715  1
  Ga  Ga16  1  0.000000  0.000000  0.664686  1
  Ga  Ga17  1  0.000000  0.000000  0.335314  1
  Ir  Ir18  1  0.170580  0.341158  0.083514  1
  Ir  Ir19  1  0.829420  0.658842  0.916486  1
  Ir  Ir20  1  0.658842  0.829420  0.083514  1
  Ir  Ir21  1  0.828964  0.657928  0.582592  1
  Ir  Ir22  1  0.341158  0.170580  0.916486  1
  Ir  Ir23  1  0.171036  0.342072  0.417408  1
  Ir  Ir24  1  0.170580  0.829420  0.083514  1
  Ir  Ir25  1  0.342072  0.171036  0.582592  1
  Ir  Ir26  1  0.829420  0.170580  0.916486  1
  Ir  Ir27  1  0.657928  0.828964  0.417408  1
  Ir  Ir28  1  0.828964  0.171036  0.582592  1
  Ir  Ir29  1  0.171036  0.828964  0.417408  1
  Ir  Ir30  1  0.165122  0.330241  0.250138  1
  Ir  Ir31  1  0.834878  0.669759  0.749862  1
  Ir  Ir32  1  0.669759  0.834878  0.250138  1
  Ir  Ir33  1  0.330241  0.165122  0.749862  1
  Ir  Ir34  1  0.165122  0.834878  0.250138  1
  Ir  Ir35  1  0.834878  0.165122  0.749862  1
