# generated using pymatgen
data_Li7Dy5Y3CdSn8
_symmetry_space_group_name_H-M   'P 1'
_cell_length_a   9.44000700
_cell_length_b   9.42862532
_cell_length_c   7.29454906
_cell_angle_alpha   90.07785090
_cell_angle_beta   90.00000000
_cell_angle_gamma   120.03994346
_symmetry_Int_Tables_number   1
_chemical_formula_structural   Li7Dy5Y3CdSn8
_chemical_formula_sum   'Li7 Dy5 Y3 Cd1 Sn8'
_cell_volume   562.04915262
_cell_formula_units_Z   1
loop_
 _symmetry_equiv_pos_site_id
 _symmetry_equiv_pos_as_xyz
  1  'x, y, z'
loop_
 _atom_site_type_symbol
 _atom_site_label
 _atom_site_symmetry_multiplicity
 _atom_site_fract_x
 _atom_site_fract_y
 _atom_site_fract_z
 _atom_site_occupancy
  Li  Li0  1  0.164319  0.832312  0.289721  1
  Li  Li1  1  0.667993  0.832312  0.289721  1
  Li  Li2  1  0.833164  0.666328  0.791421  1
  Li  Li3  1  0.831711  0.165846  0.788338  1
  Li  Li4  1  0.334135  0.165846  0.788338  1
  Li  Li5  1  0.333294  0.666590  0.676453  1
  Li  Li6  1  0.668908  0.337817  0.173001  1
  Dy  Dy7  1  0.488654  0.977307  0.988581  1
  Dy  Dy8  1  0.488579  0.512097  0.992639  1
  Dy  Dy9  1  0.023518  0.512097  0.992639  1
  Dy  Dy10  1  0.996647  0.993294  0.502647  1
  Dy  Dy11  1  0.000571  0.001142  0.999451  1
  Y  Y12  1  0.511559  0.023116  0.497158  1
  Y  Y13  1  0.517066  0.490352  0.494811  1
  Y  Y14  1  0.973287  0.490352  0.494811  1
  Cd  Cd15  1  0.166542  0.333082  0.297380  1
  Sn  Sn16  1  0.166039  0.332077  0.735686  1
  Sn  Sn17  1  0.165966  0.832419  0.728979  1
  Sn  Sn18  1  0.666453  0.832419  0.728979  1
  Sn  Sn19  1  0.833911  0.667821  0.229168  1
  Sn  Sn20  1  0.822846  0.161750  0.223593  1
  Sn  Sn21  1  0.338904  0.161750  0.223593  1
  Sn  Sn22  1  0.339101  0.678203  0.254500  1
  Sn  Sn23  1  0.666838  0.333675  0.760385  1
