# generated using pymatgen
data_BaNp2Se5
_symmetry_space_group_name_H-M   'P 1'
_cell_length_a   7.90058100
_cell_length_b   8.81361708
_cell_length_c   12.36646901
_cell_angle_alpha   89.73727490
_cell_angle_beta   90.00000000
_cell_angle_gamma   90.00000000
_symmetry_Int_Tables_number   1
_chemical_formula_structural   BaNp2Se5
_chemical_formula_sum   'Ba4 Np8 Se20'
_cell_volume   861.10152019
_cell_formula_units_Z   4
loop_
 _symmetry_equiv_pos_site_id
 _symmetry_equiv_pos_as_xyz
  1  'x, y, z'
loop_
 _atom_site_type_symbol
 _atom_site_label
 _atom_site_symmetry_multiplicity
 _atom_site_fract_x
 _atom_site_fract_y
 _atom_site_fract_z
 _atom_site_occupancy
  Ba  Ba0  1  0.055061  0.491864  0.331363  1
  Ba  Ba1  1  0.555061  0.508136  0.168637  1
  Ba  Ba2  1  0.944939  0.508136  0.668637  1
  Ba  Ba3  1  0.444939  0.491864  0.831363  1
  Np  Np4  1  0.024442  0.998366  0.318755  1
  Np  Np5  1  0.524442  0.001634  0.181245  1
  Np  Np6  1  0.975558  0.001634  0.681245  1
  Np  Np7  1  0.475558  0.998366  0.818755  1
  Np  Np8  1  0.068495  0.756071  0.008374  1
  Np  Np9  1  0.568495  0.243929  0.491626  1
  Np  Np10  1  0.931505  0.243929  0.991626  1
  Np  Np11  1  0.431505  0.756071  0.508374  1
  Se  Se12  1  0.663465  0.954823  0.402822  1
  Se  Se13  1  0.163465  0.045177  0.097178  1
  Se  Se14  1  0.336535  0.045177  0.597178  1
  Se  Se15  1  0.836535  0.954823  0.902822  1
  Se  Se16  1  0.451198  0.792739  0.001281  1
  Se  Se17  1  0.951198  0.207261  0.498719  1
  Se  Se18  1  0.548802  0.207261  0.998719  1
  Se  Se19  1  0.048802  0.792739  0.501281  1
  Se  Se20  1  0.839765  0.784754  0.187540  1
  Se  Se21  1  0.339765  0.215246  0.312460  1
  Se  Se22  1  0.160235  0.215246  0.812460  1
  Se  Se23  1  0.660235  0.784754  0.687540  1
  Se  Se24  1  0.311573  0.775292  0.284677  1
  Se  Se25  1  0.811573  0.224708  0.215323  1
  Se  Se26  1  0.688427  0.224708  0.715323  1
  Se  Se27  1  0.188427  0.775292  0.784677  1
  Se  Se28  1  0.177087  0.460824  0.070117  1
  Se  Se29  1  0.677087  0.539176  0.429883  1
  Se  Se30  1  0.822913  0.539176  0.929883  1
  Se  Se31  1  0.322913  0.460824  0.570117  1
