# generated using pymatgen
data_Tb12CdSi4Sn
_symmetry_space_group_name_H-M   'P 1'
_cell_length_a   8.56368688
_cell_length_b   8.56367371
_cell_length_c   8.56368800
_cell_angle_alpha   112.18134878
_cell_angle_beta   111.00124049
_cell_angle_gamma   105.31190182
_symmetry_Int_Tables_number   1
_chemical_formula_structural   Tb12CdSi4Sn
_chemical_formula_sum   'Tb12 Cd1 Si4 Sn1'
_cell_volume   481.51087524
_cell_formula_units_Z   1
loop_
 _symmetry_equiv_pos_site_id
 _symmetry_equiv_pos_as_xyz
  1  'x, y, z'
loop_
 _atom_site_type_symbol
 _atom_site_label
 _atom_site_symmetry_multiplicity
 _atom_site_fract_x
 _atom_site_fract_y
 _atom_site_fract_z
 _atom_site_occupancy
  Tb  Tb0  1  0.442470  0.238603  0.203868  1
  Tb  Tb1  1  0.557530  0.761397  0.796132  1
  Tb  Tb2  1  0.034735  0.238603  0.796133  1
  Tb  Tb3  1  0.965265  0.761397  0.203867  1
  Tb  Tb4  1  0.184613  0.277131  0.461746  1
  Tb  Tb5  1  0.815387  0.722869  0.538254  1
  Tb  Tb6  1  0.184613  0.722869  0.907482  1
  Tb  Tb7  1  0.815387  0.277131  0.092518  1
  Tb  Tb8  1  0.320128  0.616641  0.296513  1
  Tb  Tb9  1  0.679872  0.383359  0.703487  1
  Tb  Tb10  1  0.320129  0.023617  0.703487  1
  Tb  Tb11  1  0.679871  0.976383  0.296513  1
  Cd  Cd12  1  0.000000  0.000000  0.000000  1
  Si  Si13  1  0.366091  0.000000  0.366091  1
  Si  Si14  1  0.633909  0.000000  0.633909  1
  Si  Si15  1  0.115134  0.615134  0.500000  1
  Si  Si16  1  0.884866  0.384866  0.500000  1
  Sn  Sn17  1  0.500000  0.500000  0.000000  1
