# generated using pymatgen
data_Mn5Al3Si4(Mo3C)4
_symmetry_space_group_name_H-M   'P 1'
_cell_length_a   7.94646065
_cell_length_b   7.94646012
_cell_length_c   7.95944305
_cell_angle_alpha   60.08717721
_cell_angle_beta   60.08717983
_cell_angle_gamma   59.98556952
_symmetry_Int_Tables_number   1
_chemical_formula_structural   Mn5Al3Si4(Mo3C)4
_chemical_formula_sum   'Mn5 Al3 Si4 Mo12 C4'
_cell_volume   355.82678230
_cell_formula_units_Z   1
loop_
 _symmetry_equiv_pos_site_id
 _symmetry_equiv_pos_as_xyz
  1  'x, y, z'
loop_
 _atom_site_type_symbol
 _atom_site_label
 _atom_site_symmetry_multiplicity
 _atom_site_fract_x
 _atom_site_fract_y
 _atom_site_fract_z
 _atom_site_occupancy
  Mn  Mn0  1  0.331502  0.008357  0.329615  1
  Mn  Mn1  1  0.329595  0.329595  0.011162  1
  Mn  Mn2  1  0.008357  0.331502  0.329615  1
  Mn  Mn3  1  0.921194  0.921194  0.918144  1
  Mn  Mn4  1  0.922488  0.922488  0.236818  1
  Al  Al5  1  0.252556  0.914470  0.915659  1
  Al  Al6  1  0.914470  0.252556  0.915659  1
  Al  Al7  1  0.333386  0.333386  0.334995  1
  Si  Si8  1  0.117257  0.117257  0.619857  1
  Si  Si9  1  0.113199  0.625624  0.124495  1
  Si  Si10  1  0.625624  0.113199  0.124495  1
  Si  Si11  1  0.124226  0.124226  0.134738  1
  Mo  Mo12  1  0.552398  0.552398  0.947130  1
  Mo  Mo13  1  0.943111  0.943111  0.556201  1
  Mo  Mo14  1  0.692812  0.692812  0.309061  1
  Mo  Mo15  1  0.307707  0.692108  0.693638  1
  Mo  Mo16  1  0.700512  0.304078  0.305480  1
  Mo  Mo17  1  0.304767  0.304767  0.703456  1
  Mo  Mo18  1  0.560218  0.944989  0.549536  1
  Mo  Mo19  1  0.304078  0.700512  0.305480  1
  Mo  Mo20  1  0.943906  0.561370  0.943941  1
  Mo  Mo21  1  0.944989  0.560218  0.549536  1
  Mo  Mo22  1  0.692108  0.307707  0.693638  1
  Mo  Mo23  1  0.561370  0.943906  0.943941  1
  C  C24  1  0.624551  0.624551  0.125516  1
  C  C25  1  0.123814  0.624369  0.625683  1
  C  C26  1  0.624369  0.123814  0.625683  1
  C  C27  1  0.625439  0.625439  0.626828  1
