# generated using pymatgen
data_Cd10NiAu3
_symmetry_space_group_name_H-M   'P 1'
_cell_length_a   8.77058800
_cell_length_b   8.77058749
_cell_length_c   8.76846700
_cell_angle_alpha   90.00000000
_cell_angle_beta   90.00000000
_cell_angle_gamma   119.99999439
_symmetry_Int_Tables_number   1
_chemical_formula_structural   Cd10NiAu3
_chemical_formula_sum   'Cd20 Ni2 Au6'
_cell_volume   584.13297530
_cell_formula_units_Z   2
loop_
 _symmetry_equiv_pos_site_id
 _symmetry_equiv_pos_as_xyz
  1  'x, y, z'
loop_
 _atom_site_type_symbol
 _atom_site_label
 _atom_site_symmetry_multiplicity
 _atom_site_fract_x
 _atom_site_fract_y
 _atom_site_fract_z
 _atom_site_occupancy
  Cd  Cd0  1  0.000000  0.000000  0.500000  1
  Cd  Cd1  1  0.000000  0.000000  0.000000  1
  Cd  Cd2  1  0.523676  0.476324  0.250000  1
  Cd  Cd3  1  0.523676  0.047353  0.250000  1
  Cd  Cd4  1  0.952647  0.476324  0.250000  1
  Cd  Cd5  1  0.476324  0.523676  0.750000  1
  Cd  Cd6  1  0.476324  0.952647  0.750000  1
  Cd  Cd7  1  0.047353  0.523676  0.750000  1
  Cd  Cd8  1  0.206813  0.793187  0.453299  1
  Cd  Cd9  1  0.206813  0.413626  0.453299  1
  Cd  Cd10  1  0.586374  0.793187  0.453299  1
  Cd  Cd11  1  0.793187  0.206813  0.546701  1
  Cd  Cd12  1  0.793187  0.586374  0.546701  1
  Cd  Cd13  1  0.413626  0.206813  0.546701  1
  Cd  Cd14  1  0.793187  0.206813  0.953299  1
  Cd  Cd15  1  0.793187  0.586374  0.953299  1
  Cd  Cd16  1  0.413626  0.206813  0.953299  1
  Cd  Cd17  1  0.206813  0.793187  0.046701  1
  Cd  Cd18  1  0.206813  0.413626  0.046701  1
  Cd  Cd19  1  0.586374  0.793187  0.046701  1
  Ni  Ni20  1  0.333333  0.666667  0.250000  1
  Ni  Ni21  1  0.666667  0.333333  0.750000  1
  Au  Au22  1  0.877079  0.122921  0.250000  1
  Au  Au23  1  0.877079  0.754158  0.250000  1
  Au  Au24  1  0.245842  0.122921  0.250000  1
  Au  Au25  1  0.122921  0.877079  0.750000  1
  Au  Au26  1  0.122921  0.245842  0.750000  1
  Au  Au27  1  0.754158  0.877079  0.750000  1
