# generated using pymatgen
data_SmEr3(MoN3)4
_symmetry_space_group_name_H-M   'P 1'
_cell_length_a   7.30714847
_cell_length_b   7.30714719
_cell_length_c   6.24308700
_cell_angle_alpha   73.71059507
_cell_angle_beta   73.71059801
_cell_angle_gamma   81.58431413
_symmetry_Int_Tables_number   1
_chemical_formula_structural   SmEr3(MoN3)4
_chemical_formula_sum   'Sm1 Er3 Mo4 N12'
_cell_volume   306.29045612
_cell_formula_units_Z   1
loop_
 _symmetry_equiv_pos_site_id
 _symmetry_equiv_pos_as_xyz
  1  'x, y, z'
loop_
 _atom_site_type_symbol
 _atom_site_label
 _atom_site_symmetry_multiplicity
 _atom_site_fract_x
 _atom_site_fract_y
 _atom_site_fract_z
 _atom_site_occupancy
  Sm  Sm0  1  0.295291  0.704709  0.750000  1
  Er  Er1  1  0.911160  0.088840  0.750000  1
  Er  Er2  1  0.707806  0.292194  0.250000  1
  Er  Er3  1  0.084585  0.915415  0.250000  1
  Mo  Mo4  1  0.801376  0.618665  0.769555  1
  Mo  Mo5  1  0.198580  0.379373  0.234210  1
  Mo  Mo6  1  0.620627  0.801420  0.265790  1
  Mo  Mo7  1  0.381335  0.198624  0.730445  1
  N  N8  1  0.213755  0.003934  0.849749  1
  N  N9  1  0.369449  0.348049  0.434146  1
  N  N10  1  0.638269  0.652271  0.560094  1
  N  N11  1  0.625061  0.107912  0.662560  1
  N  N12  1  0.996066  0.786245  0.650251  1
  N  N13  1  0.781181  0.003128  0.150676  1
  N  N14  1  0.110655  0.623834  0.170021  1
  N  N15  1  0.892088  0.374939  0.837440  1
  N  N16  1  0.996872  0.218819  0.349324  1
  N  N17  1  0.347729  0.361731  0.939906  1
  N  N18  1  0.651951  0.630551  0.065854  1
  N  N19  1  0.376166  0.889345  0.329979  1
