# generated using pymatgen
data_Sm8Ho11LuSn16
_symmetry_space_group_name_H-M   'P 1'
_cell_length_a   8.06834916
_cell_length_b   8.21891116
_cell_length_c   15.52503000
_cell_angle_alpha   90.00000000
_cell_angle_beta   90.00000000
_cell_angle_gamma   90.02269714
_symmetry_Int_Tables_number   1
_chemical_formula_structural   Sm8Ho11LuSn16
_chemical_formula_sum   'Sm8 Ho11 Lu1 Sn16'
_cell_volume   1029.51193145
_cell_formula_units_Z   1
loop_
 _symmetry_equiv_pos_site_id
 _symmetry_equiv_pos_as_xyz
  1  'x, y, z'
loop_
 _atom_site_type_symbol
 _atom_site_label
 _atom_site_symmetry_multiplicity
 _atom_site_fract_x
 _atom_site_fract_y
 _atom_site_fract_z
 _atom_site_occupancy
  Sm  Sm0  1  0.518734  0.321380  0.903067  1
  Sm  Sm1  1  0.018688  0.178668  0.596914  1
  Sm  Sm2  1  0.481196  0.678748  0.403054  1
  Sm  Sm3  1  0.981439  0.821466  0.096975  1
  Sm  Sm4  1  0.481196  0.678748  0.096946  1
  Sm  Sm5  1  0.981439  0.821466  0.403025  1
  Sm  Sm6  1  0.518734  0.321380  0.596933  1
  Sm  Sm7  1  0.018688  0.178668  0.903086  1
  Ho  Ho8  1  0.364523  0.836437  0.877168  1
  Ho  Ho9  1  0.864490  0.663510  0.622889  1
  Ho  Ho10  1  0.635229  0.163377  0.377115  1
  Ho  Ho11  1  0.135634  0.336307  0.122903  1
  Ho  Ho12  1  0.635229  0.163377  0.122885  1
  Ho  Ho13  1  0.135634  0.336307  0.377097  1
  Ho  Ho14  1  0.364523  0.836437  0.622832  1
  Ho  Ho15  1  0.864490  0.663510  0.877111  1
  Ho  Ho16  1  0.196624  0.504089  0.750000  1
  Ho  Ho17  1  0.696592  0.995884  0.750000  1
  Ho  Ho18  1  0.803467  0.495980  0.250000  1
  Lu  Lu19  1  0.303224  0.004305  0.250000  1
  Sn  Sn20  1  0.298740  0.039198  0.042155  1
  Sn  Sn21  1  0.798743  0.460822  0.458111  1
  Sn  Sn22  1  0.701227  0.960746  0.541839  1
  Sn  Sn23  1  0.201252  0.539181  0.958163  1
  Sn  Sn24  1  0.701227  0.960746  0.958161  1
  Sn  Sn25  1  0.201252  0.539181  0.541837  1
  Sn  Sn26  1  0.298740  0.039198  0.457845  1
  Sn  Sn27  1  0.798743  0.460822  0.041889  1
  Sn  Sn28  1  0.562722  0.622498  0.750000  1
  Sn  Sn29  1  0.062790  0.877526  0.750000  1
  Sn  Sn30  1  0.437104  0.377227  0.250000  1
  Sn  Sn31  1  0.937945  0.122252  0.250000  1
  Sn  Sn32  1  0.327425  0.145260  0.750000  1
  Sn  Sn33  1  0.827598  0.354604  0.750000  1
  Sn  Sn34  1  0.672292  0.854721  0.250000  1
  Sn  Sn35  1  0.172430  0.645975  0.250000  1
