# generated using pymatgen
data_Lu3Sn3Ru2Pb
_symmetry_space_group_name_H-M   'P 1'
_cell_length_a   7.70544900
_cell_length_b   7.70544925
_cell_length_c   3.92231100
_cell_angle_alpha   90.00000000
_cell_angle_beta   90.00000000
_cell_angle_gamma   119.99998951
_symmetry_Int_Tables_number   1
_chemical_formula_structural   Lu3Sn3Ru2Pb
_chemical_formula_sum   'Lu3 Sn3 Ru2 Pb1'
_cell_volume   201.68268665
_cell_formula_units_Z   1
loop_
 _symmetry_equiv_pos_site_id
 _symmetry_equiv_pos_as_xyz
  1  'x, y, z'
loop_
 _atom_site_type_symbol
 _atom_site_label
 _atom_site_symmetry_multiplicity
 _atom_site_fract_x
 _atom_site_fract_y
 _atom_site_fract_z
 _atom_site_occupancy
  Lu  Lu0  1  0.420113  0.386087  0.500000  1
  Lu  Lu1  1  0.613913  0.034026  0.500000  1
  Lu  Lu2  1  0.965974  0.579887  0.500000  1
  Sn  Sn3  1  0.762160  0.741092  0.000000  1
  Sn  Sn4  1  0.258908  0.021068  0.000000  1
  Sn  Sn5  1  0.978932  0.237840  0.000000  1
  Ru  Ru6  1  0.666667  0.333333  0.000000  1
  Ru  Ru7  1  0.000000  0.000000  0.500000  1
  Pb  Pb8  1  0.333333  0.666667  0.000000  1
