# generated using pymatgen
data_Er5ScCoTe2
_symmetry_space_group_name_H-M   'P 1'
_cell_length_a   3.91192700
_cell_length_b   8.29578650
_cell_length_c   8.12781956
_cell_angle_alpha   120.68599995
_cell_angle_beta   90.00000000
_cell_angle_gamma   90.00000000
_symmetry_Int_Tables_number   1
_chemical_formula_structural   Er5ScCoTe2
_chemical_formula_sum   'Er5 Sc1 Co1 Te2'
_cell_volume   226.83454587
_cell_formula_units_Z   1
loop_
 _symmetry_equiv_pos_site_id
 _symmetry_equiv_pos_as_xyz
  1  'x, y, z'
loop_
 _atom_site_type_symbol
 _atom_site_label
 _atom_site_symmetry_multiplicity
 _atom_site_fract_x
 _atom_site_fract_y
 _atom_site_fract_z
 _atom_site_occupancy
  Er  Er0  1  0.500000  0.763696  0.768249  1
  Er  Er1  1  0.500000  0.995447  0.231751  1
  Er  Er2  1  0.000000  0.388088  0.385324  1
  Er  Er3  1  0.000000  0.002764  0.614676  1
  Er  Er4  1  0.000000  0.593209  0.000000  1
  Sc  Sc5  1  0.500000  0.231204  0.000000  1
  Co  Co6  1  0.000000  0.031301  0.000000  1
  Te  Te7  1  0.500000  0.661524  0.328755  1
  Te  Te8  1  0.500000  0.332768  0.671245  1
