# generated using pymatgen
data_Li8Pr8GaPt7
_symmetry_space_group_name_H-M   'P 1'
_cell_length_a   9.63792241
_cell_length_b   9.63792223
_cell_length_c   7.40009000
_cell_angle_alpha   90.92699947
_cell_angle_beta   89.07300055
_cell_angle_gamma   128.76177343
_symmetry_Int_Tables_number   1
_chemical_formula_structural   Li8Pr8GaPt7
_chemical_formula_sum   'Li8 Pr8 Ga1 Pt7'
_cell_volume   535.91087263
_cell_formula_units_Z   1
loop_
 _symmetry_equiv_pos_site_id
 _symmetry_equiv_pos_as_xyz
  1  'x, y, z'
loop_
 _atom_site_type_symbol
 _atom_site_label
 _atom_site_symmetry_multiplicity
 _atom_site_fract_x
 _atom_site_fract_y
 _atom_site_fract_z
 _atom_site_occupancy
  Li  Li0  1  0.844511  0.155489  0.865031  1
  Li  Li1  1  0.844297  0.649143  0.632227  1
  Li  Li2  1  0.350857  0.155703  0.632227  1
  Li  Li3  1  0.154236  0.845764  0.375663  1
  Li  Li4  1  0.162967  0.354431  0.128754  1
  Li  Li5  1  0.645569  0.837033  0.128754  1
  Li  Li6  1  0.651801  0.348199  0.374916  1
  Li  Li7  1  0.346546  0.653454  0.877334  1
  Pr  Pr8  1  0.465736  0.534264  0.453160  1
  Pr  Pr9  1  0.526445  0.963148  0.549105  1
  Pr  Pr10  1  0.036852  0.473555  0.549105  1
  Pr  Pr11  1  0.534409  0.465591  0.955673  1
  Pr  Pr12  1  0.460816  0.030418  0.047959  1
  Pr  Pr13  1  0.969582  0.539184  0.047959  1
  Pr  Pr14  1  0.974929  0.025071  0.468034  1
  Pr  Pr15  1  0.028809  0.971191  0.963878  1
  Ga  Ga16  1  0.822040  0.177960  0.242477  1
  Pt  Pt17  1  0.813285  0.685127  0.248736  1
  Pt  Pt18  1  0.314873  0.186715  0.248736  1
  Pt  Pt19  1  0.184661  0.815339  0.758538  1
  Pt  Pt20  1  0.186504  0.319423  0.749390  1
  Pt  Pt21  1  0.680577  0.813496  0.749390  1
  Pt  Pt22  1  0.686976  0.313024  0.755493  1
  Pt  Pt23  1  0.312718  0.687282  0.255466  1
