# generated using pymatgen
data_TaGa(FePt6)2
_symmetry_space_group_name_H-M   'P 1'
_cell_length_a   5.58528138
_cell_length_b   5.58528275
_cell_length_c   7.88667900
_cell_angle_alpha   90.00000000
_cell_angle_beta   90.00000000
_cell_angle_gamma   89.94459459
_symmetry_Int_Tables_number   1
_chemical_formula_structural   TaGa(FePt6)2
_chemical_formula_sum   'Ta1 Ga1 Fe2 Pt12'
_cell_volume   246.02779957
_cell_formula_units_Z   1
loop_
 _symmetry_equiv_pos_site_id
 _symmetry_equiv_pos_as_xyz
  1  'x, y, z'
loop_
 _atom_site_type_symbol
 _atom_site_label
 _atom_site_symmetry_multiplicity
 _atom_site_fract_x
 _atom_site_fract_y
 _atom_site_fract_z
 _atom_site_occupancy
  Ta  Ta0  1  0.000000  0.500000  0.750042  1
  Ga  Ga1  1  0.500000  0.000000  0.249930  1
  Fe  Fe2  1  0.000000  0.500000  0.250125  1
  Fe  Fe3  1  0.500000  0.000000  0.749931  1
  Pt  Pt4  1  0.246728  0.253272  0.998788  1
  Pt  Pt5  1  0.753912  0.253912  0.501216  1
  Pt  Pt6  1  0.749868  0.249868  0.998638  1
  Pt  Pt7  1  0.753272  0.746728  0.998788  1
  Pt  Pt8  1  0.500000  0.500000  0.750019  1
  Pt  Pt9  1  0.250790  0.249210  0.501334  1
  Pt  Pt10  1  0.749210  0.750790  0.501334  1
  Pt  Pt11  1  0.246088  0.746088  0.501216  1
  Pt  Pt12  1  0.500000  0.500000  0.249992  1
  Pt  Pt13  1  0.000000  0.000000  0.750019  1
  Pt  Pt14  1  0.000000  0.000000  0.249992  1
  Pt  Pt15  1  0.250132  0.750132  0.998638  1
