# generated using pymatgen
data_Tb3YEr4(ReC2)4
_symmetry_space_group_name_H-M   'P 1'
_cell_length_a   5.10420400
_cell_length_b   6.58995365
_cell_length_c   9.84141998
_cell_angle_alpha   89.94898469
_cell_angle_beta   90.00000000
_cell_angle_gamma   90.00000000
_symmetry_Int_Tables_number   1
_chemical_formula_structural   Tb3YEr4(ReC2)4
_chemical_formula_sum   'Tb3 Y1 Er4 Re4 C8'
_cell_volume   331.03047484
_cell_formula_units_Z   1
loop_
 _symmetry_equiv_pos_site_id
 _symmetry_equiv_pos_as_xyz
  1  'x, y, z'
loop_
 _atom_site_type_symbol
 _atom_site_label
 _atom_site_symmetry_multiplicity
 _atom_site_fract_x
 _atom_site_fract_y
 _atom_site_fract_z
 _atom_site_occupancy
  Tb  Tb0  1  0.250000  0.033741  0.285474  1
  Tb  Tb1  1  0.750000  0.965805  0.714761  1
  Tb  Tb2  1  0.250000  0.533771  0.214793  1
  Y  Y3  1  0.750000  0.465764  0.784938  1
  Er  Er4  1  0.750000  0.823969  0.057036  1
  Er  Er5  1  0.250000  0.676195  0.557265  1
  Er  Er6  1  0.750000  0.323269  0.442833  1
  Er  Er7  1  0.250000  0.176485  0.942890  1
  Re  Re8  1  0.750000  0.279449  0.134018  1
  Re  Re9  1  0.250000  0.220984  0.634028  1
  Re  Re10  1  0.750000  0.778938  0.365957  1
  Re  Re11  1  0.250000  0.720986  0.866001  1
  C  C12  1  0.750000  0.174649  0.951178  1
  C  C13  1  0.250000  0.826139  0.048646  1
  C  C14  1  0.750000  0.673616  0.548754  1
  C  C15  1  0.250000  0.326070  0.451253  1
  C  C16  1  0.750000  0.047125  0.259675  1
  C  C17  1  0.250000  0.453030  0.759988  1
  C  C18  1  0.750000  0.547047  0.240217  1
  C  C19  1  0.250000  0.952966  0.740293  1
