# generated using pymatgen
data_Tb5Ho5(Tl3Cl)2
_symmetry_space_group_name_H-M   'P 1'
_cell_length_a   9.20467200
_cell_length_b   9.20256869
_cell_length_c   6.74912900
_cell_angle_alpha   90.00000000
_cell_angle_beta   90.00000000
_cell_angle_gamma   120.00756089
_symmetry_Int_Tables_number   1
_chemical_formula_structural   Tb5Ho5(Tl3Cl)2
_chemical_formula_sum   'Tb5 Ho5 Tl6 Cl2'
_cell_volume   495.06548906
_cell_formula_units_Z   1
loop_
 _symmetry_equiv_pos_site_id
 _symmetry_equiv_pos_as_xyz
  1  'x, y, z'
loop_
 _atom_site_type_symbol
 _atom_site_label
 _atom_site_symmetry_multiplicity
 _atom_site_fract_x
 _atom_site_fract_y
 _atom_site_fract_z
 _atom_site_occupancy
  Tb  Tb0  1  0.740203  0.740209  0.250000  1
  Tb  Tb1  1  0.000049  0.740324  0.750000  1
  Tb  Tb2  1  0.740500  0.000000  0.750000  1
  Tb  Tb3  1  0.259726  0.259676  0.750000  1
  Tb  Tb4  1  0.999994  0.259791  0.250000  1
  Ho  Ho5  1  0.333155  0.666934  0.499908  1
  Ho  Ho6  1  0.666222  0.333066  0.499908  1
  Ho  Ho7  1  0.260631  0.000000  0.250000  1
  Ho  Ho8  1  0.333155  0.666934  0.000092  1
  Ho  Ho9  1  0.666222  0.333066  0.000092  1
  Tl  Tl10  1  0.394477  0.000000  0.750000  1
  Tl  Tl11  1  0.000873  0.606575  0.250000  1
  Tl  Tl12  1  0.604830  0.000000  0.250000  1
  Tl  Tl13  1  0.999831  0.394696  0.750000  1
  Tl  Tl14  1  0.394298  0.393425  0.250000  1
  Tl  Tl15  1  0.605135  0.605304  0.750000  1
  Cl  Cl16  1  0.000351  0.000000  0.499430  1
  Cl  Cl17  1  0.000351  0.000000  0.000570  1
