# generated using pymatgen
data_Li8Ac7LuSi8
_symmetry_space_group_name_H-M   'P 1'
_cell_length_a   9.22747100
_cell_length_b   9.22747013
_cell_length_c   7.88605400
_cell_angle_alpha   90.00000000
_cell_angle_beta   90.00000000
_cell_angle_gamma   120.00000672
_symmetry_Int_Tables_number   1
_chemical_formula_structural   Li8Ac7LuSi8
_chemical_formula_sum   'Li8 Ac7 Lu1 Si8'
_cell_volume   581.50798904
_cell_formula_units_Z   1
loop_
 _symmetry_equiv_pos_site_id
 _symmetry_equiv_pos_as_xyz
  1  'x, y, z'
loop_
 _atom_site_type_symbol
 _atom_site_label
 _atom_site_symmetry_multiplicity
 _atom_site_fract_x
 _atom_site_fract_y
 _atom_site_fract_z
 _atom_site_occupancy
  Li  Li0  1  0.164860  0.329723  0.277902  1
  Li  Li1  1  0.164860  0.835140  0.277902  1
  Li  Li2  1  0.670277  0.835140  0.277902  1
  Li  Li3  1  0.837481  0.674960  0.800127  1
  Li  Li4  1  0.837481  0.162519  0.800127  1
  Li  Li5  1  0.325040  0.162519  0.800127  1
  Li  Li6  1  0.333333  0.666667  0.671457  1
  Li  Li7  1  0.666667  0.333333  0.161068  1
  Ac  Ac8  1  0.512954  0.025906  0.496540  1
  Ac  Ac9  1  0.512954  0.487046  0.496540  1
  Ac  Ac10  1  0.974094  0.487046  0.496540  1
  Ac  Ac11  1  0.486477  0.972953  0.995503  1
  Ac  Ac12  1  0.486477  0.513523  0.995503  1
  Ac  Ac13  1  0.027047  0.513523  0.995503  1
  Ac  Ac14  1  0.000000  0.000000  0.504196  1
  Lu  Lu15  1  0.000000  0.000000  0.011081  1
  Si  Si16  1  0.164443  0.328885  0.729985  1
  Si  Si17  1  0.164443  0.835557  0.729985  1
  Si  Si18  1  0.671115  0.835557  0.729985  1
  Si  Si19  1  0.839001  0.678002  0.210319  1
  Si  Si20  1  0.839001  0.160999  0.210319  1
  Si  Si21  1  0.321998  0.160999  0.210319  1
  Si  Si22  1  0.333333  0.666667  0.285832  1
  Si  Si23  1  0.666667  0.333333  0.777235  1
