# generated using pymatgen
data_Pr7Nd13Sn15Te
_symmetry_space_group_name_H-M   'P 1'
_cell_length_a   8.35006654
_cell_length_b   8.50351497
_cell_length_c   16.08832400
_cell_angle_alpha   89.95404756
_cell_angle_beta   90.37988793
_cell_angle_gamma   90.14531459
_symmetry_Int_Tables_number   1
_chemical_formula_structural   Pr7Nd13Sn15Te
_chemical_formula_sum   'Pr7 Nd13 Sn15 Te1'
_cell_volume   1142.32095571
_cell_formula_units_Z   1
loop_
 _symmetry_equiv_pos_site_id
 _symmetry_equiv_pos_as_xyz
  1  'x, y, z'
loop_
 _atom_site_type_symbol
 _atom_site_label
 _atom_site_symmetry_multiplicity
 _atom_site_fract_x
 _atom_site_fract_y
 _atom_site_fract_z
 _atom_site_occupancy
  Pr  Pr0  1  0.017181  0.180894  0.599544  1
  Pr  Pr1  1  0.483371  0.680364  0.400859  1
  Pr  Pr2  1  0.973079  0.819986  0.101931  1
  Pr  Pr3  1  0.480247  0.675121  0.100584  1
  Pr  Pr4  1  0.983377  0.818340  0.400641  1
  Pr  Pr5  1  0.516256  0.318647  0.599042  1
  Pr  Pr6  1  0.016856  0.182967  0.897948  1
  Nd  Nd7  1  0.371194  0.836556  0.881156  1
  Nd  Nd8  1  0.866536  0.664059  0.621357  1
  Nd  Nd9  1  0.634397  0.162305  0.378122  1
  Nd  Nd10  1  0.127281  0.340349  0.119868  1
  Nd  Nd11  1  0.632280  0.163095  0.118277  1
  Nd  Nd12  1  0.134818  0.336847  0.378414  1
  Nd  Nd13  1  0.366395  0.837833  0.621487  1
  Nd  Nd14  1  0.870491  0.662540  0.880060  1
  Nd  Nd15  1  0.527913  0.328155  0.896241  1
  Nd  Nd16  1  0.199754  0.500952  0.748609  1
  Nd  Nd17  1  0.699663  0.998016  0.750286  1
  Nd  Nd18  1  0.799982  0.499010  0.251524  1
  Nd  Nd19  1  0.300682  0.000935  0.255944  1
  Sn  Sn20  1  0.793479  0.462611  0.458065  1
  Sn  Sn21  1  0.708235  0.962788  0.541734  1
  Sn  Sn22  1  0.213329  0.532595  0.956988  1
  Sn  Sn23  1  0.714040  0.965682  0.957098  1
  Sn  Sn24  1  0.207206  0.537132  0.541683  1
  Sn  Sn25  1  0.292353  0.036604  0.457868  1
  Sn  Sn26  1  0.789038  0.465380  0.043209  1
  Sn  Sn27  1  0.567694  0.619206  0.750135  1
  Sn  Sn28  1  0.069120  0.881538  0.751197  1
  Sn  Sn29  1  0.432705  0.380035  0.247594  1
  Sn  Sn30  1  0.932319  0.119169  0.247165  1
  Sn  Sn31  1  0.323748  0.141572  0.751056  1
  Sn  Sn32  1  0.822393  0.358753  0.749581  1
  Sn  Sn33  1  0.675649  0.858143  0.249176  1
  Sn  Sn34  1  0.175853  0.641811  0.248947  1
  Te  Te35  1  0.281087  0.030011  0.046612  1
