# generated using pymatgen
data_YbSm(UH4)6
_symmetry_space_group_name_H-M   'P 1'
_cell_length_a   6.64133700
_cell_length_b   6.62706600
_cell_length_c   6.62706600
_cell_angle_alpha   90.00000000
_cell_angle_beta   90.00000000
_cell_angle_gamma   90.00000000
_symmetry_Int_Tables_number   1
_chemical_formula_structural   YbSm(UH4)6
_chemical_formula_sum   'Yb1 Sm1 U6 H24'
_cell_volume   291.67426339
_cell_formula_units_Z   1
loop_
 _symmetry_equiv_pos_site_id
 _symmetry_equiv_pos_as_xyz
  1  'x, y, z'
loop_
 _atom_site_type_symbol
 _atom_site_label
 _atom_site_symmetry_multiplicity
 _atom_site_fract_x
 _atom_site_fract_y
 _atom_site_fract_z
 _atom_site_occupancy
  Yb  Yb0  1  0.750000  0.000000  0.500000  1
  Sm  Sm1  1  0.250000  0.000000  0.500000  1
  U  U2  1  0.999163  0.000000  0.000000  1
  U  U3  1  0.500837  0.500000  0.500000  1
  U  U4  1  0.998854  0.500000  0.251331  1
  U  U5  1  0.998854  0.500000  0.748669  1
  U  U6  1  0.501146  0.751331  0.000000  1
  U  U7  1  0.501146  0.248669  0.000000  1
  H  H8  1  0.001409  0.159062  0.294484  1
  H  H9  1  0.498591  0.205516  0.659062  1
  H  H10  1  0.498591  0.794484  0.340938  1
  H  H11  1  0.808852  0.648763  0.500000  1
  H  H12  1  0.191824  0.649910  0.500000  1
  H  H13  1  0.345120  0.500000  0.803888  1
  H  H14  1  0.655163  0.500000  0.803884  1
  H  H15  1  0.308176  0.000000  0.149910  1
  H  H16  1  0.154880  0.303888  0.000000  1
  H  H17  1  0.844837  0.696116  0.000000  1
  H  H18  1  0.308176  0.000000  0.850090  1
  H  H19  1  0.844837  0.303884  0.000000  1
  H  H20  1  0.691148  0.000000  0.148763  1
  H  H21  1  0.691148  0.000000  0.851237  1
  H  H22  1  0.154880  0.696112  0.000000  1
  H  H23  1  0.001409  0.840938  0.705516  1
  H  H24  1  0.001409  0.159062  0.705516  1
  H  H25  1  0.001409  0.840938  0.294484  1
  H  H26  1  0.655163  0.500000  0.196116  1
  H  H27  1  0.345120  0.500000  0.196112  1
  H  H28  1  0.808852  0.351237  0.500000  1
  H  H29  1  0.191824  0.350090  0.500000  1
  H  H30  1  0.498591  0.794484  0.659062  1
  H  H31  1  0.498591  0.205516  0.340938  1
