# generated using pymatgen
data_Ce2PaMnOs2
_symmetry_space_group_name_H-M   'P 1'
_cell_length_a   5.69405083
_cell_length_b   5.08569588
_cell_length_c   5.69404966
_cell_angle_alpha   60.01019597
_cell_angle_beta   62.22026413
_cell_angle_gamma   60.01020989
_symmetry_Int_Tables_number   1
_chemical_formula_structural   Ce2PaMnOs2
_chemical_formula_sum   'Ce2 Pa1 Mn1 Os2'
_cell_volume   118.44263551
_cell_formula_units_Z   1
loop_
 _symmetry_equiv_pos_site_id
 _symmetry_equiv_pos_as_xyz
  1  'x, y, z'
loop_
 _atom_site_type_symbol
 _atom_site_label
 _atom_site_symmetry_multiplicity
 _atom_site_fract_x
 _atom_site_fract_y
 _atom_site_fract_z
 _atom_site_occupancy
  Ce  Ce0  1  0.745442  0.766020  0.745442  1
  Ce  Ce1  1  0.504558  0.483980  0.504558  1
  Pa  Pa2  1  0.125000  0.625000  0.125000  1
  Mn  Mn3  1  0.125000  0.125000  0.125000  1
  Os  Os4  1  0.125000  0.125000  0.625000  1
  Os  Os5  1  0.625000  0.125000  0.125000  1
