# generated using pymatgen
data_Dy4Er7LuTlCo5
_symmetry_space_group_name_H-M   'P 1'
_cell_length_a   8.22128890
_cell_length_b   8.22678650
_cell_length_c   8.22678706
_cell_angle_alpha   110.88766816
_cell_angle_beta   110.63781056
_cell_angle_gamma   106.94382656
_symmetry_Int_Tables_number   1
_chemical_formula_structural   Dy4Er7LuTlCo5
_chemical_formula_sum   'Dy4 Er7 Lu1 Tl1 Co5'
_cell_volume   427.56370544
_cell_formula_units_Z   1
loop_
 _symmetry_equiv_pos_site_id
 _symmetry_equiv_pos_as_xyz
  1  'x, y, z'
loop_
 _atom_site_type_symbol
 _atom_site_label
 _atom_site_symmetry_multiplicity
 _atom_site_fract_x
 _atom_site_fract_y
 _atom_site_fract_z
 _atom_site_occupancy
  Dy  Dy0  1  0.290988  0.186305  0.476152  1
  Dy  Dy1  1  0.709357  0.812891  0.523069  1
  Dy  Dy2  1  0.290988  0.814836  0.104685  1
  Dy  Dy3  1  0.709357  0.186288  0.896464  1
  Er  Er4  1  0.378954  0.685676  0.693278  1
  Er  Er5  1  0.007437  0.314197  0.693239  1
  Er  Er6  1  0.991652  0.685312  0.306342  1
  Er  Er7  1  0.210758  0.401258  0.191535  1
  Er  Er8  1  0.789493  0.597939  0.807671  1
  Er  Er9  1  0.210758  0.019222  0.809500  1
  Er  Er10  1  0.789493  0.981823  0.191552  1
  Lu  Lu11  1  0.622746  0.314635  0.308111  1
  Tl  Tl12  1  0.500184  0.499779  0.000403  1
  Co  Co13  1  0.998797  0.377685  0.377385  1
  Co  Co14  1  0.998797  0.621413  0.621112  1
  Co  Co15  1  0.387889  0.887588  0.500301  1
  Co  Co16  1  0.612879  0.113290  0.499589  1
  Co  Co17  1  0.999473  0.999863  0.999610  1
