# generated using pymatgen
data_YbSc6NiI12
_symmetry_space_group_name_H-M   'P 1'
_cell_length_a   9.39567699
_cell_length_b   9.39567650
_cell_length_c   9.39567768
_cell_angle_alpha   106.74130034
_cell_angle_beta   106.74129379
_cell_angle_gamma   106.74129732
_symmetry_Int_Tables_number   1
_chemical_formula_structural   YbSc6NiI12
_chemical_formula_sum   'Yb1 Sc6 Ni1 I12'
_cell_volume   695.58164376
_cell_formula_units_Z   1
loop_
 _symmetry_equiv_pos_site_id
 _symmetry_equiv_pos_as_xyz
  1  'x, y, z'
loop_
 _atom_site_type_symbol
 _atom_site_label
 _atom_site_symmetry_multiplicity
 _atom_site_fract_x
 _atom_site_fract_y
 _atom_site_fract_z
 _atom_site_occupancy
  Yb  Yb0  1  0.500000  0.500000  0.500000  1
  Sc  Sc1  1  0.908949  0.976729  0.715495  1
  Sc  Sc2  1  0.715495  0.908949  0.976729  1
  Sc  Sc3  1  0.976729  0.715495  0.908949  1
  Sc  Sc4  1  0.091051  0.023271  0.284505  1
  Sc  Sc5  1  0.284505  0.091051  0.023271  1
  Sc  Sc6  1  0.023271  0.284505  0.091051  1
  Ni  Ni7  1  0.000000  0.000000  0.000000  1
  I  I8  1  0.926978  0.315225  0.780117  1
  I  I9  1  0.780117  0.926978  0.315225  1
  I  I10  1  0.315225  0.780117  0.926978  1
  I  I11  1  0.073022  0.684775  0.219883  1
  I  I12  1  0.219883  0.073022  0.684775  1
  I  I13  1  0.684775  0.219883  0.073022  1
  I  I14  1  0.552680  0.862256  0.629608  1
  I  I15  1  0.629608  0.552680  0.862256  1
  I  I16  1  0.862256  0.629608  0.552680  1
  I  I17  1  0.447320  0.137744  0.370392  1
  I  I18  1  0.370392  0.447320  0.137744  1
  I  I19  1  0.137744  0.370392  0.447320  1
