# generated using pymatgen
data_Y7Er9MgCo4Ag3
_symmetry_space_group_name_H-M   'P 1'
_cell_length_a   9.44155980
_cell_length_b   9.45796409
_cell_length_c   9.45351800
_cell_angle_alpha   60.01554923
_cell_angle_beta   59.95809403
_cell_angle_gamma   60.03458394
_symmetry_Int_Tables_number   1
_chemical_formula_structural   Y7Er9MgCo4Ag3
_chemical_formula_sum   'Y7 Er9 Mg1 Co4 Ag3'
_cell_volume   596.96167337
_cell_formula_units_Z   1
loop_
 _symmetry_equiv_pos_site_id
 _symmetry_equiv_pos_as_xyz
  1  'x, y, z'
loop_
 _atom_site_type_symbol
 _atom_site_label
 _atom_site_symmetry_multiplicity
 _atom_site_fract_x
 _atom_site_fract_y
 _atom_site_fract_z
 _atom_site_occupancy
  Y  Y0  1  0.809995  0.812136  0.188935  1
  Y  Y1  1  0.936762  0.561245  0.562452  1
  Y  Y2  1  0.561253  0.938208  0.937719  1
  Y  Y3  1  0.561253  0.938208  0.562820  1
  Y  Y4  1  0.936762  0.561245  0.939540  1
  Y  Y5  1  0.560920  0.562014  0.938533  1
  Y  Y6  1  0.936810  0.939468  0.561861  1
  Er  Er7  1  0.345511  0.345009  0.344411  1
  Er  Er8  1  0.345511  0.345009  0.965070  1
  Er  Er9  1  0.345068  0.965702  0.344615  1
  Er  Er10  1  0.953974  0.348766  0.348630  1
  Er  Er11  1  0.810015  0.188612  0.188749  1
  Er  Er12  1  0.185403  0.813887  0.814473  1
  Er  Er13  1  0.185403  0.813887  0.186237  1
  Er  Er14  1  0.810015  0.188612  0.812624  1
  Er  Er15  1  0.184623  0.185577  0.814900  1
  Mg  Mg16  1  0.289247  0.570246  0.570253  1
  Co  Co17  1  0.138576  0.142562  0.142113  1
  Co  Co18  1  0.138576  0.142562  0.576750  1
  Co  Co19  1  0.141380  0.575073  0.141774  1
  Co  Co20  1  0.574911  0.144001  0.140544  1
  Ag  Ag21  1  0.582670  0.582159  0.582162  1
  Ag  Ag22  1  0.582670  0.582159  0.253009  1
  Ag  Ag23  1  0.582694  0.253655  0.581826  1
