# generated using pymatgen
data_Er5Hg2(PtPb)2
_symmetry_space_group_name_H-M   'P 1'
_cell_length_a   3.63172600
_cell_length_b   8.10248200
_cell_length_c   18.28648300
_cell_angle_alpha   90.00000000
_cell_angle_beta   90.00000000
_cell_angle_gamma   90.00000000
_symmetry_Int_Tables_number   1
_chemical_formula_structural   Er5Hg2(PtPb)2
_chemical_formula_sum   'Er10 Hg4 Pt4 Pb4'
_cell_volume   538.09794899
_cell_formula_units_Z   2
loop_
 _symmetry_equiv_pos_site_id
 _symmetry_equiv_pos_as_xyz
  1  'x, y, z'
loop_
 _atom_site_type_symbol
 _atom_site_label
 _atom_site_symmetry_multiplicity
 _atom_site_fract_x
 _atom_site_fract_y
 _atom_site_fract_z
 _atom_site_occupancy
  Er  Er0  1  0.000000  0.105395  0.414139  1
  Er  Er1  1  0.000000  0.894605  0.585861  1
  Er  Er2  1  0.000000  0.394605  0.914139  1
  Er  Er3  1  0.000000  0.605395  0.085861  1
  Er  Er4  1  0.000000  0.245290  0.216573  1
  Er  Er5  1  0.000000  0.754710  0.783427  1
  Er  Er6  1  0.000000  0.254710  0.716573  1
  Er  Er7  1  0.000000  0.745290  0.283427  1
  Er  Er8  1  0.000000  0.000000  0.000000  1
  Er  Er9  1  0.000000  0.500000  0.500000  1
  Hg  Hg10  1  0.500000  0.293223  0.061585  1
  Hg  Hg11  1  0.500000  0.706777  0.938415  1
  Hg  Hg12  1  0.500000  0.206777  0.561585  1
  Hg  Hg13  1  0.500000  0.793223  0.438415  1
  Pt  Pt14  1  0.500000  0.027415  0.302539  1
  Pt  Pt15  1  0.500000  0.972585  0.697461  1
  Pt  Pt16  1  0.500000  0.472585  0.802539  1
  Pt  Pt17  1  0.500000  0.527415  0.197461  1
  Pb  Pb18  1  0.500000  0.420478  0.354205  1
  Pb  Pb19  1  0.500000  0.579522  0.645795  1
  Pb  Pb20  1  0.500000  0.079522  0.854205  1
  Pb  Pb21  1  0.500000  0.920478  0.145795  1
