# generated using pymatgen
data_YAgH6Ru
_symmetry_space_group_name_H-M   'P 1'
_cell_length_a   4.91396206
_cell_length_b   4.91396225
_cell_length_c   4.91396100
_cell_angle_alpha   60.00000170
_cell_angle_beta   60.00000044
_cell_angle_gamma   59.99998600
_symmetry_Int_Tables_number   1
_chemical_formula_structural   YAgH6Ru
_chemical_formula_sum   'Y1 Ag1 H6 Ru1'
_cell_volume   83.90353987
_cell_formula_units_Z   1
loop_
 _symmetry_equiv_pos_site_id
 _symmetry_equiv_pos_as_xyz
  1  'x, y, z'
loop_
 _atom_site_type_symbol
 _atom_site_label
 _atom_site_symmetry_multiplicity
 _atom_site_fract_x
 _atom_site_fract_y
 _atom_site_fract_z
 _atom_site_occupancy
  Y  Y0  1  0.250000  0.250000  0.250000  1
  Ag  Ag1  1  0.750000  0.750000  0.750000  1
  H  H2  1  0.754829  0.754829  0.245171  1
  H  H3  1  0.245171  0.754829  0.245171  1
  H  H4  1  0.754829  0.245171  0.245171  1
  H  H5  1  0.245171  0.245171  0.754829  1
  H  H6  1  0.754829  0.245171  0.754829  1
  H  H7  1  0.245171  0.754829  0.754829  1
  Ru  Ru8  1  0.000000  0.000000  0.000000  1
