# generated using pymatgen
data_La4Sm2OsI10
_symmetry_space_group_name_H-M   'P 1'
_cell_length_a   8.10711620
_cell_length_b   10.12933462
_cell_length_c   9.98204971
_cell_angle_alpha   107.04254915
_cell_angle_beta   96.85177040
_cell_angle_gamma   106.10401955
_symmetry_Int_Tables_number   1
_chemical_formula_structural   La4Sm2OsI10
_chemical_formula_sum   'La4 Sm2 Os1 I10'
_cell_volume   734.79920883
_cell_formula_units_Z   1
loop_
 _symmetry_equiv_pos_site_id
 _symmetry_equiv_pos_as_xyz
  1  'x, y, z'
loop_
 _atom_site_type_symbol
 _atom_site_label
 _atom_site_symmetry_multiplicity
 _atom_site_fract_x
 _atom_site_fract_y
 _atom_site_fract_z
 _atom_site_occupancy
  La  La0  1  0.861316  0.135034  0.678276  1
  La  La1  1  0.138684  0.864966  0.321724  1
  La  La2  1  0.385123  0.956723  0.728949  1
  La  La3  1  0.614877  0.043277  0.271051  1
  Sm  Sm4  1  0.470144  0.291764  0.587684  1
  Sm  Sm5  1  0.529856  0.708236  0.412316  1
  Os  Os6  1  0.500000  0.000000  0.500000  1
  I  I7  1  0.416397  0.627093  0.676367  1
  I  I8  1  0.583603  0.372907  0.323633  1
  I  I9  1  0.296990  0.264270  0.849946  1
  I  I10  1  0.703010  0.735730  0.150054  1
  I  I11  1  0.849666  0.458677  0.770652  1
  I  I12  1  0.150334  0.541323  0.229348  1
  I  I13  1  0.051507  0.183927  0.410930  1
  I  I14  1  0.239491  0.913717  0.035409  1
  I  I15  1  0.760509  0.086283  0.964591  1
  I  I16  1  0.948493  0.816073  0.589070  1
