# generated using pymatgen
data_Tb2Lu3Tl4
_symmetry_space_group_name_H-M   'P 1'
_cell_length_a   7.85678000
_cell_length_b   8.25465500
_cell_length_c   15.58556100
_cell_angle_alpha   90.00000000
_cell_angle_beta   90.00000000
_cell_angle_gamma   90.00000000
_symmetry_Int_Tables_number   1
_chemical_formula_structural   Tb2Lu3Tl4
_chemical_formula_sum   'Tb8 Lu12 Tl16'
_cell_volume   1010.80168819
_cell_formula_units_Z   4
loop_
 _symmetry_equiv_pos_site_id
 _symmetry_equiv_pos_as_xyz
  1  'x, y, z'
loop_
 _atom_site_type_symbol
 _atom_site_label
 _atom_site_symmetry_multiplicity
 _atom_site_fract_x
 _atom_site_fract_y
 _atom_site_fract_z
 _atom_site_occupancy
  Tb  Tb0  1  0.003525  0.185215  0.093568  1
  Tb  Tb1  1  0.996475  0.814785  0.906432  1
  Tb  Tb2  1  0.496475  0.685215  0.906432  1
  Tb  Tb3  1  0.996475  0.814785  0.593568  1
  Tb  Tb4  1  0.503525  0.314785  0.093568  1
  Tb  Tb5  1  0.003525  0.185215  0.406432  1
  Tb  Tb6  1  0.503525  0.314785  0.406432  1
  Tb  Tb7  1  0.496475  0.685215  0.593568  1
  Lu  Lu8  1  0.163242  0.501700  0.750000  1
  Lu  Lu9  1  0.836758  0.498300  0.250000  1
  Lu  Lu10  1  0.336758  0.001700  0.250000  1
  Lu  Lu11  1  0.663242  0.998300  0.750000  1
  Lu  Lu12  1  0.331388  0.162706  0.624330  1
  Lu  Lu13  1  0.668612  0.837294  0.375670  1
  Lu  Lu14  1  0.168612  0.662706  0.375670  1
  Lu  Lu15  1  0.668612  0.837294  0.124330  1
  Lu  Lu16  1  0.831388  0.337294  0.624330  1
  Lu  Lu17  1  0.331388  0.162706  0.875670  1
  Lu  Lu18  1  0.831388  0.337294  0.875670  1
  Lu  Lu19  1  0.168612  0.662706  0.124330  1
  Tl  Tl20  1  0.025412  0.118321  0.750000  1
  Tl  Tl21  1  0.974588  0.881679  0.250000  1
  Tl  Tl22  1  0.474588  0.618321  0.250000  1
  Tl  Tl23  1  0.525412  0.381679  0.750000  1
  Tl  Tl24  1  0.293365  0.856359  0.750000  1
  Tl  Tl25  1  0.706635  0.143641  0.250000  1
  Tl  Tl26  1  0.206635  0.356359  0.250000  1
  Tl  Tl27  1  0.793365  0.643641  0.750000  1
  Tl  Tl28  1  0.181363  0.463393  0.541869  1
  Tl  Tl29  1  0.818637  0.536607  0.458131  1
  Tl  Tl30  1  0.318637  0.963393  0.458131  1
  Tl  Tl31  1  0.818637  0.536607  0.041869  1
  Tl  Tl32  1  0.681363  0.036607  0.541869  1
  Tl  Tl33  1  0.181363  0.463393  0.958131  1
  Tl  Tl34  1  0.681363  0.036607  0.958131  1
  Tl  Tl35  1  0.318637  0.963393  0.041869  1
