# generated using pymatgen
data_PaAl3Ga
_symmetry_space_group_name_H-M   'P 1'
_cell_length_a   7.94940948
_cell_length_b   7.89031355
_cell_length_c   7.89031161
_cell_angle_alpha   148.35765727
_cell_angle_beta   132.60047768
_cell_angle_gamma   58.04003655
_symmetry_Int_Tables_number   1
_chemical_formula_structural   PaAl3Ga
_chemical_formula_sum   'Pa2 Al6 Ga2'
_cell_volume   189.69895604
_cell_formula_units_Z   2
loop_
 _symmetry_equiv_pos_site_id
 _symmetry_equiv_pos_as_xyz
  1  'x, y, z'
loop_
 _atom_site_type_symbol
 _atom_site_label
 _atom_site_symmetry_multiplicity
 _atom_site_fract_x
 _atom_site_fract_y
 _atom_site_fract_z
 _atom_site_occupancy
  Pa  Pa0  1  0.633627  0.882623  0.751004  1
  Pa  Pa1  1  0.366373  0.117377  0.248996  1
  Al  Al2  1  0.000000  0.500000  0.500000  1
  Al  Al3  1  0.500000  0.500000  0.000000  1
  Al  Al4  1  0.853410  0.104707  0.748703  1
  Al  Al5  1  0.146590  0.895293  0.251297  1
  Al  Al6  1  0.150542  0.698538  0.452004  1
  Al  Al7  1  0.849458  0.301462  0.547996  1
  Ga  Ga8  1  0.275290  0.303288  0.972002  1
  Ga  Ga9  1  0.724710  0.696712  0.027998  1
