# generated using pymatgen
data_HoPa6Cd3O20
_symmetry_space_group_name_H-M   'P 1'
_cell_length_a   10.13457179
_cell_length_b   10.13457342
_cell_length_c   6.61696193
_cell_angle_alpha   83.62802542
_cell_angle_beta   83.62802869
_cell_angle_gamma   141.60402458
_symmetry_Int_Tables_number   1
_chemical_formula_structural   HoPa6Cd3O20
_chemical_formula_sum   'Ho1 Pa6 Cd3 O20'
_cell_volume   397.34251727
_cell_formula_units_Z   1
loop_
 _symmetry_equiv_pos_site_id
 _symmetry_equiv_pos_as_xyz
  1  'x, y, z'
loop_
 _atom_site_type_symbol
 _atom_site_label
 _atom_site_symmetry_multiplicity
 _atom_site_fract_x
 _atom_site_fract_y
 _atom_site_fract_z
 _atom_site_occupancy
  Ho  Ho0  1  0.000000  0.000000  0.500000  1
  Pa  Pa1  1  0.901352  0.098648  0.000000  1
  Pa  Pa2  1  0.400432  0.599568  0.500000  1
  Pa  Pa3  1  0.098648  0.901352  0.000000  1
  Pa  Pa4  1  0.699587  0.300413  0.000000  1
  Pa  Pa5  1  0.599568  0.400432  0.500000  1
  Pa  Pa6  1  0.300413  0.699587  0.000000  1
  Cd  Cd7  1  0.500000  0.500000  0.000000  1
  Cd  Cd8  1  0.201590  0.798410  0.500000  1
  Cd  Cd9  1  0.798410  0.201590  0.500000  1
  O  O10  1  0.267728  0.470598  0.874759  1
  O  O11  1  0.886549  0.886549  0.877283  1
  O  O12  1  0.769461  0.966339  0.364484  1
  O  O13  1  0.033661  0.230539  0.635516  1
  O  O14  1  0.470598  0.267728  0.874759  1
  O  O15  1  0.376977  0.376977  0.387463  1
  O  O16  1  0.623023  0.623023  0.612537  1
  O  O17  1  0.066129  0.667707  0.898019  1
  O  O18  1  0.529402  0.732272  0.125241  1
  O  O19  1  0.966339  0.769461  0.364484  1
  O  O20  1  0.230539  0.033661  0.635516  1
  O  O21  1  0.667707  0.066129  0.898019  1
  O  O22  1  0.113451  0.113451  0.122717  1
  O  O23  1  0.581864  0.192119  0.357212  1
  O  O24  1  0.807881  0.418136  0.642788  1
  O  O25  1  0.418136  0.807881  0.642788  1
  O  O26  1  0.732272  0.529402  0.125241  1
  O  O27  1  0.192119  0.581864  0.357212  1
  O  O28  1  0.332293  0.933871  0.101981  1
  O  O29  1  0.933871  0.332293  0.101981  1
