# generated using pymatgen
data_TbY2Er7Cd3Ru
_symmetry_space_group_name_H-M   'P 1'
_cell_length_a   9.56602203
_cell_length_b   9.56738709
_cell_length_c   9.78762400
_cell_angle_alpha   90.00000000
_cell_angle_beta   90.00000000
_cell_angle_gamma   120.00472290
_symmetry_Int_Tables_number   1
_chemical_formula_structural   TbY2Er7Cd3Ru
_chemical_formula_sum   'Tb2 Y4 Er14 Cd6 Ru2'
_cell_volume   775.73245288
_cell_formula_units_Z   2
loop_
 _symmetry_equiv_pos_site_id
 _symmetry_equiv_pos_as_xyz
  1  'x, y, z'
loop_
 _atom_site_type_symbol
 _atom_site_label
 _atom_site_symmetry_multiplicity
 _atom_site_fract_x
 _atom_site_fract_y
 _atom_site_fract_z
 _atom_site_occupancy
  Tb  Tb0  1  0.540924  0.459181  0.250000  1
  Tb  Tb1  1  0.540924  0.081744  0.250000  1
  Y  Y2  1  0.918161  0.459081  0.250000  1
  Y  Y3  1  0.459131  0.540892  0.750000  1
  Y  Y4  1  0.459131  0.918238  0.750000  1
  Y  Y5  1  0.081790  0.540895  0.750000  1
  Er  Er6  1  0.000015  0.000008  0.500053  1
  Er  Er7  1  0.000015  0.000008  0.999947  1
  Er  Er8  1  0.209818  0.790192  0.440031  1
  Er  Er9  1  0.209818  0.419627  0.440031  1
  Er  Er10  1  0.580417  0.790210  0.440003  1
  Er  Er11  1  0.790165  0.209793  0.560050  1
  Er  Er12  1  0.790165  0.580370  0.560050  1
  Er  Er13  1  0.419674  0.209836  0.560022  1
  Er  Er14  1  0.790165  0.209793  0.939950  1
  Er  Er15  1  0.790165  0.580370  0.939950  1
  Er  Er16  1  0.419674  0.209836  0.939978  1
  Er  Er17  1  0.209818  0.790192  0.059969  1
  Er  Er18  1  0.209818  0.419627  0.059969  1
  Er  Er19  1  0.580417  0.790210  0.059997  1
  Cd  Cd20  1  0.885666  0.114307  0.250000  1
  Cd  Cd21  1  0.885666  0.771360  0.250000  1
  Cd  Cd22  1  0.228597  0.114299  0.250000  1
  Cd  Cd23  1  0.114314  0.885605  0.750000  1
  Cd  Cd24  1  0.114314  0.228708  0.750000  1
  Cd  Cd25  1  0.771272  0.885635  0.750000  1
  Ru  Ru26  1  0.333354  0.666677  0.250000  1
  Ru  Ru27  1  0.666614  0.333307  0.750000  1
