# generated using pymatgen
data_Sr12HgGe11Au12
_symmetry_space_group_name_H-M   'P 1'
_cell_length_a   4.69186500
_cell_length_b   8.07356838
_cell_length_c   23.19104300
_cell_angle_alpha   89.87047281
_cell_angle_beta   90.00000000
_cell_angle_gamma   90.00000000
_symmetry_Int_Tables_number   1
_chemical_formula_structural   Sr12HgGe11Au12
_chemical_formula_sum   'Sr12 Hg1 Ge11 Au12'
_cell_volume   878.47661886
_cell_formula_units_Z   1
loop_
 _symmetry_equiv_pos_site_id
 _symmetry_equiv_pos_as_xyz
  1  'x, y, z'
loop_
 _atom_site_type_symbol
 _atom_site_label
 _atom_site_symmetry_multiplicity
 _atom_site_fract_x
 _atom_site_fract_y
 _atom_site_fract_z
 _atom_site_occupancy
  Sr  Sr0  1  0.750000  0.212072  0.497496  1
  Sr  Sr1  1  0.250000  0.794221  0.166395  1
  Sr  Sr2  1  0.250000  0.787562  0.499512  1
  Sr  Sr3  1  0.250000  0.797282  0.833000  1
  Sr  Sr4  1  0.250000  0.705860  0.332464  1
  Sr  Sr5  1  0.750000  0.203069  0.836886  1
  Sr  Sr6  1  0.750000  0.285728  0.999756  1
  Sr  Sr7  1  0.750000  0.289351  0.664873  1
  Sr  Sr8  1  0.750000  0.293285  0.333350  1
  Sr  Sr9  1  0.250000  0.709224  0.664206  1
  Sr  Sr10  1  0.250000  0.714972  0.001695  1
  Sr  Sr11  1  0.750000  0.205624  0.167772  1
  Hg  Hg12  1  0.750000  0.911482  0.729268  1
  Ge  Ge13  1  0.250000  0.411126  0.564048  1
  Ge  Ge14  1  0.250000  0.081809  0.392434  1
  Ge  Ge15  1  0.250000  0.089580  0.067441  1
  Ge  Ge16  1  0.250000  0.420349  0.894634  1
  Ge  Ge17  1  0.750000  0.583085  0.106966  1
  Ge  Ge18  1  0.250000  0.425367  0.776153  1
  Ge  Ge19  1  0.750000  0.581296  0.225893  1
  Ge  Ge20  1  0.750000  0.587047  0.432869  1
  Ge  Ge21  1  0.750000  0.910617  0.935842  1
  Ge  Ge22  1  0.250000  0.080992  0.273933  1
  Ge  Ge23  1  0.750000  0.915453  0.598639  1
  Au  Au24  1  0.250000  0.084840  0.593120  1
  Au  Au25  1  0.250000  0.112730  0.740509  1
  Au  Au26  1  0.750000  0.586903  0.905775  1
  Au  Au27  1  0.750000  0.913491  0.403002  1
  Au  Au28  1  0.750000  0.579809  0.566159  1
  Au  Au29  1  0.750000  0.565470  0.766966  1
  Au  Au30  1  0.250000  0.418766  0.431732  1
  Au  Au31  1  0.250000  0.413184  0.237714  1
  Au  Au32  1  0.750000  0.918824  0.068297  1
  Au  Au33  1  0.250000  0.414540  0.096084  1
  Au  Au34  1  0.250000  0.081948  0.932897  1
  Au  Au35  1  0.750000  0.913040  0.262218  1
