# generated using pymatgen
data_NdSm3Ga18(IrPt)3
_symmetry_space_group_name_H-M   'P 1'
_cell_length_a   7.68257989
_cell_length_b   7.68096725
_cell_length_c   9.55648552
_cell_angle_alpha   89.96113391
_cell_angle_beta   89.97334515
_cell_angle_gamma   119.84812096
_symmetry_Int_Tables_number   1
_chemical_formula_structural   NdSm3Ga18(IrPt)3
_chemical_formula_sum   'Nd1 Sm3 Ga18 Ir3 Pt3'
_cell_volume   489.11859801
_cell_formula_units_Z   1
loop_
 _symmetry_equiv_pos_site_id
 _symmetry_equiv_pos_as_xyz
  1  'x, y, z'
loop_
 _atom_site_type_symbol
 _atom_site_label
 _atom_site_symmetry_multiplicity
 _atom_site_fract_x
 _atom_site_fract_y
 _atom_site_fract_z
 _atom_site_occupancy
  Nd  Nd0  1  0.331238  0.002675  0.750488  1
  Sm  Sm1  1  0.997061  0.669056  0.249604  1
  Sm  Sm2  1  0.004625  0.332738  0.750641  1
  Sm  Sm3  1  0.667458  0.995602  0.249305  1
  Ga  Ga4  1  0.126046  0.127730  0.250341  1
  Ga  Ga5  1  0.871521  0.873524  0.749644  1
  Ga  Ga6  1  0.999469  0.331136  0.080832  1
  Ga  Ga7  1  0.999025  0.668095  0.919543  1
  Ga  Ga8  1  0.997150  0.664732  0.578365  1
  Ga  Ga9  1  0.334508  0.002068  0.420039  1
  Ga  Ga10  1  0.994939  0.330826  0.421227  1
  Ga  Ga11  1  0.670191  0.005217  0.577847  1
  Ga  Ga12  1  0.669820  0.000565  0.920065  1
  Ga  Ga13  1  0.331009  0.999967  0.082038  1
  Ga  Ga14  1  0.331331  0.328862  0.560169  1
  Ga  Ga15  1  0.671669  0.668686  0.438969  1
  Ga  Ga16  1  0.669918  0.669833  0.064635  1
  Ga  Ga17  1  0.330124  0.330726  0.936269  1
  Ga  Ga18  1  0.341774  0.542456  0.250704  1
  Ga  Ga19  1  0.658399  0.454901  0.747083  1
  Ga  Ga20  1  0.546219  0.342567  0.252798  1
  Ga  Ga21  1  0.457342  0.657692  0.749338  1
  Ir  Ir22  1  0.670893  0.329201  0.499599  1
  Ir  Ir23  1  0.000065  0.999641  0.000413  1
  Ir  Ir24  1  0.999916  0.999816  0.499616  1
  Pt  Pt25  1  0.670898  0.329072  0.000375  1
  Pt  Pt26  1  0.328772  0.671163  0.000413  1
  Pt  Pt27  1  0.328617  0.671454  0.499638  1
