# generated using pymatgen
data_Ta8CdCuS16
_symmetry_space_group_name_H-M   'P 1'
_cell_length_a   6.72394300
_cell_length_b   6.72394199
_cell_length_c   12.98700800
_cell_angle_alpha   90.00000000
_cell_angle_beta   90.00000000
_cell_angle_gamma   120.00000987
_symmetry_Int_Tables_number   1
_chemical_formula_structural   Ta8CdCuS16
_chemical_formula_sum   'Ta8 Cd1 Cu1 S16'
_cell_volume   508.49616031
_cell_formula_units_Z   1
loop_
 _symmetry_equiv_pos_site_id
 _symmetry_equiv_pos_as_xyz
  1  'x, y, z'
loop_
 _atom_site_type_symbol
 _atom_site_label
 _atom_site_symmetry_multiplicity
 _atom_site_fract_x
 _atom_site_fract_y
 _atom_site_fract_z
 _atom_site_occupancy
  Ta  Ta0  1  0.506478  0.493522  0.761136  1
  Ta  Ta1  1  0.012955  0.506478  0.238864  1
  Ta  Ta2  1  0.493522  0.987045  0.238864  1
  Ta  Ta3  1  0.506478  0.012955  0.761136  1
  Ta  Ta4  1  0.987045  0.493522  0.761136  1
  Ta  Ta5  1  0.493522  0.506478  0.238864  1
  Ta  Ta6  1  0.000000  0.000000  0.763755  1
  Ta  Ta7  1  0.000000  0.000000  0.236245  1
  Cd  Cd8  1  0.000000  0.000000  0.500000  1
  Cu  Cu9  1  0.000000  0.000000  0.000000  1
  S  S10  1  0.831079  0.168921  0.357173  1
  S  S11  1  0.831079  0.662158  0.357173  1
  S  S12  1  0.337842  0.168921  0.357173  1
  S  S13  1  0.661210  0.830605  0.879419  1
  S  S14  1  0.168921  0.337842  0.642827  1
  S  S15  1  0.169395  0.830605  0.879419  1
  S  S16  1  0.169395  0.338790  0.879419  1
  S  S17  1  0.830605  0.169395  0.120581  1
  S  S18  1  0.338790  0.169395  0.120581  1
  S  S19  1  0.662158  0.831079  0.642827  1
  S  S20  1  0.333333  0.666667  0.116261  1
  S  S21  1  0.666667  0.333333  0.636764  1
  S  S22  1  0.666667  0.333333  0.883739  1
  S  S23  1  0.333333  0.666667  0.363236  1
  S  S24  1  0.830605  0.661210  0.120581  1
  S  S25  1  0.168921  0.831079  0.642827  1
