# generated using pymatgen
data_Dy5Er5(SiSb)4
_symmetry_space_group_name_H-M   'P 1'
_cell_length_a   8.35314291
_cell_length_b   8.51972604
_cell_length_c   7.77281600
_cell_angle_alpha   90.14443455
_cell_angle_beta   90.11863660
_cell_angle_gamma   125.34715807
_symmetry_Int_Tables_number   1
_chemical_formula_structural   Dy5Er5(SiSb)4
_chemical_formula_sum   'Dy5 Er5 Si4 Sb4'
_cell_volume   451.18905274
_cell_formula_units_Z   1
loop_
 _symmetry_equiv_pos_site_id
 _symmetry_equiv_pos_as_xyz
  1  'x, y, z'
loop_
 _atom_site_type_symbol
 _atom_site_label
 _atom_site_symmetry_multiplicity
 _atom_site_fract_x
 _atom_site_fract_y
 _atom_site_fract_z
 _atom_site_occupancy
  Dy  Dy0  1  0.804607  0.546072  0.169229  1
  Dy  Dy1  1  0.536887  0.787051  0.165812  1
  Dy  Dy2  1  0.197006  0.454688  0.830715  1
  Dy  Dy3  1  0.695857  0.953832  0.668920  1
  Dy  Dy4  1  0.302980  0.044730  0.331356  1
  Er  Er5  1  0.036080  0.283007  0.335544  1
  Er  Er6  1  0.962733  0.714878  0.664567  1
  Er  Er7  1  0.463738  0.215806  0.835412  1
  Er  Er8  1  0.999872  0.000699  0.999686  1
  Er  Er9  1  0.499865  0.499355  0.499878  1
  Si  Si10  1  0.370110  0.369076  0.130641  1
  Si  Si11  1  0.630442  0.630869  0.869741  1
  Si  Si12  1  0.129862  0.129924  0.629821  1
  Si  Si13  1  0.870539  0.869272  0.370727  1
  Sb  Sb14  1  0.787798  0.201139  0.008610  1
  Sb  Sb15  1  0.214138  0.802441  0.988762  1
  Sb  Sb16  1  0.714205  0.300402  0.510033  1
  Sb  Sb17  1  0.283282  0.696756  0.490547  1
