# generated using pymatgen
data_AlFe3(SbCl6)4
_symmetry_space_group_name_H-M   'P 1'
_cell_length_a   7.97318968
_cell_length_b   10.76865483
_cell_length_c   13.70509935
_cell_angle_alpha   78.46366502
_cell_angle_beta   89.75881514
_cell_angle_gamma   89.85341671
_symmetry_Int_Tables_number   1
_chemical_formula_structural   AlFe3(SbCl6)4
_chemical_formula_sum   'Al1 Fe3 Sb4 Cl24'
_cell_volume   1152.94292521
_cell_formula_units_Z   1
loop_
 _symmetry_equiv_pos_site_id
 _symmetry_equiv_pos_as_xyz
  1  'x, y, z'
loop_
 _atom_site_type_symbol
 _atom_site_label
 _atom_site_symmetry_multiplicity
 _atom_site_fract_x
 _atom_site_fract_y
 _atom_site_fract_z
 _atom_site_occupancy
  Al  Al0  1  0.736983  0.660090  0.420698  1
  Fe  Fe1  1  0.763055  0.661546  0.919946  1
  Fe  Fe2  1  0.263238  0.339272  0.579554  1
  Fe  Fe3  1  0.236907  0.338478  0.080095  1
  Sb  Sb4  1  0.232874  0.756099  0.373426  1
  Sb  Sb5  1  0.733247  0.242376  0.127263  1
  Sb  Sb6  1  0.766959  0.242440  0.627155  1
  Sb  Sb7  1  0.266993  0.757562  0.872761  1
  Cl  Cl8  1  0.662117  0.042701  0.094810  1
  Cl  Cl9  1  0.163879  0.956291  0.405626  1
  Cl  Cl10  1  0.337801  0.957293  0.905227  1
  Cl  Cl11  1  0.838373  0.042470  0.594774  1
  Cl  Cl12  1  0.815535  0.179618  0.294598  1
  Cl  Cl13  1  0.313791  0.819472  0.205775  1
  Cl  Cl14  1  0.184483  0.820141  0.705453  1
  Cl  Cl15  1  0.683942  0.179736  0.794759  1
  Cl  Cl16  1  0.419634  0.259321  0.203859  1
  Cl  Cl17  1  0.913028  0.740069  0.298410  1
  Cl  Cl18  1  0.580260  0.740691  0.796197  1
  Cl  Cl19  1  0.079659  0.259431  0.703421  1
  Cl  Cl20  1  0.379977  0.381759  0.942548  1
  Cl  Cl21  1  0.877498  0.621128  0.554939  1
  Cl  Cl22  1  0.619992  0.618200  0.057490  1
  Cl  Cl23  1  0.120535  0.381745  0.442410  1
  Cl  Cl24  1  0.895119  0.504325  0.877615  1
  Cl  Cl25  1  0.394461  0.495826  0.622363  1
  Cl  Cl26  1  0.104860  0.495715  0.122368  1
  Cl  Cl27  1  0.606810  0.508295  0.377090  1
  Cl  Cl28  1  0.049801  0.183934  0.069400  1
  Cl  Cl29  1  0.557133  0.813796  0.429865  1
  Cl  Cl30  1  0.950184  0.815997  0.930659  1
  Cl  Cl31  1  0.450874  0.184177  0.569442  1
