# generated using pymatgen
data_RbEu(NbBr3)6
_symmetry_space_group_name_H-M   'P 1'
_cell_length_a   10.99247680
_cell_length_b   10.99247670
_cell_length_c   10.99247700
_cell_angle_alpha   55.44405503
_cell_angle_beta   55.44406172
_cell_angle_gamma   55.44406192
_symmetry_Int_Tables_number   1
_chemical_formula_structural   RbEu(NbBr3)6
_chemical_formula_sum   'Rb1 Eu1 Nb6 Br18'
_cell_volume   839.85315222
_cell_formula_units_Z   1
loop_
 _symmetry_equiv_pos_site_id
 _symmetry_equiv_pos_as_xyz
  1  'x, y, z'
loop_
 _atom_site_type_symbol
 _atom_site_label
 _atom_site_symmetry_multiplicity
 _atom_site_fract_x
 _atom_site_fract_y
 _atom_site_fract_z
 _atom_site_occupancy
  Rb  Rb0  1  0.221859  0.222122  0.221872  1
  Eu  Eu1  1  0.498205  0.498167  0.498013  1
  Nb  Nb2  1  0.810409  0.140021  0.918961  1
  Nb  Nb3  1  0.919013  0.810468  0.139923  1
  Nb  Nb4  1  0.139991  0.918962  0.810421  1
  Nb  Nb5  1  0.190525  0.860201  0.080729  1
  Nb  Nb6  1  0.080713  0.190395  0.860258  1
  Nb  Nb7  1  0.860224  0.080623  0.190547  1
  Br  Br8  1  0.865880  0.403056  0.731746  1
  Br  Br9  1  0.731756  0.865636  0.403194  1
  Br  Br10  1  0.403071  0.731808  0.865839  1
  Br  Br11  1  0.133614  0.596831  0.270351  1
  Br  Br12  1  0.270338  0.133688  0.596678  1
  Br  Br13  1  0.596855  0.270280  0.133645  1
  Br  Br14  1  0.541319  0.330244  0.815639  1
  Br  Br15  1  0.815685  0.541017  0.330249  1
  Br  Br16  1  0.330205  0.815709  0.541148  1
  Br  Br17  1  0.453774  0.671934  0.187497  1
  Br  Br18  1  0.187413  0.454190  0.671819  1
  Br  Br19  1  0.671850  0.187420  0.454035  1
  Br  Br20  1  0.670253  0.937511  0.071028  1
  Br  Br21  1  0.070965  0.670363  0.937426  1
  Br  Br22  1  0.937407  0.070987  0.670337  1
  Br  Br23  1  0.332548  0.061161  0.926049  1
  Br  Br24  1  0.926090  0.332339  0.061178  1
  Br  Br25  1  0.061174  0.926006  0.332558  1
