# generated using pymatgen
data_Ta2IrO7F
_symmetry_space_group_name_H-M   'P 1'
_cell_length_a   6.29025340
_cell_length_b   6.29025361
_cell_length_c   3.81981200
_cell_angle_alpha   90.00000000
_cell_angle_beta   90.00000000
_cell_angle_gamma   118.18059450
_symmetry_Int_Tables_number   1
_chemical_formula_structural   Ta2IrO7F
_chemical_formula_sum   'Ta2 Ir1 O7 F1'
_cell_volume   133.22403846
_cell_formula_units_Z   1
loop_
 _symmetry_equiv_pos_site_id
 _symmetry_equiv_pos_as_xyz
  1  'x, y, z'
loop_
 _atom_site_type_symbol
 _atom_site_label
 _atom_site_symmetry_multiplicity
 _atom_site_fract_x
 _atom_site_fract_y
 _atom_site_fract_z
 _atom_site_occupancy
  Ta  Ta0  1  0.694091  0.305909  0.000000  1
  Ta  Ta1  1  0.305909  0.694091  0.000000  1
  Ir  Ir2  1  0.000000  0.000000  0.000000  1
  O  O3  1  0.333671  0.034143  0.000000  1
  O  O4  1  0.034143  0.333671  0.000000  1
  O  O5  1  0.000000  0.000000  0.500000  1
  O  O6  1  0.676749  0.323251  0.500000  1
  O  O7  1  0.323251  0.676749  0.500000  1
  O  O8  1  0.666329  0.965857  0.000000  1
  O  O9  1  0.965857  0.666329  0.000000  1
  F  F10  1  0.500000  0.500000  0.000000  1
