# generated using pymatgen
data_CaNp2Cd5O12
_symmetry_space_group_name_H-M   'P 1'
_cell_length_a   6.69044344
_cell_length_b   6.66454854
_cell_length_c   6.75335960
_cell_angle_alpha   91.12979805
_cell_angle_beta   91.23292361
_cell_angle_gamma   91.32656008
_symmetry_Int_Tables_number   1
_chemical_formula_structural   CaNp2Cd5O12
_chemical_formula_sum   'Ca1 Np2 Cd5 O12'
_cell_volume   300.91213057
_cell_formula_units_Z   1
loop_
 _symmetry_equiv_pos_site_id
 _symmetry_equiv_pos_as_xyz
  1  'x, y, z'
loop_
 _atom_site_type_symbol
 _atom_site_label
 _atom_site_symmetry_multiplicity
 _atom_site_fract_x
 _atom_site_fract_y
 _atom_site_fract_z
 _atom_site_occupancy
  Ca  Ca0  1  0.438884  0.748683  0.935743  1
  Np  Np1  1  0.998733  0.003899  0.000327  1
  Np  Np2  1  0.500945  0.496230  0.497884  1
  Cd  Cd3  1  0.937511  0.445214  0.750234  1
  Cd  Cd4  1  0.752854  0.935792  0.442001  1
  Cd  Cd5  1  0.559986  0.251425  0.062715  1
  Cd  Cd6  1  0.248229  0.060535  0.557497  1
  Cd  Cd7  1  0.063537  0.559635  0.251983  1
  O  O8  1  0.293238  0.071830  0.936000  1
  O  O9  1  0.072619  0.930770  0.294852  1
  O  O10  1  0.926415  0.301835  0.070533  1
  O  O11  1  0.706774  0.928498  0.067394  1
  O  O12  1  0.927501  0.070820  0.704580  1
  O  O13  1  0.074398  0.709097  0.928589  1
  O  O14  1  0.204837  0.409253  0.551819  1
  O  O15  1  0.412151  0.545368  0.206636  1
  O  O16  1  0.447836  0.789565  0.587146  1
  O  O17  1  0.584349  0.453111  0.792555  1
  O  O18  1  0.798470  0.588797  0.450628  1
  O  O19  1  0.550734  0.199644  0.410885  1
