# generated using pymatgen
data_Nd10Sb5PbC2
_symmetry_space_group_name_H-M   'P 1'
_cell_length_a   9.27550800
_cell_length_b   9.27550763
_cell_length_c   6.70426500
_cell_angle_alpha   90.00000000
_cell_angle_beta   90.00000000
_cell_angle_gamma   120.02161577
_symmetry_Int_Tables_number   1
_chemical_formula_structural   Nd10Sb5PbC2
_chemical_formula_sum   'Nd10 Sb5 Pb1 C2'
_cell_volume   499.41612242
_cell_formula_units_Z   1
loop_
 _symmetry_equiv_pos_site_id
 _symmetry_equiv_pos_as_xyz
  1  'x, y, z'
loop_
 _atom_site_type_symbol
 _atom_site_label
 _atom_site_symmetry_multiplicity
 _atom_site_fract_x
 _atom_site_fract_y
 _atom_site_fract_z
 _atom_site_occupancy
  Nd  Nd0  1  0.667549  0.332997  0.500032  1
  Nd  Nd1  1  0.332997  0.667549  0.500032  1
  Nd  Nd2  1  0.332997  0.667549  0.999968  1
  Nd  Nd3  1  0.667549  0.332997  0.999968  1
  Nd  Nd4  1  0.785279  0.785279  0.250000  1
  Nd  Nd5  1  0.214835  0.999604  0.250000  1
  Nd  Nd6  1  0.999604  0.214835  0.250000  1
  Nd  Nd7  1  0.215800  0.215800  0.750000  1
  Nd  Nd8  1  0.785074  0.999862  0.750000  1
  Nd  Nd9  1  0.999862  0.785074  0.750000  1
  Sb  Sb10  1  0.598416  0.000112  0.250000  1
  Sb  Sb11  1  0.000112  0.598416  0.250000  1
  Sb  Sb12  1  0.596843  0.596843  0.750000  1
  Sb  Sb13  1  0.401072  0.000269  0.750000  1
  Sb  Sb14  1  0.000269  0.401072  0.750000  1
  Pb  Pb15  1  0.404040  0.404040  0.250000  1
  C  C16  1  0.998849  0.998849  0.500593  1
  C  C17  1  0.998849  0.998849  0.999407  1
