# generated using pymatgen
data_Tb6Ho9Er(In3Co)2
_symmetry_space_group_name_H-M   'P 1'
_cell_length_a   10.36414300
_cell_length_b   10.36405372
_cell_length_c   6.99214301
_cell_angle_alpha   89.99406746
_cell_angle_beta   89.99981588
_cell_angle_gamma   120.00032941
_symmetry_Int_Tables_number   1
_chemical_formula_structural   Tb6Ho9Er(In3Co)2
_chemical_formula_sum   'Tb6 Ho9 Er1 In6 Co2'
_cell_volume   650.43296136
_cell_formula_units_Z   1
loop_
 _symmetry_equiv_pos_site_id
 _symmetry_equiv_pos_as_xyz
  1  'x, y, z'
loop_
 _atom_site_type_symbol
 _atom_site_label
 _atom_site_symmetry_multiplicity
 _atom_site_fract_x
 _atom_site_fract_y
 _atom_site_fract_z
 _atom_site_occupancy
  Tb  Tb0  1  0.534739  0.069475  0.504372  1
  Tb  Tb1  1  0.930595  0.465241  0.504422  1
  Tb  Tb2  1  0.534647  0.465241  0.504421  1
  Tb  Tb3  1  0.465275  0.930551  0.004358  1
  Tb  Tb4  1  0.069481  0.534683  0.004283  1
  Tb  Tb5  1  0.465201  0.534681  0.004284  1
  Ho  Ho6  1  0.643804  0.821906  0.712608  1
  Ho  Ho7  1  0.178102  0.821905  0.712610  1
  Ho  Ho8  1  0.821894  0.643788  0.212618  1
  Ho  Ho9  1  0.356216  0.178105  0.212598  1
  Ho  Ho10  1  0.821888  0.178104  0.212600  1
  Ho  Ho11  1  0.666666  0.333333  0.896420  1
  Ho  Ho12  1  0.333287  0.666576  0.396526  1
  Ho  Ho13  1  0.000016  0.000034  0.494382  1
  Ho  Ho14  1  0.000034  0.000067  0.994231  1
  Er  Er15  1  0.178142  0.356286  0.712582  1
  In  In16  1  0.837427  0.674855  0.751933  1
  In  In17  1  0.325055  0.162668  0.751940  1
  In  In18  1  0.837613  0.162667  0.751940  1
  In  In19  1  0.162585  0.325169  0.252122  1
  In  In20  1  0.674835  0.837416  0.251953  1
  In  In21  1  0.162581  0.837414  0.251951  1
  Co  Co22  1  0.666666  0.333330  0.281459  1
  Co  Co23  1  0.333252  0.666504  0.781431  1
