# generated using pymatgen
data_Tm6AlTcNi
_symmetry_space_group_name_H-M   'P 1'
_cell_length_a   8.27022613
_cell_length_b   8.27022635
_cell_length_c   8.27022576
_cell_angle_alpha   103.75304724
_cell_angle_beta   111.56902567
_cell_angle_gamma   113.24355573
_symmetry_Int_Tables_number   1
_chemical_formula_structural   Tm6AlTcNi
_chemical_formula_sum   'Tm12 Al2 Tc2 Ni2'
_cell_volume   432.13008900
_cell_formula_units_Z   2
loop_
 _symmetry_equiv_pos_site_id
 _symmetry_equiv_pos_as_xyz
  1  'x, y, z'
loop_
 _atom_site_type_symbol
 _atom_site_label
 _atom_site_symmetry_multiplicity
 _atom_site_fract_x
 _atom_site_fract_y
 _atom_site_fract_z
 _atom_site_occupancy
  Tm  Tm0  1  0.691556  0.256904  0.948460  1
  Tm  Tm1  1  0.308444  0.743096  0.051540  1
  Tm  Tm2  1  0.691556  0.743096  0.434652  1
  Tm  Tm3  1  0.308444  0.256904  0.565348  1
  Tm  Tm4  1  0.815487  0.147882  0.332394  1
  Tm  Tm5  1  0.815487  0.483093  0.667606  1
  Tm  Tm6  1  0.184513  0.852118  0.667606  1
  Tm  Tm7  1  0.184513  0.516907  0.332394  1
  Tm  Tm8  1  0.602207  0.783776  0.818430  1
  Tm  Tm9  1  0.965345  0.783776  0.181570  1
  Tm  Tm10  1  0.034655  0.216224  0.818430  1
  Tm  Tm11  1  0.397793  0.216224  0.181570  1
  Al  Al12  1  0.500000  0.500000  0.000000  1
  Al  Al13  1  0.500000  0.000000  0.500000  1
  Tc  Tc14  1  0.817517  0.500000  0.317517  1
  Tc  Tc15  1  0.182483  0.500000  0.682483  1
  Ni  Ni16  1  0.000000  0.118180  0.118180  1
  Ni  Ni17  1  0.000000  0.881820  0.881820  1
