# generated using pymatgen
data_Zr3HgC
_symmetry_space_group_name_H-M   'P 1'
_cell_length_a   6.25023362
_cell_length_b   6.25023445
_cell_length_c   9.28085200
_cell_angle_alpha   90.00000000
_cell_angle_beta   90.00000000
_cell_angle_gamma   148.19832689
_symmetry_Int_Tables_number   1
_chemical_formula_structural   Zr3HgC
_chemical_formula_sum   'Zr6 Hg2 C2'
_cell_volume   191.06231908
_cell_formula_units_Z   2
loop_
 _symmetry_equiv_pos_site_id
 _symmetry_equiv_pos_as_xyz
  1  'x, y, z'
loop_
 _atom_site_type_symbol
 _atom_site_label
 _atom_site_symmetry_multiplicity
 _atom_site_fract_x
 _atom_site_fract_y
 _atom_site_fract_z
 _atom_site_occupancy
  Zr  Zr0  1  0.622931  0.377067  0.042997  1
  Zr  Zr1  1  0.960963  0.039035  0.250000  1
  Zr  Zr2  1  0.622931  0.377067  0.457003  1
  Zr  Zr3  1  0.377067  0.622931  0.542998  1
  Zr  Zr4  1  0.039035  0.960963  0.750000  1
  Zr  Zr5  1  0.377067  0.622931  0.957003  1
  Hg  Hg6  1  0.253465  0.746533  0.250000  1
  Hg  Hg7  1  0.746533  0.253465  0.750000  1
  C  C8  1  0.000000  0.000000  0.000000  1
  C  C9  1  0.000000  0.000000  0.500000  1
