# generated using pymatgen
data_TmNb3(AsO4)6
_symmetry_space_group_name_H-M   'P 1'
_cell_length_a   9.52317656
_cell_length_b   9.52317668
_cell_length_c   9.52317715
_cell_angle_alpha   58.19058140
_cell_angle_beta   58.19057032
_cell_angle_gamma   58.19057307
_symmetry_Int_Tables_number   1
_chemical_formula_structural   TmNb3(AsO4)6
_chemical_formula_sum   'Tm1 Nb3 As6 O24'
_cell_volume   585.38195643
_cell_formula_units_Z   1
loop_
 _symmetry_equiv_pos_site_id
 _symmetry_equiv_pos_as_xyz
  1  'x, y, z'
loop_
 _atom_site_type_symbol
 _atom_site_label
 _atom_site_symmetry_multiplicity
 _atom_site_fract_x
 _atom_site_fract_y
 _atom_site_fract_z
 _atom_site_occupancy
  Tm  Tm0  1  0.860759  0.860759  0.860759  1
  Nb  Nb1  1  0.140723  0.140723  0.140723  1
  Nb  Nb2  1  0.358325  0.358325  0.358325  1
  Nb  Nb3  1  0.641451  0.641451  0.641451  1
  As  As4  1  0.032633  0.466161  0.750425  1
  As  As5  1  0.466161  0.750425  0.032633  1
  As  As6  1  0.750425  0.032633  0.466161  1
  As  As7  1  0.259926  0.966083  0.523469  1
  As  As8  1  0.523469  0.259926  0.966083  1
  As  As9  1  0.966083  0.523469  0.259926  1
  O  O10  1  0.136418  0.482751  0.307968  1
  O  O11  1  0.307968  0.136418  0.482751  1
  O  O12  1  0.055419  0.283809  0.938358  1
  O  O13  1  0.482751  0.307968  0.136418  1
  O  O14  1  0.221556  0.409506  0.580749  1
  O  O15  1  0.021111  0.643751  0.756220  1
  O  O16  1  0.283809  0.938358  0.055419  1
  O  O17  1  0.409506  0.580749  0.221556  1
  O  O18  1  0.580749  0.221556  0.409506  1
  O  O19  1  0.236447  0.995705  0.341005  1
  O  O20  1  0.084429  0.950151  0.705359  1
  O  O21  1  0.341005  0.236447  0.995705  1
  O  O22  1  0.643751  0.756220  0.021111  1
  O  O23  1  0.938358  0.055419  0.283809  1
  O  O24  1  0.756220  0.021111  0.643751  1
  O  O25  1  0.444634  0.781916  0.549941  1
  O  O26  1  0.549941  0.444634  0.781916  1
  O  O27  1  0.705359  0.084429  0.950151  1
  O  O28  1  0.995705  0.341005  0.236447  1
  O  O29  1  0.781916  0.549941  0.444634  1
  O  O30  1  0.495930  0.726953  0.849953  1
  O  O31  1  0.950151  0.705359  0.084429  1
  O  O32  1  0.726953  0.849953  0.495930  1
  O  O33  1  0.849953  0.495930  0.726953  1
