# generated using pymatgen
data_Y4RuI4
_symmetry_space_group_name_H-M   'P 1'
_cell_length_a   11.42852134
_cell_length_b   11.42852281
_cell_length_c   6.21625468
_cell_angle_alpha   90.05579374
_cell_angle_beta   90.05580086
_cell_angle_gamma   88.37371823
_symmetry_Int_Tables_number   1
_chemical_formula_structural   Y4RuI4
_chemical_formula_sum   'Y8 Ru2 I8'
_cell_volume   811.58418180
_cell_formula_units_Z   2
loop_
 _symmetry_equiv_pos_site_id
 _symmetry_equiv_pos_as_xyz
  1  'x, y, z'
loop_
 _atom_site_type_symbol
 _atom_site_label
 _atom_site_symmetry_multiplicity
 _atom_site_fract_x
 _atom_site_fract_y
 _atom_site_fract_z
 _atom_site_occupancy
  Y  Y0  1  0.802827  0.083771  0.999052  1
  Y  Y1  1  0.083771  0.802827  0.499052  1
  Y  Y2  1  0.078136  0.194927  0.000298  1
  Y  Y3  1  0.194927  0.078136  0.500298  1
  Y  Y4  1  0.921864  0.805073  0.999702  1
  Y  Y5  1  0.916229  0.197173  0.500948  1
  Y  Y6  1  0.197173  0.916229  0.000948  1
  Y  Y7  1  0.805073  0.921864  0.499702  1
  Ru  Ru8  1  0.999871  0.000129  0.250000  1
  Ru  Ru9  1  0.000129  0.999871  0.750000  1
  I  I10  1  0.644665  0.152183  0.509800  1
  I  I11  1  0.858194  0.648614  0.505509  1
  I  I12  1  0.351386  0.141806  0.994491  1
  I  I13  1  0.141806  0.351386  0.494491  1
  I  I14  1  0.648614  0.858194  0.005509  1
  I  I15  1  0.355335  0.847817  0.490200  1
  I  I16  1  0.152183  0.644665  0.009800  1
  I  I17  1  0.847817  0.355335  0.990200  1
