# generated using pymatgen
data_Th2Zr3Si7Pt9
_symmetry_space_group_name_H-M   'P 1'
_cell_length_a   10.06479700
_cell_length_b   10.06479735
_cell_length_c   4.05350300
_cell_angle_alpha   90.00000000
_cell_angle_beta   90.00000000
_cell_angle_gamma   120.00000214
_symmetry_Int_Tables_number   1
_chemical_formula_structural   Th2Zr3Si7Pt9
_chemical_formula_sum   'Th2 Zr3 Si7 Pt9'
_cell_volume   355.60771616
_cell_formula_units_Z   1
loop_
 _symmetry_equiv_pos_site_id
 _symmetry_equiv_pos_as_xyz
  1  'x, y, z'
loop_
 _atom_site_type_symbol
 _atom_site_label
 _atom_site_symmetry_multiplicity
 _atom_site_fract_x
 _atom_site_fract_y
 _atom_site_fract_z
 _atom_site_occupancy
  Th  Th0  1  0.000000  0.000000  0.000000  1
  Th  Th1  1  0.333333  0.666667  0.500000  1
  Zr  Zr2  1  0.889043  0.452184  0.500000  1
  Zr  Zr3  1  0.563140  0.110957  0.500000  1
  Zr  Zr4  1  0.547816  0.436860  0.500000  1
  Si  Si5  1  0.256763  0.207509  0.500000  1
  Si  Si6  1  0.792491  0.049256  0.500000  1
  Si  Si7  1  0.950744  0.743237  0.500000  1
  Si  Si8  1  0.564506  0.645728  0.000000  1
  Si  Si9  1  0.354272  0.918777  0.000000  1
  Si  Si10  1  0.081223  0.435494  0.000000  1
  Si  Si11  1  0.666667  0.333333  0.000000  1
  Pt  Pt12  1  0.217798  0.938329  0.500000  1
  Pt  Pt13  1  0.061671  0.279468  0.500000  1
  Pt  Pt14  1  0.720532  0.782202  0.500000  1
  Pt  Pt15  1  0.311526  0.415032  0.000000  1
  Pt  Pt16  1  0.584968  0.896495  0.000000  1
  Pt  Pt17  1  0.103505  0.688474  0.000000  1
  Pt  Pt18  1  0.384948  0.178077  0.000000  1
  Pt  Pt19  1  0.821923  0.206872  0.000000  1
  Pt  Pt20  1  0.793128  0.615052  0.000000  1
