# generated using pymatgen
data_Ho3Lu(Co5P3)4
_symmetry_space_group_name_H-M   'P 1'
_cell_length_a   3.64063200
_cell_length_b   10.26290721
_cell_length_c   11.71850401
_cell_angle_alpha   90.03549240
_cell_angle_beta   90.00000000
_cell_angle_gamma   90.00000000
_symmetry_Int_Tables_number   1
_chemical_formula_structural   Ho3Lu(Co5P3)4
_chemical_formula_sum   'Ho3 Lu1 Co20 P12'
_cell_volume   437.84387048
_cell_formula_units_Z   1
loop_
 _symmetry_equiv_pos_site_id
 _symmetry_equiv_pos_as_xyz
  1  'x, y, z'
loop_
 _atom_site_type_symbol
 _atom_site_label
 _atom_site_symmetry_multiplicity
 _atom_site_fract_x
 _atom_site_fract_y
 _atom_site_fract_z
 _atom_site_occupancy
  Ho  Ho0  1  0.250000  0.582870  0.702737  1
  Ho  Ho1  1  0.250000  0.917282  0.202665  1
  Ho  Ho2  1  0.750000  0.417091  0.297367  1
  Lu  Lu3  1  0.750000  0.082672  0.797522  1
  Co  Co4  1  0.250000  0.717071  0.991272  1
  Co  Co5  1  0.250000  0.783415  0.491707  1
  Co  Co6  1  0.750000  0.283107  0.008181  1
  Co  Co7  1  0.750000  0.216733  0.508317  1
  Co  Co8  1  0.250000  0.406888  0.488083  1
  Co  Co9  1  0.250000  0.093130  0.986348  1
  Co  Co10  1  0.750000  0.593101  0.512066  1
  Co  Co11  1  0.750000  0.907438  0.011639  1
  Co  Co12  1  0.250000  0.221027  0.176404  1
  Co  Co13  1  0.250000  0.277820  0.677001  1
  Co  Co14  1  0.750000  0.779124  0.823234  1
  Co  Co15  1  0.750000  0.721408  0.323386  1
  Co  Co16  1  0.250000  0.883864  0.699318  1
  Co  Co17  1  0.250000  0.617293  0.198651  1
  Co  Co18  1  0.750000  0.117180  0.301494  1
  Co  Co19  1  0.750000  0.381960  0.801216  1
  Co  Co20  1  0.250000  0.467043  0.931441  1
  Co  Co21  1  0.250000  0.032354  0.432297  1
  Co  Co22  1  0.750000  0.532150  0.068193  1
  Co  Co23  1  0.750000  0.968285  0.569314  1
  P  P24  1  0.250000  0.418402  0.112083  1
  P  P25  1  0.250000  0.081431  0.613573  1
  P  P26  1  0.750000  0.581414  0.887725  1
  P  P27  1  0.750000  0.918605  0.388333  1
  P  P28  1  0.250000  0.268895  0.869619  1
  P  P29  1  0.250000  0.229489  0.370400  1
  P  P30  1  0.750000  0.729788  0.129466  1
  P  P31  1  0.750000  0.770498  0.629568  1
  P  P32  1  0.250000  0.601696  0.391210  1
  P  P33  1  0.250000  0.899569  0.890664  1
  P  P34  1  0.750000  0.398269  0.608780  1
  P  P35  1  0.750000  0.101641  0.108728  1
