# generated using pymatgen
data_Ho2ErZnSi2Ag3
_symmetry_space_group_name_H-M   'P 1'
_cell_length_a   7.11012904
_cell_length_b   7.11012726
_cell_length_c   4.13550000
_cell_angle_alpha   90.00000000
_cell_angle_beta   90.00000000
_cell_angle_gamma   120.01169748
_symmetry_Int_Tables_number   1
_chemical_formula_structural   Ho2ErZnSi2Ag3
_chemical_formula_sum   'Ho2 Er1 Zn1 Si2 Ag3'
_cell_volume   181.03490165
_cell_formula_units_Z   1
loop_
 _symmetry_equiv_pos_site_id
 _symmetry_equiv_pos_as_xyz
  1  'x, y, z'
loop_
 _atom_site_type_symbol
 _atom_site_label
 _atom_site_symmetry_multiplicity
 _atom_site_fract_x
 _atom_site_fract_y
 _atom_site_fract_z
 _atom_site_occupancy
  Ho  Ho0  1  0.419567  0.000019  0.500000  1
  Ho  Ho1  1  0.000019  0.419567  0.500000  1
  Er  Er2  1  0.580193  0.580193  0.500000  1
  Zn  Zn3  1  0.000088  0.000088  0.500000  1
  Si  Si4  1  0.333973  0.666400  0.000000  1
  Si  Si5  1  0.666400  0.333973  0.000000  1
  Ag  Ag6  1  0.746474  0.000277  0.000000  1
  Ag  Ag7  1  0.000277  0.746474  0.000000  1
  Ag  Ag8  1  0.253009  0.253009  0.000000  1
