# generated using pymatgen
data_Sm4Mn3PdF28
_symmetry_space_group_name_H-M   'P 1'
_cell_length_a   5.52377993
_cell_length_b   8.92680584
_cell_length_c   11.95437587
_cell_angle_alpha   62.04704822
_cell_angle_beta   90.09185656
_cell_angle_gamma   90.06096197
_symmetry_Int_Tables_number   1
_chemical_formula_structural   Sm4Mn3PdF28
_chemical_formula_sum   'Sm4 Mn3 Pd1 F28'
_cell_volume   520.69467395
_cell_formula_units_Z   1
loop_
 _symmetry_equiv_pos_site_id
 _symmetry_equiv_pos_as_xyz
  1  'x, y, z'
loop_
 _atom_site_type_symbol
 _atom_site_label
 _atom_site_symmetry_multiplicity
 _atom_site_fract_x
 _atom_site_fract_y
 _atom_site_fract_z
 _atom_site_occupancy
  Sm  Sm0  1  0.761084  0.812396  0.763259  1
  Sm  Sm1  1  0.262640  0.189930  0.734383  1
  Sm  Sm2  1  0.239395  0.189249  0.238097  1
  Sm  Sm3  1  0.738324  0.807598  0.265462  1
  Mn  Mn4  1  0.257586  0.725348  0.543058  1
  Mn  Mn5  1  0.241043  0.725222  0.043232  1
  Mn  Mn6  1  0.742882  0.274630  0.457391  1
  Pd  Pd7  1  0.757733  0.272823  0.957932  1
  F  F8  1  0.432672  0.708500  0.924068  1
  F  F9  1  0.934366  0.292436  0.576106  1
  F  F10  1  0.575840  0.297316  0.087468  1
  F  F11  1  0.067030  0.707886  0.423394  1
  F  F12  1  0.464260  0.284285  0.539702  1
  F  F13  1  0.962812  0.718410  0.959195  1
  F  F14  1  0.536386  0.716060  0.460550  1
  F  F15  1  0.061745  0.281528  0.037471  1
  F  F16  1  0.768857  0.518277  0.859387  1
  F  F17  1  0.267414  0.491986  0.635995  1
  F  F18  1  0.228399  0.491450  0.136612  1
  F  F19  1  0.733684  0.507641  0.364039  1
  F  F20  1  0.758461  0.027086  0.048144  1
  F  F21  1  0.259929  0.957893  0.453252  1
  F  F22  1  0.240641  0.957534  0.952855  1
  F  F23  1  0.739176  0.042253  0.547243  1
  F  F24  1  0.985084  0.730187  0.629913  1
  F  F25  1  0.458257  0.273672  0.872087  1
  F  F26  1  0.015103  0.269988  0.370286  1
  F  F27  1  0.512367  0.726331  0.132988  1
  F  F28  1  0.052257  0.739809  0.166202  1
  F  F29  1  0.553285  0.259580  0.335288  1
  F  F30  1  0.935609  0.258280  0.822839  1
  F  F31  1  0.446562  0.741180  0.665446  1
  F  F32  1  0.405030  0.968729  0.227857  1
  F  F33  1  0.903094  0.032831  0.270093  1
  F  F34  1  0.600173  0.034229  0.772873  1
  F  F35  1  0.100819  0.967445  0.725836  1
