# generated using pymatgen
data_Lu4Ga3Si
_symmetry_space_group_name_H-M   'P 1'
_cell_length_a   3.89331000
_cell_length_b   4.25735200
_cell_length_c   10.57083200
_cell_angle_alpha   90.00000000
_cell_angle_beta   90.00000000
_cell_angle_gamma   90.00000000
_symmetry_Int_Tables_number   1
_chemical_formula_structural   Lu4Ga3Si
_chemical_formula_sum   'Lu4 Ga3 Si1'
_cell_volume   175.21356065
_cell_formula_units_Z   1
loop_
 _symmetry_equiv_pos_site_id
 _symmetry_equiv_pos_as_xyz
  1  'x, y, z'
loop_
 _atom_site_type_symbol
 _atom_site_label
 _atom_site_symmetry_multiplicity
 _atom_site_fract_x
 _atom_site_fract_y
 _atom_site_fract_z
 _atom_site_occupancy
  Lu  Lu0  1  0.000000  0.000000  0.143871  1
  Lu  Lu1  1  0.000000  0.500000  0.637574  1
  Lu  Lu2  1  0.500000  0.500000  0.360744  1
  Lu  Lu3  1  0.500000  0.000000  0.858685  1
  Ga  Ga4  1  0.000000  0.500000  0.918584  1
  Ga  Ga5  1  0.500000  0.500000  0.082352  1
  Ga  Ga6  1  0.500000  0.000000  0.576190  1
  Si  Si7  1  0.000000  0.000000  0.421998  1
