# generated using pymatgen
data_TbCo2P3RuRh2
_symmetry_space_group_name_H-M   'P 1'
_cell_length_a   3.80524800
_cell_length_b   10.65845400
_cell_length_c   12.16036400
_cell_angle_alpha   90.00000000
_cell_angle_beta   90.00000000
_cell_angle_gamma   90.00000000
_symmetry_Int_Tables_number   1
_chemical_formula_structural   TbCo2P3RuRh2
_chemical_formula_sum   'Tb4 Co8 P12 Ru4 Rh8'
_cell_volume   493.20078206
_cell_formula_units_Z   4
loop_
 _symmetry_equiv_pos_site_id
 _symmetry_equiv_pos_as_xyz
  1  'x, y, z'
loop_
 _atom_site_type_symbol
 _atom_site_label
 _atom_site_symmetry_multiplicity
 _atom_site_fract_x
 _atom_site_fract_y
 _atom_site_fract_z
 _atom_site_occupancy
  Tb  Tb0  1  0.250000  0.584562  0.708698  1
  Tb  Tb1  1  0.250000  0.915438  0.208698  1
  Tb  Tb2  1  0.750000  0.415438  0.291302  1
  Tb  Tb3  1  0.750000  0.084562  0.791302  1
  Co  Co4  1  0.250000  0.885883  0.697826  1
  Co  Co5  1  0.250000  0.614117  0.197826  1
  Co  Co6  1  0.750000  0.114117  0.302174  1
  Co  Co7  1  0.750000  0.385883  0.802174  1
  Co  Co8  1  0.250000  0.463977  0.932923  1
  Co  Co9  1  0.250000  0.036023  0.432923  1
  Co  Co10  1  0.750000  0.536023  0.067077  1
  Co  Co11  1  0.750000  0.963977  0.567077  1
  P  P12  1  0.250000  0.429909  0.109847  1
  P  P13  1  0.250000  0.070091  0.609847  1
  P  P14  1  0.750000  0.570091  0.890153  1
  P  P15  1  0.750000  0.929909  0.390153  1
  P  P16  1  0.250000  0.274634  0.872872  1
  P  P17  1  0.250000  0.225366  0.372872  1
  P  P18  1  0.750000  0.725366  0.127128  1
  P  P19  1  0.750000  0.774634  0.627128  1
  P  P20  1  0.250000  0.601574  0.383146  1
  P  P21  1  0.250000  0.898426  0.883146  1
  P  P22  1  0.750000  0.398426  0.616854  1
  P  P23  1  0.750000  0.101574  0.116854  1
  Ru  Ru24  1  0.250000  0.715489  0.991929  1
  Ru  Ru25  1  0.250000  0.784511  0.491929  1
  Ru  Ru26  1  0.750000  0.284511  0.008071  1
  Ru  Ru27  1  0.750000  0.215489  0.508071  1
  Rh  Rh28  1  0.250000  0.408201  0.483224  1
  Rh  Rh29  1  0.250000  0.091799  0.983224  1
  Rh  Rh30  1  0.750000  0.591799  0.516776  1
  Rh  Rh31  1  0.750000  0.908201  0.016776  1
  Rh  Rh32  1  0.250000  0.226597  0.180386  1
  Rh  Rh33  1  0.250000  0.273403  0.680386  1
  Rh  Rh34  1  0.750000  0.773403  0.819614  1
  Rh  Rh35  1  0.750000  0.726597  0.319614  1
