# generated using pymatgen
data_PrSm4(PtO6)2
_symmetry_space_group_name_H-M   'P 1'
_cell_length_a   7.08630984
_cell_length_b   7.08630973
_cell_length_c   7.47034406
_cell_angle_alpha   74.64967718
_cell_angle_beta   74.64967684
_cell_angle_gamma   50.91539360
_symmetry_Int_Tables_number   1
_chemical_formula_structural   PrSm4(PtO6)2
_chemical_formula_sum   'Pr1 Sm4 Pt2 O12'
_cell_volume   278.38522395
_cell_formula_units_Z   1
loop_
 _symmetry_equiv_pos_site_id
 _symmetry_equiv_pos_as_xyz
  1  'x, y, z'
loop_
 _atom_site_type_symbol
 _atom_site_label
 _atom_site_symmetry_multiplicity
 _atom_site_fract_x
 _atom_site_fract_y
 _atom_site_fract_z
 _atom_site_occupancy
  Pr  Pr0  1  0.000000  0.000000  0.500000  1
  Sm  Sm1  1  0.301080  0.301080  0.359285  1
  Sm  Sm2  1  0.698920  0.698920  0.640715  1
  Sm  Sm3  1  0.696771  0.696771  0.163472  1
  Sm  Sm4  1  0.303229  0.303229  0.836528  1
  Pt  Pt5  1  0.751794  0.248206  0.000000  1
  Pt  Pt6  1  0.248206  0.751794  0.000000  1
  O  O7  1  0.095880  0.593652  0.577030  1
  O  O8  1  0.999387  0.999387  0.175658  1
  O  O9  1  0.406348  0.904120  0.422970  1
  O  O10  1  0.500245  0.500245  0.180746  1
  O  O11  1  0.099755  0.570899  0.081841  1
  O  O12  1  0.904120  0.406348  0.422970  1
  O  O13  1  0.000613  0.000613  0.824342  1
  O  O14  1  0.593652  0.095879  0.577030  1
  O  O15  1  0.499755  0.499755  0.819254  1
  O  O16  1  0.570899  0.099755  0.081841  1
  O  O17  1  0.429101  0.900245  0.918159  1
  O  O18  1  0.900245  0.429101  0.918159  1
