# generated using pymatgen
data_TbHo2GaSn3Ir2
_symmetry_space_group_name_H-M   'P 1'
_cell_length_a   7.44903181
_cell_length_b   7.44024774
_cell_length_c   4.12235500
_cell_angle_alpha   90.00000000
_cell_angle_beta   90.00000000
_cell_angle_gamma   120.09252897
_symmetry_Int_Tables_number   1
_chemical_formula_structural   TbHo2GaSn3Ir2
_chemical_formula_sum   'Tb1 Ho2 Ga1 Sn3 Ir2'
_cell_volume   197.67764639
_cell_formula_units_Z   1
loop_
 _symmetry_equiv_pos_site_id
 _symmetry_equiv_pos_as_xyz
  1  'x, y, z'
loop_
 _atom_site_type_symbol
 _atom_site_label
 _atom_site_symmetry_multiplicity
 _atom_site_fract_x
 _atom_site_fract_y
 _atom_site_fract_z
 _atom_site_occupancy
  Tb  Tb0  1  0.411228  0.398733  0.000000  1
  Ho  Ho1  1  0.603346  0.014302  0.000000  1
  Ho  Ho2  1  0.985960  0.588938  0.000000  1
  Ga  Ga3  1  0.332906  0.667527  0.500000  1
  Sn  Sn4  1  0.256226  0.004526  0.500000  1
  Sn  Sn5  1  0.994858  0.251237  0.500000  1
  Sn  Sn6  1  0.748847  0.743445  0.500000  1
  Ir  Ir7  1  0.667969  0.332719  0.500000  1
  Ir  Ir8  1  0.998661  0.998572  0.000000  1
