# generated using pymatgen
data_TmCo4ReP3
_symmetry_space_group_name_H-M   'P 1'
_cell_length_a   3.70855900
_cell_length_b   10.30614300
_cell_length_c   11.77148100
_cell_angle_alpha   90.00000000
_cell_angle_beta   90.00000000
_cell_angle_gamma   90.00000000
_symmetry_Int_Tables_number   1
_chemical_formula_structural   TmCo4ReP3
_chemical_formula_sum   'Tm4 Co16 Re4 P12'
_cell_volume   449.91706169
_cell_formula_units_Z   4
loop_
 _symmetry_equiv_pos_site_id
 _symmetry_equiv_pos_as_xyz
  1  'x, y, z'
loop_
 _atom_site_type_symbol
 _atom_site_label
 _atom_site_symmetry_multiplicity
 _atom_site_fract_x
 _atom_site_fract_y
 _atom_site_fract_z
 _atom_site_occupancy
  Tm  Tm0  1  0.250000  0.583855  0.704972  1
  Tm  Tm1  1  0.250000  0.916145  0.204972  1
  Tm  Tm2  1  0.750000  0.416145  0.295028  1
  Tm  Tm3  1  0.750000  0.083855  0.795028  1
  Co  Co4  1  0.250000  0.405920  0.487889  1
  Co  Co5  1  0.250000  0.094080  0.987889  1
  Co  Co6  1  0.750000  0.594080  0.512111  1
  Co  Co7  1  0.750000  0.905920  0.012111  1
  Co  Co8  1  0.250000  0.222646  0.176484  1
  Co  Co9  1  0.250000  0.277354  0.676484  1
  Co  Co10  1  0.750000  0.777354  0.823516  1
  Co  Co11  1  0.750000  0.722646  0.323516  1
  Co  Co12  1  0.250000  0.886645  0.702521  1
  Co  Co13  1  0.250000  0.613355  0.202521  1
  Co  Co14  1  0.750000  0.113355  0.297479  1
  Co  Co15  1  0.750000  0.386645  0.797479  1
  Co  Co16  1  0.250000  0.463607  0.932364  1
  Co  Co17  1  0.250000  0.036393  0.432364  1
  Co  Co18  1  0.750000  0.536393  0.067636  1
  Co  Co19  1  0.750000  0.963607  0.567636  1
  Re  Re20  1  0.250000  0.710392  0.989286  1
  Re  Re21  1  0.250000  0.789608  0.489286  1
  Re  Re22  1  0.750000  0.289608  0.010714  1
  Re  Re23  1  0.750000  0.210392  0.510714  1
  P  P24  1  0.250000  0.420389  0.114310  1
  P  P25  1  0.250000  0.079611  0.614310  1
  P  P26  1  0.750000  0.579611  0.885690  1
  P  P27  1  0.750000  0.920389  0.385690  1
  P  P28  1  0.250000  0.268190  0.865079  1
  P  P29  1  0.250000  0.231810  0.365079  1
  P  P30  1  0.750000  0.731810  0.134921  1
  P  P31  1  0.750000  0.768190  0.634921  1
  P  P32  1  0.250000  0.594918  0.390423  1
  P  P33  1  0.250000  0.905082  0.890423  1
  P  P34  1  0.750000  0.405082  0.609577  1
  P  P35  1  0.750000  0.094918  0.109577  1
