# generated using pymatgen
data_LiLuSc(Co3P2)3
_symmetry_space_group_name_H-M   'P 1'
_cell_length_a   3.61996100
_cell_length_b   10.16017500
_cell_length_c   11.72935300
_cell_angle_alpha   90.00000000
_cell_angle_beta   90.00000000
_cell_angle_gamma   90.00000000
_symmetry_Int_Tables_number   1
_chemical_formula_structural   LiLuSc(Co3P2)3
_chemical_formula_sum   'Li2 Lu2 Sc2 Co18 P12'
_cell_volume   431.39900268
_cell_formula_units_Z   2
loop_
 _symmetry_equiv_pos_site_id
 _symmetry_equiv_pos_as_xyz
  1  'x, y, z'
loop_
 _atom_site_type_symbol
 _atom_site_label
 _atom_site_symmetry_multiplicity
 _atom_site_fract_x
 _atom_site_fract_y
 _atom_site_fract_z
 _atom_site_occupancy
  Li  Li0  1  0.250000  0.703171  0.991290  1
  Li  Li1  1  0.250000  0.796829  0.491290  1
  Lu  Lu2  1  0.750000  0.421757  0.297063  1
  Lu  Lu3  1  0.750000  0.078243  0.797063  1
  Sc  Sc4  1  0.250000  0.578359  0.702861  1
  Sc  Sc5  1  0.250000  0.921641  0.202861  1
  Co  Co6  1  0.750000  0.287386  0.008369  1
  Co  Co7  1  0.750000  0.212614  0.508369  1
  Co  Co8  1  0.250000  0.405987  0.486980  1
  Co  Co9  1  0.250000  0.094013  0.986980  1
  Co  Co10  1  0.750000  0.591958  0.518122  1
  Co  Co11  1  0.750000  0.908042  0.018122  1
  Co  Co12  1  0.250000  0.224694  0.175032  1
  Co  Co13  1  0.250000  0.275307  0.675032  1
  Co  Co14  1  0.750000  0.778869  0.826287  1
  Co  Co15  1  0.750000  0.721131  0.326287  1
  Co  Co16  1  0.250000  0.879011  0.699399  1
  Co  Co17  1  0.250000  0.620989  0.199399  1
  Co  Co18  1  0.750000  0.120205  0.298140  1
  Co  Co19  1  0.750000  0.379795  0.798140  1
  Co  Co20  1  0.250000  0.463806  0.929601  1
  Co  Co21  1  0.250000  0.036194  0.429601  1
  Co  Co22  1  0.750000  0.536202  0.066136  1
  Co  Co23  1  0.750000  0.963798  0.566136  1
  P  P24  1  0.250000  0.423643  0.112338  1
  P  P25  1  0.250000  0.076357  0.612338  1
  P  P26  1  0.750000  0.576925  0.880485  1
  P  P27  1  0.750000  0.923075  0.380485  1
  P  P28  1  0.250000  0.265238  0.867023  1
  P  P29  1  0.250000  0.234762  0.367023  1
  P  P30  1  0.750000  0.736163  0.139132  1
  P  P31  1  0.750000  0.763837  0.639132  1
  P  P32  1  0.250000  0.601109  0.392871  1
  P  P33  1  0.250000  0.898891  0.892871  1
  P  P34  1  0.750000  0.399066  0.608875  1
  P  P35  1  0.750000  0.100934  0.108875  1
