# generated using pymatgen
data_Gd5DyTcRh
_symmetry_space_group_name_H-M   'P 1'
_cell_length_a   6.34607600
_cell_length_b   7.43703400
_cell_length_c   9.22966900
_cell_angle_alpha   90.00000000
_cell_angle_beta   90.00000000
_cell_angle_gamma   90.00000000
_symmetry_Int_Tables_number   1
_chemical_formula_structural   Gd5DyTcRh
_chemical_formula_sum   'Gd10 Dy2 Tc2 Rh2'
_cell_volume   435.60330102
_cell_formula_units_Z   2
loop_
 _symmetry_equiv_pos_site_id
 _symmetry_equiv_pos_as_xyz
  1  'x, y, z'
loop_
 _atom_site_type_symbol
 _atom_site_label
 _atom_site_symmetry_multiplicity
 _atom_site_fract_x
 _atom_site_fract_y
 _atom_site_fract_z
 _atom_site_occupancy
  Gd  Gd0  1  0.330662  0.677018  0.067421  1
  Gd  Gd1  1  0.169338  0.177018  0.432579  1
  Gd  Gd2  1  0.663768  0.323311  0.559659  1
  Gd  Gd3  1  0.836232  0.823311  0.940341  1
  Gd  Gd4  1  0.663768  0.323311  0.940341  1
  Gd  Gd5  1  0.836232  0.823311  0.559659  1
  Gd  Gd6  1  0.330662  0.677018  0.432579  1
  Gd  Gd7  1  0.169338  0.177018  0.067421  1
  Gd  Gd8  1  0.870735  0.540068  0.250000  1
  Gd  Gd9  1  0.629265  0.040068  0.250000  1
  Dy  Dy10  1  0.137604  0.457981  0.750000  1
  Dy  Dy11  1  0.362396  0.957981  0.750000  1
  Tc  Tc12  1  0.037178  0.886081  0.250000  1
  Tc  Tc13  1  0.462822  0.386081  0.250000  1
  Rh  Rh14  1  0.949670  0.115213  0.750000  1
  Rh  Rh15  1  0.550330  0.615213  0.750000  1
