# generated using pymatgen
data_Y7Lu3InSn5
_symmetry_space_group_name_H-M   'P 1'
_cell_length_a   8.93554819
_cell_length_b   8.93904930
_cell_length_c   6.53890803
_cell_angle_alpha   90.00618207
_cell_angle_beta   89.98863444
_cell_angle_gamma   120.06344585
_symmetry_Int_Tables_number   1
_chemical_formula_structural   Y7Lu3InSn5
_chemical_formula_sum   'Y7 Lu3 In1 Sn5'
_cell_volume   452.03324532
_cell_formula_units_Z   1
loop_
 _symmetry_equiv_pos_site_id
 _symmetry_equiv_pos_as_xyz
  1  'x, y, z'
loop_
 _atom_site_type_symbol
 _atom_site_label
 _atom_site_symmetry_multiplicity
 _atom_site_fract_x
 _atom_site_fract_y
 _atom_site_fract_z
 _atom_site_occupancy
  Y  Y0  1  0.666033  0.333192  0.999194  1
  Y  Y1  1  0.760949  0.761184  0.749515  1
  Y  Y2  1  0.240469  0.002340  0.749573  1
  Y  Y3  1  0.002962  0.240971  0.749628  1
  Y  Y4  1  0.237919  0.237996  0.250493  1
  Y  Y5  1  0.759827  0.998971  0.250492  1
  Y  Y6  1  0.999258  0.759972  0.250387  1
  Lu  Lu7  1  0.333374  0.665723  0.998950  1
  Lu  Lu8  1  0.333276  0.666022  0.500942  1
  Lu  Lu9  1  0.665775  0.333288  0.501030  1
  In  In10  1  0.398362  0.399800  0.748218  1
  Sn  Sn11  1  0.603282  0.998993  0.747988  1
  Sn  Sn12  1  0.001715  0.604790  0.748157  1
  Sn  Sn13  1  0.601130  0.602675  0.251822  1
  Sn  Sn14  1  0.395359  0.997143  0.251757  1
  Sn  Sn15  1  0.000312  0.396941  0.251853  1
