# generated using pymatgen
data_PrPa(BeGe)2
_symmetry_space_group_name_H-M   'P 1'
_cell_length_a   3.94517400
_cell_length_b   3.94517322
_cell_length_c   8.40520600
_cell_angle_alpha   90.00000000
_cell_angle_beta   90.00000000
_cell_angle_gamma   120.00000658
_symmetry_Int_Tables_number   1
_chemical_formula_structural   PrPa(BeGe)2
_chemical_formula_sum   'Pr1 Pa1 Be2 Ge2'
_cell_volume   113.29511980
_cell_formula_units_Z   1
loop_
 _symmetry_equiv_pos_site_id
 _symmetry_equiv_pos_as_xyz
  1  'x, y, z'
loop_
 _atom_site_type_symbol
 _atom_site_label
 _atom_site_symmetry_multiplicity
 _atom_site_fract_x
 _atom_site_fract_y
 _atom_site_fract_z
 _atom_site_occupancy
  Pr  Pr0  1  0.000000  0.000000  0.500000  1
  Pa  Pa1  1  0.000000  0.000000  0.000000  1
  Be  Be2  1  0.666667  0.333333  0.228060  1
  Be  Be3  1  0.333333  0.666666  0.771939  1
  Ge  Ge4  1  0.333333  0.666666  0.240745  1
  Ge  Ge5  1  0.666667  0.333333  0.759254  1
