# generated using pymatgen
data_HfNF
_symmetry_space_group_name_H-M   'P 1'
_cell_length_a   5.31793700
_cell_length_b   5.35540363
_cell_length_c   5.39649532
_cell_angle_alpha   79.79755604
_cell_angle_beta   90.00000000
_cell_angle_gamma   90.00000000
_symmetry_Int_Tables_number   1
_chemical_formula_structural   HfNF
_chemical_formula_sum   'Hf4 N4 F4'
_cell_volume   151.26041614
_cell_formula_units_Z   4
loop_
 _symmetry_equiv_pos_site_id
 _symmetry_equiv_pos_as_xyz
  1  'x, y, z'
loop_
 _atom_site_type_symbol
 _atom_site_label
 _atom_site_symmetry_multiplicity
 _atom_site_fract_x
 _atom_site_fract_y
 _atom_site_fract_z
 _atom_site_occupancy
  Hf  Hf0  1  0.481820  0.676852  0.714902  1
  Hf  Hf1  1  0.518180  0.323148  0.285098  1
  Hf  Hf2  1  0.981820  0.323148  0.785098  1
  Hf  Hf3  1  0.018180  0.676852  0.214902  1
  N  N4  1  0.247201  0.463777  0.508109  1
  N  N5  1  0.752799  0.536223  0.491891  1
  N  N6  1  0.747201  0.536223  0.991891  1
  N  N7  1  0.252799  0.463777  0.008109  1
  F  F8  1  0.168712  0.954962  0.840126  1
  F  F9  1  0.831288  0.045038  0.159874  1
  F  F10  1  0.668712  0.045038  0.659874  1
  F  F11  1  0.331288  0.954962  0.340126  1
