# generated using pymatgen
data_Ta3TiSiB2Mo
_symmetry_space_group_name_H-M   'P 1'
_cell_length_a   7.23280763
_cell_length_b   7.25449062
_cell_length_c   7.25828679
_cell_angle_alpha   129.82964306
_cell_angle_beta   129.75873336
_cell_angle_gamma   73.80085498
_symmetry_Int_Tables_number   1
_chemical_formula_structural   Ta3TiSiB2Mo
_chemical_formula_sum   'Ta6 Ti2 Si2 B4 Mo2'
_cell_volume   219.25901710
_cell_formula_units_Z   2
loop_
 _symmetry_equiv_pos_site_id
 _symmetry_equiv_pos_as_xyz
  1  'x, y, z'
loop_
 _atom_site_type_symbol
 _atom_site_label
 _atom_site_symmetry_multiplicity
 _atom_site_fract_x
 _atom_site_fract_y
 _atom_site_fract_z
 _atom_site_occupancy
  Ta  Ta0  1  0.192539  0.031977  0.498510  1
  Ta  Ta1  1  0.531912  0.692241  0.498396  1
  Ta  Ta2  1  0.031953  0.533628  0.839622  1
  Ta  Ta3  1  0.692312  0.193901  0.160445  1
  Ta  Ta4  1  0.970597  0.470720  0.165215  1
  Ta  Ta5  1  0.470288  0.305588  0.499780  1
  Ti  Ti6  1  0.805532  0.965761  0.499503  1
  Ti  Ti7  1  0.305514  0.805858  0.839684  1
  Si  Si8  1  0.744647  0.751880  0.002059  1
  Si  Si9  1  0.245017  0.242500  0.993096  1
  B  B10  1  0.385804  0.884243  0.267438  1
  B  B11  1  0.886199  0.618226  0.501763  1
  B  B12  1  0.618166  0.116503  0.733330  1
  B  B13  1  0.118263  0.385208  0.501929  1
  Mo  Mo14  1  0.000796  0.999538  0.998421  1
  Mo  Mo15  1  0.500462  0.502227  0.000807  1
