# generated using pymatgen
data_Dy4Lu4Ti5Si16Mo7
_symmetry_space_group_name_H-M   'P 1'
_cell_length_a   6.90834780
_cell_length_b   6.91469915
_cell_length_c   12.77982617
_cell_angle_alpha   90.02040154
_cell_angle_beta   90.11935735
_cell_angle_gamma   90.03156270
_symmetry_Int_Tables_number   1
_chemical_formula_structural   Dy4Lu4Ti5Si16Mo7
_chemical_formula_sum   'Dy4 Lu4 Ti5 Si16 Mo7'
_cell_volume   610.47993464
_cell_formula_units_Z   1
loop_
 _symmetry_equiv_pos_site_id
 _symmetry_equiv_pos_as_xyz
  1  'x, y, z'
loop_
 _atom_site_type_symbol
 _atom_site_label
 _atom_site_symmetry_multiplicity
 _atom_site_fract_x
 _atom_site_fract_y
 _atom_site_fract_z
 _atom_site_occupancy
  Dy  Dy0  1  0.838754  0.496435  0.280758  1
  Dy  Dy1  1  0.502773  0.159534  0.217966  1
  Dy  Dy2  1  0.496806  0.840641  0.717814  1
  Dy  Dy3  1  0.339398  0.001553  0.469062  1
  Lu  Lu4  1  0.999568  0.659885  0.031774  1
  Lu  Lu5  1  0.001668  0.340257  0.531040  1
  Lu  Lu6  1  0.659113  0.998979  0.968783  1
  Lu  Lu7  1  0.159298  0.501559  0.781908  1
  Ti  Ti8  1  0.670393  0.668388  0.500631  1
  Ti  Ti9  1  0.833033  0.170118  0.749857  1
  Ti  Ti10  1  0.168878  0.829636  0.249021  1
  Ti  Ti11  1  0.328537  0.329163  0.999951  1
  Ti  Ti12  1  0.658990  0.495732  0.876037  1
  Si  Si13  1  0.040565  0.708189  0.437646  1
  Si  Si14  1  0.957535  0.292340  0.937271  1
  Si  Si15  1  0.712534  0.040509  0.563060  1
  Si  Si16  1  0.209356  0.459528  0.186371  1
  Si  Si17  1  0.792885  0.542488  0.687608  1
  Si  Si18  1  0.457631  0.211357  0.814160  1
  Si  Si19  1  0.540434  0.788346  0.312651  1
  Si  Si20  1  0.290003  0.958140  0.061842  1
  Si  Si21  1  0.798433  0.870245  0.181647  1
  Si  Si22  1  0.297560  0.625244  0.567676  1
  Si  Si23  1  0.701942  0.372345  0.065332  1
  Si  Si24  1  0.630212  0.298208  0.434301  1
  Si  Si25  1  0.368694  0.703210  0.932539  1
  Si  Si26  1  0.128565  0.200258  0.316644  1
  Si  Si27  1  0.200151  0.133593  0.683555  1
  Si  Si28  1  0.871141  0.799835  0.817646  1
  Mo  Mo29  1  0.339724  0.504722  0.377056  1
  Mo  Mo30  1  0.841933  0.991647  0.374089  1
  Mo  Mo31  1  0.007896  0.156851  0.126468  1
  Mo  Mo32  1  0.996705  0.841878  0.625921  1
  Mo  Mo33  1  0.509478  0.340238  0.624287  1
  Mo  Mo34  1  0.157494  0.008335  0.873816  1
  Mo  Mo35  1  0.491921  0.660612  0.123813  1
