# generated using pymatgen
data_Tb3Ho7In8(PdAu)2
_symmetry_space_group_name_H-M   'P 1'
_cell_length_a   3.64864100
_cell_length_b   8.16911855
_cell_length_c   18.34003292
_cell_angle_alpha   89.91493491
_cell_angle_beta   90.00000000
_cell_angle_gamma   90.00000000
_symmetry_Int_Tables_number   1
_chemical_formula_structural   Tb3Ho7In8(PdAu)2
_chemical_formula_sum   'Tb3 Ho7 In8 Pd2 Au2'
_cell_volume   546.64573601
_cell_formula_units_Z   1
loop_
 _symmetry_equiv_pos_site_id
 _symmetry_equiv_pos_as_xyz
  1  'x, y, z'
loop_
 _atom_site_type_symbol
 _atom_site_label
 _atom_site_symmetry_multiplicity
 _atom_site_fract_x
 _atom_site_fract_y
 _atom_site_fract_z
 _atom_site_occupancy
  Tb  Tb0  1  0.000000  0.500004  0.499939  1
  Tb  Tb1  1  0.000000  0.000144  0.999915  1
  Tb  Tb2  1  0.000000  0.746312  0.283959  1
  Ho  Ho3  1  0.000000  0.252842  0.716562  1
  Ho  Ho4  1  0.000000  0.766912  0.779721  1
  Ho  Ho5  1  0.000000  0.232488  0.220055  1
  Ho  Ho6  1  0.000000  0.620026  0.080347  1
  Ho  Ho7  1  0.000000  0.380370  0.919209  1
  Ho  Ho8  1  0.000000  0.884289  0.583067  1
  Ho  Ho9  1  0.000000  0.116006  0.417537  1
  In  In10  1  0.500000  0.709865  0.931914  1
  In  In11  1  0.500000  0.290851  0.067507  1
  In  In12  1  0.500000  0.793274  0.433714  1
  In  In13  1  0.500000  0.207696  0.567223  1
  In  In14  1  0.500000  0.582768  0.647906  1
  In  In15  1  0.500000  0.415748  0.351888  1
  In  In16  1  0.500000  0.921734  0.149125  1
  In  In17  1  0.500000  0.078481  0.850678  1
  Pd  Pd18  1  0.500000  0.973799  0.696076  1
  Pd  Pd19  1  0.500000  0.028215  0.304330  1
  Au  Au20  1  0.500000  0.526063  0.197034  1
  Au  Au21  1  0.500000  0.472113  0.802296  1
