# generated using pymatgen
data_Y3Er5(InPt)2
_symmetry_space_group_name_H-M   'P 1'
_cell_length_a   9.68077295
_cell_length_b   9.68077336
_cell_length_c   9.68077200
_cell_angle_alpha   59.99999783
_cell_angle_beta   59.99999641
_cell_angle_gamma   59.99999508
_symmetry_Int_Tables_number   1
_chemical_formula_structural   Y3Er5(InPt)2
_chemical_formula_sum   'Y6 Er10 In4 Pt4'
_cell_volume   641.52715815
_cell_formula_units_Z   2
loop_
 _symmetry_equiv_pos_site_id
 _symmetry_equiv_pos_as_xyz
  1  'x, y, z'
loop_
 _atom_site_type_symbol
 _atom_site_label
 _atom_site_symmetry_multiplicity
 _atom_site_fract_x
 _atom_site_fract_y
 _atom_site_fract_z
 _atom_site_occupancy
  Y  Y0  1  0.938174  0.561826  0.561826  1
  Y  Y1  1  0.561826  0.938174  0.938174  1
  Y  Y2  1  0.561826  0.938174  0.561826  1
  Y  Y3  1  0.938174  0.561826  0.938174  1
  Y  Y4  1  0.561826  0.561826  0.938174  1
  Y  Y5  1  0.938174  0.938174  0.561826  1
  Er  Er6  1  0.351077  0.351077  0.351077  1
  Er  Er7  1  0.351077  0.351077  0.946767  1
  Er  Er8  1  0.351077  0.946767  0.351077  1
  Er  Er9  1  0.946767  0.351077  0.351077  1
  Er  Er10  1  0.811154  0.188846  0.188846  1
  Er  Er11  1  0.188846  0.811154  0.811154  1
  Er  Er12  1  0.188846  0.811154  0.188846  1
  Er  Er13  1  0.811154  0.188846  0.811154  1
  Er  Er14  1  0.188846  0.188846  0.811154  1
  Er  Er15  1  0.811154  0.811154  0.188846  1
  In  In16  1  0.582896  0.582896  0.582896  1
  In  In17  1  0.582896  0.582896  0.251312  1
  In  In18  1  0.582896  0.251312  0.582896  1
  In  In19  1  0.251312  0.582896  0.582896  1
  Pt  Pt20  1  0.143035  0.143035  0.143035  1
  Pt  Pt21  1  0.143035  0.143035  0.570896  1
  Pt  Pt22  1  0.143035  0.570896  0.143035  1
  Pt  Pt23  1  0.570896  0.143035  0.143035  1
