# generated using pymatgen
data_Y8Ho2BiPb7
_symmetry_space_group_name_H-M   'P 1'
_cell_length_a   8.27391600
_cell_length_b   15.63516007
_cell_length_c   8.32491400
_cell_angle_alpha   90.18317979
_cell_angle_beta   90.00000000
_cell_angle_gamma   90.00000000
_symmetry_Int_Tables_number   1
_chemical_formula_structural   Y8Ho2BiPb7
_chemical_formula_sum   'Y16 Ho4 Bi2 Pb14'
_cell_volume   1076.93867966
_cell_formula_units_Z   2
loop_
 _symmetry_equiv_pos_site_id
 _symmetry_equiv_pos_as_xyz
  1  'x, y, z'
loop_
 _atom_site_type_symbol
 _atom_site_label
 _atom_site_symmetry_multiplicity
 _atom_site_fract_x
 _atom_site_fract_y
 _atom_site_fract_z
 _atom_site_occupancy
  Y  Y0  1  0.620023  0.621731  0.160250  1
  Y  Y1  1  0.120023  0.878269  0.339750  1
  Y  Y2  1  0.378917  0.121754  0.844265  1
  Y  Y3  1  0.878917  0.378246  0.655735  1
  Y  Y4  1  0.375218  0.378567  0.841102  1
  Y  Y5  1  0.875218  0.121433  0.658898  1
  Y  Y6  1  0.622337  0.878579  0.158077  1
  Y  Y7  1  0.122337  0.621421  0.341923  1
  Y  Y8  1  0.455426  0.603628  0.668850  1
  Y  Y9  1  0.955426  0.896372  0.831150  1
  Y  Y10  1  0.545425  0.103303  0.324619  1
  Y  Y11  1  0.045425  0.396697  0.175381  1
  Y  Y12  1  0.540116  0.397876  0.330669  1
  Y  Y13  1  0.040116  0.102124  0.169331  1
  Y  Y14  1  0.462945  0.897142  0.676625  1
  Y  Y15  1  0.962945  0.602858  0.823375  1
  Ho  Ho16  1  0.790646  0.750432  0.498099  1
  Ho  Ho17  1  0.290646  0.749568  0.001901  1
  Ho  Ho18  1  0.209363  0.251623  0.501946  1
  Ho  Ho19  1  0.709363  0.248377  0.998054  1
  Bi  Bi20  1  0.723171  0.455262  0.971699  1
  Bi  Bi21  1  0.223171  0.044738  0.528301  1
  Pb  Pb22  1  0.278540  0.956537  0.030530  1
  Pb  Pb23  1  0.778540  0.543463  0.469470  1
  Pb  Pb24  1  0.278422  0.543239  0.031051  1
  Pb  Pb25  1  0.778422  0.956761  0.468949  1
  Pb  Pb26  1  0.719441  0.043244  0.968193  1
  Pb  Pb27  1  0.219441  0.456756  0.531807  1
  Pb  Pb28  1  0.427537  0.751551  0.372371  1
  Pb  Pb29  1  0.927537  0.748449  0.127629  1
  Pb  Pb30  1  0.571238  0.250017  0.628024  1
  Pb  Pb31  1  0.071238  0.249983  0.871976  1
  Pb  Pb32  1  0.648589  0.748490  0.846769  1
  Pb  Pb33  1  0.148589  0.751510  0.653231  1
  Pb  Pb34  1  0.352646  0.250346  0.154456  1
  Pb  Pb35  1  0.852646  0.249654  0.345544  1
