# generated using pymatgen
data_YLu4(In2Au)2
_symmetry_space_group_name_H-M   'P 1'
_cell_length_a   3.62602100
_cell_length_b   8.14141400
_cell_length_c   18.19967200
_cell_angle_alpha   90.00000000
_cell_angle_beta   90.00000000
_cell_angle_gamma   90.00000000
_symmetry_Int_Tables_number   1
_chemical_formula_structural   YLu4(In2Au)2
_chemical_formula_sum   'Y2 Lu8 In8 Au4'
_cell_volume   537.27139117
_cell_formula_units_Z   2
loop_
 _symmetry_equiv_pos_site_id
 _symmetry_equiv_pos_as_xyz
  1  'x, y, z'
loop_
 _atom_site_type_symbol
 _atom_site_label
 _atom_site_symmetry_multiplicity
 _atom_site_fract_x
 _atom_site_fract_y
 _atom_site_fract_z
 _atom_site_occupancy
  Y  Y0  1  0.000000  0.500000  0.500000  1
  Y  Y1  1  0.000000  0.000000  0.000000  1
  Lu  Lu2  1  0.000000  0.738553  0.281317  1
  Lu  Lu3  1  0.000000  0.261447  0.718683  1
  Lu  Lu4  1  0.000000  0.761447  0.781317  1
  Lu  Lu5  1  0.000000  0.238553  0.218683  1
  Lu  Lu6  1  0.000000  0.618796  0.081254  1
  Lu  Lu7  1  0.000000  0.381204  0.918746  1
  Lu  Lu8  1  0.000000  0.881204  0.581254  1
  Lu  Lu9  1  0.000000  0.118796  0.418746  1
  In  In10  1  0.500000  0.707405  0.933923  1
  In  In11  1  0.500000  0.292595  0.066077  1
  In  In12  1  0.500000  0.792595  0.433923  1
  In  In13  1  0.500000  0.207405  0.566077  1
  In  In14  1  0.500000  0.580705  0.647537  1
  In  In15  1  0.500000  0.419295  0.352463  1
  In  In16  1  0.500000  0.919295  0.147537  1
  In  In17  1  0.500000  0.080705  0.852463  1
  Au  Au18  1  0.500000  0.526004  0.196944  1
  Au  Au19  1  0.500000  0.473996  0.803056  1
  Au  Au20  1  0.500000  0.973996  0.696944  1
  Au  Au21  1  0.500000  0.026004  0.303056  1
