# generated using pymatgen
data_Dy4Y3TmAu4
_symmetry_space_group_name_H-M   'P 1'
_cell_length_a   4.94117100
_cell_length_b   7.15955040
_cell_length_c   8.96483773
_cell_angle_alpha   90.02561332
_cell_angle_beta   90.00000000
_cell_angle_gamma   90.00000000
_symmetry_Int_Tables_number   1
_chemical_formula_structural   Dy4Y3TmAu4
_chemical_formula_sum   'Dy4 Y3 Tm1 Au4'
_cell_volume   317.14511336
_cell_formula_units_Z   1
loop_
 _symmetry_equiv_pos_site_id
 _symmetry_equiv_pos_as_xyz
  1  'x, y, z'
loop_
 _atom_site_type_symbol
 _atom_site_label
 _atom_site_symmetry_multiplicity
 _atom_site_fract_x
 _atom_site_fract_y
 _atom_site_fract_z
 _atom_site_occupancy
  Dy  Dy0  1  0.250000  0.148069  0.580987  1
  Dy  Dy1  1  0.750000  0.485935  0.676860  1
  Dy  Dy2  1  0.750000  0.984152  0.823967  1
  Dy  Dy3  1  0.750000  0.351436  0.078592  1
  Y  Y4  1  0.250000  0.013737  0.175944  1
  Y  Y5  1  0.250000  0.513766  0.322873  1
  Y  Y6  1  0.750000  0.850988  0.420385  1
  Tm  Tm7  1  0.250000  0.648044  0.920210  1
  Au  Au8  1  0.250000  0.743437  0.604313  1
  Au  Au9  1  0.250000  0.247075  0.899168  1
  Au  Au10  1  0.750000  0.754997  0.096724  1
  Au  Au11  1  0.750000  0.258363  0.399978  1
