# generated using pymatgen
data_DyTm2Nb(Co4P3)2
_symmetry_space_group_name_H-M   'P 1'
_cell_length_a   3.69298500
_cell_length_b   10.60094500
_cell_length_c   12.29040000
_cell_angle_alpha   90.00000000
_cell_angle_beta   90.00000000
_cell_angle_gamma   90.00000000
_symmetry_Int_Tables_number   1
_chemical_formula_structural   DyTm2Nb(Co4P3)2
_chemical_formula_sum   'Dy2 Tm4 Nb2 Co16 P12'
_cell_volume   481.15847805
_cell_formula_units_Z   2
loop_
 _symmetry_equiv_pos_site_id
 _symmetry_equiv_pos_as_xyz
  1  'x, y, z'
loop_
 _atom_site_type_symbol
 _atom_site_label
 _atom_site_symmetry_multiplicity
 _atom_site_fract_x
 _atom_site_fract_y
 _atom_site_fract_z
 _atom_site_occupancy
  Dy  Dy0  1  0.000000  0.500000  0.527518  1
  Dy  Dy1  1  0.500000  0.000000  0.472482  1
  Tm  Tm2  1  0.500000  0.820490  0.204794  1
  Tm  Tm3  1  0.500000  0.179510  0.204794  1
  Tm  Tm4  1  0.000000  0.679510  0.795206  1
  Tm  Tm5  1  0.000000  0.320490  0.795206  1
  Nb  Nb6  1  0.500000  0.500000  0.157005  1
  Nb  Nb7  1  0.000000  0.000000  0.842995  1
  Co  Co8  1  0.500000  0.500000  0.703158  1
  Co  Co9  1  0.000000  0.000000  0.296842  1
  Co  Co10  1  0.000000  0.500000  0.985821  1
  Co  Co11  1  0.500000  0.000000  0.014179  1
  Co  Co12  1  0.500000  0.332523  0.991223  1
  Co  Co13  1  0.500000  0.667477  0.991223  1
  Co  Co14  1  0.000000  0.167477  0.008777  1
  Co  Co15  1  0.000000  0.832523  0.008777  1
  Co  Co16  1  0.500000  0.294887  0.432004  1
  Co  Co17  1  0.500000  0.705113  0.432004  1
  Co  Co18  1  0.000000  0.205113  0.567996  1
  Co  Co19  1  0.000000  0.794887  0.567996  1
  Co  Co20  1  0.500000  0.876848  0.705230  1
  Co  Co21  1  0.500000  0.123152  0.705230  1
  Co  Co22  1  0.000000  0.623152  0.294770  1
  Co  Co23  1  0.000000  0.376848  0.294770  1
  P  P24  1  0.500000  0.500000  0.881568  1
  P  P25  1  0.000000  0.000000  0.118432  1
  P  P26  1  0.500000  0.500000  0.356089  1
  P  P27  1  0.000000  0.000000  0.643911  1
  P  P28  1  0.500000  0.311094  0.616642  1
  P  P29  1  0.500000  0.688906  0.616642  1
  P  P30  1  0.000000  0.188906  0.383358  1
  P  P31  1  0.000000  0.811094  0.383358  1
  P  P32  1  0.500000  0.840455  0.892723  1
  P  P33  1  0.500000  0.159545  0.892723  1
  P  P34  1  0.000000  0.659545  0.107277  1
  P  P35  1  0.000000  0.340455  0.107277  1
