# generated using pymatgen
data_Zr12Al9Pd3N4
_symmetry_space_group_name_H-M   'P 1'
_cell_length_a   8.66722165
_cell_length_b   8.66722158
_cell_length_c   8.66722120
_cell_angle_alpha   60.00904100
_cell_angle_beta   60.00904086
_cell_angle_gamma   60.00903962
_symmetry_Int_Tables_number   1
_chemical_formula_structural   Zr12Al9Pd3N4
_chemical_formula_sum   'Zr12 Al9 Pd3 N4'
_cell_volume   460.48309248
_cell_formula_units_Z   1
loop_
 _symmetry_equiv_pos_site_id
 _symmetry_equiv_pos_as_xyz
  1  'x, y, z'
loop_
 _atom_site_type_symbol
 _atom_site_label
 _atom_site_symmetry_multiplicity
 _atom_site_fract_x
 _atom_site_fract_y
 _atom_site_fract_z
 _atom_site_occupancy
  Zr  Zr0  1  0.815839  0.184754  0.184754  1
  Zr  Zr1  1  0.184754  0.815839  0.184754  1
  Zr  Zr2  1  0.814360  0.814360  0.185373  1
  Zr  Zr3  1  0.185373  0.814360  0.814360  1
  Zr  Zr4  1  0.814360  0.185373  0.814360  1
  Zr  Zr5  1  0.184754  0.184754  0.815839  1
  Zr  Zr6  1  0.434161  0.065246  0.065246  1
  Zr  Zr7  1  0.065246  0.434161  0.065246  1
  Zr  Zr8  1  0.435640  0.435640  0.064627  1
  Zr  Zr9  1  0.064627  0.435640  0.435640  1
  Zr  Zr10  1  0.435640  0.064627  0.435640  1
  Zr  Zr11  1  0.065246  0.065246  0.434161  1
  Al  Al12  1  0.413061  0.413061  0.745209  1
  Al  Al13  1  0.418316  0.418316  0.418316  1
  Al  Al14  1  0.745209  0.413061  0.413061  1
  Al  Al15  1  0.413061  0.745209  0.413061  1
  Al  Al16  1  0.836939  0.836939  0.504791  1
  Al  Al17  1  0.831684  0.831684  0.831684  1
  Al  Al18  1  0.504791  0.836939  0.836939  1
  Al  Al19  1  0.836939  0.504791  0.836939  1
  Al  Al20  1  0.625000  0.625000  0.625000  1
  Pd  Pd21  1  0.625000  0.625000  0.125000  1
  Pd  Pd22  1  0.125000  0.625000  0.625000  1
  Pd  Pd23  1  0.625000  0.125000  0.625000  1
  N  N24  1  0.125000  0.125000  0.625000  1
  N  N25  1  0.125000  0.125000  0.125000  1
  N  N26  1  0.625000  0.125000  0.125000  1
  N  N27  1  0.125000  0.625000  0.125000  1
