# generated using pymatgen
data_Ho3Tm13(In3Ru)2
_symmetry_space_group_name_H-M   'P 1'
_cell_length_a   10.27514100
_cell_length_b   10.27514113
_cell_length_c   7.00400600
_cell_angle_alpha   90.00000000
_cell_angle_beta   90.00000000
_cell_angle_gamma   120.00000279
_symmetry_Int_Tables_number   1
_chemical_formula_structural   Ho3Tm13(In3Ru)2
_chemical_formula_sum   'Ho3 Tm13 In6 Ru2'
_cell_volume   640.40205220
_cell_formula_units_Z   1
loop_
 _symmetry_equiv_pos_site_id
 _symmetry_equiv_pos_as_xyz
  1  'x, y, z'
loop_
 _atom_site_type_symbol
 _atom_site_label
 _atom_site_symmetry_multiplicity
 _atom_site_fract_x
 _atom_site_fract_y
 _atom_site_fract_z
 _atom_site_occupancy
  Ho  Ho0  1  0.532785  0.065572  0.515661  1
  Ho  Ho1  1  0.934428  0.467215  0.515661  1
  Ho  Ho2  1  0.532785  0.467215  0.515661  1
  Tm  Tm3  1  0.466357  0.932713  0.016090  1
  Tm  Tm4  1  0.067287  0.533643  0.016090  1
  Tm  Tm5  1  0.466357  0.533643  0.016090  1
  Tm  Tm6  1  0.177327  0.354653  0.720124  1
  Tm  Tm7  1  0.645347  0.822673  0.720124  1
  Tm  Tm8  1  0.177327  0.822673  0.720124  1
  Tm  Tm9  1  0.822814  0.645629  0.218261  1
  Tm  Tm10  1  0.354371  0.177186  0.218261  1
  Tm  Tm11  1  0.822814  0.177186  0.218261  1
  Tm  Tm12  1  0.666667  0.333333  0.896137  1
  Tm  Tm13  1  0.333333  0.666667  0.395327  1
  Tm  Tm14  1  0.000000  0.000000  0.500309  1
  Tm  Tm15  1  0.000000  0.000000  0.000676  1
  In  In16  1  0.837299  0.674597  0.762707  1
  In  In17  1  0.325403  0.162701  0.762707  1
  In  In18  1  0.837299  0.162701  0.762707  1
  In  In19  1  0.163026  0.326052  0.262241  1
  In  In20  1  0.673948  0.836974  0.262241  1
  In  In21  1  0.163026  0.836974  0.262241  1
  Ru  Ru22  1  0.666667  0.333333  0.289457  1
  Ru  Ru23  1  0.333333  0.666667  0.790851  1
