# generated using pymatgen
data_Lu2MnB6
_symmetry_space_group_name_H-M   'P 1'
_cell_length_a   3.47933700
_cell_length_b   8.97281323
_cell_length_c   11.33634000
_cell_angle_alpha   90.16282374
_cell_angle_beta   90.00000000
_cell_angle_gamma   90.00000000
_symmetry_Int_Tables_number   1
_chemical_formula_structural   Lu2MnB6
_chemical_formula_sum   'Lu8 Mn4 B24'
_cell_volume   353.91276951
_cell_formula_units_Z   4
loop_
 _symmetry_equiv_pos_site_id
 _symmetry_equiv_pos_as_xyz
  1  'x, y, z'
loop_
 _atom_site_type_symbol
 _atom_site_label
 _atom_site_symmetry_multiplicity
 _atom_site_fract_x
 _atom_site_fract_y
 _atom_site_fract_z
 _atom_site_occupancy
  Lu  Lu0  1  0.000000  0.322310  0.413882  1
  Lu  Lu1  1  0.000000  0.677690  0.586118  1
  Lu  Lu2  1  0.000000  0.824939  0.084435  1
  Lu  Lu3  1  0.000000  0.175061  0.915565  1
  Lu  Lu4  1  0.000000  0.942961  0.368797  1
  Lu  Lu5  1  0.000000  0.057039  0.631203  1
  Lu  Lu6  1  0.000000  0.441613  0.130785  1
  Lu  Lu7  1  0.000000  0.558387  0.869215  1
  Mn  Mn8  1  0.000000  0.138395  0.179966  1
  Mn  Mn9  1  0.000000  0.861605  0.820034  1
  Mn  Mn10  1  0.000000  0.638974  0.319957  1
  Mn  Mn11  1  0.000000  0.361026  0.680043  1
  B  B12  1  0.500000  0.553403  0.433104  1
  B  B13  1  0.500000  0.446597  0.566896  1
  B  B14  1  0.500000  0.053404  0.067485  1
  B  B15  1  0.500000  0.946596  0.932515  1
  B  B16  1  0.500000  0.748325  0.419030  1
  B  B17  1  0.500000  0.251675  0.580970  1
  B  B18  1  0.500000  0.247251  0.081998  1
  B  B19  1  0.500000  0.752749  0.918002  1
  B  B20  1  0.500000  0.791601  0.264720  1
  B  B21  1  0.500000  0.208399  0.735280  1
  B  B22  1  0.500000  0.290846  0.235116  1
  B  B23  1  0.500000  0.709154  0.764884  1
  B  B24  1  0.500000  0.630967  0.185220  1
  B  B25  1  0.500000  0.369033  0.814780  1
  B  B26  1  0.500000  0.131197  0.314261  1
  B  B27  1  0.500000  0.868803  0.685739  1
  B  B28  1  0.500000  0.983570  0.211210  1
  B  B29  1  0.500000  0.016430  0.788790  1
  B  B30  1  0.500000  0.482220  0.288649  1
  B  B31  1  0.500000  0.517780  0.711351  1
  B  B32  1  0.500000  0.602107  0.028164  1
  B  B33  1  0.500000  0.397893  0.971836  1
  B  B34  1  0.500000  0.102440  0.471676  1
  B  B35  1  0.500000  0.897560  0.528324  1
