# generated using pymatgen
data_Li7Cd(SiPd3)2
_symmetry_space_group_name_H-M   'P 1'
_cell_length_a   6.97073406
_cell_length_b   6.97073332
_cell_length_c   6.97073271
_cell_angle_alpha   60.42743309
_cell_angle_beta   60.42744029
_cell_angle_gamma   60.42744067
_symmetry_Int_Tables_number   1
_chemical_formula_structural   Li7Cd(SiPd3)2
_chemical_formula_sum   'Li7 Cd1 Si2 Pd6'
_cell_volume   241.82297171
_cell_formula_units_Z   1
loop_
 _symmetry_equiv_pos_site_id
 _symmetry_equiv_pos_as_xyz
  1  'x, y, z'
loop_
 _atom_site_type_symbol
 _atom_site_label
 _atom_site_symmetry_multiplicity
 _atom_site_fract_x
 _atom_site_fract_y
 _atom_site_fract_z
 _atom_site_occupancy
  Li  Li0  1  0.727142  0.727142  0.727142  1
  Li  Li1  1  0.565197  0.833467  0.340257  1
  Li  Li2  1  0.340257  0.565197  0.833467  1
  Li  Li3  1  0.833467  0.340257  0.565197  1
  Li  Li4  1  0.659981  0.157830  0.439292  1
  Li  Li5  1  0.157830  0.439292  0.659981  1
  Li  Li6  1  0.439292  0.659981  0.157830  1
  Cd  Cd7  1  0.281873  0.281873  0.281873  1
  Si  Si8  1  0.896117  0.896117  0.896117  1
  Si  Si9  1  0.100843  0.100843  0.100843  1
  Pd  Pd10  1  0.895410  0.499740  0.102847  1
  Pd  Pd11  1  0.102847  0.895410  0.499740  1
  Pd  Pd12  1  0.499740  0.102847  0.895410  1
  Pd  Pd13  1  0.251438  0.999353  0.749213  1
  Pd  Pd14  1  0.749213  0.251438  0.999353  1
  Pd  Pd15  1  0.999353  0.749213  0.251438  1
