# generated using pymatgen
data_PaPd5Pt3
_symmetry_space_group_name_H-M   'P 1'
_cell_length_a   6.43977462
_cell_length_b   6.43977488
_cell_length_c   6.29544396
_cell_angle_alpha   96.32111013
_cell_angle_beta   95.78592974
_cell_angle_gamma   142.54343983
_symmetry_Int_Tables_number   1
_chemical_formula_structural   PaPd5Pt3
_chemical_formula_sum   'Pa1 Pd5 Pt3'
_cell_volume   149.96594104
_cell_formula_units_Z   1
loop_
 _symmetry_equiv_pos_site_id
 _symmetry_equiv_pos_as_xyz
  1  'x, y, z'
loop_
 _atom_site_type_symbol
 _atom_site_label
 _atom_site_symmetry_multiplicity
 _atom_site_fract_x
 _atom_site_fract_y
 _atom_site_fract_z
 _atom_site_occupancy
  Pa  Pa0  1  0.999054  0.000968  0.000022  1
  Pd  Pd1  1  0.999413  0.333103  0.332516  1
  Pd  Pd2  1  0.668530  0.668828  0.337357  1
  Pd  Pd3  1  0.331574  0.330993  0.662565  1
  Pd  Pd4  1  0.668100  0.001378  0.669478  1
  Pd  Pd5  1  0.000637  0.665949  0.666585  1
  Pt  Pt6  1  0.666113  0.334228  0.000340  1
  Pt  Pt7  1  0.334837  0.665953  0.000789  1
  Pt  Pt8  1  0.331745  0.998603  0.330348  1
