# generated using pymatgen
data_Er2Cd(P3Pd10)2
_symmetry_space_group_name_H-M   'P 1'
_cell_length_a   8.65372912
_cell_length_b   8.65372902
_cell_length_c   8.65372900
_cell_angle_alpha   59.99999627
_cell_angle_beta   59.99999663
_cell_angle_gamma   59.99999960
_symmetry_Int_Tables_number   1
_chemical_formula_structural   Er2Cd(P3Pd10)2
_chemical_formula_sum   'Er2 Cd1 P6 Pd20'
_cell_volume   458.24196319
_cell_formula_units_Z   1
loop_
 _symmetry_equiv_pos_site_id
 _symmetry_equiv_pos_as_xyz
  1  'x, y, z'
loop_
 _atom_site_type_symbol
 _atom_site_label
 _atom_site_symmetry_multiplicity
 _atom_site_fract_x
 _atom_site_fract_y
 _atom_site_fract_z
 _atom_site_occupancy
  Er  Er0  1  0.000000  0.000000  0.000000  1
  Er  Er1  1  0.250000  0.250000  0.250000  1
  Cd  Cd2  1  0.750000  0.750000  0.750000  1
  P  P3  1  0.734483  0.265517  0.265517  1
  P  P4  1  0.734483  0.734483  0.265517  1
  P  P5  1  0.734483  0.265517  0.734483  1
  P  P6  1  0.265517  0.734483  0.265517  1
  P  P7  1  0.265517  0.734483  0.734483  1
  P  P8  1  0.265517  0.265517  0.734483  1
  Pd  Pd9  1  0.342115  0.001886  0.001886  1
  Pd  Pd10  1  0.001886  0.654114  0.342115  1
  Pd  Pd11  1  0.342115  0.001886  0.654114  1
  Pd  Pd12  1  0.001886  0.654114  0.001886  1
  Pd  Pd13  1  0.654114  0.342115  0.001886  1
  Pd  Pd14  1  0.617606  0.617606  0.147182  1
  Pd  Pd15  1  0.384538  0.846387  0.384538  1
  Pd  Pd16  1  0.147182  0.617606  0.617606  1
  Pd  Pd17  1  0.654114  0.001886  0.342115  1
  Pd  Pd18  1  0.001886  0.342115  0.654114  1
  Pd  Pd19  1  0.654114  0.001886  0.001886  1
  Pd  Pd20  1  0.001886  0.001886  0.342115  1
  Pd  Pd21  1  0.617606  0.147182  0.617606  1
  Pd  Pd22  1  0.342115  0.654114  0.001886  1
  Pd  Pd23  1  0.384538  0.384538  0.384538  1
  Pd  Pd24  1  0.617606  0.617606  0.617606  1
  Pd  Pd25  1  0.384538  0.384538  0.846387  1
  Pd  Pd26  1  0.001886  0.001886  0.654114  1
  Pd  Pd27  1  0.846387  0.384538  0.384538  1
  Pd  Pd28  1  0.001886  0.342115  0.001886  1
