# generated using pymatgen
data_Pr2YEr3Ga17Pd5
_symmetry_space_group_name_H-M   'P 1'
_cell_length_a   8.21872972
_cell_length_b   8.21872918
_cell_length_c   15.84245809
_cell_angle_alpha   76.23960073
_cell_angle_beta   76.23960206
_cell_angle_gamma   30.34859387
_symmetry_Int_Tables_number   1
_chemical_formula_structural   Pr2YEr3Ga17Pd5
_chemical_formula_sum   'Pr2 Y1 Er3 Ga17 Pd5'
_cell_volume   524.00989976
_cell_formula_units_Z   1
loop_
 _symmetry_equiv_pos_site_id
 _symmetry_equiv_pos_as_xyz
  1  'x, y, z'
loop_
 _atom_site_type_symbol
 _atom_site_label
 _atom_site_symmetry_multiplicity
 _atom_site_fract_x
 _atom_site_fract_y
 _atom_site_fract_z
 _atom_site_occupancy
  Pr  Pr0  1  0.755726  0.755726  0.750525  1
  Pr  Pr1  1  0.244432  0.244432  0.249657  1
  Y  Y2  1  0.601006  0.601006  0.597266  1
  Er  Er3  1  0.089156  0.089156  0.092401  1
  Er  Er4  1  0.910782  0.910782  0.907744  1
  Er  Er5  1  0.399428  0.399428  0.402935  1
  Ga  Ga6  1  0.822554  0.822554  0.538670  1
  Ga  Ga7  1  0.326991  0.326991  0.042967  1
  Ga  Ga8  1  0.673006  0.673006  0.957034  1
  Ga  Ga9  1  0.177660  0.177660  0.460851  1
  Ga  Ga10  1  0.546745  0.546745  0.826770  1
  Ga  Ga11  1  0.035963  0.035963  0.323225  1
  Ga  Ga12  1  0.963602  0.963602  0.676880  1
  Ga  Ga13  1  0.453248  0.453248  0.173303  1
  Ga  Ga14  1  0.270991  0.270991  0.899122  1
  Ga  Ga15  1  0.760574  0.760574  0.396992  1
  Ga  Ga16  1  0.239837  0.239837  0.603121  1
  Ga  Ga17  1  0.728989  0.728989  0.100893  1
  Ga  Ga18  1  0.403970  0.403970  0.765140  1
  Ga  Ga19  1  0.892236  0.892236  0.267081  1
  Ga  Ga20  1  0.107934  0.107934  0.733410  1
  Ga  Ga21  1  0.595971  0.595971  0.234829  1
  Ga  Ga22  1  0.999898  0.999898  0.499888  1
  Pd  Pd23  1  0.106238  0.106238  0.896771  1
  Pd  Pd24  1  0.591910  0.591910  0.404635  1
  Pd  Pd25  1  0.407399  0.407399  0.594563  1
  Pd  Pd26  1  0.893772  0.893772  0.103329  1
  Pd  Pd27  1  0.499982  0.499982  0.999998  1
