# generated using pymatgen
data_Tm12Zn11HgC4
_symmetry_space_group_name_H-M   'P 1'
_cell_length_a   9.06735991
_cell_length_b   9.06736035
_cell_length_c   9.06814702
_cell_angle_alpha   60.00286968
_cell_angle_beta   60.00286822
_cell_angle_gamma   60.00000350
_symmetry_Int_Tables_number   1
_chemical_formula_structural   Tm12Zn11HgC4
_chemical_formula_sum   'Tm12 Zn11 Hg1 C4'
_cell_volume   527.21059299
_cell_formula_units_Z   1
loop_
 _symmetry_equiv_pos_site_id
 _symmetry_equiv_pos_as_xyz
  1  'x, y, z'
loop_
 _atom_site_type_symbol
 _atom_site_label
 _atom_site_symmetry_multiplicity
 _atom_site_fract_x
 _atom_site_fract_y
 _atom_site_fract_z
 _atom_site_occupancy
  Tm  Tm0  1  0.445831  0.445831  0.054390  1
  Tm  Tm1  1  0.053948  0.445831  0.054390  1
  Tm  Tm2  1  0.445831  0.053948  0.054390  1
  Tm  Tm3  1  0.054422  0.054422  0.445796  1
  Tm  Tm4  1  0.445360  0.054422  0.445796  1
  Tm  Tm5  1  0.054422  0.445360  0.445796  1
  Tm  Tm6  1  0.803560  0.803560  0.193945  1
  Tm  Tm7  1  0.198936  0.803560  0.193945  1
  Tm  Tm8  1  0.803560  0.198936  0.193945  1
  Tm  Tm9  1  0.196566  0.196566  0.803427  1
  Tm  Tm10  1  0.803441  0.196566  0.803427  1
  Tm  Tm11  1  0.196566  0.803441  0.803427  1
  Zn  Zn12  1  0.826843  0.515522  0.830794  1
  Zn  Zn13  1  0.515522  0.826843  0.830794  1
  Zn  Zn14  1  0.826843  0.826843  0.830794  1
  Zn  Zn15  1  0.422571  0.422571  0.732287  1
  Zn  Zn16  1  0.423047  0.732415  0.421489  1
  Zn  Zn17  1  0.732415  0.423047  0.421489  1
  Zn  Zn18  1  0.423047  0.423047  0.421489  1
  Zn  Zn19  1  0.624719  0.624719  0.125843  1
  Zn  Zn20  1  0.619690  0.130500  0.630121  1
  Zn  Zn21  1  0.130500  0.619690  0.630121  1
  Zn  Zn22  1  0.619690  0.619690  0.630121  1
  Hg  Hg23  1  0.831900  0.831900  0.504300  1
  C  C24  1  0.124944  0.124944  0.625167  1
  C  C25  1  0.125517  0.624795  0.124172  1
  C  C26  1  0.624795  0.125517  0.124172  1
  C  C27  1  0.125517  0.125517  0.124172  1
