# generated using pymatgen
data_NdNiB4Os3
_symmetry_space_group_name_H-M   'P 1'
_cell_length_a   7.62065634
_cell_length_b   7.38109266
_cell_length_c   3.98339900
_cell_angle_alpha   90.00000000
_cell_angle_beta   90.00000000
_cell_angle_gamma   88.02035607
_symmetry_Int_Tables_number   1
_chemical_formula_structural   NdNiB4Os3
_chemical_formula_sum   'Nd2 Ni2 B8 Os6'
_cell_volume   223.92756847
_cell_formula_units_Z   2
loop_
 _symmetry_equiv_pos_site_id
 _symmetry_equiv_pos_as_xyz
  1  'x, y, z'
loop_
 _atom_site_type_symbol
 _atom_site_label
 _atom_site_symmetry_multiplicity
 _atom_site_fract_x
 _atom_site_fract_y
 _atom_site_fract_z
 _atom_site_occupancy
  Nd  Nd0  1  0.500000  0.500000  0.984185  1
  Nd  Nd1  1  0.000000  0.000000  0.418836  1
  Ni  Ni2  1  0.359152  0.114763  0.116795  1
  Ni  Ni3  1  0.640848  0.885237  0.116795  1
  B  B4  1  0.655901  0.803982  0.614811  1
  B  B5  1  0.172716  0.281551  0.893897  1
  B  B6  1  0.293561  0.830121  0.115260  1
  B  B7  1  0.706439  0.169879  0.115260  1
  B  B8  1  0.344099  0.196018  0.614811  1
  B  B9  1  0.827284  0.718449  0.893897  1
  B  B10  1  0.221795  0.663956  0.397204  1
  B  B11  1  0.778205  0.336044  0.397204  1
  Os  Os12  1  0.617045  0.131734  0.621403  1
  Os  Os13  1  0.102665  0.650348  0.895061  1
  Os  Os14  1  0.153025  0.387132  0.394058  1
  Os  Os15  1  0.846975  0.612868  0.394058  1
  Os  Os16  1  0.897335  0.349652  0.895061  1
  Os  Os17  1  0.382955  0.868266  0.621403  1
