# generated using pymatgen
data_LaTb2TaO7
_symmetry_space_group_name_H-M   'P 1'
_cell_length_a   6.56397515
_cell_length_b   6.56397612
_cell_length_c   7.65261700
_cell_angle_alpha   90.00000000
_cell_angle_beta   90.00000000
_cell_angle_gamma   109.94041984
_symmetry_Int_Tables_number   1
_chemical_formula_structural   LaTb2TaO7
_chemical_formula_sum   'La2 Tb4 Ta2 O14'
_cell_volume   309.95155695
_cell_formula_units_Z   2
loop_
 _symmetry_equiv_pos_site_id
 _symmetry_equiv_pos_as_xyz
  1  'x, y, z'
loop_
 _atom_site_type_symbol
 _atom_site_label
 _atom_site_symmetry_multiplicity
 _atom_site_fract_x
 _atom_site_fract_y
 _atom_site_fract_z
 _atom_site_occupancy
  La  La0  1  0.000000  0.000000  0.000000  1
  La  La1  1  0.000000  0.000000  0.500000  1
  Tb  Tb2  1  0.515760  0.055016  0.250000  1
  Tb  Tb3  1  0.944984  0.484240  0.750000  1
  Tb  Tb4  1  0.055016  0.515760  0.250000  1
  Tb  Tb5  1  0.484240  0.944984  0.750000  1
  Ta  Ta6  1  0.500000  0.500000  0.000000  1
  Ta  Ta7  1  0.500000  0.500000  0.500000  1
  O  O8  1  0.880954  0.159650  0.250000  1
  O  O9  1  0.840350  0.119046  0.750000  1
  O  O10  1  0.817642  0.558204  0.033929  1
  O  O11  1  0.817642  0.558204  0.466071  1
  O  O12  1  0.441796  0.182358  0.966071  1
  O  O13  1  0.441796  0.182358  0.533929  1
  O  O14  1  0.573512  0.573512  0.750000  1
  O  O15  1  0.426488  0.426488  0.250000  1
  O  O16  1  0.558204  0.817642  0.033929  1
  O  O17  1  0.182358  0.441796  0.533929  1
  O  O18  1  0.558204  0.817642  0.466071  1
  O  O19  1  0.182358  0.441796  0.966071  1
  O  O20  1  0.119046  0.840350  0.750000  1
  O  O21  1  0.159650  0.880954  0.250000  1
