# generated using pymatgen
data_TbPuReB6
_symmetry_space_group_name_H-M   'P 1'
_cell_length_a   3.63126900
_cell_length_b   9.28098600
_cell_length_c   11.33914900
_cell_angle_alpha   90.00000000
_cell_angle_beta   90.00000000
_cell_angle_gamma   90.00000000
_symmetry_Int_Tables_number   1
_chemical_formula_structural   TbPuReB6
_chemical_formula_sum   'Tb4 Pu4 Re4 B24'
_cell_volume   382.14924136
_cell_formula_units_Z   4
loop_
 _symmetry_equiv_pos_site_id
 _symmetry_equiv_pos_as_xyz
  1  'x, y, z'
loop_
 _atom_site_type_symbol
 _atom_site_label
 _atom_site_symmetry_multiplicity
 _atom_site_fract_x
 _atom_site_fract_y
 _atom_site_fract_z
 _atom_site_occupancy
  Tb  Tb0  1  0.000000  0.338009  0.406658  1
  Tb  Tb1  1  0.000000  0.661991  0.593342  1
  Tb  Tb2  1  0.000000  0.838009  0.093342  1
  Tb  Tb3  1  0.000000  0.161991  0.906658  1
  Pu  Pu4  1  0.000000  0.959613  0.401590  1
  Pu  Pu5  1  0.000000  0.040387  0.598410  1
  Pu  Pu6  1  0.000000  0.459613  0.098410  1
  Pu  Pu7  1  0.000000  0.540387  0.901590  1
  Re  Re8  1  0.000000  0.646451  0.318174  1
  Re  Re9  1  0.000000  0.353549  0.681826  1
  Re  Re10  1  0.000000  0.146451  0.181826  1
  Re  Re11  1  0.000000  0.853549  0.818174  1
  B  B12  1  0.500000  0.552994  0.430885  1
  B  B13  1  0.500000  0.447006  0.569115  1
  B  B14  1  0.500000  0.052994  0.069115  1
  B  B15  1  0.500000  0.947006  0.930885  1
  B  B16  1  0.500000  0.745301  0.422667  1
  B  B17  1  0.500000  0.254699  0.577333  1
  B  B18  1  0.500000  0.245301  0.077333  1
  B  B19  1  0.500000  0.754699  0.922667  1
  B  B20  1  0.500000  0.804558  0.274224  1
  B  B21  1  0.500000  0.195442  0.725776  1
  B  B22  1  0.500000  0.304558  0.225776  1
  B  B23  1  0.500000  0.695442  0.774224  1
  B  B24  1  0.500000  0.643524  0.187618  1
  B  B25  1  0.500000  0.356476  0.812382  1
  B  B26  1  0.500000  0.143524  0.312382  1
  B  B27  1  0.500000  0.856476  0.687618  1
  B  B28  1  0.500000  0.988142  0.220735  1
  B  B29  1  0.500000  0.011858  0.779265  1
  B  B30  1  0.500000  0.488142  0.279265  1
  B  B31  1  0.500000  0.511858  0.720735  1
  B  B32  1  0.500000  0.638893  0.038253  1
  B  B33  1  0.500000  0.361107  0.961747  1
  B  B34  1  0.500000  0.138893  0.461747  1
  B  B35  1  0.500000  0.861107  0.538253  1
