# generated using pymatgen
data_HoTm7Sc12GaSi15
_symmetry_space_group_name_H-M   'P 1'
_cell_length_a   7.05699636
_cell_length_b   7.35291487
_cell_length_c   13.93960350
_cell_angle_alpha   89.97394440
_cell_angle_beta   89.98632836
_cell_angle_gamma   90.00506131
_symmetry_Int_Tables_number   1
_chemical_formula_structural   HoTm7Sc12GaSi15
_chemical_formula_sum   'Ho1 Tm7 Sc12 Ga1 Si15'
_cell_volume   723.31886650
_cell_formula_units_Z   1
loop_
 _symmetry_equiv_pos_site_id
 _symmetry_equiv_pos_as_xyz
  1  'x, y, z'
loop_
 _atom_site_type_symbol
 _atom_site_label
 _atom_site_symmetry_multiplicity
 _atom_site_fract_x
 _atom_site_fract_y
 _atom_site_fract_z
 _atom_site_occupancy
  Ho  Ho0  1  0.012000  0.176097  0.096595  1
  Tm  Tm1  1  0.987852  0.823868  0.903600  1
  Tm  Tm2  1  0.487749  0.677160  0.903552  1
  Tm  Tm3  1  0.987404  0.825770  0.597269  1
  Tm  Tm4  1  0.512132  0.323163  0.096605  1
  Tm  Tm5  1  0.011095  0.174790  0.401948  1
  Tm  Tm6  1  0.512818  0.322769  0.401971  1
  Tm  Tm7  1  0.489839  0.678901  0.597280  1
  Sc  Sc8  1  0.161251  0.503754  0.751534  1
  Sc  Sc9  1  0.838633  0.496543  0.250009  1
  Sc  Sc10  1  0.338862  0.003765  0.249752  1
  Sc  Sc11  1  0.661609  0.995356  0.750141  1
  Sc  Sc12  1  0.332473  0.174006  0.626029  1
  Sc  Sc13  1  0.668486  0.824070  0.374445  1
  Sc  Sc14  1  0.169894  0.677737  0.373625  1
  Sc  Sc15  1  0.669425  0.823438  0.125263  1
  Sc  Sc16  1  0.828521  0.323042  0.625476  1
  Sc  Sc17  1  0.330341  0.176018  0.874961  1
  Sc  Sc18  1  0.830595  0.322942  0.874954  1
  Sc  Sc19  1  0.169095  0.676958  0.125313  1
  Ga  Ga20  1  0.161104  0.463168  0.539281  1
  Si  Si21  1  0.033196  0.115616  0.750555  1
  Si  Si22  1  0.966956  0.885246  0.249818  1
  Si  Si23  1  0.467918  0.614028  0.249997  1
  Si  Si24  1  0.531739  0.386459  0.749764  1
  Si  Si25  1  0.284449  0.870845  0.750327  1
  Si  Si26  1  0.714657  0.129217  0.249740  1
  Si  Si27  1  0.214877  0.370755  0.249562  1
  Si  Si28  1  0.785392  0.629130  0.750713  1
  Si  Si29  1  0.840205  0.535182  0.460307  1
  Si  Si30  1  0.340528  0.965050  0.460285  1
  Si  Si31  1  0.840645  0.535158  0.038622  1
  Si  Si32  1  0.658806  0.034974  0.539111  1
  Si  Si33  1  0.159276  0.465088  0.961505  1
  Si  Si34  1  0.658646  0.034759  0.960628  1
  Si  Si35  1  0.341528  0.965178  0.039462  1
