# generated using pymatgen
data_SrTb2Tm(Al8Pt3)3
_symmetry_space_group_name_H-M   'P 1'
_cell_length_a   7.54233554
_cell_length_b   7.56417520
_cell_length_c   13.23465504
_cell_angle_alpha   84.60170053
_cell_angle_beta   79.11587676
_cell_angle_gamma   59.94430445
_symmetry_Int_Tables_number   1
_chemical_formula_structural   SrTb2Tm(Al8Pt3)3
_chemical_formula_sum   'Sr1 Tb2 Tm1 Al24 Pt9'
_cell_volume   641.77528510
_cell_formula_units_Z   1
loop_
 _symmetry_equiv_pos_site_id
 _symmetry_equiv_pos_as_xyz
  1  'x, y, z'
loop_
 _atom_site_type_symbol
 _atom_site_label
 _atom_site_symmetry_multiplicity
 _atom_site_fract_x
 _atom_site_fract_y
 _atom_site_fract_z
 _atom_site_occupancy
  Sr  Sr0  1  0.393084  0.167821  0.809956  1
  Tb  Tb1  1  0.604875  0.832291  0.193004  1
  Tb  Tb2  1  0.733455  0.498672  0.807742  1
  Tm  Tm3  1  0.266339  0.500952  0.193646  1
  Al  Al4  1  0.685977  0.831812  0.948279  1
  Al  Al5  1  0.315014  0.166871  0.058839  1
  Al  Al6  1  0.147198  0.832385  0.559360  1
  Al  Al7  1  0.853987  0.167873  0.436928  1
  Al  Al8  1  0.480671  0.166589  0.557041  1
  Al  Al9  1  0.520415  0.833431  0.439973  1
  Al  Al10  1  0.217713  0.165985  0.327751  1
  Al  Al11  1  0.784193  0.835015  0.666635  1
  Al  Al12  1  0.437913  0.506514  0.666174  1
  Al  Al13  1  0.563338  0.492834  0.328127  1
  Al  Al14  1  0.111109  0.159699  0.664949  1
  Al  Al15  1  0.891365  0.839825  0.329514  1
  Al  Al16  1  0.350449  0.501949  0.948701  1
  Al  Al17  1  0.644900  0.501578  0.058008  1
  Al  Al18  1  0.012063  0.167141  0.959049  1
  Al  Al19  1  0.983642  0.830888  0.050277  1
  Al  Al20  1  0.186988  0.499261  0.439825  1
  Al  Al21  1  0.813914  0.500467  0.557132  1
  Al  Al22  1  0.733556  0.165278  0.183908  1
  Al  Al23  1  0.268802  0.825686  0.816484  1
  Al  Al24  1  0.052513  0.637433  0.815669  1
  Al  Al25  1  0.938366  0.369768  0.185031  1
  Al  Al26  1  0.862409  0.044007  0.816467  1
  Al  Al27  1  0.144654  0.957746  0.184369  1
  Pt  Pt28  1  0.119116  0.494633  0.636097  1
  Pt  Pt29  1  0.880907  0.508214  0.360628  1
  Pt  Pt30  1  0.656999  0.171222  0.002139  1
  Pt  Pt31  1  0.341275  0.828553  0.002439  1
  Pt  Pt32  1  0.537670  0.167182  0.360715  1
  Pt  Pt33  1  0.462199  0.831405  0.636011  1
  Pt  Pt34  1  0.781860  0.174054  0.634847  1
  Pt  Pt35  1  0.221708  0.824293  0.361636  1
  Pt  Pt36  1  0.999364  0.500671  0.002648  1
