# generated using pymatgen
data_Sr11Pr8ErSn16
_symmetry_space_group_name_H-M   'P 1'
_cell_length_a   8.21583900
_cell_length_b   8.74927705
_cell_length_c   16.67496100
_cell_angle_alpha   90.00000000
_cell_angle_beta   90.00000000
_cell_angle_gamma   89.90102395
_symmetry_Int_Tables_number   1
_chemical_formula_structural   Sr11Pr8ErSn16
_chemical_formula_sum   'Sr11 Pr8 Er1 Sn16'
_cell_volume   1198.63862433
_cell_formula_units_Z   1
loop_
 _symmetry_equiv_pos_site_id
 _symmetry_equiv_pos_as_xyz
  1  'x, y, z'
loop_
 _atom_site_type_symbol
 _atom_site_label
 _atom_site_symmetry_multiplicity
 _atom_site_fract_x
 _atom_site_fract_y
 _atom_site_fract_z
 _atom_site_occupancy
  Sr  Sr0  1  0.508027  0.681937  0.591952  1
  Sr  Sr1  1  0.009426  0.817793  0.907732  1
  Sr  Sr2  1  0.492529  0.317416  0.093719  1
  Sr  Sr3  1  0.990190  0.181252  0.404982  1
  Sr  Sr4  1  0.492529  0.317416  0.406281  1
  Sr  Sr5  1  0.990190  0.181252  0.095018  1
  Sr  Sr6  1  0.508027  0.681937  0.908048  1
  Sr  Sr7  1  0.009426  0.817793  0.592268  1
  Sr  Sr8  1  0.837091  0.516035  0.750000  1
  Sr  Sr9  1  0.337239  0.984152  0.750000  1
  Sr  Sr10  1  0.162593  0.484669  0.250000  1
  Pr  Pr11  1  0.675788  0.169428  0.620523  1
  Pr  Pr12  1  0.176200  0.329969  0.878921  1
  Pr  Pr13  1  0.324053  0.830950  0.122458  1
  Pr  Pr14  1  0.823193  0.668148  0.377873  1
  Pr  Pr15  1  0.324053  0.830950  0.377542  1
  Pr  Pr16  1  0.823193  0.668148  0.122127  1
  Pr  Pr17  1  0.675788  0.169428  0.879477  1
  Pr  Pr18  1  0.176200  0.329969  0.621079  1
  Er  Er19  1  0.658978  0.010724  0.250000  1
  Sn  Sn20  1  0.661355  0.963159  0.456069  1
  Sn  Sn21  1  0.161349  0.540628  0.039577  1
  Sn  Sn22  1  0.338840  0.039989  0.961867  1
  Sn  Sn23  1  0.838968  0.459874  0.538248  1
  Sn  Sn24  1  0.338840  0.039989  0.538133  1
  Sn  Sn25  1  0.838968  0.459874  0.961752  1
  Sn  Sn26  1  0.661355  0.963159  0.043931  1
  Sn  Sn27  1  0.161349  0.540628  0.460423  1
  Sn  Sn28  1  0.470442  0.370990  0.750000  1
  Sn  Sn29  1  0.969403  0.129369  0.750000  1
  Sn  Sn30  1  0.532247  0.635390  0.250000  1
  Sn  Sn31  1  0.020230  0.883148  0.250000  1
  Sn  Sn32  1  0.726786  0.884731  0.750000  1
  Sn  Sn33  1  0.226580  0.615339  0.750000  1
  Sn  Sn34  1  0.289254  0.116267  0.250000  1
  Sn  Sn35  1  0.769326  0.368103  0.250000  1
