# generated using pymatgen
data_Dy2Ga3Si(IrPt)2
_symmetry_space_group_name_H-M   'P 1'
_cell_length_a   4.15860500
_cell_length_b   4.15860500
_cell_length_c   10.48721100
_cell_angle_alpha   90.00000000
_cell_angle_beta   90.00000000
_cell_angle_gamma   90.00000000
_symmetry_Int_Tables_number   1
_chemical_formula_structural   Dy2Ga3Si(IrPt)2
_chemical_formula_sum   'Dy2 Ga3 Si1 Ir2 Pt2'
_cell_volume   181.36578032
_cell_formula_units_Z   1
loop_
 _symmetry_equiv_pos_site_id
 _symmetry_equiv_pos_as_xyz
  1  'x, y, z'
loop_
 _atom_site_type_symbol
 _atom_site_label
 _atom_site_symmetry_multiplicity
 _atom_site_fract_x
 _atom_site_fract_y
 _atom_site_fract_z
 _atom_site_occupancy
  Dy  Dy0  1  0.000000  0.500000  0.237995  1
  Dy  Dy1  1  0.500000  0.000000  0.760400  1
  Ga  Ga2  1  0.000000  0.500000  0.875286  1
  Ga  Ga3  1  0.000000  0.000000  0.496609  1
  Ga  Ga4  1  0.500000  0.500000  0.496609  1
  Si  Si5  1  0.500000  0.000000  0.122440  1
  Ir  Ir6  1  0.000000  0.000000  0.010573  1
  Ir  Ir7  1  0.500000  0.500000  0.010573  1
  Pt  Pt8  1  0.000000  0.500000  0.640130  1
  Pt  Pt9  1  0.500000  0.000000  0.349387  1
