# generated using pymatgen
data_NaPr(BIr)4
_symmetry_space_group_name_H-M   'P 1'
_cell_length_a   7.10119021
_cell_length_b   6.14687110
_cell_length_c   5.53314567
_cell_angle_alpha   74.67959121
_cell_angle_beta   56.60026340
_cell_angle_gamma   48.72013586
_symmetry_Int_Tables_number   1
_chemical_formula_structural   NaPr(BIr)4
_chemical_formula_sum   'Na1 Pr1 B4 Ir4'
_cell_volume   149.63130532
_cell_formula_units_Z   1
loop_
 _symmetry_equiv_pos_site_id
 _symmetry_equiv_pos_as_xyz
  1  'x, y, z'
loop_
 _atom_site_type_symbol
 _atom_site_label
 _atom_site_symmetry_multiplicity
 _atom_site_fract_x
 _atom_site_fract_y
 _atom_site_fract_z
 _atom_site_occupancy
  Na  Na0  1  0.500000  0.500000  0.500000  1
  Pr  Pr1  1  0.750000  0.750000  0.750000  1
  B  B2  1  0.178989  0.821011  0.178989  1
  B  B3  1  0.074651  0.425349  0.074651  1
  B  B4  1  0.821011  0.178989  0.821011  1
  B  B5  1  0.425349  0.074651  0.425349  1
  Ir  Ir6  1  0.871045  0.871045  0.128955  1
  Ir  Ir7  1  0.128955  0.128955  0.871045  1
  Ir  Ir8  1  0.382137  0.382137  0.117863  1
  Ir  Ir9  1  0.117863  0.117863  0.382137  1
