# generated using pymatgen
data_Lu3Al12Ru3Pt
_symmetry_space_group_name_H-M   'P 1'
_cell_length_a   8.77874088
_cell_length_b   8.77874062
_cell_length_c   9.51687070
_cell_angle_alpha   90.12763116
_cell_angle_beta   89.87236876
_cell_angle_gamma   120.13984401
_symmetry_Int_Tables_number   1
_chemical_formula_structural   Lu3Al12Ru3Pt
_chemical_formula_sum   'Lu6 Al24 Ru6 Pt2'
_cell_volume   634.26989231
_cell_formula_units_Z   2
loop_
 _symmetry_equiv_pos_site_id
 _symmetry_equiv_pos_as_xyz
  1  'x, y, z'
loop_
 _atom_site_type_symbol
 _atom_site_label
 _atom_site_symmetry_multiplicity
 _atom_site_fract_x
 _atom_site_fract_y
 _atom_site_fract_z
 _atom_site_occupancy
  Lu  Lu0  1  0.197557  0.390817  0.252186  1
  Lu  Lu1  1  0.802443  0.609183  0.747814  1
  Lu  Lu2  1  0.609183  0.802443  0.252186  1
  Lu  Lu3  1  0.390817  0.197557  0.747814  1
  Lu  Lu4  1  0.194458  0.805542  0.251081  1
  Lu  Lu5  1  0.805542  0.194458  0.748919  1
  Al  Al6  1  0.335986  0.664014  0.027869  1
  Al  Al7  1  0.664014  0.335986  0.972131  1
  Al  Al8  1  0.666807  0.333193  0.523243  1
  Al  Al9  1  0.333193  0.666807  0.476757  1
  Al  Al10  1  0.162449  0.325784  0.577996  1
  Al  Al11  1  0.837551  0.674216  0.422004  1
  Al  Al12  1  0.674216  0.837551  0.577996  1
  Al  Al13  1  0.832929  0.675206  0.079649  1
  Al  Al14  1  0.325784  0.162449  0.422004  1
  Al  Al15  1  0.167071  0.324794  0.920351  1
  Al  Al16  1  0.162307  0.837693  0.578254  1
  Al  Al17  1  0.324794  0.167071  0.079649  1
  Al  Al18  1  0.837693  0.162307  0.421746  1
  Al  Al19  1  0.675206  0.832929  0.920351  1
  Al  Al20  1  0.838507  0.161493  0.080411  1
  Al  Al21  1  0.161493  0.838507  0.919589  1
  Al  Al22  1  0.562292  0.124742  0.252099  1
  Al  Al23  1  0.437708  0.875258  0.747901  1
  Al  Al24  1  0.875258  0.437708  0.252099  1
  Al  Al25  1  0.124742  0.562292  0.747901  1
  Al  Al26  1  0.561270  0.438730  0.248635  1
  Al  Al27  1  0.438730  0.561270  0.751365  1
  Al  Al28  1  0.000537  0.999463  0.250141  1
  Al  Al29  1  0.999463  0.000537  0.749859  1
  Ru  Ru30  1  0.500000  0.000000  0.500000  1
  Ru  Ru31  1  0.500000  0.500000  0.000000  1
  Ru  Ru32  1  0.000000  0.500000  0.500000  1
  Ru  Ru33  1  0.500000  0.500000  0.500000  1
  Ru  Ru34  1  0.000000  0.000000  0.000000  1
  Ru  Ru35  1  0.000000  0.000000  0.500000  1
  Pt  Pt36  1  0.500000  0.000000  0.000000  1
  Pt  Pt37  1  0.000000  0.500000  0.000000  1
