# generated using pymatgen
data_Yb8Ga(CuPd2)8
_symmetry_space_group_name_H-M   'P 1'
_cell_length_a   8.22928785
_cell_length_b   8.12993469
_cell_length_c   8.16560137
_cell_angle_alpha   90.00912898
_cell_angle_beta   89.96819593
_cell_angle_gamma   90.10766321
_symmetry_Int_Tables_number   1
_chemical_formula_structural   Yb8Ga(CuPd2)8
_chemical_formula_sum   'Yb8 Ga1 Cu8 Pd16'
_cell_volume   546.30684951
_cell_formula_units_Z   1
loop_
 _symmetry_equiv_pos_site_id
 _symmetry_equiv_pos_as_xyz
  1  'x, y, z'
loop_
 _atom_site_type_symbol
 _atom_site_label
 _atom_site_symmetry_multiplicity
 _atom_site_fract_x
 _atom_site_fract_y
 _atom_site_fract_z
 _atom_site_occupancy
  Yb  Yb0  1  0.251760  0.253125  0.749237  1
  Yb  Yb1  1  0.249076  0.751012  0.252876  1
  Yb  Yb2  1  0.745589  0.246342  0.248750  1
  Yb  Yb3  1  0.752648  0.748382  0.748967  1
  Yb  Yb4  1  0.749897  0.753585  0.251971  1
  Yb  Yb5  1  0.748508  0.251565  0.752253  1
  Yb  Yb6  1  0.247809  0.746538  0.746624  1
  Yb  Yb7  1  0.253220  0.248633  0.250364  1
  Ga  Ga8  1  0.995182  0.998052  0.002412  1
  Cu  Cu9  1  0.998700  0.495842  0.730994  1
  Cu  Cu10  1  0.495792  0.266763  0.000394  1
  Cu  Cu11  1  0.272114  0.999352  0.503678  1
  Cu  Cu12  1  0.997596  0.274254  0.500386  1
  Cu  Cu13  1  0.496048  0.999028  0.725473  1
  Cu  Cu14  1  0.276508  0.500080  0.001354  1
  Cu  Cu15  1  0.998356  0.495652  0.269511  1
  Cu  Cu16  1  0.495847  0.732650  0.000552  1
  Pd  Pd17  1  0.494642  0.500061  0.755600  1
  Pd  Pd18  1  0.494961  0.250949  0.504866  1
  Pd  Pd19  1  0.244167  0.493866  0.499529  1
  Pd  Pd20  1  0.494032  0.500071  0.247755  1
  Pd  Pd21  1  0.495423  0.746701  0.505080  1
  Pd  Pd22  1  0.750911  0.494115  0.499719  1
  Pd  Pd23  1  0.013080  0.012026  0.697311  1
  Pd  Pd24  1  0.012004  0.309302  0.000588  1
  Pd  Pd25  1  0.302984  0.998997  0.985902  1
  Pd  Pd26  1  0.010762  0.012716  0.308094  1
  Pd  Pd27  1  0.012923  0.686811  0.000480  1
  Pd  Pd28  1  0.686699  0.999227  0.987247  1
  Pd  Pd29  1  0.000068  0.733122  0.500126  1
  Pd  Pd30  1  0.493476  0.998235  0.262652  1
  Pd  Pd31  1  0.736687  0.002428  0.506935  1
  Pd  Pd32  1  0.732528  0.500518  0.002320  1
