# generated using pymatgen
data_Ta6Al3AuN2
_symmetry_space_group_name_H-M   'P 1'
_cell_length_a   7.05778290
_cell_length_b   7.06429088
_cell_length_c   7.07679400
_cell_angle_alpha   90.00000000
_cell_angle_beta   90.00000000
_cell_angle_gamma   90.29180080
_symmetry_Int_Tables_number   1
_chemical_formula_structural   Ta6Al3AuN2
_chemical_formula_sum   'Ta12 Al6 Au2 N4'
_cell_volume   352.83185712
_cell_formula_units_Z   2
loop_
 _symmetry_equiv_pos_site_id
 _symmetry_equiv_pos_as_xyz
  1  'x, y, z'
loop_
 _atom_site_type_symbol
 _atom_site_label
 _atom_site_symmetry_multiplicity
 _atom_site_fract_x
 _atom_site_fract_y
 _atom_site_fract_z
 _atom_site_occupancy
  Ta  Ta0  1  0.787554  0.956941  0.376906  1
  Ta  Ta1  1  0.712446  0.043059  0.876906  1
  Ta  Ta2  1  0.202702  0.452123  0.127190  1
  Ta  Ta3  1  0.297298  0.547877  0.627190  1
  Ta  Ta4  1  0.952867  0.382562  0.790559  1
  Ta  Ta5  1  0.040235  0.865739  0.708683  1
  Ta  Ta6  1  0.459765  0.134261  0.208683  1
  Ta  Ta7  1  0.547133  0.617438  0.290559  1
  Ta  Ta8  1  0.381764  0.787564  0.952751  1
  Ta  Ta9  1  0.871284  0.706020  0.042253  1
  Ta  Ta10  1  0.118236  0.212436  0.452751  1
  Ta  Ta11  1  0.628716  0.293980  0.542253  1
  Al  Al12  1  0.823040  0.321240  0.176317  1
  Al  Al13  1  0.676960  0.678760  0.676317  1
  Al  Al14  1  0.567940  0.425678  0.928500  1
  Al  Al15  1  0.425290  0.931401  0.570617  1
  Al  Al16  1  0.932060  0.574322  0.428500  1
  Al  Al17  1  0.074710  0.068599  0.070617  1
  Au  Au18  1  0.183488  0.821430  0.316416  1
  Au  Au19  1  0.316512  0.178570  0.816416  1
  N  N20  1  0.879544  0.123067  0.629032  1
  N  N21  1  0.620456  0.876933  0.129032  1
  N  N22  1  0.128544  0.623285  0.880775  1
  N  N23  1  0.371456  0.376715  0.380775  1
