# generated using pymatgen
data_La13NdOsPd5
_symmetry_space_group_name_H-M   'P 1'
_cell_length_a   10.35301378
_cell_length_b   10.35301404
_cell_length_c   6.58589824
_cell_angle_alpha   89.63687033
_cell_angle_beta   90.36313127
_cell_angle_gamma   120.11060571
_symmetry_Int_Tables_number   1
_chemical_formula_structural   La13NdOsPd5
_chemical_formula_sum   'La13 Nd1 Os1 Pd5'
_cell_volume   610.63614694
_cell_formula_units_Z   1
loop_
 _symmetry_equiv_pos_site_id
 _symmetry_equiv_pos_as_xyz
  1  'x, y, z'
loop_
 _atom_site_type_symbol
 _atom_site_label
 _atom_site_symmetry_multiplicity
 _atom_site_fract_x
 _atom_site_fract_y
 _atom_site_fract_z
 _atom_site_occupancy
  La  La0  1  0.670265  0.329735  0.964604  1
  La  La1  1  0.127290  0.872710  0.242464  1
  La  La2  1  0.751411  0.885522  0.241404  1
  La  La3  1  0.114478  0.248589  0.241404  1
  La  La4  1  0.872330  0.127670  0.752844  1
  La  La5  1  0.253178  0.126073  0.743444  1
  La  La6  1  0.873927  0.746822  0.743444  1
  La  La7  1  0.536916  0.463084  0.445630  1
  La  La8  1  0.919786  0.454142  0.437033  1
  La  La9  1  0.545858  0.080214  0.437033  1
  La  La10  1  0.463189  0.536811  0.945784  1
  La  La11  1  0.076114  0.535440  0.943508  1
  La  La12  1  0.464560  0.923886  0.943508  1
  Nd  Nd13  1  0.333898  0.666102  0.453423  1
  Os  Os14  1  0.811082  0.188918  0.188476  1
  Pd  Pd15  1  0.373762  0.188881  0.192042  1
  Pd  Pd16  1  0.811119  0.626238  0.192042  1
  Pd  Pd17  1  0.188381  0.811619  0.692846  1
  Pd  Pd18  1  0.622341  0.809884  0.692429  1
  Pd  Pd19  1  0.190116  0.377659  0.692429  1
