# generated using pymatgen
data_La3Bi(As4O9)2
_symmetry_space_group_name_H-M   'P 1'
_cell_length_a   7.08661704
_cell_length_b   7.84606883
_cell_length_c   10.00501033
_cell_angle_alpha   95.84955422
_cell_angle_beta   104.23284824
_cell_angle_gamma   104.17920156
_symmetry_Int_Tables_number   1
_chemical_formula_structural   La3Bi(As4O9)2
_chemical_formula_sum   'La3 Bi1 As8 O18'
_cell_volume   514.95576808
_cell_formula_units_Z   1
loop_
 _symmetry_equiv_pos_site_id
 _symmetry_equiv_pos_as_xyz
  1  'x, y, z'
loop_
 _atom_site_type_symbol
 _atom_site_label
 _atom_site_symmetry_multiplicity
 _atom_site_fract_x
 _atom_site_fract_y
 _atom_site_fract_z
 _atom_site_occupancy
  La  La0  1  0.781698  0.455898  0.094954  1
  La  La1  1  0.252959  0.057070  0.881441  1
  La  La2  1  0.215544  0.531617  0.901856  1
  Bi  Bi3  1  0.742407  0.918906  0.122796  1
  As  As4  1  0.828669  0.227309  0.438899  1
  As  As5  1  0.319880  0.241426  0.583792  1
  As  As6  1  0.684599  0.765267  0.417052  1
  As  As7  1  0.175685  0.778804  0.564392  1
  As  As8  1  0.696163  0.655314  0.799123  1
  As  As9  1  0.307774  0.347167  0.201499  1
  As  As10  1  0.246019  0.919553  0.208024  1
  As  As11  1  0.752047  0.079013  0.791534  1
  O  O12  1  0.863895  0.893885  0.854229  1
  O  O13  1  0.127333  0.454419  0.126088  1
  O  O14  1  0.640024  0.673055  0.238560  1
  O  O15  1  0.657682  0.129130  0.937889  1
  O  O16  1  0.106436  0.314314  0.488280  1
  O  O17  1  0.872627  0.545120  0.874518  1
  O  O18  1  0.999858  0.222374  0.833049  1
  O  O19  1  0.143502  0.104259  0.142598  1
  O  O20  1  0.594073  0.669771  0.950800  1
  O  O21  1  0.817354  0.985854  0.384409  1
  O  O22  1  0.359674  0.338881  0.757860  1
  O  O23  1  0.994779  0.778248  0.167825  1
  O  O24  1  0.218963  0.748943  0.740531  1
  O  O25  1  0.409346  0.334665  0.051532  1
  O  O26  1  0.184757  0.017904  0.616045  1
  O  O27  1  0.332715  0.862377  0.058467  1
  O  O28  1  0.775707  0.261362  0.265507  1
  O  O29  1  0.897832  0.688093  0.506452  1
