# generated using pymatgen
data_Pr10Os3Pd
_symmetry_space_group_name_H-M   'P 1'
_cell_length_a   9.02935764
_cell_length_b   9.06780597
_cell_length_c   7.45923838
_cell_angle_alpha   83.60653232
_cell_angle_beta   83.51668918
_cell_angle_gamma   43.46077434
_symmetry_Int_Tables_number   1
_chemical_formula_structural   Pr10Os3Pd
_chemical_formula_sum   'Pr10 Os3 Pd1'
_cell_volume   417.02662929
_cell_formula_units_Z   1
loop_
 _symmetry_equiv_pos_site_id
 _symmetry_equiv_pos_as_xyz
  1  'x, y, z'
loop_
 _atom_site_type_symbol
 _atom_site_label
 _atom_site_symmetry_multiplicity
 _atom_site_fract_x
 _atom_site_fract_y
 _atom_site_fract_z
 _atom_site_occupancy
  Pr  Pr0  1  0.013942  0.804284  0.925064  1
  Pr  Pr1  1  0.201149  0.987744  0.584693  1
  Pr  Pr2  1  0.984166  0.198986  0.085481  1
  Pr  Pr3  1  0.788614  0.030449  0.411393  1
  Pr  Pr4  1  0.364803  0.196492  0.820407  1
  Pr  Pr5  1  0.782462  0.643738  0.684649  1
  Pr  Pr6  1  0.648401  0.786942  0.186237  1
  Pr  Pr7  1  0.209639  0.349391  0.311834  1
  Pr  Pr8  1  0.572074  0.428896  0.751787  1
  Pr  Pr9  1  0.432060  0.574638  0.241242  1
  Os  Os10  1  0.401831  0.822369  0.923733  1
  Os  Os11  1  0.820112  0.399314  0.428480  1
  Os  Os12  1  0.597727  0.180092  0.074494  1
  Pd  Pd13  1  0.183020  0.596666  0.570506  1
