# generated using pymatgen
data_MgZr8(In2Co)7
_symmetry_space_group_name_H-M   'P 1'
_cell_length_a   9.47626445
_cell_length_b   9.47668694
_cell_length_c   9.47636037
_cell_angle_alpha   60.34115067
_cell_angle_beta   60.34897714
_cell_angle_gamma   60.34595717
_symmetry_Int_Tables_number   1
_chemical_formula_structural   MgZr8(In2Co)7
_chemical_formula_sum   'Mg1 Zr8 In14 Co7'
_cell_volume   606.45728734
_cell_formula_units_Z   1
loop_
 _symmetry_equiv_pos_site_id
 _symmetry_equiv_pos_as_xyz
  1  'x, y, z'
loop_
 _atom_site_type_symbol
 _atom_site_label
 _atom_site_symmetry_multiplicity
 _atom_site_fract_x
 _atom_site_fract_y
 _atom_site_fract_z
 _atom_site_occupancy
  Mg  Mg0  1  0.500000  0.500000  0.500000  1
  Zr  Zr1  1  0.120261  0.637830  0.120301  1
  Zr  Zr2  1  0.362170  0.879740  0.879693  1
  Zr  Zr3  1  0.878705  0.878692  0.878727  1
  Zr  Zr4  1  0.637830  0.120260  0.120307  1
  Zr  Zr5  1  0.879692  0.879695  0.362166  1
  Zr  Zr6  1  0.121295  0.121308  0.121273  1
  Zr  Zr7  1  0.879739  0.362170  0.879699  1
  Zr  Zr8  1  0.120308  0.120305  0.637834  1
  In  In9  1  0.500025  0.841808  0.158199  1
  In  In10  1  0.500072  0.841949  0.500041  1
  In  In11  1  0.499928  0.158051  0.499959  1
  In  In12  1  0.500054  0.500070  0.841948  1
  In  In13  1  0.158055  0.499903  0.499959  1
  In  In14  1  0.841783  0.158233  0.499974  1
  In  In15  1  0.158217  0.841767  0.500026  1
  In  In16  1  0.499975  0.158192  0.841801  1
  In  In17  1  0.158226  0.499978  0.841775  1
  In  In18  1  0.499946  0.499930  0.158052  1
  In  In19  1  0.841945  0.500097  0.500041  1
  In  In20  1  0.841774  0.500022  0.158225  1
  In  In21  1  0.250331  0.250331  0.250324  1
  In  In22  1  0.749669  0.749669  0.749676  1
  Co  Co23  1  0.781922  0.781939  0.216618  1
  Co  Co24  1  0.000000  0.000000  0.000000  1
  Co  Co25  1  0.217995  0.783469  0.217978  1
  Co  Co26  1  0.216480  0.782049  0.782059  1
  Co  Co27  1  0.218078  0.218061  0.783382  1
  Co  Co28  1  0.782005  0.216531  0.782022  1
  Co  Co29  1  0.783520  0.217951  0.217941  1
