# generated using pymatgen
data_Mn(AlCl4)2
_symmetry_space_group_name_H-M   'P 1'
_cell_length_a   9.82929617
_cell_length_b   9.82929577
_cell_length_c   11.72415308
_cell_angle_alpha   55.69187238
_cell_angle_beta   55.69187301
_cell_angle_gamma   49.49374731
_symmetry_Int_Tables_number   1
_chemical_formula_structural   Mn(AlCl4)2
_chemical_formula_sum   'Mn2 Al4 Cl16'
_cell_volume   675.30634816
_cell_formula_units_Z   2
loop_
 _symmetry_equiv_pos_site_id
 _symmetry_equiv_pos_as_xyz
  1  'x, y, z'
loop_
 _atom_site_type_symbol
 _atom_site_label
 _atom_site_symmetry_multiplicity
 _atom_site_fract_x
 _atom_site_fract_y
 _atom_site_fract_z
 _atom_site_occupancy
  Mn  Mn0  1  0.002091  0.997909  0.750000  1
  Mn  Mn1  1  0.997909  0.002091  0.250000  1
  Al  Al2  1  0.159127  0.668997  0.531757  1
  Al  Al3  1  0.331003  0.840873  0.968243  1
  Al  Al4  1  0.840873  0.331003  0.468243  1
  Al  Al5  1  0.668997  0.159127  0.031757  1
  Cl  Cl6  1  0.306582  0.383617  0.548969  1
  Cl  Cl7  1  0.616383  0.693418  0.951031  1
  Cl  Cl8  1  0.693418  0.616383  0.451031  1
  Cl  Cl9  1  0.383617  0.306582  0.048969  1
  Cl  Cl10  1  0.878201  0.823715  0.513357  1
  Cl  Cl11  1  0.176285  0.121799  0.986643  1
  Cl  Cl12  1  0.121799  0.176285  0.486643  1
  Cl  Cl13  1  0.823715  0.878201  0.013357  1
  Cl  Cl14  1  0.141935  0.688612  0.717299  1
  Cl  Cl15  1  0.311388  0.858065  0.782701  1
  Cl  Cl16  1  0.858065  0.311388  0.282701  1
  Cl  Cl17  1  0.688612  0.141935  0.217299  1
  Cl  Cl18  1  0.281426  0.838663  0.328712  1
  Cl  Cl19  1  0.161337  0.718574  0.171288  1
  Cl  Cl20  1  0.718574  0.161337  0.671288  1
  Cl  Cl21  1  0.838663  0.281426  0.828712  1
