# generated using pymatgen
data_Mg2Be3(BRh2)4
_symmetry_space_group_name_H-M   'P 1'
_cell_length_a   9.19011526
_cell_length_b   9.19011638
_cell_length_c   2.84799900
_cell_angle_alpha   90.00000000
_cell_angle_beta   90.00000000
_cell_angle_gamma   125.53192919
_symmetry_Int_Tables_number   1
_chemical_formula_structural   Mg2Be3(BRh2)4
_chemical_formula_sum   'Mg2 Be3 B4 Rh8'
_cell_volume   195.74699473
_cell_formula_units_Z   1
loop_
 _symmetry_equiv_pos_site_id
 _symmetry_equiv_pos_as_xyz
  1  'x, y, z'
loop_
 _atom_site_type_symbol
 _atom_site_label
 _atom_site_symmetry_multiplicity
 _atom_site_fract_x
 _atom_site_fract_y
 _atom_site_fract_z
 _atom_site_occupancy
  Mg  Mg0  1  0.197306  0.802694  0.500000  1
  Mg  Mg1  1  0.802694  0.197306  0.500000  1
  Be  Be2  1  0.351666  0.351666  0.500000  1
  Be  Be3  1  0.000000  0.000000  0.500000  1
  Be  Be4  1  0.648334  0.648334  0.500000  1
  B  B5  1  0.458723  0.158630  0.500000  1
  B  B6  1  0.158630  0.458723  0.500000  1
  B  B7  1  0.541277  0.841370  0.500000  1
  B  B8  1  0.841370  0.541277  0.500000  1
  Rh  Rh9  1  0.611629  0.388371  0.000000  1
  Rh  Rh10  1  0.388371  0.611629  0.000000  1
  Rh  Rh11  1  0.907586  0.742921  0.000000  1
  Rh  Rh12  1  0.092414  0.257079  0.000000  1
  Rh  Rh13  1  0.500000  0.000000  0.000000  1
  Rh  Rh14  1  0.257079  0.092414  0.000000  1
  Rh  Rh15  1  0.742921  0.907586  0.000000  1
  Rh  Rh16  1  0.000000  0.500000  0.000000  1
