# generated using pymatgen
data_Ac3(ZnGa5)2
_symmetry_space_group_name_H-M   'P 1'
_cell_length_a   8.84681548
_cell_length_b   8.84691131
_cell_length_c   8.84690707
_cell_angle_alpha   149.79098993
_cell_angle_beta   107.13967461
_cell_angle_gamma   80.85716115
_symmetry_Int_Tables_number   1
_chemical_formula_structural   Ac3(ZnGa5)2
_chemical_formula_sum   'Ac3 Zn2 Ga10'
_cell_volume   326.24996031
_cell_formula_units_Z   1
loop_
 _symmetry_equiv_pos_site_id
 _symmetry_equiv_pos_as_xyz
  1  'x, y, z'
loop_
 _atom_site_type_symbol
 _atom_site_label
 _atom_site_symmetry_multiplicity
 _atom_site_fract_x
 _atom_site_fract_y
 _atom_site_fract_z
 _atom_site_occupancy
  Ac  Ac0  1  0.000454  0.000001  0.000453  1
  Ac  Ac1  1  0.334996  0.334132  0.000864  1
  Ac  Ac2  1  0.666719  0.665864  0.000856  1
  Zn  Zn3  1  0.619263  0.000000  0.619263  1
  Zn  Zn4  1  0.382765  0.000000  0.382764  1
  Ga  Ga5  1  0.252883  0.500003  0.752881  1
  Ga  Ga6  1  0.748777  0.499998  0.248779  1
  Ga  Ga7  1  0.587030  0.836690  0.750340  1
  Ga  Ga8  1  0.913652  0.163314  0.750338  1
  Ga  Ga9  1  0.290293  0.667439  0.622854  1
  Ga  Ga10  1  0.955417  0.332565  0.622853  1
  Ga  Ga11  1  0.046055  0.667704  0.378350  1
  Ga  Ga12  1  0.710643  0.332293  0.378350  1
  Ga  Ga13  1  0.088172  0.837145  0.251030  1
  Ga  Ga14  1  0.413880  0.162852  0.251029  1
