# generated using pymatgen
data_SrCu2(SO4)4
_symmetry_space_group_name_H-M   'P 1'
_cell_length_a   6.59766945
_cell_length_b   6.59766863
_cell_length_c   8.93588821
_cell_angle_alpha   72.68979356
_cell_angle_beta   72.68979516
_cell_angle_gamma   85.72170284
_symmetry_Int_Tables_number   1
_chemical_formula_structural   SrCu2(SO4)4
_chemical_formula_sum   'Sr1 Cu2 S4 O16'
_cell_volume   354.49408676
_cell_formula_units_Z   1
loop_
 _symmetry_equiv_pos_site_id
 _symmetry_equiv_pos_as_xyz
  1  'x, y, z'
loop_
 _atom_site_type_symbol
 _atom_site_label
 _atom_site_symmetry_multiplicity
 _atom_site_fract_x
 _atom_site_fract_y
 _atom_site_fract_z
 _atom_site_occupancy
  Sr  Sr0  1  0.000000  0.000000  0.000000  1
  Cu  Cu1  1  0.000000  0.000000  0.500000  1
  Cu  Cu2  1  0.500000  0.500000  0.500000  1
  S  S3  1  0.091865  0.595834  0.727305  1
  S  S4  1  0.595834  0.091865  0.727305  1
  S  S5  1  0.908135  0.404166  0.272695  1
  S  S6  1  0.404166  0.908135  0.272695  1
  O  O7  1  0.333556  0.621503  0.660049  1
  O  O8  1  0.621503  0.333556  0.660049  1
  O  O9  1  0.666444  0.378497  0.339951  1
  O  O10  1  0.378497  0.666444  0.339951  1
  O  O11  1  0.032067  0.705413  0.852752  1
  O  O12  1  0.705413  0.032067  0.852752  1
  O  O13  1  0.967933  0.294587  0.147248  1
  O  O14  1  0.294587  0.967933  0.147248  1
  O  O15  1  0.992152  0.702687  0.589051  1
  O  O16  1  0.702687  0.992152  0.589051  1
  O  O17  1  0.007848  0.297313  0.410949  1
  O  O18  1  0.297313  0.007848  0.410949  1
  O  O19  1  0.029021  0.373402  0.778880  1
  O  O20  1  0.373402  0.029021  0.778880  1
  O  O21  1  0.970979  0.626598  0.221120  1
  O  O22  1  0.626598  0.970979  0.221120  1
