# generated using pymatgen
data_Ho7Er3(RuPb3)2
_symmetry_space_group_name_H-M   'P 1'
_cell_length_a   9.27941500
_cell_length_b   9.28170501
_cell_length_c   6.55331500
_cell_angle_alpha   90.00108463
_cell_angle_beta   90.00022481
_cell_angle_gamma   119.98972454
_symmetry_Int_Tables_number   1
_chemical_formula_structural   Ho7Er3(RuPb3)2
_chemical_formula_sum   'Ho7 Er3 Ru2 Pb6'
_cell_volume   488.86055197
_cell_formula_units_Z   1
loop_
 _symmetry_equiv_pos_site_id
 _symmetry_equiv_pos_as_xyz
  1  'x, y, z'
loop_
 _atom_site_type_symbol
 _atom_site_label
 _atom_site_symmetry_multiplicity
 _atom_site_fract_x
 _atom_site_fract_y
 _atom_site_fract_z
 _atom_site_occupancy
  Ho  Ho0  1  0.000033  0.763450  0.749996  1
  Ho  Ho1  1  0.236477  0.999985  0.249998  1
  Ho  Ho2  1  0.763455  0.000021  0.749998  1
  Ho  Ho3  1  0.333326  0.666611  0.499941  1
  Ho  Ho4  1  0.666677  0.333351  0.499945  1
  Ho  Ho5  1  0.333335  0.666605  0.000055  1
  Ho  Ho6  1  0.666673  0.333361  0.000056  1
  Er  Er7  1  0.999970  0.236343  0.250034  1
  Er  Er8  1  0.763611  0.763646  0.250022  1
  Er  Er9  1  0.236431  0.236418  0.749978  1
  Ru  Ru10  1  0.999996  0.000247  0.000215  1
  Ru  Ru11  1  0.999995  0.000243  0.499775  1
  Pb  Pb12  1  0.402462  0.402461  0.250011  1
  Pb  Pb13  1  0.999958  0.402238  0.749970  1
  Pb  Pb14  1  0.000041  0.597537  0.250018  1
  Pb  Pb15  1  0.597852  0.000033  0.250012  1
  Pb  Pb16  1  0.402311  0.000002  0.749988  1
  Pb  Pb17  1  0.597397  0.597448  0.749988  1
