# generated using pymatgen
data_Hf4Ta4Ge3As
_symmetry_space_group_name_H-M   'P 1'
_cell_length_a   3.64602700
_cell_length_b   7.04594450
_cell_length_c   8.57341872
_cell_angle_alpha   89.82763952
_cell_angle_beta   90.00000000
_cell_angle_gamma   90.00000000
_symmetry_Int_Tables_number   1
_chemical_formula_structural   Hf4Ta4Ge3As
_chemical_formula_sum   'Hf4 Ta4 Ge3 As1'
_cell_volume   220.24759174
_cell_formula_units_Z   1
loop_
 _symmetry_equiv_pos_site_id
 _symmetry_equiv_pos_as_xyz
  1  'x, y, z'
loop_
 _atom_site_type_symbol
 _atom_site_label
 _atom_site_symmetry_multiplicity
 _atom_site_fract_x
 _atom_site_fract_y
 _atom_site_fract_z
 _atom_site_occupancy
  Hf  Hf0  1  0.250000  0.042868  0.664909  1
  Hf  Hf1  1  0.250000  0.545084  0.834810  1
  Hf  Hf2  1  0.750000  0.457797  0.166726  1
  Hf  Hf3  1  0.750000  0.954851  0.335823  1
  Ta  Ta4  1  0.750000  0.866751  0.940824  1
  Ta  Ta5  1  0.250000  0.631284  0.441044  1
  Ta  Ta6  1  0.750000  0.366126  0.559368  1
  Ta  Ta7  1  0.250000  0.134939  0.057449  1
  Ge  Ge8  1  0.250000  0.252064  0.355995  1
  Ge  Ge9  1  0.250000  0.755639  0.144243  1
  Ge  Ge10  1  0.750000  0.746286  0.643078  1
  As  As11  1  0.750000  0.246311  0.855732  1
