# generated using pymatgen
data_Y3Er2Si12Ir19
_symmetry_space_group_name_H-M   'P 1'
_cell_length_a   12.83297800
_cell_length_b   12.83297783
_cell_length_c   3.98330500
_cell_angle_alpha   90.00000000
_cell_angle_beta   90.00000000
_cell_angle_gamma   119.99983311
_symmetry_Int_Tables_number   1
_chemical_formula_structural   Y3Er2Si12Ir19
_chemical_formula_sum   'Y3 Er2 Si12 Ir19'
_cell_volume   568.10657723
_cell_formula_units_Z   1
loop_
 _symmetry_equiv_pos_site_id
 _symmetry_equiv_pos_as_xyz
  1  'x, y, z'
loop_
 _atom_site_type_symbol
 _atom_site_label
 _atom_site_symmetry_multiplicity
 _atom_site_fract_x
 _atom_site_fract_y
 _atom_site_fract_z
 _atom_site_occupancy
  Y  Y0  1  0.666656  0.333329  0.000000  1
  Y  Y1  1  0.333329  0.666656  0.000000  1
  Y  Y2  1  0.814799  0.814799  0.500000  1
  Er  Er3  1  0.185151  0.000022  0.500000  1
  Er  Er4  1  0.000022  0.185151  0.500000  1
  Si  Si5  1  0.688066  0.168794  0.500000  1
  Si  Si6  1  0.831232  0.519324  0.500000  1
  Si  Si7  1  0.480655  0.311905  0.500000  1
  Si  Si8  1  0.168794  0.688066  0.500000  1
  Si  Si9  1  0.519324  0.831232  0.500000  1
  Si  Si10  1  0.311905  0.480655  0.500000  1
  Si  Si11  1  0.631860  0.631860  0.000000  1
  Si  Si12  1  0.367819  0.999995  0.000000  1
  Si  Si13  1  0.999995  0.367819  0.000000  1
  Si  Si14  1  0.181076  0.181076  0.000000  1
  Si  Si15  1  0.819043  0.000309  0.000000  1
  Si  Si16  1  0.000309  0.819043  0.000000  1
  Ir  Ir17  1  0.806428  0.182583  0.000000  1
  Ir  Ir18  1  0.817533  0.623407  0.000000  1
  Ir  Ir19  1  0.376111  0.193596  0.000000  1
  Ir  Ir20  1  0.182583  0.806428  0.000000  1
  Ir  Ir21  1  0.623407  0.817533  0.000000  1
  Ir  Ir22  1  0.193596  0.376111  0.000000  1
  Ir  Ir23  1  0.447019  0.447019  0.000000  1
  Ir  Ir24  1  0.552867  0.999995  0.000000  1
  Ir  Ir25  1  0.999995  0.552867  0.000000  1
  Ir  Ir26  1  0.282397  0.282397  0.500000  1
  Ir  Ir27  1  0.717498  0.000217  0.500000  1
  Ir  Ir28  1  0.000217  0.717498  0.500000  1
  Ir  Ir29  1  0.873840  0.361547  0.500000  1
  Ir  Ir30  1  0.638353  0.512158  0.500000  1
  Ir  Ir31  1  0.487678  0.126161  0.500000  1
  Ir  Ir32  1  0.361547  0.873840  0.500000  1
  Ir  Ir33  1  0.512158  0.638353  0.500000  1
  Ir  Ir34  1  0.126161  0.487678  0.500000  1
  Ir  Ir35  1  0.000575  0.000575  0.000000  1
