# generated using pymatgen
data_Hf5Sc(SnRh2)6
_symmetry_space_group_name_H-M   'P 1'
_cell_length_a   4.32809900
_cell_length_b   7.33827500
_cell_length_c   12.92145600
_cell_angle_alpha   90.00000000
_cell_angle_beta   90.00049540
_cell_angle_gamma   90.00000000
_symmetry_Int_Tables_number   1
_chemical_formula_structural   Hf5Sc(SnRh2)6
_chemical_formula_sum   'Hf5 Sc1 Sn6 Rh12'
_cell_volume   410.39553019
_cell_formula_units_Z   1
loop_
 _symmetry_equiv_pos_site_id
 _symmetry_equiv_pos_as_xyz
  1  'x, y, z'
loop_
 _atom_site_type_symbol
 _atom_site_label
 _atom_site_symmetry_multiplicity
 _atom_site_fract_x
 _atom_site_fract_y
 _atom_site_fract_z
 _atom_site_occupancy
  Hf  Hf0  1  0.999998  0.499999  0.001818  1
  Hf  Hf1  1  0.500025  0.000000  0.164482  1
  Hf  Hf2  1  0.000018  0.499999  0.333358  1
  Hf  Hf3  1  0.500010  0.000000  0.502162  1
  Hf  Hf4  1  0.000003  0.499999  0.664842  1
  Sc  Sc5  1  0.499989  0.000000  0.833320  1
  Sn  Sn6  1  0.000007  0.000000  0.996383  1
  Sn  Sn7  1  0.500028  0.499999  0.167303  1
  Sn  Sn8  1  0.000035  0.000000  0.333410  1
  Sn  Sn9  1  0.500022  0.499999  0.499373  1
  Sn  Sn10  1  0.000027  0.000000  0.670239  1
  Sn  Sn11  1  0.499927  0.499999  0.833427  1
  Rh  Rh12  1  0.499985  0.251784  0.001792  1
  Rh  Rh13  1  0.499985  0.748216  0.001792  1
  Rh  Rh14  1  0.999983  0.249158  0.167686  1
  Rh  Rh15  1  0.999983  0.750843  0.167686  1
  Rh  Rh16  1  0.499999  0.246941  0.333340  1
  Rh  Rh17  1  0.499999  0.753059  0.333340  1
  Rh  Rh18  1  0.000001  0.249148  0.498990  1
  Rh  Rh19  1  0.000001  0.750851  0.498990  1
  Rh  Rh20  1  0.500009  0.251739  0.664847  1
  Rh  Rh21  1  0.500009  0.748261  0.664847  1
  Rh  Rh22  1  0.999976  0.263335  0.833286  1
  Rh  Rh23  1  0.999976  0.736666  0.833286  1
