# generated using pymatgen
data_LaNd(Dy2Rh9)2
_symmetry_space_group_name_H-M   'P 1'
_cell_length_a   5.31118700
_cell_length_b   5.31118550
_cell_length_c   17.53936300
_cell_angle_alpha   90.00000000
_cell_angle_beta   90.00000000
_cell_angle_gamma   119.99999066
_symmetry_Int_Tables_number   1
_chemical_formula_structural   LaNd(Dy2Rh9)2
_chemical_formula_sum   'La1 Nd1 Dy4 Rh18'
_cell_volume   428.47703654
_cell_formula_units_Z   1
loop_
 _symmetry_equiv_pos_site_id
 _symmetry_equiv_pos_as_xyz
  1  'x, y, z'
loop_
 _atom_site_type_symbol
 _atom_site_label
 _atom_site_symmetry_multiplicity
 _atom_site_fract_x
 _atom_site_fract_y
 _atom_site_fract_z
 _atom_site_occupancy
  La  La0  1  0.666667  0.333333  0.250000  1
  Nd  Nd1  1  0.333333  0.666667  0.750000  1
  Dy  Dy2  1  0.333333  0.666667  0.542231  1
  Dy  Dy3  1  0.666667  0.333333  0.041277  1
  Dy  Dy4  1  0.666667  0.333333  0.458723  1
  Dy  Dy5  1  0.333333  0.666667  0.957769  1
  Rh  Rh6  1  0.167294  0.334587  0.124331  1
  Rh  Rh7  1  0.832758  0.665516  0.625478  1
  Rh  Rh8  1  0.665413  0.832706  0.124331  1
  Rh  Rh9  1  0.167294  0.832706  0.124331  1
  Rh  Rh10  1  0.832758  0.167242  0.625478  1
  Rh  Rh11  1  0.334484  0.167242  0.625478  1
  Rh  Rh12  1  0.832758  0.665516  0.874522  1
  Rh  Rh13  1  0.832758  0.167242  0.874522  1
  Rh  Rh14  1  0.334484  0.167242  0.874522  1
  Rh  Rh15  1  0.665413  0.832706  0.375669  1
  Rh  Rh16  1  0.167294  0.832706  0.375669  1
  Rh  Rh17  1  0.167294  0.334587  0.375669  1
  Rh  Rh18  1  0.000000  0.000000  0.250000  1
  Rh  Rh19  1  0.000000  0.000000  0.750000  1
  Rh  Rh20  1  0.333333  0.666667  0.250000  1
  Rh  Rh21  1  0.666667  0.333333  0.750000  1
  Rh  Rh22  1  0.000000  0.000000  0.999488  1
  Rh  Rh23  1  0.000000  0.000000  0.500512  1
