# generated using pymatgen
data_Zr12Si12Ru3Rh
_symmetry_space_group_name_H-M   'P 1'
_cell_length_a   3.90379700
_cell_length_b   10.43887741
_cell_length_c   11.81738728
_cell_angle_alpha   90.05582473
_cell_angle_beta   90.00000000
_cell_angle_gamma   90.00000000
_symmetry_Int_Tables_number   1
_chemical_formula_structural   Zr12Si12Ru3Rh
_chemical_formula_sum   'Zr12 Si12 Ru3 Rh1'
_cell_volume   481.57317278
_cell_formula_units_Z   1
loop_
 _symmetry_equiv_pos_site_id
 _symmetry_equiv_pos_as_xyz
  1  'x, y, z'
loop_
 _atom_site_type_symbol
 _atom_site_label
 _atom_site_symmetry_multiplicity
 _atom_site_fract_x
 _atom_site_fract_y
 _atom_site_fract_z
 _atom_site_occupancy
  Zr  Zr0  1  0.250000  0.876745  0.022142  1
  Zr  Zr1  1  0.250000  0.623409  0.520553  1
  Zr  Zr2  1  0.750000  0.123008  0.979319  1
  Zr  Zr3  1  0.750000  0.377152  0.479240  1
  Zr  Zr4  1  0.250000  0.926884  0.596012  1
  Zr  Zr5  1  0.250000  0.572771  0.097512  1
  Zr  Zr6  1  0.750000  0.073302  0.402224  1
  Zr  Zr7  1  0.750000  0.426637  0.902408  1
  Zr  Zr8  1  0.250000  0.656748  0.800654  1
  Zr  Zr9  1  0.250000  0.842191  0.300636  1
  Zr  Zr10  1  0.750000  0.342273  0.199489  1
  Zr  Zr11  1  0.750000  0.158696  0.699236  1
  Si  Si12  1  0.250000  0.016468  0.825045  1
  Si  Si13  1  0.250000  0.484832  0.324863  1
  Si  Si14  1  0.750000  0.984630  0.174997  1
  Si  Si15  1  0.750000  0.515573  0.675376  1
  Si  Si16  1  0.250000  0.250089  0.842309  1
  Si  Si17  1  0.250000  0.249944  0.342386  1
  Si  Si18  1  0.750000  0.749581  0.157374  1
  Si  Si19  1  0.750000  0.750107  0.657282  1
  Si  Si20  1  0.250000  0.195974  0.542656  1
  Si  Si21  1  0.250000  0.304670  0.042974  1
  Si  Si22  1  0.750000  0.804798  0.457144  1
  Si  Si23  1  0.750000  0.693231  0.957822  1
  Ru  Ru24  1  0.250000  0.386263  0.680453  1
  Ru  Ru25  1  0.250000  0.113970  0.180115  1
  Ru  Ru26  1  0.750000  0.614286  0.320339  1
  Rh  Rh27  1  0.750000  0.885767  0.819440  1
