# generated using pymatgen
data_HoSc9(Si5Ir2)4
_symmetry_space_group_name_H-M   'P 1'
_cell_length_a   12.41723345
_cell_length_b   12.41723345
_cell_length_c   4.11478400
_cell_angle_alpha   90.00000000
_cell_angle_beta   90.00000000
_cell_angle_gamma   89.91454474
_symmetry_Int_Tables_number   1
_chemical_formula_structural   HoSc9(Si5Ir2)4
_chemical_formula_sum   'Ho1 Sc9 Si20 Ir8'
_cell_volume   634.44832024
_cell_formula_units_Z   1
loop_
 _symmetry_equiv_pos_site_id
 _symmetry_equiv_pos_as_xyz
  1  'x, y, z'
loop_
 _atom_site_type_symbol
 _atom_site_label
 _atom_site_symmetry_multiplicity
 _atom_site_fract_x
 _atom_site_fract_y
 _atom_site_fract_z
 _atom_site_occupancy
  Ho  Ho0  1  0.615620  0.884380  0.500000  1
  Sc  Sc1  1  0.499947  0.499629  0.000000  1
  Sc  Sc2  1  0.000371  0.000053  0.000000  1
  Sc  Sc3  1  0.674044  0.174820  0.500000  1
  Sc  Sc4  1  0.325180  0.825956  0.500000  1
  Sc  Sc5  1  0.173885  0.326115  0.500000  1
  Sc  Sc6  1  0.826952  0.673048  0.500000  1
  Sc  Sc7  1  0.883852  0.383840  0.500000  1
  Sc  Sc8  1  0.116160  0.616148  0.500000  1
  Sc  Sc9  1  0.384078  0.115922  0.500000  1
  Si  Si10  1  0.566002  0.067620  0.000000  1
  Si  Si11  1  0.432380  0.933998  0.000000  1
  Si  Si12  1  0.066306  0.433694  0.000000  1
  Si  Si13  1  0.934045  0.565955  0.000000  1
  Si  Si14  1  0.666175  0.698649  0.000000  1
  Si  Si15  1  0.334128  0.299993  0.000000  1
  Si  Si16  1  0.165472  0.800071  0.000000  1
  Si  Si17  1  0.834705  0.200823  0.000000  1
  Si  Si18  1  0.299177  0.665295  0.000000  1
  Si  Si19  1  0.699929  0.334528  0.000000  1
  Si  Si20  1  0.200007  0.165872  0.000000  1
  Si  Si21  1  0.801351  0.833825  0.000000  1
  Si  Si22  1  0.652179  0.505096  0.500000  1
  Si  Si23  1  0.347778  0.494562  0.500000  1
  Si  Si24  1  0.151748  0.994953  0.500000  1
  Si  Si25  1  0.849532  0.006625  0.500000  1
  Si  Si26  1  0.493375  0.650468  0.500000  1
  Si  Si27  1  0.505047  0.348252  0.500000  1
  Si  Si28  1  0.005438  0.152222  0.500000  1
  Si  Si29  1  0.994904  0.847821  0.500000  1
  Ir  Ir30  1  0.746962  0.518840  0.000000  1
  Ir  Ir31  1  0.253202  0.480565  0.000000  1
  Ir  Ir32  1  0.245602  0.980859  0.000000  1
  Ir  Ir33  1  0.755183  0.020452  0.000000  1
  Ir  Ir34  1  0.479548  0.744817  0.000000  1
  Ir  Ir35  1  0.519141  0.254398  0.000000  1
  Ir  Ir36  1  0.019435  0.246798  0.000000  1
  Ir  Ir37  1  0.981160  0.753038  0.000000  1
