# generated using pymatgen
data_Lu2Ga4CuRh
_symmetry_space_group_name_H-M   'P 1'
_cell_length_a   5.43074372
_cell_length_b   5.43074489
_cell_length_c   6.67959800
_cell_angle_alpha   90.00000000
_cell_angle_beta   90.00000000
_cell_angle_gamma   134.40491918
_symmetry_Int_Tables_number   1
_chemical_formula_structural   Lu2Ga4CuRh
_chemical_formula_sum   'Lu2 Ga4 Cu1 Rh1'
_cell_volume   140.74019443
_cell_formula_units_Z   1
loop_
 _symmetry_equiv_pos_site_id
 _symmetry_equiv_pos_as_xyz
  1  'x, y, z'
loop_
 _atom_site_type_symbol
 _atom_site_label
 _atom_site_symmetry_multiplicity
 _atom_site_fract_x
 _atom_site_fract_y
 _atom_site_fract_z
 _atom_site_occupancy
  Lu  Lu0  1  0.578293  0.421707  0.250000  1
  Lu  Lu1  1  0.420429  0.579571  0.750000  1
  Ga  Ga2  1  0.867101  0.132899  0.049105  1
  Ga  Ga3  1  0.132434  0.867566  0.943739  1
  Ga  Ga4  1  0.132434  0.867566  0.556261  1
  Ga  Ga5  1  0.867101  0.132899  0.450895  1
  Cu  Cu6  1  0.709566  0.290434  0.750000  1
  Rh  Rh7  1  0.292643  0.707357  0.250000  1
