# generated using pymatgen
data_Pr17Dy3Si15Tc
_symmetry_space_group_name_H-M   'P 1'
_cell_length_a   7.90807425
_cell_length_b   7.87171465
_cell_length_c   15.15086367
_cell_angle_alpha   90.28826661
_cell_angle_beta   89.93016976
_cell_angle_gamma   90.10000693
_symmetry_Int_Tables_number   1
_chemical_formula_structural   Pr17Dy3Si15Tc
_chemical_formula_sum   'Pr17 Dy3 Si15 Tc1'
_cell_volume   943.12877368
_cell_formula_units_Z   1
loop_
 _symmetry_equiv_pos_site_id
 _symmetry_equiv_pos_as_xyz
  1  'x, y, z'
loop_
 _atom_site_type_symbol
 _atom_site_label
 _atom_site_symmetry_multiplicity
 _atom_site_fract_x
 _atom_site_fract_y
 _atom_site_fract_z
 _atom_site_occupancy
  Pr  Pr0  1  0.696924  0.689867  0.502570  1
  Pr  Pr1  1  0.370913  0.012283  0.451451  1
  Pr  Pr2  1  0.484948  0.881106  0.697831  1
  Pr  Pr3  1  0.511279  0.124702  0.198964  1
  Pr  Pr4  1  0.876235  0.487679  0.300211  1
  Pr  Pr5  1  0.128276  0.501034  0.797709  1
  Pr  Pr6  1  0.626080  0.988174  0.949144  1
  Pr  Pr7  1  0.006974  0.376906  0.551569  1
  Pr  Pr8  1  0.989031  0.625950  0.050726  1
  Pr  Pr9  1  0.131816  0.983148  0.871906  1
  Pr  Pr10  1  0.517697  0.629930  0.126223  1
  Pr  Pr11  1  0.471782  0.361542  0.630042  1
  Pr  Pr12  1  0.628985  0.516712  0.875432  1
  Pr  Pr13  1  0.375170  0.481981  0.372758  1
  Pr  Pr14  1  0.873275  0.021224  0.376525  1
  Pr  Pr15  1  0.981386  0.127678  0.123540  1
  Pr  Pr16  1  0.026033  0.882222  0.627566  1
  Dy  Dy17  1  0.308929  0.307672  0.998174  1
  Dy  Dy18  1  0.189614  0.810208  0.250692  1
  Dy  Dy19  1  0.821777  0.189914  0.748596  1
  Si  Si20  1  0.330549  0.691179  0.952621  1
  Si  Si21  1  0.664150  0.301870  0.451441  1
  Si  Si22  1  0.694068  0.331216  0.048820  1
  Si  Si23  1  0.303550  0.668503  0.546531  1
  Si  Si24  1  0.808952  0.830831  0.203541  1
  Si  Si25  1  0.169594  0.193413  0.296112  1
  Si  Si26  1  0.829202  0.805582  0.799070  1
  Si  Si27  1  0.287881  0.923233  0.061101  1
  Si  Si28  1  0.575597  0.788881  0.309814  1
  Si  Si29  1  0.423215  0.211287  0.815132  1
  Si  Si30  1  0.779476  0.578862  0.692507  1
  Si  Si31  1  0.212272  0.424176  0.187209  1
  Si  Si32  1  0.706679  0.076899  0.561659  1
  Si  Si33  1  0.922741  0.286293  0.939065  1
  Si  Si34  1  0.081953  0.716712  0.436970  1
  Tc  Tc35  1  0.192997  0.171128  0.696778  1
