# generated using pymatgen
data_La9Hg4
_symmetry_space_group_name_H-M   'P 1'
_cell_length_a   9.31898895
_cell_length_b   9.31898811
_cell_length_c   9.32821564
_cell_angle_alpha   95.22501209
_cell_angle_beta   94.53655495
_cell_angle_gamma   146.06475623
_symmetry_Int_Tables_number   1
_chemical_formula_structural   La9Hg4
_chemical_formula_sum   'La9 Hg4'
_cell_volume   432.58468708
_cell_formula_units_Z   1
loop_
 _symmetry_equiv_pos_site_id
 _symmetry_equiv_pos_as_xyz
  1  'x, y, z'
loop_
 _atom_site_type_symbol
 _atom_site_label
 _atom_site_symmetry_multiplicity
 _atom_site_fract_x
 _atom_site_fract_y
 _atom_site_fract_z
 _atom_site_occupancy
  La  La0  1  0.113251  0.595043  0.708293  1
  La  La1  1  0.886749  0.404957  0.291707  1
  La  La2  1  0.882349  0.816242  0.698591  1
  La  La3  1  0.117651  0.183758  0.301409  1
  La  La4  1  0.185768  0.879856  0.065624  1
  La  La5  1  0.814232  0.120144  0.934376  1
  La  La6  1  0.500000  0.500000  0.000000  1
  La  La7  1  0.597639  0.885802  0.483442  1
  La  La8  1  0.402361  0.114198  0.516558  1
  Hg  Hg9  1  0.733745  0.602721  0.336466  1
  Hg  Hg10  1  0.266255  0.397279  0.663534  1
  Hg  Hg11  1  0.399920  0.734778  0.134697  1
  Hg  Hg12  1  0.600080  0.265222  0.865303  1
