# generated using pymatgen
data_Dy8TmLu11Pb16
_symmetry_space_group_name_H-M   'P 1'
_cell_length_a   8.12832514
_cell_length_b   8.19702896
_cell_length_c   15.45772904
_cell_angle_alpha   89.99946505
_cell_angle_beta   90.01221674
_cell_angle_gamma   90.06592235
_symmetry_Int_Tables_number   1
_chemical_formula_structural   Dy8TmLu11Pb16
_chemical_formula_sum   'Dy8 Tm1 Lu11 Pb16'
_cell_volume   1029.91866808
_cell_formula_units_Z   1
loop_
 _symmetry_equiv_pos_site_id
 _symmetry_equiv_pos_as_xyz
  1  'x, y, z'
loop_
 _atom_site_type_symbol
 _atom_site_label
 _atom_site_symmetry_multiplicity
 _atom_site_fract_x
 _atom_site_fract_y
 _atom_site_fract_z
 _atom_site_occupancy
  Dy  Dy0  1  0.536765  0.322784  0.900480  1
  Dy  Dy1  1  0.037020  0.176902  0.599378  1
  Dy  Dy2  1  0.463128  0.676999  0.400378  1
  Dy  Dy3  1  0.963089  0.823385  0.100046  1
  Dy  Dy4  1  0.463401  0.676783  0.099658  1
  Dy  Dy5  1  0.963052  0.823064  0.400372  1
  Dy  Dy6  1  0.536743  0.322897  0.599518  1
  Dy  Dy7  1  0.036911  0.176719  0.900353  1
  Tm  Tm8  1  0.876486  0.659127  0.878910  1
  Lu  Lu9  1  0.376122  0.841139  0.878517  1
  Lu  Lu10  1  0.876166  0.658560  0.621340  1
  Lu  Lu11  1  0.623889  0.158560  0.378545  1
  Lu  Lu12  1  0.123718  0.341487  0.121386  1
  Lu  Lu13  1  0.623523  0.158575  0.121902  1
  Lu  Lu14  1  0.123790  0.341240  0.378526  1
  Lu  Lu15  1  0.376420  0.841433  0.621157  1
  Lu  Lu16  1  0.207776  0.505202  0.749783  1
  Lu  Lu17  1  0.707311  0.994807  0.749752  1
  Lu  Lu18  1  0.792436  0.494434  0.250192  1
  Lu  Lu19  1  0.292392  0.005315  0.249992  1
  Pb  Pb20  1  0.282992  0.034388  0.042954  1
  Pb  Pb21  1  0.783084  0.465595  0.457068  1
  Pb  Pb22  1  0.716953  0.965594  0.542795  1
  Pb  Pb23  1  0.218826  0.533736  0.957331  1
  Pb  Pb24  1  0.715965  0.967521  0.957348  1
  Pb  Pb25  1  0.216808  0.534409  0.542818  1
  Pb  Pb26  1  0.283007  0.034485  0.457008  1
  Pb  Pb27  1  0.782601  0.464818  0.043876  1
  Pb  Pb28  1  0.569660  0.628096  0.749545  1
  Pb  Pb29  1  0.070970  0.872889  0.749273  1
  Pb  Pb30  1  0.429494  0.371823  0.250112  1
  Pb  Pb31  1  0.929890  0.128197  0.250031  1
  Pb  Pb32  1  0.347673  0.153407  0.749966  1
  Pb  Pb33  1  0.847577  0.345642  0.749634  1
  Pb  Pb34  1  0.652152  0.846343  0.250018  1
  Pb  Pb35  1  0.152206  0.653643  0.250038  1
