# generated using pymatgen
data_Lu10Tl4CuIrPb2
_symmetry_space_group_name_H-M   'P 1'
_cell_length_a   8.96768434
_cell_length_b   8.96768410
_cell_length_c   6.66774558
_cell_angle_alpha   89.90105233
_cell_angle_beta   89.90105022
_cell_angle_gamma   119.57066681
_symmetry_Int_Tables_number   1
_chemical_formula_structural   Lu10Tl4CuIrPb2
_chemical_formula_sum   'Lu10 Tl4 Cu1 Ir1 Pb2'
_cell_volume   466.36973982
_cell_formula_units_Z   1
loop_
 _symmetry_equiv_pos_site_id
 _symmetry_equiv_pos_as_xyz
  1  'x, y, z'
loop_
 _atom_site_type_symbol
 _atom_site_label
 _atom_site_symmetry_multiplicity
 _atom_site_fract_x
 _atom_site_fract_y
 _atom_site_fract_z
 _atom_site_occupancy
  Lu  Lu0  1  0.245085  0.997694  0.740556  1
  Lu  Lu1  1  0.754915  0.002306  0.259444  1
  Lu  Lu2  1  0.997694  0.245085  0.740556  1
  Lu  Lu3  1  0.002306  0.754915  0.259444  1
  Lu  Lu4  1  0.754705  0.754705  0.740867  1
  Lu  Lu5  1  0.245295  0.245295  0.259133  1
  Lu  Lu6  1  0.332392  0.667608  0.500000  1
  Lu  Lu7  1  0.667608  0.332392  0.500000  1
  Lu  Lu8  1  0.668243  0.331757  0.000000  1
  Lu  Lu9  1  0.331757  0.668243  0.000000  1
  Tl  Tl10  1  0.600832  0.998647  0.753829  1
  Tl  Tl11  1  0.399168  0.001353  0.246171  1
  Tl  Tl12  1  0.998647  0.600832  0.753829  1
  Tl  Tl13  1  0.001353  0.399168  0.246171  1
  Cu  Cu14  1  0.000000  0.000000  0.000000  1
  Ir  Ir15  1  0.000000  0.000000  0.500000  1
  Pb  Pb16  1  0.396311  0.396311  0.753744  1
  Pb  Pb17  1  0.603689  0.603689  0.246256  1
