# generated using pymatgen
data_Y3Er17Cd6NiOs
_symmetry_space_group_name_H-M   'P 1'
_cell_length_a   9.53749400
_cell_length_b   9.53749429
_cell_length_c   9.73737600
_cell_angle_alpha   90.00000000
_cell_angle_beta   90.00000000
_cell_angle_gamma   119.99999207
_symmetry_Int_Tables_number   1
_chemical_formula_structural   Y3Er17Cd6NiOs
_chemical_formula_sum   'Y3 Er17 Cd6 Ni1 Os1'
_cell_volume   767.08091061
_cell_formula_units_Z   1
loop_
 _symmetry_equiv_pos_site_id
 _symmetry_equiv_pos_as_xyz
  1  'x, y, z'
loop_
 _atom_site_type_symbol
 _atom_site_label
 _atom_site_symmetry_multiplicity
 _atom_site_fract_x
 _atom_site_fract_y
 _atom_site_fract_z
 _atom_site_occupancy
  Y  Y0  1  0.539880  0.460120  0.250000  1
  Y  Y1  1  0.539880  0.079759  0.250000  1
  Y  Y2  1  0.920241  0.460120  0.250000  1
  Er  Er3  1  0.000000  0.000000  0.500058  1
  Er  Er4  1  0.000000  0.000000  0.999942  1
  Er  Er5  1  0.457220  0.542780  0.750000  1
  Er  Er6  1  0.457220  0.914441  0.750000  1
  Er  Er7  1  0.085559  0.542780  0.750000  1
  Er  Er8  1  0.209708  0.790292  0.441319  1
  Er  Er9  1  0.209708  0.419416  0.441319  1
  Er  Er10  1  0.580584  0.790292  0.441319  1
  Er  Er11  1  0.788787  0.211213  0.562922  1
  Er  Er12  1  0.788787  0.577573  0.562922  1
  Er  Er13  1  0.422427  0.211213  0.562922  1
  Er  Er14  1  0.788787  0.211213  0.937078  1
  Er  Er15  1  0.788787  0.577573  0.937078  1
  Er  Er16  1  0.422427  0.211213  0.937078  1
  Er  Er17  1  0.209708  0.790292  0.058681  1
  Er  Er18  1  0.209708  0.419416  0.058681  1
  Er  Er19  1  0.580584  0.790292  0.058681  1
  Cd  Cd20  1  0.885781  0.114219  0.250000  1
  Cd  Cd21  1  0.885781  0.771561  0.250000  1
  Cd  Cd22  1  0.228439  0.114219  0.250000  1
  Cd  Cd23  1  0.115081  0.884919  0.750000  1
  Cd  Cd24  1  0.115081  0.230161  0.750000  1
  Cd  Cd25  1  0.769839  0.884919  0.750000  1
  Ni  Ni26  1  0.666667  0.333333  0.750000  1
  Os  Os27  1  0.333333  0.666667  0.250000  1
