# generated using pymatgen
data_PrSmTh2(AsPt)4
_symmetry_space_group_name_H-M   'P 1'
_cell_length_a   4.34929100
_cell_length_b   4.34929082
_cell_length_c   16.09128700
_cell_angle_alpha   90.00000000
_cell_angle_beta   90.00000000
_cell_angle_gamma   120.00000896
_symmetry_Int_Tables_number   1
_chemical_formula_structural   PrSmTh2(AsPt)4
_chemical_formula_sum   'Pr1 Sm1 Th2 As4 Pt4'
_cell_volume   263.60781898
_cell_formula_units_Z   1
loop_
 _symmetry_equiv_pos_site_id
 _symmetry_equiv_pos_as_xyz
  1  'x, y, z'
loop_
 _atom_site_type_symbol
 _atom_site_label
 _atom_site_symmetry_multiplicity
 _atom_site_fract_x
 _atom_site_fract_y
 _atom_site_fract_z
 _atom_site_occupancy
  Pr  Pr0  1  0.000000  0.000000  0.500000  1
  Sm  Sm1  1  0.000000  0.000000  0.000000  1
  Th  Th2  1  0.000000  0.000000  0.249088  1
  Th  Th3  1  0.000000  0.000000  0.750912  1
  As  As4  1  0.333333  0.666667  0.886674  1
  As  As5  1  0.666667  0.333333  0.113326  1
  As  As6  1  0.666667  0.333333  0.383585  1
  As  As7  1  0.333333  0.666667  0.616415  1
  Pt  Pt8  1  0.333333  0.666667  0.357166  1
  Pt  Pt9  1  0.666667  0.333333  0.642834  1
  Pt  Pt10  1  0.666667  0.333333  0.859673  1
  Pt  Pt11  1  0.333333  0.666667  0.140327  1
