# generated using pymatgen
data_Ce2CoReOs2
_symmetry_space_group_name_H-M   'P 1'
_cell_length_a   5.19678070
_cell_length_b   5.50991823
_cell_length_c   5.50991744
_cell_angle_alpha   61.26369410
_cell_angle_beta   57.38844320
_cell_angle_gamma   57.38845199
_symmetry_Int_Tables_number   1
_chemical_formula_structural   Ce2CoReOs2
_chemical_formula_sum   'Ce2 Co1 Re1 Os2'
_cell_volume   107.84236400
_cell_formula_units_Z   1
loop_
 _symmetry_equiv_pos_site_id
 _symmetry_equiv_pos_as_xyz
  1  'x, y, z'
loop_
 _atom_site_type_symbol
 _atom_site_label
 _atom_site_symmetry_multiplicity
 _atom_site_fract_x
 _atom_site_fract_y
 _atom_site_fract_z
 _atom_site_occupancy
  Ce  Ce0  1  0.753472  0.749059  0.749059  1
  Ce  Ce1  1  0.496528  0.500941  0.500941  1
  Co  Co2  1  0.125000  0.125000  0.125000  1
  Re  Re3  1  0.625000  0.125000  0.125000  1
  Os  Os4  1  0.125000  0.125000  0.625000  1
  Os  Os5  1  0.125000  0.625000  0.125000  1
