# generated using pymatgen
data_Ni8Mo5W7N4
_symmetry_space_group_name_H-M   'P 1'
_cell_length_a   6.66681427
_cell_length_b   6.66108028
_cell_length_c   6.66678853
_cell_angle_alpha   89.92916910
_cell_angle_beta   89.92950038
_cell_angle_gamma   89.99530095
_symmetry_Int_Tables_number   1
_chemical_formula_structural   Ni8Mo5W7N4
_chemical_formula_sum   'Ni8 Mo5 W7 N4'
_cell_volume   296.05952753
_cell_formula_units_Z   1
loop_
 _symmetry_equiv_pos_site_id
 _symmetry_equiv_pos_as_xyz
  1  'x, y, z'
loop_
 _atom_site_type_symbol
 _atom_site_label
 _atom_site_symmetry_multiplicity
 _atom_site_fract_x
 _atom_site_fract_y
 _atom_site_fract_z
 _atom_site_occupancy
  Ni  Ni0  1  0.935303  0.566414  0.434289  1
  Ni  Ni1  1  0.185613  0.815641  0.316497  1
  Ni  Ni2  1  0.433827  0.932733  0.566565  1
  Ni  Ni3  1  0.684363  0.683053  0.683251  1
  Ni  Ni4  1  0.815231  0.316896  0.182380  1
  Ni  Ni5  1  0.315129  0.184190  0.816636  1
  Ni  Ni6  1  0.564988  0.432991  0.934116  1
  Ni  Ni7  1  0.066054  0.067462  0.065975  1
  Mo  Mo8  1  0.625475  0.297633  0.548158  1
  Mo  Mo9  1  0.875491  0.703039  0.048911  1
  Mo  Mo10  1  0.374564  0.797949  0.951406  1
  Mo  Mo11  1  0.124322  0.201676  0.451628  1
  Mo  Mo12  1  0.801134  0.952227  0.374901  1
  W  W13  1  0.198443  0.451664  0.125338  1
  W  W14  1  0.050909  0.874792  0.700431  1
  W  W15  1  0.448494  0.124215  0.201410  1
  W  W16  1  0.301731  0.548067  0.625133  1
  W  W17  1  0.948009  0.375665  0.799064  1
  W  W18  1  0.552253  0.625616  0.298866  1
  W  W19  1  0.698291  0.048267  0.874836  1
  N  N20  1  0.875345  0.124143  0.627219  1
  N  N21  1  0.624688  0.875906  0.125551  1
  N  N22  1  0.124965  0.623824  0.873753  1
  N  N23  1  0.375381  0.375936  0.373686  1
