# generated using pymatgen
data_Th2CoSi4Pt
_symmetry_space_group_name_H-M   'P 1'
_cell_length_a   8.61051162
_cell_length_b   8.61051309
_cell_length_c   4.16083600
_cell_angle_alpha   90.00000000
_cell_angle_beta   90.00000000
_cell_angle_gamma   151.73474280
_symmetry_Int_Tables_number   1
_chemical_formula_structural   Th2CoSi4Pt
_chemical_formula_sum   'Th2 Co1 Si4 Pt1'
_cell_volume   146.08589956
_cell_formula_units_Z   1
loop_
 _symmetry_equiv_pos_site_id
 _symmetry_equiv_pos_as_xyz
  1  'x, y, z'
loop_
 _atom_site_type_symbol
 _atom_site_label
 _atom_site_symmetry_multiplicity
 _atom_site_fract_x
 _atom_site_fract_y
 _atom_site_fract_z
 _atom_site_occupancy
  Th  Th0  1  0.606065  0.393935  0.750000  1
  Th  Th1  1  0.395565  0.604435  0.250000  1
  Co  Co2  1  0.179634  0.820366  0.250000  1
  Si  Si3  1  0.967192  0.032808  0.750000  1
  Si  Si4  1  0.042458  0.957542  0.250000  1
  Si  Si5  1  0.244037  0.755963  0.750000  1
  Si  Si6  1  0.742683  0.257317  0.250000  1
  Pt  Pt7  1  0.822366  0.177634  0.750000  1
