# generated using pymatgen
data_Rb6Sc(IrBr6)3
_symmetry_space_group_name_H-M   'P 1'
_cell_length_a   7.62243700
_cell_length_b   7.62243668
_cell_length_c   19.40915200
_cell_angle_alpha   90.00000000
_cell_angle_beta   90.00000000
_cell_angle_gamma   119.99999705
_symmetry_Int_Tables_number   1
_chemical_formula_structural   Rb6Sc(IrBr6)3
_chemical_formula_sum   'Rb6 Sc1 Ir3 Br18'
_cell_volume   976.61833779
_cell_formula_units_Z   1
loop_
 _symmetry_equiv_pos_site_id
 _symmetry_equiv_pos_as_xyz
  1  'x, y, z'
loop_
 _atom_site_type_symbol
 _atom_site_label
 _atom_site_symmetry_multiplicity
 _atom_site_fract_x
 _atom_site_fract_y
 _atom_site_fract_z
 _atom_site_occupancy
  Rb  Rb0  1  0.333333  0.666667  0.063980  1
  Rb  Rb1  1  0.666667  0.333333  0.938947  1
  Rb  Rb2  1  0.666667  0.333333  0.566417  1
  Rb  Rb3  1  0.333333  0.666667  0.439581  1
  Rb  Rb4  1  0.000000  0.000000  0.250754  1
  Rb  Rb5  1  0.000000  0.000000  0.745141  1
  Sc  Sc6  1  0.333333  0.666667  0.838112  1
  Ir  Ir7  1  0.333333  0.666667  0.667752  1
  Ir  Ir8  1  0.666667  0.333333  0.335523  1
  Ir  Ir9  1  0.666667  0.333333  0.164502  1
  Br  Br10  1  0.178531  0.357063  0.593833  1
  Br  Br11  1  0.822190  0.644378  0.408097  1
  Br  Br12  1  0.642937  0.821469  0.593833  1
  Br  Br13  1  0.822168  0.644336  0.091820  1
  Br  Br14  1  0.355622  0.177810  0.408097  1
  Br  Br15  1  0.168303  0.336607  0.908908  1
  Br  Br16  1  0.178531  0.821469  0.593833  1
  Br  Br17  1  0.355664  0.177832  0.091820  1
  Br  Br18  1  0.822190  0.177810  0.408097  1
  Br  Br19  1  0.663393  0.831697  0.908908  1
  Br  Br20  1  0.822168  0.177832  0.091820  1
  Br  Br21  1  0.168303  0.831697  0.908908  1
  Br  Br22  1  0.519247  0.038496  0.249939  1
  Br  Br23  1  0.490846  0.981692  0.743833  1
  Br  Br24  1  0.961504  0.480753  0.249939  1
  Br  Br25  1  0.018308  0.509154  0.743833  1
  Br  Br26  1  0.519247  0.480753  0.249939  1
  Br  Br27  1  0.490846  0.509154  0.743833  1
