# generated using pymatgen
data_Ho4Al18Pd4RuRh
_symmetry_space_group_name_H-M   'P 1'
_cell_length_a   7.60918015
_cell_length_b   7.60917974
_cell_length_c   9.45233883
_cell_angle_alpha   90.05094134
_cell_angle_beta   90.05094435
_cell_angle_gamma   119.63045240
_symmetry_Int_Tables_number   1
_chemical_formula_structural   Ho4Al18Pd4RuRh
_chemical_formula_sum   'Ho4 Al18 Pd4 Ru1 Rh1'
_cell_volume   475.71862681
_cell_formula_units_Z   1
loop_
 _symmetry_equiv_pos_site_id
 _symmetry_equiv_pos_as_xyz
  1  'x, y, z'
loop_
 _atom_site_type_symbol
 _atom_site_label
 _atom_site_symmetry_multiplicity
 _atom_site_fract_x
 _atom_site_fract_y
 _atom_site_fract_z
 _atom_site_occupancy
  Ho  Ho0  1  0.995443  0.670565  0.248994  1
  Ho  Ho1  1  0.005412  0.330056  0.750729  1
  Ho  Ho2  1  0.669944  0.994588  0.249271  1
  Ho  Ho3  1  0.329435  0.004557  0.751006  1
  Al  Al4  1  0.127437  0.128883  0.246289  1
  Al  Al5  1  0.871117  0.872563  0.753711  1
  Al  Al6  1  0.994179  0.330485  0.074016  1
  Al  Al7  1  0.995821  0.662659  0.925828  1
  Al  Al8  1  0.998270  0.665785  0.579163  1
  Al  Al9  1  0.334215  0.001730  0.420837  1
  Al  Al10  1  0.000924  0.335110  0.421810  1
  Al  Al11  1  0.664890  0.999076  0.578190  1
  Al  Al12  1  0.669515  0.005821  0.925984  1
  Al  Al13  1  0.337341  0.004179  0.074172  1
  Al  Al14  1  0.334034  0.334557  0.558975  1
  Al  Al15  1  0.665443  0.665967  0.441025  1
  Al  Al16  1  0.671988  0.665957  0.050006  1
  Al  Al17  1  0.334044  0.328012  0.949994  1
  Al  Al18  1  0.339255  0.546503  0.248276  1
  Al  Al19  1  0.659207  0.450286  0.755144  1
  Al  Al20  1  0.549714  0.340793  0.244856  1
  Al  Al21  1  0.453497  0.660745  0.751724  1
  Pd  Pd22  1  0.327509  0.672491  0.000000  1
  Pd  Pd23  1  0.326819  0.673181  0.500000  1
  Pd  Pd24  1  0.671928  0.328072  0.500000  1
  Pd  Pd25  1  0.999658  0.000342  0.500000  1
  Ru  Ru26  1  0.672395  0.327605  0.000000  1
  Rh  Rh27  1  0.000564  0.999436  0.000000  1
