# generated using pymatgen
data_Zr2Sc2Mn5Re3
_symmetry_space_group_name_H-M   'P 1'
_cell_length_a   5.15419400
_cell_length_b   5.05863597
_cell_length_c   8.32875303
_cell_angle_alpha   89.99153733
_cell_angle_beta   90.00000000
_cell_angle_gamma   120.62685799
_symmetry_Int_Tables_number   1
_chemical_formula_structural   Zr2Sc2Mn5Re3
_chemical_formula_sum   'Zr2 Sc2 Mn5 Re3'
_cell_volume   186.86446161
_cell_formula_units_Z   1
loop_
 _symmetry_equiv_pos_site_id
 _symmetry_equiv_pos_as_xyz
  1  'x, y, z'
loop_
 _atom_site_type_symbol
 _atom_site_label
 _atom_site_symmetry_multiplicity
 _atom_site_fract_x
 _atom_site_fract_y
 _atom_site_fract_z
 _atom_site_occupancy
  Zr  Zr0  1  0.333112  0.666226  0.437655  1
  Zr  Zr1  1  0.665933  0.331865  0.935845  1
  Sc  Sc2  1  0.666008  0.332016  0.564454  1
  Sc  Sc3  1  0.333054  0.666109  0.062518  1
  Mn  Mn4  1  0.653847  0.824438  0.749830  1
  Mn  Mn5  1  0.337859  0.167548  0.249649  1
  Mn  Mn6  1  0.829689  0.167548  0.249649  1
  Mn  Mn7  1  0.179823  0.359646  0.750066  1
  Mn  Mn8  1  0.170591  0.824438  0.749830  1
  Re  Re9  1  0.824710  0.649420  0.249869  1
  Re  Re10  1  0.002709  0.005418  0.509143  1
  Re  Re11  1  0.002664  0.005329  0.991491  1
