# generated using pymatgen
data_Rb(NpS3)2
_symmetry_space_group_name_H-M   'P 1'
_cell_length_a   11.28065002
_cell_length_b   11.28065036
_cell_length_c   11.28065025
_cell_angle_alpha   159.76780331
_cell_angle_beta   153.85649051
_cell_angle_gamma   33.28071694
_symmetry_Int_Tables_number   1
_chemical_formula_structural   Rb(NpS3)2
_chemical_formula_sum   'Rb1 Np2 S6'
_cell_volume   218.55042076
_cell_formula_units_Z   1
loop_
 _symmetry_equiv_pos_site_id
 _symmetry_equiv_pos_as_xyz
  1  'x, y, z'
loop_
 _atom_site_type_symbol
 _atom_site_label
 _atom_site_symmetry_multiplicity
 _atom_site_fract_x
 _atom_site_fract_y
 _atom_site_fract_z
 _atom_site_occupancy
  Rb  Rb0  1  0.000000  0.000000  0.000000  1
  Np  Np1  1  0.316946  0.816946  0.500000  1
  Np  Np2  1  0.683054  0.183054  0.500000  1
  S  S3  1  0.145994  0.387384  0.758609  1
  S  S4  1  0.229146  0.229146  0.000000  1
  S  S5  1  0.371224  0.612616  0.758609  1
  S  S6  1  0.628776  0.387384  0.241391  1
  S  S7  1  0.854006  0.612616  0.241391  1
  S  S8  1  0.770854  0.770854  0.000000  1
