# generated using pymatgen
data_Li3Yb2PrAu3
_symmetry_space_group_name_H-M   'P 1'
_cell_length_a   7.44720400
_cell_length_b   7.47032490
_cell_length_c   4.25058500
_cell_angle_alpha   90.00000000
_cell_angle_beta   90.00000000
_cell_angle_gamma   120.10275580
_symmetry_Int_Tables_number   1
_chemical_formula_structural   Li3Yb2PrAu3
_chemical_formula_sum   'Li3 Yb2 Pr1 Au3'
_cell_volume   204.57919369
_cell_formula_units_Z   1
loop_
 _symmetry_equiv_pos_site_id
 _symmetry_equiv_pos_as_xyz
  1  'x, y, z'
loop_
 _atom_site_type_symbol
 _atom_site_label
 _atom_site_symmetry_multiplicity
 _atom_site_fract_x
 _atom_site_fract_y
 _atom_site_fract_z
 _atom_site_occupancy
  Li  Li0  1  0.758950  0.764039  0.000000  1
  Li  Li1  1  0.241050  0.005089  0.000000  1
  Li  Li2  1  0.000000  0.228555  0.000000  1
  Yb  Yb3  1  0.408172  0.411418  0.500000  1
  Yb  Yb4  1  0.591828  0.003245  0.500000  1
  Pr  Pr5  1  0.000000  0.585129  0.500000  1
  Au  Au6  1  0.660083  0.330604  0.000000  1
  Au  Au7  1  0.339917  0.670522  0.000000  1
  Au  Au8  1  0.000000  0.001399  0.500000  1
