# generated using pymatgen
data_Ba2GaBiSeS4
_symmetry_space_group_name_H-M   'P 1'
_cell_length_a   9.01892600
_cell_length_b   9.29148000
_cell_length_c   12.40552500
_cell_angle_alpha   90.00000000
_cell_angle_beta   90.00000000
_cell_angle_gamma   90.00000000
_symmetry_Int_Tables_number   1
_chemical_formula_structural   Ba2GaBiSeS4
_chemical_formula_sum   'Ba8 Ga4 Bi4 Se4 S16'
_cell_volume   1039.57270524
_cell_formula_units_Z   4
loop_
 _symmetry_equiv_pos_site_id
 _symmetry_equiv_pos_as_xyz
  1  'x, y, z'
loop_
 _atom_site_type_symbol
 _atom_site_label
 _atom_site_symmetry_multiplicity
 _atom_site_fract_x
 _atom_site_fract_y
 _atom_site_fract_z
 _atom_site_occupancy
  Ba  Ba0  1  0.008524  0.117543  0.825316  1
  Ba  Ba1  1  0.491476  0.382457  0.325316  1
  Ba  Ba2  1  0.508524  0.882457  0.174684  1
  Ba  Ba3  1  0.991476  0.617543  0.674684  1
  Ba  Ba4  1  0.991476  0.882457  0.174684  1
  Ba  Ba5  1  0.508524  0.617543  0.674684  1
  Ba  Ba6  1  0.491476  0.117543  0.825316  1
  Ba  Ba7  1  0.008524  0.382457  0.325316  1
  Ga  Ga8  1  0.250000  0.324268  0.596059  1
  Ga  Ga9  1  0.250000  0.175732  0.096059  1
  Ga  Ga10  1  0.750000  0.675732  0.403941  1
  Ga  Ga11  1  0.750000  0.824268  0.903941  1
  Bi  Bi12  1  0.250000  0.969752  0.512831  1
  Bi  Bi13  1  0.250000  0.530248  0.012831  1
  Bi  Bi14  1  0.750000  0.030248  0.487169  1
  Bi  Bi15  1  0.750000  0.469752  0.987169  1
  Se  Se16  1  0.250000  0.871118  0.718043  1
  Se  Se17  1  0.250000  0.628882  0.218043  1
  Se  Se18  1  0.750000  0.128882  0.281957  1
  Se  Se19  1  0.750000  0.371118  0.781957  1
  S  S20  1  0.049896  0.173975  0.554872  1
  S  S21  1  0.450104  0.326025  0.054872  1
  S  S22  1  0.549896  0.826025  0.445128  1
  S  S23  1  0.950104  0.673975  0.945128  1
  S  S24  1  0.950104  0.826025  0.445128  1
  S  S25  1  0.549896  0.673975  0.945128  1
  S  S26  1  0.450104  0.173975  0.554872  1
  S  S27  1  0.049896  0.326025  0.054872  1
  S  S28  1  0.250000  0.377120  0.774423  1
  S  S29  1  0.250000  0.122880  0.274423  1
  S  S30  1  0.750000  0.622880  0.225577  1
  S  S31  1  0.750000  0.877120  0.725577  1
  S  S32  1  0.250000  0.975676  0.995636  1
  S  S33  1  0.250000  0.524324  0.495636  1
  S  S34  1  0.750000  0.024324  0.004364  1
  S  S35  1  0.750000  0.475676  0.504364  1
