# generated using pymatgen
data_Sm3Dy3(Si3Ru)8
_symmetry_space_group_name_H-M   'P 1'
_cell_length_a   10.13420889
_cell_length_b   10.13420831
_cell_length_c   8.17772584
_cell_angle_alpha   90.07030110
_cell_angle_beta   89.92970142
_cell_angle_gamma   132.42330736
_symmetry_Int_Tables_number   1
_chemical_formula_structural   Sm3Dy3(Si3Ru)8
_chemical_formula_sum   'Sm3 Dy3 Si24 Ru8'
_cell_volume   619.97572628
_cell_formula_units_Z   1
loop_
 _symmetry_equiv_pos_site_id
 _symmetry_equiv_pos_as_xyz
  1  'x, y, z'
loop_
 _atom_site_type_symbol
 _atom_site_label
 _atom_site_symmetry_multiplicity
 _atom_site_fract_x
 _atom_site_fract_y
 _atom_site_fract_z
 _atom_site_occupancy
  Sm  Sm0  1  0.502602  0.002602  0.750000  1
  Sm  Sm1  1  0.997442  0.497442  0.250000  1
  Sm  Sm2  1  0.497112  0.997112  0.250000  1
  Dy  Dy3  1  0.499995  0.499998  0.500137  1
  Dy  Dy4  1  0.999998  0.999995  0.999863  1
  Dy  Dy5  1  0.002423  0.502423  0.750000  1
  Si  Si6  1  0.795551  0.206329  0.501242  1
  Si  Si7  1  0.293613  0.704239  0.998773  1
  Si  Si8  1  0.204239  0.793613  0.501227  1
  Si  Si9  1  0.706329  0.295551  0.998758  1
  Si  Si10  1  0.332404  0.332353  0.833098  1
  Si  Si11  1  0.667567  0.667660  0.167012  1
  Si  Si12  1  0.167660  0.167567  0.332988  1
  Si  Si13  1  0.832353  0.832404  0.666902  1
  Si  Si14  1  0.121289  0.887997  0.727910  1
  Si  Si15  1  0.112608  0.879008  0.271144  1
  Si  Si16  1  0.611241  0.377463  0.228507  1
  Si  Si17  1  0.622142  0.388532  0.771618  1
  Si  Si18  1  0.877463  0.111241  0.271493  1
  Si  Si19  1  0.888532  0.122142  0.728382  1
  Si  Si20  1  0.387997  0.621289  0.772090  1
  Si  Si21  1  0.379008  0.612608  0.228856  1
  Si  Si22  1  0.345536  0.112380  0.505049  1
  Si  Si23  1  0.888370  0.656179  0.496054  1
  Si  Si24  1  0.387439  0.154296  0.005109  1
  Si  Si25  1  0.844221  0.611644  0.993965  1
  Si  Si26  1  0.654296  0.887439  0.494891  1
  Si  Si27  1  0.111644  0.344221  0.506035  1
  Si  Si28  1  0.612380  0.845536  0.994951  1
  Si  Si29  1  0.156179  0.388370  0.003946  1
  Ru  Ru30  1  0.670151  0.334095  0.500726  1
  Ru  Ru31  1  0.165959  0.829883  0.998392  1
  Ru  Ru32  1  0.329883  0.665959  0.501608  1
  Ru  Ru33  1  0.834095  0.170151  0.999274  1
  Ru  Ru34  1  0.125864  0.125869  0.626660  1
  Ru  Ru35  1  0.874181  0.874365  0.373066  1
  Ru  Ru36  1  0.374365  0.374181  0.126934  1
  Ru  Ru37  1  0.625869  0.625864  0.873340  1
