# generated using pymatgen
data_CePrURu3
_symmetry_space_group_name_H-M   'P 1'
_cell_length_a   5.27927398
_cell_length_b   5.27927385
_cell_length_c   5.27927440
_cell_angle_alpha   68.22200922
_cell_angle_beta   68.22200563
_cell_angle_gamma   68.22200911
_symmetry_Int_Tables_number   1
_chemical_formula_structural   CePrURu3
_chemical_formula_sum   'Ce1 Pr1 U1 Ru3'
_cell_volume   122.14970515
_cell_formula_units_Z   1
loop_
 _symmetry_equiv_pos_site_id
 _symmetry_equiv_pos_as_xyz
  1  'x, y, z'
loop_
 _atom_site_type_symbol
 _atom_site_label
 _atom_site_symmetry_multiplicity
 _atom_site_fract_x
 _atom_site_fract_y
 _atom_site_fract_z
 _atom_site_occupancy
  Ce  Ce0  1  0.496782  0.496782  0.496782  1
  Pr  Pr1  1  0.744766  0.744766  0.744766  1
  U  U2  1  0.126369  0.126369  0.126369  1
  Ru  Ru3  1  0.127962  0.127962  0.626159  1
  Ru  Ru4  1  0.127962  0.626159  0.127962  1
  Ru  Ru5  1  0.626159  0.127962  0.127962  1
