# generated using pymatgen
data_Tb11ThCoTc3
_symmetry_space_group_name_H-M   'P 1'
_cell_length_a   6.34469329
_cell_length_b   7.32817490
_cell_length_c   9.35098800
_cell_angle_alpha   90.00000000
_cell_angle_beta   90.00000000
_cell_angle_gamma   90.54157889
_symmetry_Int_Tables_number   1
_chemical_formula_structural   Tb11ThCoTc3
_chemical_formula_sum   'Tb11 Th1 Co1 Tc3'
_cell_volume   434.75497087
_cell_formula_units_Z   1
loop_
 _symmetry_equiv_pos_site_id
 _symmetry_equiv_pos_as_xyz
  1  'x, y, z'
loop_
 _atom_site_type_symbol
 _atom_site_label
 _atom_site_symmetry_multiplicity
 _atom_site_fract_x
 _atom_site_fract_y
 _atom_site_fract_z
 _atom_site_occupancy
  Tb  Tb0  1  0.331497  0.678737  0.066003  1
  Tb  Tb1  1  0.164151  0.176823  0.438008  1
  Tb  Tb2  1  0.667953  0.324469  0.568502  1
  Tb  Tb3  1  0.830073  0.822662  0.932699  1
  Tb  Tb4  1  0.667953  0.324469  0.931498  1
  Tb  Tb5  1  0.830073  0.822662  0.567301  1
  Tb  Tb6  1  0.331497  0.678737  0.433997  1
  Tb  Tb7  1  0.164151  0.176823  0.061992  1
  Tb  Tb8  1  0.628203  0.044692  0.250000  1
  Tb  Tb9  1  0.145003  0.458475  0.750000  1
  Tb  Tb10  1  0.370846  0.950919  0.750000  1
  Th  Th11  1  0.859299  0.548861  0.250000  1
  Co  Co12  1  0.540848  0.615006  0.750000  1
  Tc  Tc13  1  0.022790  0.873522  0.250000  1
  Tc  Tc14  1  0.478345  0.391146  0.250000  1
  Tc  Tc15  1  0.967317  0.111994  0.750000  1
