# generated using pymatgen
data_HfGa4(Fe3Ge)2
_symmetry_space_group_name_H-M   'P 1'
_cell_length_a   4.97691815
_cell_length_b   6.47828735
_cell_length_c   6.47828713
_cell_angle_alpha   80.11608548
_cell_angle_beta   67.41070299
_cell_angle_gamma   67.41070253
_symmetry_Int_Tables_number   1
_chemical_formula_structural   HfGa4(Fe3Ge)2
_chemical_formula_sum   'Hf1 Ga4 Fe6 Ge2'
_cell_volume   177.98195096
_cell_formula_units_Z   1
loop_
 _symmetry_equiv_pos_site_id
 _symmetry_equiv_pos_as_xyz
  1  'x, y, z'
loop_
 _atom_site_type_symbol
 _atom_site_label
 _atom_site_symmetry_multiplicity
 _atom_site_fract_x
 _atom_site_fract_y
 _atom_site_fract_z
 _atom_site_occupancy
  Hf  Hf0  1  0.000000  0.000000  0.000000  1
  Ga  Ga1  1  0.338241  0.661759  0.661759  1
  Ga  Ga2  1  0.661759  0.338241  0.338241  1
  Ga  Ga3  1  0.328613  0.171387  0.171387  1
  Ga  Ga4  1  0.671387  0.828613  0.828613  1
  Fe  Fe5  1  0.500000  0.246224  0.753776  1
  Fe  Fe6  1  0.500000  0.753776  0.246224  1
  Fe  Fe7  1  0.000000  0.500000  0.000000  1
  Fe  Fe8  1  0.500000  0.500000  0.000000  1
  Fe  Fe9  1  0.000000  0.000000  0.500000  1
  Fe  Fe10  1  0.500000  0.000000  0.500000  1
  Ge  Ge11  1  0.000000  0.659893  0.340107  1
  Ge  Ge12  1  0.000000  0.340107  0.659893  1
