# generated using pymatgen
data_K2FeP2Rh
_symmetry_space_group_name_H-M   'P 1'
_cell_length_a   3.89898000
_cell_length_b   3.89898000
_cell_length_c   10.48270800
_cell_angle_alpha   90.00000000
_cell_angle_beta   90.00000000
_cell_angle_gamma   90.00000000
_symmetry_Int_Tables_number   1
_chemical_formula_structural   K2FeP2Rh
_chemical_formula_sum   'K2 Fe1 P2 Rh1'
_cell_volume   159.35859916
_cell_formula_units_Z   1
loop_
 _symmetry_equiv_pos_site_id
 _symmetry_equiv_pos_as_xyz
  1  'x, y, z'
loop_
 _atom_site_type_symbol
 _atom_site_label
 _atom_site_symmetry_multiplicity
 _atom_site_fract_x
 _atom_site_fract_y
 _atom_site_fract_z
 _atom_site_occupancy
  K  K0  1  0.000000  0.500000  0.288944  1
  K  K1  1  0.500000  0.000000  0.711056  1
  Fe  Fe2  1  0.000000  0.000000  0.000000  1
  P  P3  1  0.000000  0.500000  0.885685  1
  P  P4  1  0.500000  0.000000  0.114315  1
  Rh  Rh5  1  0.500000  0.500000  0.000000  1
