# generated using pymatgen
data_MnCr3Fe3P4W
_symmetry_space_group_name_H-M   'P 1'
_cell_length_a   3.54442600
_cell_length_b   5.86078468
_cell_length_c   6.64585995
_cell_angle_alpha   89.98932760
_cell_angle_beta   90.00000000
_cell_angle_gamma   90.00000000
_symmetry_Int_Tables_number   1
_chemical_formula_structural   MnCr3Fe3P4W
_chemical_formula_sum   'Mn1 Cr3 Fe3 P4 W1'
_cell_volume   138.05522796
_cell_formula_units_Z   1
loop_
 _symmetry_equiv_pos_site_id
 _symmetry_equiv_pos_as_xyz
  1  'x, y, z'
loop_
 _atom_site_type_symbol
 _atom_site_label
 _atom_site_symmetry_multiplicity
 _atom_site_fract_x
 _atom_site_fract_y
 _atom_site_fract_z
 _atom_site_occupancy
  Mn  Mn0  1  0.250000  0.646038  0.059708  1
  Cr  Cr1  1  0.250000  0.032253  0.828858  1
  Cr  Cr2  1  0.750000  0.476944  0.331057  1
  Cr  Cr3  1  0.250000  0.518452  0.671258  1
  Fe  Fe4  1  0.750000  0.354532  0.938928  1
  Fe  Fe5  1  0.250000  0.145567  0.438671  1
  Fe  Fe6  1  0.750000  0.857646  0.562089  1
  P  P7  1  0.250000  0.278776  0.127008  1
  P  P8  1  0.750000  0.725233  0.864755  1
  P  P9  1  0.250000  0.759608  0.385666  1
  P  P10  1  0.750000  0.233332  0.625022  1
  W  W11  1  0.750000  0.971623  0.166980  1
