# generated using pymatgen
data_Tb3Lu5Sc12Si15Au
_symmetry_space_group_name_H-M   'P 1'
_cell_length_a   7.07976190
_cell_length_b   7.33493055
_cell_length_c   13.99402026
_cell_angle_alpha   89.93524625
_cell_angle_beta   89.54815155
_cell_angle_gamma   90.12013533
_symmetry_Int_Tables_number   1
_chemical_formula_structural   Tb3Lu5Sc12Si15Au
_chemical_formula_sum   'Tb3 Lu5 Sc12 Si15 Au1'
_cell_volume   726.67866687
_cell_formula_units_Z   1
loop_
 _symmetry_equiv_pos_site_id
 _symmetry_equiv_pos_as_xyz
  1  'x, y, z'
loop_
 _atom_site_type_symbol
 _atom_site_label
 _atom_site_symmetry_multiplicity
 _atom_site_fract_x
 _atom_site_fract_y
 _atom_site_fract_z
 _atom_site_occupancy
  Tb  Tb0  1  0.009132  0.173245  0.399837  1
  Tb  Tb1  1  0.509513  0.323916  0.400725  1
  Tb  Tb2  1  0.492438  0.676493  0.600212  1
  Lu  Lu3  1  0.011935  0.176130  0.096529  1
  Lu  Lu4  1  0.987759  0.824615  0.905222  1
  Lu  Lu5  1  0.487092  0.678327  0.903765  1
  Lu  Lu6  1  0.990268  0.827356  0.598770  1
  Lu  Lu7  1  0.511614  0.322534  0.095486  1
  Sc  Sc8  1  0.163885  0.502386  0.752947  1
  Sc  Sc9  1  0.836149  0.497816  0.249257  1
  Sc  Sc10  1  0.336354  0.000834  0.247500  1
  Sc  Sc11  1  0.665780  0.994883  0.751996  1
  Sc  Sc12  1  0.340426  0.175303  0.626978  1
  Sc  Sc13  1  0.664768  0.824692  0.372578  1
  Sc  Sc14  1  0.166436  0.673647  0.372007  1
  Sc  Sc15  1  0.669391  0.823837  0.123328  1
  Sc  Sc16  1  0.829759  0.326372  0.626975  1
  Sc  Sc17  1  0.329069  0.175526  0.876921  1
  Sc  Sc18  1  0.832200  0.321559  0.876823  1
  Sc  Sc19  1  0.167818  0.676683  0.123378  1
  Si  Si20  1  0.036296  0.116348  0.751620  1
  Si  Si21  1  0.965006  0.885244  0.247029  1
  Si  Si22  1  0.465430  0.614288  0.246353  1
  Si  Si23  1  0.535960  0.386383  0.754274  1
  Si  Si24  1  0.284516  0.872842  0.753051  1
  Si  Si25  1  0.712148  0.129174  0.245645  1
  Si  Si26  1  0.213643  0.369370  0.245017  1
  Si  Si27  1  0.789460  0.629938  0.755238  1
  Si  Si28  1  0.834591  0.540825  0.460241  1
  Si  Si29  1  0.338032  0.960788  0.461080  1
  Si  Si30  1  0.841179  0.533888  0.038797  1
  Si  Si31  1  0.662730  0.035539  0.538537  1
  Si  Si32  1  0.158517  0.465639  0.961413  1
  Si  Si33  1  0.658680  0.033608  0.960401  1
  Si  Si34  1  0.340405  0.965389  0.039274  1
  Au  Au35  1  0.161619  0.464586  0.540797  1
