# generated using pymatgen
data_Mn5Fe7(Mo3N)4
_symmetry_space_group_name_H-M   'P 1'
_cell_length_a   7.82042440
_cell_length_b   7.82061429
_cell_length_c   7.82061300
_cell_angle_alpha   60.00000124
_cell_angle_beta   59.99919802
_cell_angle_gamma   59.99920483
_symmetry_Int_Tables_number   1
_chemical_formula_structural   Mn5Fe7(Mo3N)4
_chemical_formula_sum   'Mn5 Fe7 Mo12 N4'
_cell_volume   338.21413112
_cell_formula_units_Z   1
loop_
 _symmetry_equiv_pos_site_id
 _symmetry_equiv_pos_as_xyz
  1  'x, y, z'
loop_
 _atom_site_type_symbol
 _atom_site_label
 _atom_site_symmetry_multiplicity
 _atom_site_fract_x
 _atom_site_fract_y
 _atom_site_fract_z
 _atom_site_occupancy
  Mn  Mn0  1  0.123794  0.625402  0.625402  1
  Mn  Mn1  1  0.625939  0.125306  0.624378  1
  Mn  Mn2  1  0.625939  0.624378  0.125306  1
  Mn  Mn3  1  0.625939  0.624378  0.624378  1
  Mn  Mn4  1  0.729320  0.423560  0.423560  1
  Fe  Fe5  1  0.420064  0.733925  0.423005  1
  Fe  Fe6  1  0.420064  0.423005  0.733925  1
  Fe  Fe7  1  0.420064  0.423005  0.423005  1
  Fe  Fe8  1  0.515059  0.828314  0.828314  1
  Fe  Fe9  1  0.827688  0.514620  0.828846  1
  Fe  Fe10  1  0.827688  0.828846  0.514620  1
  Fe  Fe11  1  0.827688  0.828846  0.828846  1
  Mo  Mo12  1  0.799965  0.798975  0.200530  1
  Mo  Mo13  1  0.201936  0.201919  0.798073  1
  Mo  Mo14  1  0.799965  0.200530  0.798975  1
  Mo  Mo15  1  0.201936  0.798073  0.201919  1
  Mo  Mo16  1  0.201936  0.798073  0.798073  1
  Mo  Mo17  1  0.799965  0.200530  0.200530  1
  Mo  Mo18  1  0.451683  0.451558  0.048379  1
  Mo  Mo19  1  0.049321  0.049147  0.450766  1
  Mo  Mo20  1  0.451683  0.048379  0.451558  1
  Mo  Mo21  1  0.049321  0.450766  0.049147  1
  Mo  Mo22  1  0.049321  0.450766  0.450766  1
  Mo  Mo23  1  0.451683  0.048379  0.048379  1
  N  N24  1  0.624294  0.125235  0.125235  1
  N  N25  1  0.125913  0.624748  0.124670  1
  N  N26  1  0.125913  0.124670  0.624748  1
  N  N27  1  0.125913  0.124670  0.124670  1
