# generated using pymatgen
data_Er7TmSc12(GaSi3)4
_symmetry_space_group_name_H-M   'P 1'
_cell_length_a   7.10047366
_cell_length_b   7.38403492
_cell_length_c   14.09141103
_cell_angle_alpha   89.98979336
_cell_angle_beta   89.85410637
_cell_angle_gamma   90.14348906
_symmetry_Int_Tables_number   1
_chemical_formula_structural   Er7TmSc12(GaSi3)4
_chemical_formula_sum   'Er7 Tm1 Sc12 Ga4 Si12'
_cell_volume   738.81000570
_cell_formula_units_Z   1
loop_
 _symmetry_equiv_pos_site_id
 _symmetry_equiv_pos_as_xyz
  1  'x, y, z'
loop_
 _atom_site_type_symbol
 _atom_site_label
 _atom_site_symmetry_multiplicity
 _atom_site_fract_x
 _atom_site_fract_y
 _atom_site_fract_z
 _atom_site_occupancy
  Er  Er0  1  0.013495  0.175318  0.097088  1
  Er  Er1  1  0.988180  0.824391  0.901898  1
  Er  Er2  1  0.487126  0.677377  0.901713  1
  Er  Er3  1  0.988028  0.826993  0.600100  1
  Er  Er4  1  0.510718  0.320913  0.097198  1
  Er  Er5  1  0.009632  0.175155  0.400707  1
  Er  Er6  1  0.510872  0.324050  0.400634  1
  Tm  Tm7  1  0.490445  0.676400  0.600491  1
  Sc  Sc8  1  0.162787  0.501446  0.751441  1
  Sc  Sc9  1  0.836690  0.497854  0.250023  1
  Sc  Sc10  1  0.336293  0.002657  0.248339  1
  Sc  Sc11  1  0.663349  0.997680  0.749968  1
  Sc  Sc12  1  0.333635  0.174514  0.627894  1
  Sc  Sc13  1  0.669064  0.826420  0.373628  1
  Sc  Sc14  1  0.170037  0.673567  0.372943  1
  Sc  Sc15  1  0.668581  0.826275  0.125584  1
  Sc  Sc16  1  0.829019  0.324844  0.626771  1
  Sc  Sc17  1  0.330628  0.175561  0.874560  1
  Sc  Sc18  1  0.829244  0.323412  0.874204  1
  Sc  Sc19  1  0.173149  0.675378  0.124492  1
  Ga  Ga20  1  0.162854  0.461791  0.539725  1
  Ga  Ga21  1  0.838264  0.537758  0.461442  1
  Ga  Ga22  1  0.338508  0.962031  0.461534  1
  Ga  Ga23  1  0.838824  0.537924  0.038626  1
  Si  Si24  1  0.032770  0.114845  0.751137  1
  Si  Si25  1  0.967373  0.885265  0.249234  1
  Si  Si26  1  0.467714  0.613288  0.248517  1
  Si  Si27  1  0.532759  0.386844  0.751099  1
  Si  Si28  1  0.285934  0.870223  0.751011  1
  Si  Si29  1  0.714903  0.129281  0.248681  1
  Si  Si30  1  0.214029  0.370577  0.248766  1
  Si  Si31  1  0.786342  0.630204  0.751344  1
  Si  Si32  1  0.658900  0.035697  0.539293  1
  Si  Si33  1  0.158951  0.463921  0.960858  1
  Si  Si34  1  0.657631  0.035593  0.961291  1
  Si  Si35  1  0.343271  0.964555  0.037768  1
