# generated using pymatgen
data_Nd4Tm3Lu3Si8
_symmetry_space_group_name_H-M   'P 1'
_cell_length_a   7.68888900
_cell_length_b   7.68849763
_cell_length_c   14.12565117
_cell_angle_alpha   89.95349681
_cell_angle_beta   90.00000000
_cell_angle_gamma   90.00000000
_symmetry_Int_Tables_number   1
_chemical_formula_structural   Nd4Tm3Lu3Si8
_chemical_formula_sum   'Nd8 Tm6 Lu6 Si16'
_cell_volume   835.05178802
_cell_formula_units_Z   2
loop_
 _symmetry_equiv_pos_site_id
 _symmetry_equiv_pos_as_xyz
  1  'x, y, z'
loop_
 _atom_site_type_symbol
 _atom_site_label
 _atom_site_symmetry_multiplicity
 _atom_site_fract_x
 _atom_site_fract_y
 _atom_site_fract_z
 _atom_site_occupancy
  Nd  Nd0  1  0.642670  0.992834  0.459280  1
  Nd  Nd1  1  0.357390  0.007250  0.959270  1
  Nd  Nd2  1  0.992677  0.642656  0.540812  1
  Nd  Nd3  1  0.492677  0.857344  0.209188  1
  Nd  Nd4  1  0.507425  0.142571  0.709175  1
  Nd  Nd5  1  0.857390  0.492750  0.790730  1
  Nd  Nd6  1  0.142670  0.507166  0.290720  1
  Nd  Nd7  1  0.007425  0.357429  0.040825  1
  Tm  Tm8  1  0.859867  0.006696  0.874143  1
  Tm  Tm9  1  0.140093  0.993459  0.374126  1
  Tm  Tm10  1  0.506575  0.640095  0.624175  1
  Tm  Tm11  1  0.359867  0.493304  0.875857  1
  Tm  Tm12  1  0.640093  0.506541  0.375874  1
  Tm  Tm13  1  0.006575  0.859905  0.125825  1
  Lu  Lu14  1  0.493521  0.359731  0.124187  1
  Lu  Lu15  1  0.993521  0.140269  0.625813  1
  Lu  Lu16  1  0.318107  0.318053  0.500065  1
  Lu  Lu17  1  0.181665  0.818386  0.749956  1
  Lu  Lu18  1  0.818107  0.181947  0.249935  1
  Lu  Lu19  1  0.681665  0.681614  0.000044  1
  Si  Si20  1  0.288833  0.938287  0.562145  1
  Si  Si21  1  0.710611  0.062381  0.062106  1
  Si  Si22  1  0.938068  0.288922  0.438240  1
  Si  Si23  1  0.438068  0.211078  0.311760  1
  Si  Si24  1  0.562044  0.789212  0.812019  1
  Si  Si25  1  0.210611  0.437619  0.687894  1
  Si  Si26  1  0.788833  0.561713  0.187855  1
  Si  Si27  1  0.062044  0.710788  0.937981  1
  Si  Si28  1  0.796174  0.849532  0.687402  1
  Si  Si29  1  0.204469  0.151271  0.187423  1
  Si  Si30  1  0.849104  0.795988  0.312456  1
  Si  Si31  1  0.349104  0.704012  0.437544  1
  Si  Si32  1  0.650706  0.295958  0.937804  1
  Si  Si33  1  0.704469  0.348729  0.562577  1
  Si  Si34  1  0.296174  0.650468  0.062598  1
  Si  Si35  1  0.150706  0.204042  0.812196  1
