# generated using pymatgen
data_Mg12GaSi3Pd8
_symmetry_space_group_name_H-M   'P 1'
_cell_length_a   8.37689851
_cell_length_b   8.37689917
_cell_length_c   8.37689800
_cell_angle_alpha   59.93035273
_cell_angle_beta   59.93035015
_cell_angle_gamma   59.93034420
_symmetry_Int_Tables_number   1
_chemical_formula_structural   Mg12GaSi3Pd8
_chemical_formula_sum   'Mg12 Ga1 Si3 Pd8'
_cell_volume   415.00001049
_cell_formula_units_Z   1
loop_
 _symmetry_equiv_pos_site_id
 _symmetry_equiv_pos_as_xyz
  1  'x, y, z'
loop_
 _atom_site_type_symbol
 _atom_site_label
 _atom_site_symmetry_multiplicity
 _atom_site_fract_x
 _atom_site_fract_y
 _atom_site_fract_z
 _atom_site_occupancy
  Mg  Mg0  1  0.195345  0.804989  0.195345  1
  Mg  Mg1  1  0.195345  0.195345  0.804989  1
  Mg  Mg2  1  0.194918  0.804590  0.804590  1
  Mg  Mg3  1  0.054655  0.445011  0.054655  1
  Mg  Mg4  1  0.804989  0.195345  0.195345  1
  Mg  Mg5  1  0.055082  0.445410  0.445410  1
  Mg  Mg6  1  0.445410  0.055082  0.445410  1
  Mg  Mg7  1  0.445410  0.445410  0.055082  1
  Mg  Mg8  1  0.804590  0.804590  0.194918  1
  Mg  Mg9  1  0.445011  0.054655  0.054655  1
  Mg  Mg10  1  0.804590  0.194918  0.804590  1
  Mg  Mg11  1  0.054655  0.054655  0.445011  1
  Ga  Ga12  1  0.625000  0.625000  0.625000  1
  Si  Si13  1  0.125000  0.625000  0.625000  1
  Si  Si14  1  0.625000  0.625000  0.125000  1
  Si  Si15  1  0.625000  0.125000  0.625000  1
  Pd  Pd16  1  0.841829  0.484928  0.841829  1
  Pd  Pd17  1  0.837396  0.837396  0.837396  1
  Pd  Pd18  1  0.484928  0.841829  0.841829  1
  Pd  Pd19  1  0.408171  0.765072  0.408171  1
  Pd  Pd20  1  0.841829  0.841829  0.484928  1
  Pd  Pd21  1  0.765072  0.408171  0.408171  1
  Pd  Pd22  1  0.412604  0.412604  0.412604  1
  Pd  Pd23  1  0.408171  0.408171  0.765072  1
