# generated using pymatgen
data_Mn3Nb6Fe(SiN)2
_symmetry_space_group_name_H-M   'P 1'
_cell_length_a   8.02606566
_cell_length_b   8.02619316
_cell_length_c   8.03540600
_cell_angle_alpha   59.96368306
_cell_angle_beta   59.96409069
_cell_angle_gamma   59.91203058
_symmetry_Int_Tables_number   1
_chemical_formula_structural   Mn3Nb6Fe(SiN)2
_chemical_formula_sum   'Mn6 Nb12 Fe2 Si4 N4'
_cell_volume   365.57679327
_cell_formula_units_Z   2
loop_
 _symmetry_equiv_pos_site_id
 _symmetry_equiv_pos_as_xyz
  1  'x, y, z'
loop_
 _atom_site_type_symbol
 _atom_site_label
 _atom_site_symmetry_multiplicity
 _atom_site_fract_x
 _atom_site_fract_y
 _atom_site_fract_z
 _atom_site_occupancy
  Mn  Mn0  1  0.736142  0.420559  0.421657  1
  Mn  Mn1  1  0.420568  0.736144  0.421657  1
  Mn  Mn2  1  0.421192  0.421195  0.735861  1
  Mn  Mn3  1  0.421216  0.421211  0.421790  1
  Mn  Mn4  1  0.514240  0.828281  0.828733  1
  Mn  Mn5  1  0.828238  0.514312  0.828726  1
  Nb  Nb6  1  0.798696  0.798688  0.201302  1
  Nb  Nb7  1  0.199160  0.199152  0.800850  1
  Nb  Nb8  1  0.799348  0.201620  0.800272  1
  Nb  Nb9  1  0.201617  0.799361  0.198741  1
  Nb  Nb10  1  0.201647  0.799322  0.800251  1
  Nb  Nb11  1  0.799384  0.201593  0.198726  1
  Nb  Nb12  1  0.449911  0.449909  0.050050  1
  Nb  Nb13  1  0.049375  0.049342  0.450631  1
  Nb  Nb14  1  0.449816  0.050008  0.450746  1
  Nb  Nb15  1  0.050053  0.449813  0.049369  1
  Nb  Nb16  1  0.050040  0.449804  0.450732  1
  Nb  Nb17  1  0.449822  0.050023  0.049377  1
  Fe  Fe18  1  0.829524  0.829539  0.511386  1
  Fe  Fe19  1  0.829544  0.829547  0.829565  1
  Si  Si20  1  0.121105  0.627118  0.625948  1
  Si  Si21  1  0.627094  0.121040  0.625989  1
  Si  Si22  1  0.626166  0.626228  0.122497  1
  Si  Si23  1  0.626089  0.626156  0.625161  1
  N  N24  1  0.624257  0.124609  0.125558  1
  N  N25  1  0.124604  0.624284  0.125549  1
  N  N26  1  0.125565  0.125562  0.622281  1
  N  N27  1  0.125588  0.125580  0.126593  1
