# generated using pymatgen
data_Er2Al8GaIr2Pt
_symmetry_space_group_name_H-M   'P 1'
_cell_length_a   7.56014747
_cell_length_b   7.56042965
_cell_length_c   9.45993568
_cell_angle_alpha   89.96403987
_cell_angle_beta   89.91383878
_cell_angle_gamma   119.76861386
_symmetry_Int_Tables_number   1
_chemical_formula_structural   Er2Al8GaIr2Pt
_chemical_formula_sum   'Er4 Al16 Ga2 Ir4 Pt2'
_cell_volume   469.35603893
_cell_formula_units_Z   2
loop_
 _symmetry_equiv_pos_site_id
 _symmetry_equiv_pos_as_xyz
  1  'x, y, z'
loop_
 _atom_site_type_symbol
 _atom_site_label
 _atom_site_symmetry_multiplicity
 _atom_site_fract_x
 _atom_site_fract_y
 _atom_site_fract_z
 _atom_site_occupancy
  Er  Er0  1  0.993754  0.666542  0.751375  1
  Er  Er1  1  0.006246  0.333458  0.248625  1
  Er  Er2  1  0.670771  0.998827  0.751376  1
  Er  Er3  1  0.329229  0.001173  0.248624  1
  Al  Al4  1  0.125243  0.123997  0.750619  1
  Al  Al5  1  0.874757  0.876003  0.249381  1
  Al  Al6  1  0.000818  0.330894  0.577321  1
  Al  Al7  1  0.999182  0.669106  0.422679  1
  Al  Al8  1  0.999471  0.665385  0.074307  1
  Al  Al9  1  0.333859  0.999107  0.925556  1
  Al  Al10  1  0.000529  0.334615  0.925693  1
  Al  Al11  1  0.666141  0.000893  0.074444  1
  Al  Al12  1  0.669221  0.999818  0.422532  1
  Al  Al13  1  0.330779  0.000182  0.577468  1
  Al  Al14  1  0.332459  0.331797  0.053768  1
  Al  Al15  1  0.667541  0.668203  0.946232  1
  Al  Al16  1  0.669155  0.669609  0.559929  1
  Al  Al17  1  0.330845  0.330391  0.440071  1
  Al  Al18  1  0.341205  0.548908  0.753229  1
  Al  Al19  1  0.658795  0.451092  0.246771  1
  Ga  Ga20  1  0.542281  0.340620  0.752722  1
  Ga  Ga21  1  0.457719  0.659380  0.247278  1
  Ir  Ir22  1  0.327527  0.671840  0.998120  1
  Ir  Ir23  1  0.672473  0.328160  0.001880  1
  Ir  Ir24  1  0.000000  0.000000  0.500000  1
  Ir  Ir25  1  0.000000  0.000000  0.000000  1
  Pt  Pt26  1  0.672546  0.328067  0.497156  1
  Pt  Pt27  1  0.327454  0.671933  0.502844  1
