# generated using pymatgen
data_Ho3Tm5Mn2(B12Rh)2
_symmetry_space_group_name_H-M   'P 1'
_cell_length_a   3.58699700
_cell_length_b   9.06331167
_cell_length_c   11.43757701
_cell_angle_alpha   90.16547297
_cell_angle_beta   90.00000000
_cell_angle_gamma   90.00000000
_symmetry_Int_Tables_number   1
_chemical_formula_structural   Ho3Tm5Mn2(B12Rh)2
_chemical_formula_sum   'Ho3 Tm5 Mn2 B24 Rh2'
_cell_volume   371.83489893
_cell_formula_units_Z   1
loop_
 _symmetry_equiv_pos_site_id
 _symmetry_equiv_pos_as_xyz
  1  'x, y, z'
loop_
 _atom_site_type_symbol
 _atom_site_label
 _atom_site_symmetry_multiplicity
 _atom_site_fract_x
 _atom_site_fract_y
 _atom_site_fract_z
 _atom_site_occupancy
  Ho  Ho0  1  0.500000  0.317835  0.410182  1
  Ho  Ho1  1  0.500000  0.682174  0.589761  1
  Ho  Ho2  1  0.500000  0.172200  0.917657  1
  Tm  Tm3  1  0.500000  0.827835  0.082021  1
  Tm  Tm4  1  0.500000  0.440093  0.126251  1
  Tm  Tm5  1  0.500000  0.560302  0.873912  1
  Tm  Tm6  1  0.500000  0.052081  0.629831  1
  Tm  Tm7  1  0.500000  0.947722  0.370139  1
  Mn  Mn8  1  0.500000  0.139107  0.180582  1
  Mn  Mn9  1  0.500000  0.860424  0.819526  1
  B  B10  1  0.000000  0.107194  0.470760  1
  B  B11  1  0.000000  0.892757  0.529166  1
  B  B12  1  0.000000  0.391519  0.970230  1
  B  B13  1  0.000000  0.609233  0.029976  1
  B  B14  1  0.000000  0.131692  0.313207  1
  B  B15  1  0.000000  0.868150  0.686775  1
  B  B16  1  0.000000  0.368110  0.817172  1
  B  B17  1  0.000000  0.632411  0.182554  1
  B  B18  1  0.000000  0.053418  0.068090  1
  B  B19  1  0.000000  0.945859  0.932250  1
  B  B20  1  0.000000  0.445983  0.566460  1
  B  B21  1  0.000000  0.554063  0.433507  1
  B  B22  1  0.000000  0.482305  0.286357  1
  B  B23  1  0.000000  0.517802  0.713638  1
  B  B24  1  0.000000  0.014342  0.788394  1
  B  B25  1  0.000000  0.984914  0.211517  1
  B  B26  1  0.000000  0.246191  0.081807  1
  B  B27  1  0.000000  0.753779  0.918735  1
  B  B28  1  0.000000  0.249256  0.579234  1
  B  B29  1  0.000000  0.750739  0.420701  1
  B  B30  1  0.000000  0.290582  0.233172  1
  B  B31  1  0.000000  0.709502  0.766988  1
  B  B32  1  0.000000  0.207169  0.734959  1
  B  B33  1  0.000000  0.793060  0.264611  1
  Rh  Rh34  1  0.500000  0.361316  0.679223  1
  Rh  Rh35  1  0.500000  0.638880  0.320655  1
