# generated using pymatgen
data_Nd2Mg5
_symmetry_space_group_name_H-M   'P 1'
_cell_length_a   18.61100801
_cell_length_b   18.61100756
_cell_length_c   5.29779100
_cell_angle_alpha   90.00000000
_cell_angle_beta   90.00000000
_cell_angle_gamma   168.43910526
_symmetry_Int_Tables_number   1
_chemical_formula_structural   Nd2Mg5
_chemical_formula_sum   'Nd4 Mg10'
_cell_volume   367.74982269
_cell_formula_units_Z   2
loop_
 _symmetry_equiv_pos_site_id
 _symmetry_equiv_pos_as_xyz
  1  'x, y, z'
loop_
 _atom_site_type_symbol
 _atom_site_label
 _atom_site_symmetry_multiplicity
 _atom_site_fract_x
 _atom_site_fract_y
 _atom_site_fract_z
 _atom_site_occupancy
  Nd  Nd0  1  0.930136  0.069864  0.500000  1
  Nd  Nd1  1  0.069864  0.930136  0.500000  1
  Nd  Nd2  1  0.789636  0.210364  0.500000  1
  Nd  Nd3  1  0.210364  0.789636  0.500000  1
  Mg  Mg4  1  0.640019  0.359981  0.500000  1
  Mg  Mg5  1  0.359981  0.640019  0.500000  1
  Mg  Mg6  1  0.713964  0.286036  0.000000  1
  Mg  Mg7  1  0.286036  0.713964  0.000000  1
  Mg  Mg8  1  0.500000  0.500000  0.500000  1
  Mg  Mg9  1  0.570285  0.429715  0.000000  1
  Mg  Mg10  1  0.429715  0.570285  0.000000  1
  Mg  Mg11  1  0.857704  0.142296  0.000000  1
  Mg  Mg12  1  0.142296  0.857704  0.000000  1
  Mg  Mg13  1  0.000000  0.000000  0.000000  1
