# generated using pymatgen
data_Y3Lu5(SiI6)2
_symmetry_space_group_name_H-M   'P 1'
_cell_length_a   4.18550200
_cell_length_b   13.82594619
_cell_length_c   14.62185532
_cell_angle_alpha   90.17054112
_cell_angle_beta   90.00000000
_cell_angle_gamma   90.00000000
_symmetry_Int_Tables_number   1
_chemical_formula_structural   Y3Lu5(SiI6)2
_chemical_formula_sum   'Y3 Lu5 Si2 I12'
_cell_volume   846.14145829
_cell_formula_units_Z   1
loop_
 _symmetry_equiv_pos_site_id
 _symmetry_equiv_pos_as_xyz
  1  'x, y, z'
loop_
 _atom_site_type_symbol
 _atom_site_label
 _atom_site_symmetry_multiplicity
 _atom_site_fract_x
 _atom_site_fract_y
 _atom_site_fract_z
 _atom_site_occupancy
  Y  Y0  1  0.500000  0.115653  0.347290  1
  Y  Y1  1  0.500000  0.884644  0.653115  1
  Y  Y2  1  0.500000  0.614993  0.152362  1
  Lu  Lu3  1  0.500000  0.385650  0.848207  1
  Lu  Lu4  1  0.000000  0.108387  0.573774  1
  Lu  Lu5  1  0.000000  0.892205  0.427177  1
  Lu  Lu6  1  0.000000  0.607528  0.927530  1
  Lu  Lu7  1  0.000000  0.392679  0.072759  1
  Si  Si8  1  0.500000  0.000444  0.500401  1
  Si  Si9  1  0.500000  0.498908  0.998528  1
  I  I10  1  0.500000  0.251185  0.160506  1
  I  I11  1  0.500000  0.747282  0.837616  1
  I  I12  1  0.500000  0.751441  0.337841  1
  I  I13  1  0.500000  0.250096  0.664213  1
  I  I14  1  0.000000  0.261125  0.419829  1
  I  I15  1  0.000000  0.738961  0.580906  1
  I  I16  1  0.000000  0.760605  0.080899  1
  I  I17  1  0.000000  0.243251  0.914818  1
  I  I18  1  0.000000  0.996863  0.239984  1
  I  I19  1  0.000000  0.003301  0.760673  1
  I  I20  1  0.000000  0.496970  0.259959  1
  I  I21  1  0.000000  0.497829  0.741613  1
