# generated using pymatgen
data_HoErTh2(ReB6)2
_symmetry_space_group_name_H-M   'P 1'
_cell_length_a   3.76521000
_cell_length_b   9.24978602
_cell_length_c   11.68130003
_cell_angle_alpha   90.00761570
_cell_angle_beta   90.00000000
_cell_angle_gamma   90.00000000
_symmetry_Int_Tables_number   1
_chemical_formula_structural   HoErTh2(ReB6)2
_chemical_formula_sum   'Ho2 Er2 Th4 Re4 B24'
_cell_volume   406.82915099
_cell_formula_units_Z   2
loop_
 _symmetry_equiv_pos_site_id
 _symmetry_equiv_pos_as_xyz
  1  'x, y, z'
loop_
 _atom_site_type_symbol
 _atom_site_label
 _atom_site_symmetry_multiplicity
 _atom_site_fract_x
 _atom_site_fract_y
 _atom_site_fract_z
 _atom_site_occupancy
  Ho  Ho0  1  0.000000  0.945025  0.372813  1
  Ho  Ho1  1  0.000000  0.054975  0.627187  1
  Er  Er2  1  0.000000  0.445053  0.127136  1
  Er  Er3  1  0.000000  0.554947  0.872864  1
  Th  Th4  1  0.000000  0.322199  0.414327  1
  Th  Th5  1  0.000000  0.677801  0.585673  1
  Th  Th6  1  0.000000  0.822073  0.085617  1
  Th  Th7  1  0.000000  0.177927  0.914383  1
  Re  Re8  1  0.000000  0.639423  0.319565  1
  Re  Re9  1  0.000000  0.360577  0.680435  1
  Re  Re10  1  0.000000  0.139774  0.180291  1
  Re  Re11  1  0.000000  0.860226  0.819709  1
  B  B12  1  0.500000  0.556444  0.429534  1
  B  B13  1  0.500000  0.443556  0.570466  1
  B  B14  1  0.500000  0.056472  0.070452  1
  B  B15  1  0.500000  0.943528  0.929548  1
  B  B16  1  0.500000  0.750102  0.416791  1
  B  B17  1  0.500000  0.249898  0.583209  1
  B  B18  1  0.500000  0.250266  0.083205  1
  B  B19  1  0.500000  0.749734  0.916795  1
  B  B20  1  0.500000  0.791247  0.266609  1
  B  B21  1  0.500000  0.208753  0.733391  1
  B  B22  1  0.500000  0.291430  0.233322  1
  B  B23  1  0.500000  0.708570  0.766678  1
  B  B24  1  0.500000  0.630600  0.185808  1
  B  B25  1  0.500000  0.369400  0.814192  1
  B  B26  1  0.500000  0.130732  0.314102  1
  B  B27  1  0.500000  0.869268  0.685898  1
  B  B28  1  0.500000  0.985433  0.214232  1
  B  B29  1  0.500000  0.014567  0.785768  1
  B  B30  1  0.500000  0.485343  0.285652  1
  B  B31  1  0.500000  0.514657  0.714348  1
  B  B32  1  0.500000  0.602651  0.028075  1
  B  B33  1  0.500000  0.397349  0.971925  1
  B  B34  1  0.500000  0.102884  0.471854  1
  B  B35  1  0.500000  0.897116  0.528146  1
