# generated using pymatgen
data_HoLu11TcRu3
_symmetry_space_group_name_H-M   'P 1'
_cell_length_a   6.15479566
_cell_length_b   7.26538441
_cell_length_c   8.88300100
_cell_angle_alpha   90.00000000
_cell_angle_beta   90.00000000
_cell_angle_gamma   89.90186249
_symmetry_Int_Tables_number   1
_chemical_formula_structural   HoLu11TcRu3
_chemical_formula_sum   'Ho1 Lu11 Tc1 Ru3'
_cell_volume   397.22018589
_cell_formula_units_Z   1
loop_
 _symmetry_equiv_pos_site_id
 _symmetry_equiv_pos_as_xyz
  1  'x, y, z'
loop_
 _atom_site_type_symbol
 _atom_site_label
 _atom_site_symmetry_multiplicity
 _atom_site_fract_x
 _atom_site_fract_y
 _atom_site_fract_z
 _atom_site_occupancy
  Ho  Ho0  1  0.872423  0.538310  0.250000  1
  Lu  Lu1  1  0.337011  0.676718  0.062851  1
  Lu  Lu2  1  0.166151  0.175244  0.437447  1
  Lu  Lu3  1  0.664928  0.322483  0.563386  1
  Lu  Lu4  1  0.836509  0.826421  0.937872  1
  Lu  Lu5  1  0.664928  0.322483  0.936614  1
  Lu  Lu6  1  0.836509  0.826421  0.562128  1
  Lu  Lu7  1  0.337011  0.676718  0.437149  1
  Lu  Lu8  1  0.166151  0.175244  0.062553  1
  Lu  Lu9  1  0.623234  0.040425  0.250000  1
  Lu  Lu10  1  0.130552  0.459321  0.750000  1
  Lu  Lu11  1  0.369256  0.958368  0.750000  1
  Tc  Tc12  1  0.035802  0.883555  0.250000  1
  Ru  Ru13  1  0.459884  0.382256  0.250000  1
  Ru  Ru14  1  0.961780  0.118873  0.750000  1
  Ru  Ru15  1  0.537871  0.617159  0.750000  1
