# generated using pymatgen
data_Tb6Nd2CdNi2Ag
_symmetry_space_group_name_H-M   'P 1'
_cell_length_a   9.60775717
_cell_length_b   9.60775607
_cell_length_c   9.60106300
_cell_angle_alpha   60.02303829
_cell_angle_beta   60.02304207
_cell_angle_gamma   60.04851293
_symmetry_Int_Tables_number   1
_chemical_formula_structural   Tb6Nd2CdNi2Ag
_chemical_formula_sum   'Tb12 Nd4 Cd2 Ni4 Ag2'
_cell_volume   627.13140630
_cell_formula_units_Z   2
loop_
 _symmetry_equiv_pos_site_id
 _symmetry_equiv_pos_as_xyz
  1  'x, y, z'
loop_
 _atom_site_type_symbol
 _atom_site_label
 _atom_site_symmetry_multiplicity
 _atom_site_fract_x
 _atom_site_fract_y
 _atom_site_fract_z
 _atom_site_occupancy
  Tb  Tb0  1  0.813091  0.187084  0.188372  1
  Tb  Tb1  1  0.187084  0.813091  0.811452  1
  Tb  Tb2  1  0.187084  0.813091  0.188372  1
  Tb  Tb3  1  0.813091  0.187084  0.811452  1
  Tb  Tb4  1  0.188062  0.188062  0.811938  1
  Tb  Tb5  1  0.812528  0.812528  0.187472  1
  Tb  Tb6  1  0.932271  0.564820  0.566037  1
  Tb  Tb7  1  0.564820  0.932271  0.936871  1
  Tb  Tb8  1  0.564820  0.932271  0.566037  1
  Tb  Tb9  1  0.932271  0.564820  0.936871  1
  Tb  Tb10  1  0.564545  0.564545  0.935455  1
  Tb  Tb11  1  0.934484  0.934484  0.565516  1
  Nd  Nd12  1  0.350401  0.350401  0.349067  1
  Nd  Nd13  1  0.350401  0.350401  0.950132  1
  Nd  Nd14  1  0.352444  0.945642  0.350957  1
  Nd  Nd15  1  0.945642  0.352444  0.350957  1
  Cd  Cd16  1  0.581689  0.257358  0.580476  1
  Cd  Cd17  1  0.257358  0.581689  0.580476  1
  Ni  Ni18  1  0.141256  0.141256  0.141938  1
  Ni  Ni19  1  0.141256  0.141256  0.575549  1
  Ni  Ni20  1  0.140299  0.576930  0.141385  1
  Ni  Ni21  1  0.576930  0.140299  0.141385  1
  Ag  Ag22  1  0.584085  0.584085  0.583105  1
  Ag  Ag23  1  0.584085  0.584085  0.248724  1
