# generated using pymatgen
data_Dy2Al9ZnOs2
_symmetry_space_group_name_H-M   'P 1'
_cell_length_a   7.61812553
_cell_length_b   7.61812461
_cell_length_c   9.50148100
_cell_angle_alpha   90.00000000
_cell_angle_beta   90.00000000
_cell_angle_gamma   119.42000584
_symmetry_Int_Tables_number   1
_chemical_formula_structural   Dy2Al9ZnOs2
_chemical_formula_sum   'Dy4 Al18 Zn2 Os4'
_cell_volume   480.31568805
_cell_formula_units_Z   2
loop_
 _symmetry_equiv_pos_site_id
 _symmetry_equiv_pos_as_xyz
  1  'x, y, z'
loop_
 _atom_site_type_symbol
 _atom_site_label
 _atom_site_symmetry_multiplicity
 _atom_site_fract_x
 _atom_site_fract_y
 _atom_site_fract_z
 _atom_site_occupancy
  Dy  Dy0  1  0.995989  0.677183  0.750000  1
  Dy  Dy1  1  0.004011  0.322817  0.250000  1
  Dy  Dy2  1  0.677183  0.995989  0.750000  1
  Dy  Dy3  1  0.322817  0.004011  0.250000  1
  Al  Al4  1  0.139413  0.139413  0.750000  1
  Al  Al5  1  0.860587  0.860587  0.250000  1
  Al  Al6  1  0.001299  0.347456  0.576252  1
  Al  Al7  1  0.998701  0.652544  0.423748  1
  Al  Al8  1  0.998701  0.652544  0.076252  1
  Al  Al9  1  0.347456  0.001299  0.923748  1
  Al  Al10  1  0.001299  0.347456  0.923748  1
  Al  Al11  1  0.652544  0.998701  0.076252  1
  Al  Al12  1  0.652544  0.998701  0.423748  1
  Al  Al13  1  0.347456  0.001299  0.576252  1
  Al  Al14  1  0.344691  0.344691  0.055639  1
  Al  Al15  1  0.655309  0.655309  0.944361  1
  Al  Al16  1  0.655309  0.655309  0.555639  1
  Al  Al17  1  0.344691  0.344691  0.444361  1
  Al  Al18  1  0.335516  0.551922  0.750000  1
  Al  Al19  1  0.664484  0.448078  0.250000  1
  Al  Al20  1  0.551922  0.335516  0.750000  1
  Al  Al21  1  0.448078  0.664484  0.250000  1
  Zn  Zn22  1  0.000000  0.000000  0.500000  1
  Zn  Zn23  1  0.000000  0.000000  0.000000  1
  Os  Os24  1  0.671853  0.328147  0.500000  1
  Os  Os25  1  0.328147  0.671853  0.500000  1
  Os  Os26  1  0.328147  0.671853  0.000000  1
  Os  Os27  1  0.671853  0.328147  0.000000  1
