# generated using pymatgen
data_NaSr(H3Pt)2
_symmetry_space_group_name_H-M   'P 1'
_cell_length_a   5.30484482
_cell_length_b   5.30483486
_cell_length_c   5.30483900
_cell_angle_alpha   90.00001534
_cell_angle_beta   120.00022424
_cell_angle_gamma   119.99997540
_symmetry_Int_Tables_number   1
_chemical_formula_structural   NaSr(H3Pt)2
_chemical_formula_sum   'Na1 Sr1 H6 Pt2'
_cell_volume   105.56024634
_cell_formula_units_Z   1
loop_
 _symmetry_equiv_pos_site_id
 _symmetry_equiv_pos_as_xyz
  1  'x, y, z'
loop_
 _atom_site_type_symbol
 _atom_site_label
 _atom_site_symmetry_multiplicity
 _atom_site_fract_x
 _atom_site_fract_y
 _atom_site_fract_z
 _atom_site_occupancy
  Na  Na0  1  0.500002  0.750001  0.249999  1
  Sr  Sr1  1  0.500001  0.250003  0.750002  1
  H  H2  1  0.000000  0.249118  0.249118  1
  H  H3  1  0.498238  0.249118  0.249118  1
  H  H4  1  0.000000  0.750880  0.249118  1
  H  H5  1  0.999999  0.249118  0.750879  1
  H  H6  1  0.999999  0.750882  0.750881  1
  H  H7  1  0.501763  0.750881  0.750881  1
  Pt  Pt8  1  0.000000  0.999997  0.000003  1
  Pt  Pt9  1  0.000003  0.500003  0.499999  1
