# generated using pymatgen
data_Y5Cr3P12(RuRh)8
_symmetry_space_group_name_H-M   'P 1'
_cell_length_a   12.64687540
_cell_length_b   12.69668301
_cell_length_c   3.91022400
_cell_angle_alpha   90.00000000
_cell_angle_beta   90.00000000
_cell_angle_gamma   120.13035472
_symmetry_Int_Tables_number   1
_chemical_formula_structural   Y5Cr3P12(RuRh)8
_chemical_formula_sum   'Y5 Cr3 P12 Ru8 Rh8'
_cell_volume   543.04250241
_cell_formula_units_Z   1
loop_
 _symmetry_equiv_pos_site_id
 _symmetry_equiv_pos_as_xyz
  1  'x, y, z'
loop_
 _atom_site_type_symbol
 _atom_site_label
 _atom_site_symmetry_multiplicity
 _atom_site_fract_x
 _atom_site_fract_y
 _atom_site_fract_z
 _atom_site_occupancy
  Y  Y0  1  0.000000  0.187887  0.500000  1
  Y  Y1  1  0.811722  0.812223  0.500000  1
  Y  Y2  1  0.188278  0.000500  0.500000  1
  Y  Y3  1  0.666236  0.332454  0.000000  1
  Y  Y4  1  0.333764  0.666218  0.000000  1
  Cr  Cr5  1  0.000000  0.556229  0.000000  1
  Cr  Cr6  1  0.443909  0.444241  0.000000  1
  Cr  Cr7  1  0.556091  0.000333  0.000000  1
  P  P8  1  0.000000  0.820298  0.000000  1
  P  P9  1  0.181994  0.182945  0.000000  1
  P  P10  1  0.818006  0.000951  0.000000  1
  P  P11  1  0.685056  0.167676  0.500000  1
  P  P12  1  0.830210  0.514387  0.500000  1
  P  P13  1  0.482652  0.314209  0.500000  1
  P  P14  1  0.169790  0.684177  0.500000  1
  P  P15  1  0.517348  0.831557  0.500000  1
  P  P16  1  0.314944  0.482620  0.500000  1
  P  P17  1  0.000000  0.370947  0.000000  1
  P  P18  1  0.629192  0.629728  0.000000  1
  P  P19  1  0.370808  0.000536  0.000000  1
  Ru  Ru20  1  0.283759  0.284010  0.500000  1
  Ru  Ru21  1  0.716241  0.000251  0.500000  1
  Ru  Ru22  1  0.873741  0.360228  0.500000  1
  Ru  Ru23  1  0.640284  0.512499  0.500000  1
  Ru  Ru24  1  0.486136  0.125723  0.500000  1
  Ru  Ru25  1  0.359716  0.872215  0.500000  1
  Ru  Ru26  1  0.513864  0.639587  0.500000  1
  Ru  Ru27  1  0.126259  0.486486  0.500000  1
  Rh  Rh28  1  0.000000  0.716392  0.500000  1
  Rh  Rh29  1  0.805842  0.181521  0.000000  1
  Rh  Rh30  1  0.819775  0.625517  0.000000  1
  Rh  Rh31  1  0.375340  0.194392  0.000000  1
  Rh  Rh32  1  0.180225  0.805740  0.000000  1
  Rh  Rh33  1  0.624660  0.819051  0.000000  1
  Rh  Rh34  1  0.194158  0.375677  0.000000  1
  Rh  Rh35  1  0.000000  0.000593  0.000000  1
