# generated using pymatgen
data_Ac20Si15Se
_symmetry_space_group_name_H-M   'P 1'
_cell_length_a   8.35567365
_cell_length_b   8.28783205
_cell_length_c   16.36801971
_cell_angle_alpha   89.70987222
_cell_angle_beta   88.97892355
_cell_angle_gamma   89.96110260
_symmetry_Int_Tables_number   1
_chemical_formula_structural   Ac20Si15Se
_chemical_formula_sum   'Ac20 Si15 Se1'
_cell_volume   1133.29752166
_cell_formula_units_Z   1
loop_
 _symmetry_equiv_pos_site_id
 _symmetry_equiv_pos_as_xyz
  1  'x, y, z'
loop_
 _atom_site_type_symbol
 _atom_site_label
 _atom_site_symmetry_multiplicity
 _atom_site_fract_x
 _atom_site_fract_y
 _atom_site_fract_z
 _atom_site_occupancy
  Ac  Ac0  1  0.313953  0.310717  0.001330  1
  Ac  Ac1  1  0.185132  0.809970  0.249163  1
  Ac  Ac2  1  0.799395  0.189687  0.752455  1
  Ac  Ac3  1  0.684265  0.687426  0.496915  1
  Ac  Ac4  1  0.379120  0.009086  0.443589  1
  Ac  Ac5  1  0.489991  0.874142  0.698747  1
  Ac  Ac6  1  0.513326  0.120705  0.196136  1
  Ac  Ac7  1  0.875016  0.483065  0.300843  1
  Ac  Ac8  1  0.123228  0.513744  0.802490  1
  Ac  Ac9  1  0.632523  0.982473  0.950980  1
  Ac  Ac10  1  0.002191  0.380019  0.547207  1
  Ac  Ac11  1  0.989928  0.623619  0.053469  1
  Ac  Ac12  1  0.139466  0.985210  0.873277  1
  Ac  Ac13  1  0.522324  0.627454  0.127775  1
  Ac  Ac14  1  0.472724  0.372197  0.632166  1
  Ac  Ac15  1  0.631331  0.525739  0.875800  1
  Ac  Ac16  1  0.371265  0.473172  0.373352  1
  Ac  Ac17  1  0.871484  0.023064  0.377052  1
  Ac  Ac18  1  0.978768  0.127625  0.124261  1
  Ac  Ac19  1  0.021136  0.867660  0.620177  1
  Si  Si20  1  0.331749  0.701334  0.956197  1
  Si  Si21  1  0.663508  0.302112  0.460115  1
  Si  Si22  1  0.704499  0.333594  0.044590  1
  Si  Si23  1  0.302399  0.666932  0.543270  1
  Si  Si24  1  0.801825  0.830126  0.207865  1
  Si  Si25  1  0.169893  0.196774  0.292734  1
  Si  Si26  1  0.839663  0.802651  0.792190  1
  Si  Si27  1  0.289107  0.921010  0.057738  1
  Si  Si28  1  0.579218  0.788023  0.308585  1
  Si  Si29  1  0.450374  0.208593  0.824822  1
  Si  Si30  1  0.791805  0.582197  0.689318  1
  Si  Si31  1  0.208911  0.421367  0.191417  1
  Si  Si32  1  0.703022  0.078446  0.560514  1
  Si  Si33  1  0.926196  0.291395  0.940928  1
  Si  Si34  1  0.077034  0.708151  0.439971  1
  Se  Se35  1  0.164232  0.180523  0.692562  1
