# generated using pymatgen
data_Lu12Zn2Fe3
_symmetry_space_group_name_H-M   'P 1'
_cell_length_a   8.03961402
_cell_length_b   8.03961335
_cell_length_c   8.03961333
_cell_angle_alpha   108.54771775
_cell_angle_beta   108.54772248
_cell_angle_gamma   111.33444275
_symmetry_Int_Tables_number   1
_chemical_formula_structural   Lu12Zn2Fe3
_chemical_formula_sum   'Lu12 Zn2 Fe3'
_cell_volume   399.70334831
_cell_formula_units_Z   1
loop_
 _symmetry_equiv_pos_site_id
 _symmetry_equiv_pos_as_xyz
  1  'x, y, z'
loop_
 _atom_site_type_symbol
 _atom_site_label
 _atom_site_symmetry_multiplicity
 _atom_site_fract_x
 _atom_site_fract_y
 _atom_site_fract_z
 _atom_site_occupancy
  Lu  Lu0  1  0.307455  0.307455  0.614910  1
  Lu  Lu1  1  0.692545  0.692545  0.385090  1
  Lu  Lu2  1  0.692545  0.307455  0.000000  1
  Lu  Lu3  1  0.307455  0.692545  0.000000  1
  Lu  Lu4  1  0.188667  0.429787  0.241120  1
  Lu  Lu5  1  0.811333  0.570213  0.758880  1
  Lu  Lu6  1  0.188667  0.947546  0.758880  1
  Lu  Lu7  1  0.947546  0.188667  0.758880  1
  Lu  Lu8  1  0.811333  0.052454  0.241120  1
  Lu  Lu9  1  0.052454  0.811333  0.241120  1
  Lu  Lu10  1  0.429787  0.188667  0.241120  1
  Lu  Lu11  1  0.570213  0.811333  0.758880  1
  Zn  Zn12  1  0.000000  0.500000  0.500000  1
  Zn  Zn13  1  0.500000  0.000000  0.500000  1
  Fe  Fe14  1  0.380902  0.380902  0.000000  1
  Fe  Fe15  1  0.619098  0.619098  0.000000  1
  Fe  Fe16  1  0.000000  0.000000  0.000000  1
