# generated using pymatgen
data_TbY7Hf11Si16Au
_symmetry_space_group_name_H-M   'P 1'
_cell_length_a   7.29350400
_cell_length_b   7.29329259
_cell_length_c   13.26762817
_cell_angle_alpha   89.76976587
_cell_angle_beta   90.22202921
_cell_angle_gamma   89.81155871
_symmetry_Int_Tables_number   1
_chemical_formula_structural   TbY7Hf11Si16Au
_chemical_formula_sum   'Tb1 Y7 Hf11 Si16 Au1'
_cell_volume   705.73883481
_cell_formula_units_Z   1
loop_
 _symmetry_equiv_pos_site_id
 _symmetry_equiv_pos_as_xyz
  1  'x, y, z'
loop_
 _atom_site_type_symbol
 _atom_site_label
 _atom_site_symmetry_multiplicity
 _atom_site_fract_x
 _atom_site_fract_y
 _atom_site_fract_z
 _atom_site_occupancy
  Tb  Tb0  1  0.655199  0.004952  0.283403  1
  Y  Y1  1  0.998070  0.345672  0.210516  1
  Y  Y2  1  0.004928  0.655181  0.716607  1
  Y  Y3  1  0.155063  0.495506  0.464816  1
  Y  Y4  1  0.498272  0.848374  0.032675  1
  Y  Y5  1  0.848390  0.498292  0.967291  1
  Y  Y6  1  0.495485  0.155060  0.535197  1
  Y  Y7  1  0.345670  0.998044  0.789476  1
  Hf  Hf8  1  0.824720  0.824734  0.500002  1
  Hf  Hf9  1  0.322955  0.676915  0.249080  1
  Hf  Hf10  1  0.676920  0.322956  0.750921  1
  Hf  Hf11  1  0.145533  0.996331  0.373877  1
  Hf  Hf12  1  0.857173  0.003304  0.878876  1
  Hf  Hf13  1  0.504322  0.646759  0.626427  1
  Hf  Hf14  1  0.355335  0.491562  0.877788  1
  Hf  Hf15  1  0.491527  0.355342  0.122203  1
  Hf  Hf16  1  0.646767  0.504341  0.373596  1
  Hf  Hf17  1  0.996358  0.145480  0.626153  1
  Hf  Hf18  1  0.003282  0.857183  0.121109  1
  Si  Si19  1  0.359867  0.296038  0.316289  1
  Si  Si20  1  0.639738  0.704309  0.819754  1
  Si  Si21  1  0.207035  0.861286  0.568569  1
  Si  Si22  1  0.131449  0.774755  0.927219  1
  Si  Si23  1  0.774785  0.131416  0.072756  1
  Si  Si24  1  0.861313  0.207053  0.431463  1
  Si  Si25  1  0.296034  0.359877  0.683706  1
  Si  Si26  1  0.704322  0.639699  0.180242  1
  Si  Si27  1  0.295108  0.052074  0.188948  1
  Si  Si28  1  0.704977  0.950379  0.686866  1
  Si  Si29  1  0.450014  0.795323  0.435550  1
  Si  Si30  1  0.210450  0.566670  0.064247  1
  Si  Si31  1  0.566675  0.210449  0.935752  1
  Si  Si32  1  0.795333  0.450060  0.564454  1
  Si  Si33  1  0.052071  0.295190  0.811040  1
  Si  Si34  1  0.950395  0.704976  0.313130  1
  Au  Au35  1  0.174460  0.174454  0.000004  1
