# generated using pymatgen
data_RbTa(SiO3)3
_symmetry_space_group_name_H-M   'P 1'
_cell_length_a   6.95254200
_cell_length_b   6.95254114
_cell_length_c   9.91368200
_cell_angle_alpha   90.00000000
_cell_angle_beta   90.00000000
_cell_angle_gamma   120.00000409
_symmetry_Int_Tables_number   1
_chemical_formula_structural   RbTa(SiO3)3
_chemical_formula_sum   'Rb2 Ta2 Si6 O18'
_cell_volume   415.00448123
_cell_formula_units_Z   2
loop_
 _symmetry_equiv_pos_site_id
 _symmetry_equiv_pos_as_xyz
  1  'x, y, z'
loop_
 _atom_site_type_symbol
 _atom_site_label
 _atom_site_symmetry_multiplicity
 _atom_site_fract_x
 _atom_site_fract_y
 _atom_site_fract_z
 _atom_site_occupancy
  Rb  Rb0  1  0.666667  0.333333  0.500000  1
  Rb  Rb1  1  0.666667  0.333333  0.000000  1
  Ta  Ta2  1  0.333333  0.666667  0.500000  1
  Ta  Ta3  1  0.333333  0.666667  0.000000  1
  Si  Si4  1  0.206142  0.926172  0.250000  1
  Si  Si5  1  0.206142  0.279969  0.750000  1
  Si  Si6  1  0.720031  0.926172  0.750000  1
  Si  Si7  1  0.720031  0.793858  0.250000  1
  Si  Si8  1  0.073828  0.279969  0.250000  1
  Si  Si9  1  0.073828  0.793858  0.750000  1
  O  O10  1  0.105361  0.678542  0.615482  1
  O  O11  1  0.321458  0.894639  0.384518  1
  O  O12  1  0.573183  0.894639  0.615482  1
  O  O13  1  0.321458  0.426817  0.884518  1
  O  O14  1  0.573183  0.894639  0.884518  1
  O  O15  1  0.105361  0.678542  0.884518  1
  O  O16  1  0.573183  0.678542  0.115482  1
  O  O17  1  0.105361  0.426817  0.115482  1
  O  O18  1  0.246852  0.181810  0.250000  1
  O  O19  1  0.934959  0.753148  0.250000  1
  O  O20  1  0.818190  0.065041  0.250000  1
  O  O21  1  0.818190  0.753148  0.750000  1
  O  O22  1  0.573183  0.678542  0.384518  1
  O  O23  1  0.246852  0.065041  0.750000  1
  O  O24  1  0.934959  0.181810  0.750000  1
  O  O25  1  0.105361  0.426817  0.384518  1
  O  O26  1  0.321458  0.894639  0.115482  1
  O  O27  1  0.321458  0.426817  0.615482  1
