# generated using pymatgen
data_Zr2Sc2Fe3Os5
_symmetry_space_group_name_H-M   'P 1'
_cell_length_a   5.07975236
_cell_length_b   5.08793116
_cell_length_c   8.51414123
_cell_angle_alpha   90.00000059
_cell_angle_beta   89.97703039
_cell_angle_gamma   120.05328325
_symmetry_Int_Tables_number   1
_chemical_formula_structural   Zr2Sc2Fe3Os5
_chemical_formula_sum   'Zr2 Sc2 Fe3 Os5'
_cell_volume   190.46789050
_cell_formula_units_Z   1
loop_
 _symmetry_equiv_pos_site_id
 _symmetry_equiv_pos_as_xyz
  1  'x, y, z'
loop_
 _atom_site_type_symbol
 _atom_site_label
 _atom_site_symmetry_multiplicity
 _atom_site_fract_x
 _atom_site_fract_y
 _atom_site_fract_z
 _atom_site_occupancy
  Zr  Zr0  1  0.331025  0.665514  0.431936  1
  Zr  Zr1  1  0.660558  0.330278  0.571145  1
  Sc  Sc2  1  0.660688  0.330343  0.937894  1
  Sc  Sc3  1  0.329773  0.664887  0.060031  1
  Fe  Fe4  1  0.172364  0.343450  0.750689  1
  Fe  Fe5  1  0.172364  0.828913  0.750689  1
  Fe  Fe6  1  0.340520  0.170260  0.248102  1
  Os  Os7  1  0.831001  0.658458  0.250248  1
  Os  Os8  1  0.656825  0.828412  0.749462  1
  Os  Os9  1  0.999227  0.999613  0.995794  1
  Os  Os10  1  0.831001  0.172542  0.250248  1
  Os  Os11  1  0.014654  0.007327  0.503760  1
