# generated using pymatgen
data_Ta3Nb3Re6Si5P
_symmetry_space_group_name_H-M   'P 1'
_cell_length_a   7.51169104
_cell_length_b   7.59453268
_cell_length_c   7.51169133
_cell_angle_alpha   127.44131950
_cell_angle_beta   124.02699117
_cell_angle_gamma   80.07632976
_symmetry_Int_Tables_number   1
_chemical_formula_structural   Ta3Nb3Re6Si5P
_chemical_formula_sum   'Ta3 Nb3 Re6 Si5 P1'
_cell_volume   272.65191049
_cell_formula_units_Z   1
loop_
 _symmetry_equiv_pos_site_id
 _symmetry_equiv_pos_as_xyz
  1  'x, y, z'
loop_
 _atom_site_type_symbol
 _atom_site_label
 _atom_site_symmetry_multiplicity
 _atom_site_fract_x
 _atom_site_fract_y
 _atom_site_fract_z
 _atom_site_occupancy
  Ta  Ta0  1  0.546050  0.089819  0.043769  1
  Ta  Ta1  1  0.440971  0.476269  0.535298  1
  Ta  Ta2  1  0.966405  0.507675  0.041270  1
  Nb  Nb3  1  0.041401  0.077829  0.536428  1
  Nb  Nb4  1  0.757362  0.907808  0.650446  1
  Nb  Nb5  1  0.249861  0.916096  0.166234  1
  Re  Re6  1  0.530346  0.246993  0.778778  1
  Re  Re7  1  0.968215  0.246993  0.216647  1
  Re  Re8  1  0.157097  0.745541  0.653271  1
  Re  Re9  1  0.838202  0.493011  0.587266  1
  Re  Re10  1  0.592270  0.745541  0.088444  1
  Re  Re11  1  0.405745  0.493011  0.154808  1
  Si  Si12  1  0.227215  0.465060  0.737845  1
  Si  Si13  1  0.340458  0.828929  0.502380  1
  Si  Si14  1  0.669430  0.163417  0.498355  1
  Si  Si15  1  0.826549  0.828929  0.988471  1
  Si  Si16  1  0.165062  0.163417  0.993988  1
  P  P17  1  0.777362  0.545860  0.268500  1
