# generated using pymatgen
data_Ti24SiAs3Se4
_symmetry_space_group_name_H-M   'P 1'
_cell_length_a   10.12753777
_cell_length_b   10.14846812
_cell_length_c   5.10658337
_cell_angle_alpha   89.87013654
_cell_angle_beta   90.07498306
_cell_angle_gamma   90.03958660
_symmetry_Int_Tables_number   1
_chemical_formula_structural   Ti24SiAs3Se4
_chemical_formula_sum   'Ti24 Si1 As3 Se4'
_cell_volume   524.84758085
_cell_formula_units_Z   1
loop_
 _symmetry_equiv_pos_site_id
 _symmetry_equiv_pos_as_xyz
  1  'x, y, z'
loop_
 _atom_site_type_symbol
 _atom_site_label
 _atom_site_symmetry_multiplicity
 _atom_site_fract_x
 _atom_site_fract_y
 _atom_site_fract_z
 _atom_site_occupancy
  Ti  Ti0  1  0.215197  0.682200  0.992932  1
  Ti  Ti1  1  0.783239  0.317596  0.990916  1
  Ti  Ti2  1  0.182943  0.284611  0.493743  1
  Ti  Ti3  1  0.817544  0.714847  0.492500  1
  Ti  Ti4  1  0.284832  0.817518  0.506625  1
  Ti  Ti5  1  0.713297  0.182816  0.509027  1
  Ti  Ti6  1  0.318117  0.215808  0.003358  1
  Ti  Ti7  1  0.682887  0.784750  0.007236  1
  Ti  Ti8  1  0.641826  0.526009  0.713847  1
  Ti  Ti9  1  0.358850  0.471087  0.715191  1
  Ti  Ti10  1  0.027743  0.857195  0.213478  1
  Ti  Ti11  1  0.972118  0.142829  0.213748  1
  Ti  Ti12  1  0.857813  0.972158  0.786668  1
  Ti  Ti13  1  0.142280  0.026645  0.786663  1
  Ti  Ti14  1  0.472821  0.642699  0.287156  1
  Ti  Ti15  1  0.528142  0.356016  0.284727  1
  Ti  Ti16  1  0.103464  0.581906  0.463023  1
  Ti  Ti17  1  0.896015  0.418100  0.463704  1
  Ti  Ti18  1  0.081606  0.396807  0.962831  1
  Ti  Ti19  1  0.918207  0.603462  0.963780  1
  Ti  Ti20  1  0.395569  0.917863  0.036493  1
  Ti  Ti21  1  0.603650  0.083984  0.032347  1
  Ti  Ti22  1  0.419149  0.105870  0.542528  1
  Ti  Ti23  1  0.582202  0.895824  0.537886  1
  Si  Si24  1  0.540546  0.295156  0.787485  1
  As  As25  1  0.793752  0.960438  0.287729  1
  As  As26  1  0.206413  0.040904  0.288229  1
  As  As27  1  0.459926  0.705538  0.788772  1
  Se  Se28  1  0.706821  0.539814  0.211551  1
  Se  Se29  1  0.293313  0.459635  0.212179  1
  Se  Se30  1  0.039879  0.792831  0.711617  1
  Se  Se31  1  0.959839  0.207085  0.712036  1
