# generated using pymatgen
data_Zr2Re3Tc
_symmetry_space_group_name_H-M   'P 1'
_cell_length_a   5.26954500
_cell_length_b   5.26954453
_cell_length_c   8.79763500
_cell_angle_alpha   90.00000000
_cell_angle_beta   90.00000000
_cell_angle_gamma   120.00000926
_symmetry_Int_Tables_number   1
_chemical_formula_structural   Zr2Re3Tc
_chemical_formula_sum   'Zr4 Re6 Tc2'
_cell_volume   211.56446646
_cell_formula_units_Z   2
loop_
 _symmetry_equiv_pos_site_id
 _symmetry_equiv_pos_as_xyz
  1  'x, y, z'
loop_
 _atom_site_type_symbol
 _atom_site_label
 _atom_site_symmetry_multiplicity
 _atom_site_fract_x
 _atom_site_fract_y
 _atom_site_fract_z
 _atom_site_occupancy
  Zr  Zr0  1  0.333333  0.666667  0.435100  1
  Zr  Zr1  1  0.666667  0.333333  0.564900  1
  Zr  Zr2  1  0.666667  0.333333  0.935100  1
  Zr  Zr3  1  0.333333  0.666667  0.064900  1
  Re  Re4  1  0.829324  0.170676  0.250000  1
  Re  Re5  1  0.829324  0.658647  0.250000  1
  Re  Re6  1  0.341353  0.170676  0.250000  1
  Re  Re7  1  0.170676  0.829324  0.750000  1
  Re  Re8  1  0.170676  0.341353  0.750000  1
  Re  Re9  1  0.658647  0.829324  0.750000  1
  Tc  Tc10  1  0.000000  0.000000  0.500000  1
  Tc  Tc11  1  0.000000  0.000000  0.000000  1
