# generated using pymatgen
data_Nd8MgPd23Au
_symmetry_space_group_name_H-M   'P 1'
_cell_length_a   8.47737000
_cell_length_b   8.53237000
_cell_length_c   8.53454800
_cell_angle_alpha   90.00000000
_cell_angle_beta   90.00000000
_cell_angle_gamma   90.00000000
_symmetry_Int_Tables_number   1
_chemical_formula_structural   Nd8MgPd23Au
_chemical_formula_sum   'Nd8 Mg1 Pd23 Au1'
_cell_volume   617.32141639
_cell_formula_units_Z   1
loop_
 _symmetry_equiv_pos_site_id
 _symmetry_equiv_pos_as_xyz
  1  'x, y, z'
loop_
 _atom_site_type_symbol
 _atom_site_label
 _atom_site_symmetry_multiplicity
 _atom_site_fract_x
 _atom_site_fract_y
 _atom_site_fract_z
 _atom_site_occupancy
  Nd  Nd0  1  0.250074  0.246504  0.255207  1
  Nd  Nd1  1  0.749123  0.748864  0.749428  1
  Nd  Nd2  1  0.749123  0.748864  0.250572  1
  Nd  Nd3  1  0.749123  0.251136  0.749428  1
  Nd  Nd4  1  0.250074  0.246504  0.744793  1
  Nd  Nd5  1  0.250074  0.753496  0.255207  1
  Nd  Nd6  1  0.250074  0.753496  0.744793  1
  Nd  Nd7  1  0.749123  0.251136  0.250572  1
  Mg  Mg8  1  0.000534  0.000000  0.000000  1
  Pd  Pd9  1  0.734558  0.500000  0.000000  1
  Pd  Pd10  1  0.998634  0.265372  0.500000  1
  Pd  Pd11  1  0.499476  0.263692  0.000000  1
  Pd  Pd12  1  0.998634  0.734628  0.500000  1
  Pd  Pd13  1  0.499476  0.736308  0.000000  1
  Pd  Pd14  1  0.500856  0.000000  0.265059  1
  Pd  Pd15  1  0.265792  0.000000  0.500000  1
  Pd  Pd16  1  0.500856  0.000000  0.734941  1
  Pd  Pd17  1  0.733910  0.000000  0.500000  1
  Pd  Pd18  1  0.001148  0.500000  0.265557  1
  Pd  Pd19  1  0.001148  0.500000  0.734443  1
  Pd  Pd20  1  0.254401  0.500000  0.500000  1
  Pd  Pd21  1  0.745635  0.500000  0.500000  1
  Pd  Pd22  1  0.500858  0.255184  0.500000  1
  Pd  Pd23  1  0.500858  0.744816  0.500000  1
  Pd  Pd24  1  0.498971  0.500000  0.256925  1
  Pd  Pd25  1  0.498971  0.500000  0.743075  1
  Pd  Pd26  1  0.307744  0.000000  0.000000  1
  Pd  Pd27  1  0.693026  0.000000  0.000000  1
  Pd  Pd28  1  0.001187  0.306255  0.000000  1
  Pd  Pd29  1  0.001187  0.693745  0.000000  1
  Pd  Pd30  1  0.998613  0.000000  0.307634  1
  Pd  Pd31  1  0.998613  0.000000  0.692366  1
  Au  Au32  1  0.268123  0.500000  0.000000  1
