# generated using pymatgen
data_PrScP7Ru12
_symmetry_space_group_name_H-M   'P 1'
_cell_length_a   9.42424000
_cell_length_b   9.42423878
_cell_length_c   3.94954100
_cell_angle_alpha   90.00000000
_cell_angle_beta   90.00000000
_cell_angle_gamma   119.99999631
_symmetry_Int_Tables_number   1
_chemical_formula_structural   PrScP7Ru12
_chemical_formula_sum   'Pr1 Sc1 P7 Ru12'
_cell_volume   303.78749528
_cell_formula_units_Z   1
loop_
 _symmetry_equiv_pos_site_id
 _symmetry_equiv_pos_as_xyz
  1  'x, y, z'
loop_
 _atom_site_type_symbol
 _atom_site_label
 _atom_site_symmetry_multiplicity
 _atom_site_fract_x
 _atom_site_fract_y
 _atom_site_fract_z
 _atom_site_occupancy
  Pr  Pr0  1  0.333333  0.666667  0.000000  1
  Sc  Sc1  1  0.666667  0.333333  0.500000  1
  P  P2  1  0.604672  0.718553  0.500000  1
  P  P3  1  0.000000  0.000000  0.000000  1
  P  P4  1  0.281447  0.886119  0.500000  1
  P  P5  1  0.113881  0.395328  0.500000  1
  P  P6  1  0.884551  0.570280  0.000000  1
  P  P7  1  0.429720  0.314272  0.000000  1
  P  P8  1  0.685728  0.115449  0.000000  1
  Ru  Ru9  1  0.560295  0.957162  0.500000  1
  Ru  Ru10  1  0.396868  0.439705  0.500000  1
  Ru  Ru11  1  0.914571  0.119540  0.500000  1
  Ru  Ru12  1  0.204969  0.085429  0.500000  1
  Ru  Ru13  1  0.880460  0.795031  0.500000  1
  Ru  Ru14  1  0.727877  0.892056  0.000000  1
  Ru  Ru15  1  0.107944  0.835820  0.000000  1
  Ru  Ru16  1  0.164180  0.272123  0.000000  1
  Ru  Ru17  1  0.424584  0.071741  0.000000  1
  Ru  Ru18  1  0.928259  0.352844  0.000000  1
  Ru  Ru19  1  0.647156  0.575416  0.000000  1
  Ru  Ru20  1  0.042838  0.603132  0.500000  1
