# generated using pymatgen
data_HoLu4CoSb2
_symmetry_space_group_name_H-M   'P 1'
_cell_length_a   7.70864100
_cell_length_b   8.73553900
_cell_length_c   11.98059300
_cell_angle_alpha   90.00000000
_cell_angle_beta   90.00000000
_cell_angle_gamma   90.00000000
_symmetry_Int_Tables_number   1
_chemical_formula_structural   HoLu4CoSb2
_chemical_formula_sum   'Ho4 Lu16 Co4 Sb8'
_cell_volume   806.76275853
_cell_formula_units_Z   4
loop_
 _symmetry_equiv_pos_site_id
 _symmetry_equiv_pos_as_xyz
  1  'x, y, z'
loop_
 _atom_site_type_symbol
 _atom_site_label
 _atom_site_symmetry_multiplicity
 _atom_site_fract_x
 _atom_site_fract_y
 _atom_site_fract_z
 _atom_site_occupancy
  Ho  Ho0  1  0.622641  0.750000  0.307762  1
  Ho  Ho1  1  0.122641  0.250000  0.192238  1
  Ho  Ho2  1  0.377359  0.250000  0.692238  1
  Ho  Ho3  1  0.877359  0.750000  0.807762  1
  Lu  Lu4  1  0.156455  0.750000  0.203769  1
  Lu  Lu5  1  0.656455  0.250000  0.296231  1
  Lu  Lu6  1  0.843545  0.250000  0.796231  1
  Lu  Lu7  1  0.343545  0.750000  0.703769  1
  Lu  Lu8  1  0.448802  0.750000  0.997867  1
  Lu  Lu9  1  0.948802  0.250000  0.502133  1
  Lu  Lu10  1  0.551198  0.250000  0.002133  1
  Lu  Lu11  1  0.051198  0.750000  0.497867  1
  Lu  Lu12  1  0.824228  0.962072  0.065357  1
  Lu  Lu13  1  0.324228  0.037928  0.434643  1
  Lu  Lu14  1  0.175772  0.462072  0.934643  1
  Lu  Lu15  1  0.675772  0.537928  0.565357  1
  Lu  Lu16  1  0.175772  0.037928  0.934643  1
  Lu  Lu17  1  0.675772  0.962072  0.565357  1
  Lu  Lu18  1  0.824228  0.537928  0.065357  1
  Lu  Lu19  1  0.324228  0.462072  0.434643  1
  Co  Co20  1  0.430051  0.750000  0.490860  1
  Co  Co21  1  0.930051  0.250000  0.009140  1
  Co  Co22  1  0.569949  0.250000  0.509140  1
  Co  Co23  1  0.069949  0.750000  0.990860  1
  Sb  Sb24  1  0.931804  0.991570  0.328270  1
  Sb  Sb25  1  0.431804  0.008430  0.171730  1
  Sb  Sb26  1  0.068196  0.491570  0.671730  1
  Sb  Sb27  1  0.568196  0.508430  0.828270  1
  Sb  Sb28  1  0.068196  0.008430  0.671730  1
  Sb  Sb29  1  0.568196  0.991570  0.828270  1
  Sb  Sb30  1  0.931804  0.508430  0.328270  1
  Sb  Sb31  1  0.431804  0.491570  0.171730  1
