# generated using pymatgen
data_Eu3Cr4BiF28
_symmetry_space_group_name_H-M   'P 1'
_cell_length_a   5.68999018
_cell_length_b   9.16461684
_cell_length_c   12.14710700
_cell_angle_alpha   62.40159183
_cell_angle_beta   90.12790384
_cell_angle_gamma   89.87374346
_symmetry_Int_Tables_number   1
_chemical_formula_structural   Eu3Cr4BiF28
_chemical_formula_sum   'Eu3 Cr4 Bi1 F28'
_cell_volume   561.35101588
_cell_formula_units_Z   1
loop_
 _symmetry_equiv_pos_site_id
 _symmetry_equiv_pos_as_xyz
  1  'x, y, z'
loop_
 _atom_site_type_symbol
 _atom_site_label
 _atom_site_symmetry_multiplicity
 _atom_site_fract_x
 _atom_site_fract_y
 _atom_site_fract_z
 _atom_site_occupancy
  Eu  Eu0  1  0.270041  0.197919  0.235474  1
  Eu  Eu1  1  0.233349  0.192153  0.734245  1
  Eu  Eu2  1  0.732703  0.807481  0.765143  1
  Cr  Cr3  1  0.238375  0.726661  0.543476  1
  Cr  Cr4  1  0.740264  0.275227  0.956812  1
  Cr  Cr5  1  0.758857  0.272793  0.457707  1
  Cr  Cr6  1  0.259407  0.725096  0.042333  1
  Bi  Bi7  1  0.780060  0.822027  0.259132  1
  F  F8  1  0.968828  0.719034  0.449382  1
  F  F9  1  0.476958  0.286473  0.047946  1
  F  F10  1  0.027789  0.282369  0.548852  1
  F  F11  1  0.524889  0.712705  0.950531  1
  F  F12  1  0.057307  0.707702  0.929879  1
  F  F13  1  0.560413  0.289946  0.570956  1
  F  F14  1  0.943764  0.291161  0.069092  1
  F  F15  1  0.435466  0.708350  0.432853  1
  F  F16  1  0.737678  0.501007  0.862507  1
  F  F17  1  0.229059  0.499327  0.636806  1
  F  F18  1  0.261712  0.496611  0.135575  1
  F  F19  1  0.767729  0.496081  0.364951  1
  F  F20  1  0.738554  0.045741  0.049068  1
  F  F21  1  0.238818  0.951952  0.453424  1
  F  F22  1  0.257282  0.949976  0.953063  1
  F  F23  1  0.756991  0.047335  0.546878  1
  F  F24  1  0.034589  0.745107  0.657749  1
  F  F25  1  0.532740  0.254560  0.844272  1
  F  F26  1  0.958971  0.251553  0.342587  1
  F  F27  1  0.458067  0.740308  0.157123  1
  F  F28  1  0.993467  0.261102  0.862020  1
  F  F29  1  0.496038  0.735353  0.641190  1
  F  F30  1  0.998025  0.734416  0.138149  1
  F  F31  1  0.495937  0.266450  0.362144  1
  F  F32  1  0.088075  0.980343  0.225985  1
  F  F33  1  0.589523  0.025589  0.273121  1
  F  F34  1  0.929390  0.017481  0.768387  1
  F  F35  1  0.428887  0.982611  0.731186  1
