# generated using pymatgen
data_Eu2Sn8PtRh3
_symmetry_space_group_name_H-M   'P 1'
_cell_length_a   4.56244700
_cell_length_b   7.24930300
_cell_length_c   18.81179300
_cell_angle_alpha   90.00000000
_cell_angle_beta   90.00000000
_cell_angle_gamma   90.00000000
_symmetry_Int_Tables_number   1
_chemical_formula_structural   Eu2Sn8PtRh3
_chemical_formula_sum   'Eu4 Sn16 Pt2 Rh6'
_cell_volume   622.19178991
_cell_formula_units_Z   2
loop_
 _symmetry_equiv_pos_site_id
 _symmetry_equiv_pos_as_xyz
  1  'x, y, z'
loop_
 _atom_site_type_symbol
 _atom_site_label
 _atom_site_symmetry_multiplicity
 _atom_site_fract_x
 _atom_site_fract_y
 _atom_site_fract_z
 _atom_site_occupancy
  Eu  Eu0  1  0.250000  0.996687  0.857322  1
  Eu  Eu1  1  0.250000  0.503313  0.357322  1
  Eu  Eu2  1  0.750000  0.005164  0.141431  1
  Eu  Eu3  1  0.750000  0.494836  0.641431  1
  Sn  Sn4  1  0.250000  0.303934  0.184511  1
  Sn  Sn5  1  0.250000  0.196066  0.684511  1
  Sn  Sn6  1  0.750000  0.698242  0.817139  1
  Sn  Sn7  1  0.750000  0.801758  0.317139  1
  Sn  Sn8  1  0.250000  0.723207  0.194875  1
  Sn  Sn9  1  0.250000  0.776793  0.694875  1
  Sn  Sn10  1  0.750000  0.278444  0.805934  1
  Sn  Sn11  1  0.750000  0.221556  0.305934  1
  Sn  Sn12  1  0.250000  0.859694  0.032306  1
  Sn  Sn13  1  0.250000  0.640306  0.532306  1
  Sn  Sn14  1  0.750000  0.128114  0.967093  1
  Sn  Sn15  1  0.750000  0.371886  0.467093  1
  Sn  Sn16  1  0.250000  0.525114  0.930175  1
  Sn  Sn17  1  0.250000  0.974886  0.430175  1
  Sn  Sn18  1  0.750000  0.482887  0.069287  1
  Sn  Sn19  1  0.750000  0.017113  0.569287  1
  Pt  Pt20  1  0.250000  0.254277  0.034665  1
  Pt  Pt21  1  0.250000  0.245723  0.534665  1
  Rh  Rh22  1  0.750000  0.744212  0.965284  1
  Rh  Rh23  1  0.750000  0.755788  0.465284  1
  Rh  Rh24  1  0.250000  0.017049  0.286472  1
  Rh  Rh25  1  0.250000  0.482951  0.786472  1
  Rh  Rh26  1  0.750000  0.983945  0.713505  1
  Rh  Rh27  1  0.750000  0.516055  0.213505  1
