# generated using pymatgen
data_Ce2AlHgRh2
_symmetry_space_group_name_H-M   'P 1'
_cell_length_a   3.96297900
_cell_length_b   7.63935700
_cell_length_c   16.81596500
_cell_angle_alpha   90.00000000
_cell_angle_beta   90.00000000
_cell_angle_gamma   90.00000000
_symmetry_Int_Tables_number   1
_chemical_formula_structural   Ce2AlHgRh2
_chemical_formula_sum   'Ce8 Al4 Hg4 Rh8'
_cell_volume   509.09680509
_cell_formula_units_Z   4
loop_
 _symmetry_equiv_pos_site_id
 _symmetry_equiv_pos_as_xyz
  1  'x, y, z'
loop_
 _atom_site_type_symbol
 _atom_site_label
 _atom_site_symmetry_multiplicity
 _atom_site_fract_x
 _atom_site_fract_y
 _atom_site_fract_z
 _atom_site_occupancy
  Ce  Ce0  1  0.250000  0.174745  0.559364  1
  Ce  Ce1  1  0.750000  0.825255  0.440636  1
  Ce  Ce2  1  0.250000  0.674745  0.940636  1
  Ce  Ce3  1  0.750000  0.325255  0.059364  1
  Ce  Ce4  1  0.250000  0.052826  0.788306  1
  Ce  Ce5  1  0.750000  0.947174  0.211694  1
  Ce  Ce6  1  0.250000  0.552826  0.711694  1
  Ce  Ce7  1  0.750000  0.447174  0.288306  1
  Al  Al8  1  0.250000  0.997526  0.060354  1
  Al  Al9  1  0.750000  0.002474  0.939646  1
  Al  Al10  1  0.250000  0.497526  0.439646  1
  Al  Al11  1  0.750000  0.502474  0.560354  1
  Hg  Hg12  1  0.250000  0.111680  0.345766  1
  Hg  Hg13  1  0.750000  0.888320  0.654234  1
  Hg  Hg14  1  0.250000  0.611680  0.154234  1
  Hg  Hg15  1  0.750000  0.388320  0.845766  1
  Rh  Rh16  1  0.750000  0.284317  0.441996  1
  Rh  Rh17  1  0.250000  0.715683  0.558004  1
  Rh  Rh18  1  0.750000  0.784317  0.058004  1
  Rh  Rh19  1  0.250000  0.215683  0.941996  1
  Rh  Rh20  1  0.750000  0.775474  0.825416  1
  Rh  Rh21  1  0.250000  0.224526  0.174584  1
  Rh  Rh22  1  0.750000  0.275474  0.674584  1
  Rh  Rh23  1  0.250000  0.724526  0.325416  1
