# generated using pymatgen
data_Ho2Zn15Co2
_symmetry_space_group_name_H-M   'P 1'
_cell_length_a   6.70871038
_cell_length_b   6.70871084
_cell_length_c   6.69922129
_cell_angle_alpha   82.76750796
_cell_angle_beta   82.76751276
_cell_angle_gamma   82.74623853
_symmetry_Int_Tables_number   1
_chemical_formula_structural   Ho2Zn15Co2
_chemical_formula_sum   'Ho2 Zn15 Co2'
_cell_volume   294.85821302
_cell_formula_units_Z   1
loop_
 _symmetry_equiv_pos_site_id
 _symmetry_equiv_pos_as_xyz
  1  'x, y, z'
loop_
 _atom_site_type_symbol
 _atom_site_label
 _atom_site_symmetry_multiplicity
 _atom_site_fract_x
 _atom_site_fract_y
 _atom_site_fract_z
 _atom_site_occupancy
  Ho  Ho0  1  0.662667  0.662667  0.671304  1
  Ho  Ho1  1  0.337333  0.337333  0.328696  1
  Zn  Zn2  1  0.354924  0.842818  0.345403  1
  Zn  Zn3  1  0.347488  0.347488  0.858488  1
  Zn  Zn4  1  0.842818  0.354924  0.345403  1
  Zn  Zn5  1  0.157183  0.645077  0.654598  1
  Zn  Zn6  1  0.652513  0.652513  0.141513  1
  Zn  Zn7  1  0.645077  0.157183  0.654598  1
  Zn  Zn8  1  0.889219  0.889219  0.908413  1
  Zn  Zn9  1  0.110781  0.110781  0.091587  1
  Zn  Zn10  1  0.000418  0.303793  0.705550  1
  Zn  Zn11  1  0.289916  0.710085  0.000001  1
  Zn  Zn12  1  0.303793  0.000418  0.705550  1
  Zn  Zn13  1  0.999583  0.696210  0.294449  1
  Zn  Zn14  1  0.710085  0.289916  0.000001  1
  Zn  Zn15  1  0.000000  0.000000  0.500000  1
  Zn  Zn16  1  0.696210  0.999583  0.294449  1
  Co  Co17  1  0.000001  0.500000  0.000000  1
  Co  Co18  1  0.500000  0.000001  0.000000  1
