# generated using pymatgen
data_Tb4InPd10Pt
_symmetry_space_group_name_H-M   'P 1'
_cell_length_a   4.20677200
_cell_length_b   5.89292973
_cell_length_c   11.72342585
_cell_angle_alpha   86.84331490
_cell_angle_beta   90.00000000
_cell_angle_gamma   90.00000000
_symmetry_Int_Tables_number   1
_chemical_formula_structural   Tb4InPd10Pt
_chemical_formula_sum   'Tb4 In1 Pd10 Pt1'
_cell_volume   290.18523632
_cell_formula_units_Z   1
loop_
 _symmetry_equiv_pos_site_id
 _symmetry_equiv_pos_as_xyz
  1  'x, y, z'
loop_
 _atom_site_type_symbol
 _atom_site_label
 _atom_site_symmetry_multiplicity
 _atom_site_fract_x
 _atom_site_fract_y
 _atom_site_fract_z
 _atom_site_occupancy
  Tb  Tb0  1  0.500000  0.757124  0.377235  1
  Tb  Tb1  1  0.500000  0.712797  0.860278  1
  Tb  Tb2  1  0.500000  0.287203  0.139722  1
  Tb  Tb3  1  0.500000  0.242876  0.622765  1
  In  In4  1  0.000000  0.000000  0.000000  1
  Pd  Pd5  1  0.000000  0.014981  0.250180  1
  Pd  Pd6  1  0.000000  0.985019  0.749820  1
  Pd  Pd7  1  0.000000  0.500000  0.500000  1
  Pd  Pd8  1  0.000000  0.520618  0.250491  1
  Pd  Pd9  1  0.000000  0.479382  0.749509  1
  Pd  Pd10  1  0.500000  0.255953  0.377771  1
  Pd  Pd11  1  0.500000  0.222951  0.882318  1
  Pd  Pd12  1  0.500000  0.777049  0.117682  1
  Pd  Pd13  1  0.500000  0.744047  0.622229  1
  Pd  Pd14  1  0.000000  0.000000  0.500000  1
  Pt  Pt15  1  0.000000  0.500000  0.000000  1
