# generated using pymatgen
data_LaPr3In2Ir3
_symmetry_space_group_name_H-M   'P 1'
_cell_length_a   7.77969238
_cell_length_b   7.77969394
_cell_length_c   4.26683800
_cell_angle_alpha   90.00000000
_cell_angle_beta   90.00000000
_cell_angle_gamma   120.88221535
_symmetry_Int_Tables_number   1
_chemical_formula_structural   LaPr3In2Ir3
_chemical_formula_sum   'La1 Pr3 In2 Ir3'
_cell_volume   221.63170184
_cell_formula_units_Z   1
loop_
 _symmetry_equiv_pos_site_id
 _symmetry_equiv_pos_as_xyz
  1  'x, y, z'
loop_
 _atom_site_type_symbol
 _atom_site_label
 _atom_site_symmetry_multiplicity
 _atom_site_fract_x
 _atom_site_fract_y
 _atom_site_fract_z
 _atom_site_occupancy
  La  La0  1  0.748982  0.748982  0.000000  1
  Pr  Pr1  1  0.028266  0.587296  0.500000  1
  Pr  Pr2  1  0.382293  0.382293  0.500000  1
  Pr  Pr3  1  0.587296  0.028266  0.500000  1
  In  In4  1  0.995863  0.250401  0.000000  1
  In  In5  1  0.250401  0.995863  0.000000  1
  Ir  Ir6  1  0.330836  0.667321  0.000000  1
  Ir  Ir7  1  0.008741  0.008741  0.500000  1
  Ir  Ir8  1  0.667321  0.330836  0.000000  1
