# generated using pymatgen
data_LiDy8Sc10Si16Hg
_symmetry_space_group_name_H-M   'P 1'
_cell_length_a   7.01307514
_cell_length_b   7.41654830
_cell_length_c   14.02669600
_cell_angle_alpha   90.00000000
_cell_angle_beta   90.00000000
_cell_angle_gamma   89.82074320
_symmetry_Int_Tables_number   1
_chemical_formula_structural   LiDy8Sc10Si16Hg
_chemical_formula_sum   'Li1 Dy8 Sc10 Si16 Hg1'
_cell_volume   729.56430963
_cell_formula_units_Z   1
loop_
 _symmetry_equiv_pos_site_id
 _symmetry_equiv_pos_as_xyz
  1  'x, y, z'
loop_
 _atom_site_type_symbol
 _atom_site_label
 _atom_site_symmetry_multiplicity
 _atom_site_fract_x
 _atom_site_fract_y
 _atom_site_fract_z
 _atom_site_occupancy
  Li  Li0  1  0.840596  0.496002  0.250000  1
  Dy  Dy1  1  0.009114  0.180292  0.098551  1
  Dy  Dy2  1  0.990279  0.817137  0.902510  1
  Dy  Dy3  1  0.485464  0.673404  0.902681  1
  Dy  Dy4  1  0.990279  0.817137  0.597490  1
  Dy  Dy5  1  0.514601  0.325746  0.097641  1
  Dy  Dy6  1  0.009114  0.180292  0.401449  1
  Dy  Dy7  1  0.514601  0.325746  0.402359  1
  Dy  Dy8  1  0.485464  0.673404  0.597319  1
  Sc  Sc9  1  0.340778  0.003504  0.250000  1
  Sc  Sc10  1  0.657839  0.998290  0.750000  1
  Sc  Sc11  1  0.325223  0.183355  0.625446  1
  Sc  Sc12  1  0.672743  0.818186  0.374410  1
  Sc  Sc13  1  0.165874  0.677510  0.372596  1
  Sc  Sc14  1  0.672743  0.818186  0.125590  1
  Sc  Sc15  1  0.837365  0.324169  0.625890  1
  Sc  Sc16  1  0.325223  0.183355  0.874554  1
  Sc  Sc17  1  0.837365  0.324169  0.874110  1
  Sc  Sc18  1  0.165874  0.677510  0.127404  1
  Si  Si19  1  0.027101  0.094242  0.750000  1
  Si  Si20  1  0.968521  0.897071  0.250000  1
  Si  Si21  1  0.464706  0.614574  0.250000  1
  Si  Si22  1  0.544320  0.379579  0.750000  1
  Si  Si23  1  0.291902  0.887982  0.750000  1
  Si  Si24  1  0.711227  0.118069  0.250000  1
  Si  Si25  1  0.218931  0.375064  0.250000  1
  Si  Si26  1  0.771049  0.631153  0.750000  1
  Si  Si27  1  0.161906  0.458913  0.528026  1
  Si  Si28  1  0.840835  0.538394  0.465998  1
  Si  Si29  1  0.343110  0.966875  0.461492  1
  Si  Si30  1  0.840835  0.538394  0.034002  1
  Si  Si31  1  0.656899  0.032814  0.539664  1
  Si  Si32  1  0.161906  0.458913  0.971974  1
  Si  Si33  1  0.656899  0.032814  0.960336  1
  Si  Si34  1  0.343110  0.966875  0.038508  1
  Hg  Hg35  1  0.156207  0.510881  0.750000  1
