# generated using pymatgen
data_AgPd4
_symmetry_space_group_name_H-M   'P 1'
_cell_length_a   11.53913673
_cell_length_b   11.53913686
_cell_length_c   11.53913644
_cell_angle_alpha   14.18851545
_cell_angle_beta   14.18851560
_cell_angle_gamma   14.18851882
_symmetry_Int_Tables_number   1
_chemical_formula_structural   AgPd4
_chemical_formula_sum   'Ag1 Pd4'
_cell_volume   80.35208342
_cell_formula_units_Z   1
loop_
 _symmetry_equiv_pos_site_id
 _symmetry_equiv_pos_as_xyz
  1  'x, y, z'
loop_
 _atom_site_type_symbol
 _atom_site_label
 _atom_site_symmetry_multiplicity
 _atom_site_fract_x
 _atom_site_fract_y
 _atom_site_fract_z
 _atom_site_occupancy
  Ag  Ag0  1  0.000000  0.000000  0.000000  1
  Pd  Pd1  1  0.597882  0.597882  0.597882  1
  Pd  Pd2  1  0.199383  0.199383  0.199383  1
  Pd  Pd3  1  0.800617  0.800617  0.800617  1
  Pd  Pd4  1  0.402118  0.402118  0.402118  1
