# generated using pymatgen
data_MnGaAgF6
_symmetry_space_group_name_H-M   'P 1'
_cell_length_a   9.26967800
_cell_length_b   9.26967882
_cell_length_c   5.24086500
_cell_angle_alpha   90.00000000
_cell_angle_beta   90.00000000
_cell_angle_gamma   120.00000422
_symmetry_Int_Tables_number   1
_chemical_formula_structural   MnGaAgF6
_chemical_formula_sum   'Mn3 Ga3 Ag3 F18'
_cell_volume   389.99848601
_cell_formula_units_Z   3
loop_
 _symmetry_equiv_pos_site_id
 _symmetry_equiv_pos_as_xyz
  1  'x, y, z'
loop_
 _atom_site_type_symbol
 _atom_site_label
 _atom_site_symmetry_multiplicity
 _atom_site_fract_x
 _atom_site_fract_y
 _atom_site_fract_z
 _atom_site_occupancy
  Mn  Mn0  1  0.295952  0.000000  0.500000  1
  Mn  Mn1  1  0.000000  0.295952  0.500000  1
  Mn  Mn2  1  0.704048  0.704048  0.500000  1
  Ga  Ga3  1  0.333333  0.666667  0.501088  1
  Ga  Ga4  1  0.666667  0.333333  0.498912  1
  Ga  Ga5  1  0.000000  0.000000  0.000000  1
  Ag  Ag6  1  0.624199  0.000000  0.000000  1
  Ag  Ag7  1  0.000000  0.624199  0.000000  1
  Ag  Ag8  1  0.375801  0.375801  0.000000  1
  F  F9  1  0.137415  0.534440  0.296680  1
  F  F10  1  0.465560  0.602974  0.296680  1
  F  F11  1  0.534440  0.137415  0.703320  1
  F  F12  1  0.397026  0.862585  0.296680  1
  F  F13  1  0.602974  0.465560  0.703320  1
  F  F14  1  0.862585  0.397026  0.703320  1
  F  F15  1  0.092563  0.193258  0.220898  1
  F  F16  1  0.806742  0.899305  0.220898  1
  F  F17  1  0.193258  0.092563  0.779102  1
  F  F18  1  0.100695  0.907437  0.220898  1
  F  F19  1  0.899305  0.806742  0.779102  1
  F  F20  1  0.907437  0.100695  0.779102  1
  F  F21  1  0.464055  0.229364  0.297349  1
  F  F22  1  0.770636  0.234691  0.297349  1
  F  F23  1  0.229364  0.464055  0.702651  1
  F  F24  1  0.765309  0.535945  0.297349  1
  F  F25  1  0.234691  0.770636  0.702651  1
  F  F26  1  0.535945  0.765309  0.702651  1
