# generated using pymatgen
data_Ho3Fe2Co2P6Ru5
_symmetry_space_group_name_H-M   'P 1'
_cell_length_a   3.85421600
_cell_length_b   10.72393900
_cell_length_c   12.48226600
_cell_angle_alpha   90.00000000
_cell_angle_beta   90.00000000
_cell_angle_gamma   90.00000000
_symmetry_Int_Tables_number   1
_chemical_formula_structural   Ho3Fe2Co2P6Ru5
_chemical_formula_sum   'Ho6 Fe4 Co4 P12 Ru10'
_cell_volume   515.92172758
_cell_formula_units_Z   2
loop_
 _symmetry_equiv_pos_site_id
 _symmetry_equiv_pos_as_xyz
  1  'x, y, z'
loop_
 _atom_site_type_symbol
 _atom_site_label
 _atom_site_symmetry_multiplicity
 _atom_site_fract_x
 _atom_site_fract_y
 _atom_site_fract_z
 _atom_site_occupancy
  Ho  Ho0  1  0.000000  0.500000  0.528275  1
  Ho  Ho1  1  0.500000  0.000000  0.471735  1
  Ho  Ho2  1  0.500000  0.821389  0.199216  1
  Ho  Ho3  1  0.500000  0.178611  0.199216  1
  Ho  Ho4  1  0.000000  0.677754  0.802304  1
  Ho  Ho5  1  0.000000  0.322246  0.802304  1
  Fe  Fe6  1  0.000000  0.500000  0.984371  1
  Fe  Fe7  1  0.500000  0.000000  0.015910  1
  Fe  Fe8  1  0.500000  0.329703  0.991029  1
  Fe  Fe9  1  0.500000  0.670297  0.991029  1
  Co  Co10  1  0.000000  0.166122  0.010800  1
  Co  Co11  1  0.000000  0.833878  0.010800  1
  Co  Co12  1  0.500000  0.500000  0.700535  1
  Co  Co13  1  0.000000  0.000000  0.299331  1
  P  P14  1  0.500000  0.314146  0.618783  1
  P  P15  1  0.500000  0.685854  0.618783  1
  P  P16  1  0.000000  0.186474  0.381231  1
  P  P17  1  0.000000  0.813526  0.381231  1
  P  P18  1  0.500000  0.500000  0.885937  1
  P  P19  1  0.000000  0.000000  0.117259  1
  P  P20  1  0.500000  0.845997  0.902080  1
  P  P21  1  0.500000  0.154003  0.902080  1
  P  P22  1  0.000000  0.654576  0.095200  1
  P  P23  1  0.000000  0.345424  0.095200  1
  P  P24  1  0.500000  0.500000  0.334015  1
  P  P25  1  0.000000  0.000000  0.665183  1
  Ru  Ru26  1  0.500000  0.298015  0.427539  1
  Ru  Ru27  1  0.500000  0.701985  0.427539  1
  Ru  Ru28  1  0.000000  0.202308  0.572357  1
  Ru  Ru29  1  0.000000  0.797692  0.572357  1
  Ru  Ru30  1  0.500000  0.875188  0.717996  1
  Ru  Ru31  1  0.500000  0.124812  0.717996  1
  Ru  Ru32  1  0.000000  0.625169  0.280456  1
  Ru  Ru33  1  0.000000  0.374831  0.280456  1
  Ru  Ru34  1  0.500000  0.500000  0.145536  1
  Ru  Ru35  1  0.000000  0.000000  0.853926  1
