# generated using pymatgen
data_Sc3Ga5Cu
_symmetry_space_group_name_H-M   'P 1'
_cell_length_a   6.62083900
_cell_length_b   6.62083808
_cell_length_c   4.06078400
_cell_angle_alpha   90.00000000
_cell_angle_beta   90.00000000
_cell_angle_gamma   119.99999958
_symmetry_Int_Tables_number   1
_chemical_formula_structural   Sc3Ga5Cu
_chemical_formula_sum   'Sc3 Ga5 Cu1'
_cell_volume   154.15815969
_cell_formula_units_Z   1
loop_
 _symmetry_equiv_pos_site_id
 _symmetry_equiv_pos_as_xyz
  1  'x, y, z'
loop_
 _atom_site_type_symbol
 _atom_site_label
 _atom_site_symmetry_multiplicity
 _atom_site_fract_x
 _atom_site_fract_y
 _atom_site_fract_z
 _atom_site_occupancy
  Sc  Sc0  1  0.000000  0.414173  0.500000  1
  Sc  Sc1  1  0.585827  0.585827  0.500000  1
  Sc  Sc2  1  0.414173  0.000000  0.500000  1
  Ga  Ga3  1  0.000000  0.757586  0.000000  1
  Ga  Ga4  1  0.242414  0.242414  0.000000  1
  Ga  Ga5  1  0.757586  0.000000  0.000000  1
  Ga  Ga6  1  0.333333  0.666667  0.000000  1
  Ga  Ga7  1  0.666667  0.333333  0.000000  1
  Cu  Cu8  1  0.000000  0.000000  0.500000  1
