# generated using pymatgen
data_Th(TaS2)5
_symmetry_space_group_name_H-M   'P 1'
_cell_length_a   5.82094443
_cell_length_b   7.93094291
_cell_length_c   8.65521557
_cell_angle_alpha   115.47463639
_cell_angle_beta   96.63521524
_cell_angle_gamma   103.95743832
_symmetry_Int_Tables_number   1
_chemical_formula_structural   Th(TaS2)5
_chemical_formula_sum   'Th1 Ta5 S10'
_cell_volume   338.93127829
_cell_formula_units_Z   1
loop_
 _symmetry_equiv_pos_site_id
 _symmetry_equiv_pos_as_xyz
  1  'x, y, z'
loop_
 _atom_site_type_symbol
 _atom_site_label
 _atom_site_symmetry_multiplicity
 _atom_site_fract_x
 _atom_site_fract_y
 _atom_site_fract_z
 _atom_site_occupancy
  Th  Th0  1  0.667846  0.510674  0.992474  1
  Ta  Ta1  1  0.003207  0.995664  0.000410  1
  Ta  Ta2  1  0.598243  0.205259  0.203794  1
  Ta  Ta3  1  0.196485  0.398898  0.398386  1
  Ta  Ta4  1  0.797958  0.599472  0.603153  1
  Ta  Ta5  1  0.403014  0.795463  0.798156  1
  S  S6  1  0.236669  0.065535  0.290370  1
  S  S7  1  0.052846  0.660402  0.890964  1
  S  S8  1  0.836089  0.264619  0.488711  1
  S  S9  1  0.636732  0.875904  0.100465  1
  S  S10  1  0.423786  0.448878  0.678294  1
  S  S11  1  0.898163  0.543319  0.315247  1
  S  S12  1  0.698402  0.132128  0.909041  1
  S  S13  1  0.496524  0.734135  0.511545  1
  S  S14  1  0.289370  0.335440  0.107826  1
  S  S15  1  0.097469  0.931806  0.712766  1
