# generated using pymatgen
data_Cs4CdHgI8
_symmetry_space_group_name_H-M   'P 1'
_cell_length_a   8.69794600
_cell_length_b   8.60611632
_cell_length_c   10.78167235
_cell_angle_alpha   71.57265312
_cell_angle_beta   90.00000000
_cell_angle_gamma   90.00000000
_symmetry_Int_Tables_number   1
_chemical_formula_structural   Cs4CdHgI8
_chemical_formula_sum   'Cs4 Cd1 Hg1 I8'
_cell_volume   765.68564680
_cell_formula_units_Z   1
loop_
 _symmetry_equiv_pos_site_id
 _symmetry_equiv_pos_as_xyz
  1  'x, y, z'
loop_
 _atom_site_type_symbol
 _atom_site_label
 _atom_site_symmetry_multiplicity
 _atom_site_fract_x
 _atom_site_fract_y
 _atom_site_fract_z
 _atom_site_occupancy
  Cs  Cs0  1  0.750000  0.783862  0.550817  1
  Cs  Cs1  1  0.250000  0.215303  0.448722  1
  Cs  Cs2  1  0.750000  0.742731  0.066733  1
  Cs  Cs3  1  0.250000  0.265253  0.931954  1
  Cd  Cd4  1  0.250000  0.774763  0.300674  1
  Hg  Hg5  1  0.750000  0.225023  0.699419  1
  I  I6  1  0.750000  0.398286  0.427222  1
  I  I7  1  0.250000  0.601017  0.570654  1
  I  I8  1  0.998820  0.997406  0.239185  1
  I  I9  1  0.003639  0.998693  0.762130  1
  I  I10  1  0.496361  0.998693  0.762130  1
  I  I11  1  0.501180  0.997406  0.239185  1
  I  I12  1  0.750000  0.417694  0.870738  1
  I  I13  1  0.250000  0.583872  0.130439  1
