# generated using pymatgen
data_Ca10BiPb5F2
_symmetry_space_group_name_H-M   'P 1'
_cell_length_a   9.57847071
_cell_length_b   9.57847051
_cell_length_c   9.57847126
_cell_angle_alpha   128.51559200
_cell_angle_beta   128.51559371
_cell_angle_gamma   75.79126659
_symmetry_Int_Tables_number   1
_chemical_formula_structural   Ca10BiPb5F2
_chemical_formula_sum   'Ca10 Bi1 Pb5 F2'
_cell_volume   523.26612959
_cell_formula_units_Z   1
loop_
 _symmetry_equiv_pos_site_id
 _symmetry_equiv_pos_as_xyz
  1  'x, y, z'
loop_
 _atom_site_type_symbol
 _atom_site_label
 _atom_site_symmetry_multiplicity
 _atom_site_fract_x
 _atom_site_fract_y
 _atom_site_fract_z
 _atom_site_occupancy
  Ca  Ca0  1  0.500022  0.500022  0.000000  1
  Ca  Ca1  1  0.999978  0.999978  0.000000  1
  Ca  Ca2  1  0.507848  0.005593  0.814270  1
  Ca  Ca3  1  0.191324  0.693578  0.185730  1
  Ca  Ca4  1  0.005593  0.191324  0.497746  1
  Ca  Ca5  1  0.693578  0.507848  0.502254  1
  Ca  Ca6  1  0.494407  0.992152  0.185730  1
  Ca  Ca7  1  0.806422  0.308676  0.814270  1
  Ca  Ca8  1  0.992152  0.806422  0.497746  1
  Ca  Ca9  1  0.308676  0.494407  0.502254  1
  Bi  Bi10  1  0.250000  0.250000  0.000000  1
  Pb  Pb11  1  0.750000  0.750000  0.000000  1
  Pb  Pb12  1  0.865442  0.365442  0.230886  1
  Pb  Pb13  1  0.134558  0.634558  0.769115  1
  Pb  Pb14  1  0.365442  0.134558  0.500000  1
  Pb  Pb15  1  0.634558  0.865442  0.500000  1
  F  F16  1  0.250000  0.750000  0.500000  1
  F  F17  1  0.750000  0.250000  0.500000  1
