# generated using pymatgen
data_Nd7Ni2Ag
_symmetry_space_group_name_H-M   'P 1'
_cell_length_a   3.74946900
_cell_length_b   12.27528300
_cell_length_c   12.27528300
_cell_angle_alpha   90.00000000
_cell_angle_beta   90.00000000
_cell_angle_gamma   90.00000000
_symmetry_Int_Tables_number   1
_chemical_formula_structural   Nd7Ni2Ag
_chemical_formula_sum   'Nd14 Ni4 Ag2'
_cell_volume   564.97963529
_cell_formula_units_Z   2
loop_
 _symmetry_equiv_pos_site_id
 _symmetry_equiv_pos_as_xyz
  1  'x, y, z'
loop_
 _atom_site_type_symbol
 _atom_site_label
 _atom_site_symmetry_multiplicity
 _atom_site_fract_x
 _atom_site_fract_y
 _atom_site_fract_z
 _atom_site_occupancy
  Nd  Nd0  1  0.500000  0.000000  0.500000  1
  Nd  Nd1  1  0.500000  0.500000  0.000000  1
  Nd  Nd2  1  0.000000  0.321318  0.821318  1
  Nd  Nd3  1  0.000000  0.678682  0.178682  1
  Nd  Nd4  1  0.000000  0.178682  0.321318  1
  Nd  Nd5  1  0.000000  0.821318  0.678682  1
  Nd  Nd6  1  0.500000  0.562013  0.709749  1
  Nd  Nd7  1  0.500000  0.437987  0.290251  1
  Nd  Nd8  1  0.500000  0.937987  0.209749  1
  Nd  Nd9  1  0.500000  0.062013  0.790251  1
  Nd  Nd10  1  0.500000  0.709749  0.437987  1
  Nd  Nd11  1  0.500000  0.290251  0.562013  1
  Nd  Nd12  1  0.500000  0.209749  0.062013  1
  Nd  Nd13  1  0.500000  0.790251  0.937987  1
  Ni  Ni14  1  0.000000  0.131646  0.631646  1
  Ni  Ni15  1  0.000000  0.868354  0.368354  1
  Ni  Ni16  1  0.000000  0.368354  0.131646  1
  Ni  Ni17  1  0.000000  0.631646  0.868354  1
  Ag  Ag18  1  0.000000  0.500000  0.500000  1
  Ag  Ag19  1  0.000000  0.000000  0.000000  1
