# generated using pymatgen
data_Cs3Rb3(YBi2)2
_symmetry_space_group_name_H-M   'P 1'
_cell_length_a   10.70378793
_cell_length_b   10.70378945
_cell_length_c   10.59049999
_cell_angle_alpha   129.92048228
_cell_angle_beta   68.57835711
_cell_angle_gamma   136.58802973
_symmetry_Int_Tables_number   1
_chemical_formula_structural   Cs3Rb3(YBi2)2
_chemical_formula_sum   'Cs3 Rb3 Y2 Bi4'
_cell_volume   627.68903664
_cell_formula_units_Z   1
loop_
 _symmetry_equiv_pos_site_id
 _symmetry_equiv_pos_as_xyz
  1  'x, y, z'
loop_
 _atom_site_type_symbol
 _atom_site_label
 _atom_site_symmetry_multiplicity
 _atom_site_fract_x
 _atom_site_fract_y
 _atom_site_fract_z
 _atom_site_occupancy
  Cs  Cs0  1  0.185726  0.292413  0.478140  1
  Cs  Cs1  1  0.813802  0.705973  0.519775  1
  Cs  Cs2  1  0.686102  0.210320  0.896423  1
  Rb  Rb3  1  0.249512  0.248806  0.998046  1
  Rb  Rb4  1  0.749240  0.748534  0.998046  1
  Rb  Rb5  1  0.314115  0.803031  0.117144  1
  Y  Y6  1  0.750286  0.248947  0.499287  1
  Y  Y7  1  0.250340  0.748999  0.499286  1
  Bi  Bi8  1  0.904194  0.301262  0.205456  1
  Bi  Bi9  1  0.594555  0.804692  0.399248  1
  Bi  Bi10  1  0.404044  0.190100  0.594143  1
  Bi  Bi11  1  0.098084  0.696923  0.795006  1
