# generated using pymatgen
data_Na2PH7
_symmetry_space_group_name_H-M   'P 1'
_cell_length_a   4.94597319
_cell_length_b   4.96364495
_cell_length_c   9.36552875
_cell_angle_alpha   119.02637341
_cell_angle_beta   80.67723369
_cell_angle_gamma   120.09233988
_symmetry_Int_Tables_number   1
_chemical_formula_structural   Na2PH7
_chemical_formula_sum   'Na2 P1 H7'
_cell_volume   172.94081426
_cell_formula_units_Z   1
loop_
 _symmetry_equiv_pos_site_id
 _symmetry_equiv_pos_as_xyz
  1  'x, y, z'
loop_
 _atom_site_type_symbol
 _atom_site_label
 _atom_site_symmetry_multiplicity
 _atom_site_fract_x
 _atom_site_fract_y
 _atom_site_fract_z
 _atom_site_occupancy
  Na  Na0  1  0.710997  0.287036  0.041178  1
  Na  Na1  1  0.082064  0.122335  0.208716  1
  P  P2  1  0.396821  0.706997  0.125641  1
  H  H3  1  0.693093  0.333416  0.625549  1
  H  H4  1  0.092616  0.168618  0.776300  1
  H  H5  1  0.359015  0.648492  0.511450  1
  H  H6  1  0.433552  0.875059  0.303467  1
  H  H7  1  0.743655  0.487227  0.710636  1
  H  H8  1  0.004530  0.111845  0.699628  1
  H  H9  1  0.366910  0.511361  0.521753  1
