# generated using pymatgen
data_CaTmB6Ir
_symmetry_space_group_name_H-M   'P 1'
_cell_length_a   3.62842200
_cell_length_b   9.14211500
_cell_length_c   11.53888800
_cell_angle_alpha   90.00000000
_cell_angle_beta   90.00000000
_cell_angle_gamma   90.00000000
_symmetry_Int_Tables_number   1
_chemical_formula_structural   CaTmB6Ir
_chemical_formula_sum   'Ca4 Tm4 B24 Ir4'
_cell_volume   382.76166011
_cell_formula_units_Z   4
loop_
 _symmetry_equiv_pos_site_id
 _symmetry_equiv_pos_as_xyz
  1  'x, y, z'
loop_
 _atom_site_type_symbol
 _atom_site_label
 _atom_site_symmetry_multiplicity
 _atom_site_fract_x
 _atom_site_fract_y
 _atom_site_fract_z
 _atom_site_occupancy
  Ca  Ca0  1  0.000000  0.321942  0.413992  1
  Ca  Ca1  1  0.000000  0.678058  0.586008  1
  Ca  Ca2  1  0.000000  0.821942  0.086008  1
  Ca  Ca3  1  0.000000  0.178058  0.913992  1
  Tm  Tm4  1  0.000000  0.944173  0.373392  1
  Tm  Tm5  1  0.000000  0.055827  0.626608  1
  Tm  Tm6  1  0.000000  0.444173  0.126608  1
  Tm  Tm7  1  0.000000  0.555827  0.873392  1
  B  B8  1  0.500000  0.554135  0.432495  1
  B  B9  1  0.500000  0.445865  0.567505  1
  B  B10  1  0.500000  0.054135  0.067505  1
  B  B11  1  0.500000  0.945865  0.932495  1
  B  B12  1  0.500000  0.749630  0.419522  1
  B  B13  1  0.500000  0.250370  0.580478  1
  B  B14  1  0.500000  0.249630  0.080478  1
  B  B15  1  0.500000  0.750370  0.919522  1
  B  B16  1  0.500000  0.790860  0.266379  1
  B  B17  1  0.500000  0.209140  0.733621  1
  B  B18  1  0.500000  0.290860  0.233621  1
  B  B19  1  0.500000  0.709140  0.766379  1
  B  B20  1  0.500000  0.631374  0.184051  1
  B  B21  1  0.500000  0.368626  0.815949  1
  B  B22  1  0.500000  0.131374  0.315949  1
  B  B23  1  0.500000  0.868626  0.684051  1
  B  B24  1  0.500000  0.983803  0.213305  1
  B  B25  1  0.500000  0.016197  0.786695  1
  B  B26  1  0.500000  0.483803  0.286695  1
  B  B27  1  0.500000  0.516197  0.713305  1
  B  B28  1  0.500000  0.605029  0.028786  1
  B  B29  1  0.500000  0.394971  0.971214  1
  B  B30  1  0.500000  0.105029  0.471214  1
  B  B31  1  0.500000  0.894971  0.528786  1
  Ir  Ir32  1  0.000000  0.638369  0.320297  1
  Ir  Ir33  1  0.000000  0.361631  0.679703  1
  Ir  Ir34  1  0.000000  0.138369  0.179703  1
  Ir  Ir35  1  0.000000  0.861631  0.820297  1
