# generated using pymatgen
data_TmLu3CdCo
_symmetry_space_group_name_H-M   'P 1'
_cell_length_a   9.31220380
_cell_length_b   9.31220430
_cell_length_c   9.31220300
_cell_angle_alpha   60.00000106
_cell_angle_beta   59.99999929
_cell_angle_gamma   59.99999924
_symmetry_Int_Tables_number   1
_chemical_formula_structural   TmLu3CdCo
_chemical_formula_sum   'Tm4 Lu12 Cd4 Co4'
_cell_volume   571.00827617
_cell_formula_units_Z   4
loop_
 _symmetry_equiv_pos_site_id
 _symmetry_equiv_pos_as_xyz
  1  'x, y, z'
loop_
 _atom_site_type_symbol
 _atom_site_label
 _atom_site_symmetry_multiplicity
 _atom_site_fract_x
 _atom_site_fract_y
 _atom_site_fract_z
 _atom_site_occupancy
  Tm  Tm0  1  0.597314  0.597314  0.597314  1
  Tm  Tm1  1  0.597314  0.597314  0.208059  1
  Tm  Tm2  1  0.597314  0.208059  0.597314  1
  Tm  Tm3  1  0.208059  0.597314  0.597314  1
  Lu  Lu4  1  0.063118  0.436882  0.436882  1
  Lu  Lu5  1  0.436882  0.063118  0.063118  1
  Lu  Lu6  1  0.436882  0.063118  0.436882  1
  Lu  Lu7  1  0.063118  0.436882  0.063118  1
  Lu  Lu8  1  0.436882  0.436882  0.063118  1
  Lu  Lu9  1  0.063118  0.063118  0.436882  1
  Lu  Lu10  1  0.188125  0.811875  0.811875  1
  Lu  Lu11  1  0.811875  0.188125  0.188125  1
  Lu  Lu12  1  0.811875  0.188125  0.811875  1
  Lu  Lu13  1  0.188125  0.811875  0.188125  1
  Lu  Lu14  1  0.811875  0.811875  0.188125  1
  Lu  Lu15  1  0.188125  0.188125  0.811875  1
  Cd  Cd16  1  0.831070  0.831070  0.831070  1
  Cd  Cd17  1  0.831070  0.831070  0.506790  1
  Cd  Cd18  1  0.831070  0.506790  0.831070  1
  Cd  Cd19  1  0.506790  0.831070  0.831070  1
  Co  Co20  1  0.391276  0.391276  0.391276  1
  Co  Co21  1  0.391276  0.391276  0.826171  1
  Co  Co22  1  0.391276  0.826171  0.391276  1
  Co  Co23  1  0.826171  0.391276  0.391276  1
