# generated using pymatgen
data_TmLu3Al8
_symmetry_space_group_name_H-M   'P 1'
_cell_length_a   9.52614335
_cell_length_b   9.52614245
_cell_length_c   9.52614302
_cell_angle_alpha   33.50424011
_cell_angle_beta   33.50424877
_cell_angle_gamma   33.50424313
_symmetry_Int_Tables_number   1
_chemical_formula_structural   TmLu3Al8
_chemical_formula_sum   'Tm1 Lu3 Al8'
_cell_volume   234.60244385
_cell_formula_units_Z   1
loop_
 _symmetry_equiv_pos_site_id
 _symmetry_equiv_pos_as_xyz
  1  'x, y, z'
loop_
 _atom_site_type_symbol
 _atom_site_label
 _atom_site_symmetry_multiplicity
 _atom_site_fract_x
 _atom_site_fract_y
 _atom_site_fract_z
 _atom_site_occupancy
  Tm  Tm0  1  0.874952  0.874952  0.874952  1
  Lu  Lu1  1  0.375031  0.375031  0.375031  1
  Lu  Lu2  1  0.000028  0.000028  0.000028  1
  Lu  Lu3  1  0.499979  0.499979  0.499979  1
  Al  Al4  1  0.437784  0.937143  0.437784  1
  Al  Al5  1  0.937351  0.437617  0.937351  1
  Al  Al6  1  0.437784  0.437784  0.937143  1
  Al  Al7  1  0.937351  0.937351  0.437617  1
  Al  Al8  1  0.187380  0.187380  0.187380  1
  Al  Al9  1  0.687604  0.687604  0.687604  1
  Al  Al10  1  0.937143  0.437784  0.437784  1
  Al  Al11  1  0.437617  0.937351  0.937351  1
