# generated using pymatgen
data_Al5Tc3P
_symmetry_space_group_name_H-M   'P 1'
_cell_length_a   4.73448301
_cell_length_b   4.73448414
_cell_length_c   6.62946800
_cell_angle_alpha   90.21068071
_cell_angle_beta   90.21068076
_cell_angle_gamma   120.41116854
_symmetry_Int_Tables_number   1
_chemical_formula_structural   Al5Tc3P
_chemical_formula_sum   'Al5 Tc3 P1'
_cell_volume   128.15286592
_cell_formula_units_Z   1
loop_
 _symmetry_equiv_pos_site_id
 _symmetry_equiv_pos_as_xyz
  1  'x, y, z'
loop_
 _atom_site_type_symbol
 _atom_site_label
 _atom_site_symmetry_multiplicity
 _atom_site_fract_x
 _atom_site_fract_y
 _atom_site_fract_z
 _atom_site_occupancy
  Al  Al0  1  0.165576  0.337524  0.009081  1
  Al  Al1  1  0.835241  0.662413  0.998460  1
  Al  Al2  1  0.337586  0.164757  0.334873  1
  Al  Al3  1  0.662476  0.834424  0.324252  1
  Al  Al4  1  0.840441  0.159558  0.666667  1
  Tc  Tc5  1  0.490710  0.997957  0.984885  1
  Tc  Tc6  1  0.002043  0.509289  0.348448  1
  Tc  Tc7  1  0.502248  0.497753  0.666667  1
  P  P8  1  0.163674  0.836326  0.666667  1
