# generated using pymatgen
data_Be4Nb4WAu
_symmetry_space_group_name_H-M   'P 1'
_cell_length_a   6.36930000
_cell_length_b   6.36930000
_cell_length_c   3.43020800
_cell_angle_alpha   90.00000000
_cell_angle_beta   90.00000000
_cell_angle_gamma   90.00000000
_symmetry_Int_Tables_number   1
_chemical_formula_structural   Be4Nb4WAu
_chemical_formula_sum   'Be4 Nb4 W1 Au1'
_cell_volume   139.15661808
_cell_formula_units_Z   1
loop_
 _symmetry_equiv_pos_site_id
 _symmetry_equiv_pos_as_xyz
  1  'x, y, z'
loop_
 _atom_site_type_symbol
 _atom_site_label
 _atom_site_symmetry_multiplicity
 _atom_site_fract_x
 _atom_site_fract_y
 _atom_site_fract_z
 _atom_site_occupancy
  Be  Be0  1  0.882934  0.376162  0.000000  1
  Be  Be1  1  0.376162  0.117066  0.000000  1
  Be  Be2  1  0.623838  0.882934  0.000000  1
  Be  Be3  1  0.117066  0.623838  0.000000  1
  Nb  Nb4  1  0.664340  0.183676  0.500000  1
  Nb  Nb5  1  0.183676  0.335660  0.500000  1
  Nb  Nb6  1  0.816324  0.664340  0.500000  1
  Nb  Nb7  1  0.335660  0.816324  0.500000  1
  W  W8  1  0.500000  0.500000  0.000000  1
  Au  Au9  1  0.000000  0.000000  0.000000  1
