# generated using pymatgen
data_Ho6TaNb3Ga12Os7
_symmetry_space_group_name_H-M   'P 1'
_cell_length_a   9.02701515
_cell_length_b   9.02701614
_cell_length_c   9.02701400
_cell_angle_alpha   59.97399284
_cell_angle_beta   59.97398742
_cell_angle_gamma   59.97400073
_symmetry_Int_Tables_number   1
_chemical_formula_structural   Ho6TaNb3Ga12Os7
_chemical_formula_sum   'Ho6 Ta1 Nb3 Ga12 Os7'
_cell_volume   519.82997494
_cell_formula_units_Z   1
loop_
 _symmetry_equiv_pos_site_id
 _symmetry_equiv_pos_as_xyz
  1  'x, y, z'
loop_
 _atom_site_type_symbol
 _atom_site_label
 _atom_site_symmetry_multiplicity
 _atom_site_fract_x
 _atom_site_fract_y
 _atom_site_fract_z
 _atom_site_occupancy
  Ho  Ho0  1  0.709237  0.709237  0.291084  1
  Ho  Ho1  1  0.290134  0.709510  0.290134  1
  Ho  Ho2  1  0.709510  0.290134  0.290134  1
  Ho  Ho3  1  0.290134  0.290134  0.709510  1
  Ho  Ho4  1  0.709237  0.291084  0.709237  1
  Ho  Ho5  1  0.291084  0.709237  0.709237  1
  Ta  Ta6  1  0.878289  0.878289  0.878289  1
  Nb  Nb7  1  0.878054  0.878054  0.365359  1
  Nb  Nb8  1  0.878054  0.365359  0.878054  1
  Nb  Nb9  1  0.365359  0.878054  0.878054  1
  Ga  Ga10  1  0.119489  0.119489  0.641323  1
  Ga  Ga11  1  0.119489  0.641323  0.119489  1
  Ga  Ga12  1  0.641323  0.119489  0.119489  1
  Ga  Ga13  1  0.119587  0.119587  0.119587  1
  Ga  Ga14  1  0.662438  0.662438  0.012654  1
  Ga  Ga15  1  0.662438  0.012654  0.662438  1
  Ga  Ga16  1  0.012654  0.662438  0.662438  1
  Ga  Ga17  1  0.662703  0.662703  0.662703  1
  Ga  Ga18  1  0.335437  0.335437  0.993512  1
  Ga  Ga19  1  0.335437  0.993512  0.335437  1
  Ga  Ga20  1  0.993512  0.335437  0.335437  1
  Ga  Ga21  1  0.335377  0.335377  0.335377  1
  Os  Os22  1  0.999674  0.999674  0.999674  1
  Os  Os23  1  0.995989  0.995989  0.505679  1
  Os  Os24  1  0.503744  0.996202  0.503744  1
  Os  Os25  1  0.996202  0.503744  0.503744  1
  Os  Os26  1  0.503744  0.503744  0.996202  1
  Os  Os27  1  0.995989  0.505679  0.995989  1
  Os  Os28  1  0.505679  0.995989  0.995989  1
