# generated using pymatgen
data_MgSc3Mn2(B2Ir5)2
_symmetry_space_group_name_H-M   'P 1'
_cell_length_a   2.99996600
_cell_length_b   9.49243674
_cell_length_c   9.49243674
_cell_angle_alpha   90.27199179
_cell_angle_beta   90.00000000
_cell_angle_gamma   90.00000000
_symmetry_Int_Tables_number   1
_chemical_formula_structural   MgSc3Mn2(B2Ir5)2
_chemical_formula_sum   'Mg1 Sc3 Mn2 B4 Ir10'
_cell_volume   270.31295630
_cell_formula_units_Z   1
loop_
 _symmetry_equiv_pos_site_id
 _symmetry_equiv_pos_as_xyz
  1  'x, y, z'
loop_
 _atom_site_type_symbol
 _atom_site_label
 _atom_site_symmetry_multiplicity
 _atom_site_fract_x
 _atom_site_fract_y
 _atom_site_fract_z
 _atom_site_occupancy
  Mg  Mg0  1  0.000000  0.678194  0.178194  1
  Sc  Sc1  1  0.000000  0.176541  0.321814  1
  Sc  Sc2  1  0.000000  0.821813  0.676541  1
  Sc  Sc3  1  0.000000  0.325254  0.825253  1
  Mn  Mn4  1  0.000000  0.999251  0.000115  1
  Mn  Mn5  1  0.000000  0.500114  0.499250  1
  B  B6  1  0.000000  0.376132  0.125353  1
  B  B7  1  0.000000  0.871814  0.371815  1
  B  B8  1  0.000000  0.124773  0.624772  1
  B  B9  1  0.000000  0.625352  0.876131  1
  Ir  Ir10  1  0.499997  0.501168  0.001169  1
  Ir  Ir11  1  0.499997  0.217139  0.068198  1
  Ir  Ir12  1  0.499997  0.932464  0.216937  1
  Ir  Ir13  1  0.499997  0.427215  0.284437  1
  Ir  Ir14  1  0.499997  0.716937  0.432464  1
  Ir  Ir15  1  0.499997  0.999661  0.499660  1
  Ir  Ir16  1  0.499997  0.283161  0.570379  1
  Ir  Ir17  1  0.499997  0.568198  0.717139  1
  Ir  Ir18  1  0.499997  0.070379  0.783160  1
  Ir  Ir19  1  0.499997  0.784436  0.927215  1
