# generated using pymatgen
data_Er9Th3Tc3Rh
_symmetry_space_group_name_H-M   'P 1'
_cell_length_a   6.33982674
_cell_length_b   7.26894776
_cell_length_c   9.37669000
_cell_angle_alpha   90.00000000
_cell_angle_beta   90.00000000
_cell_angle_gamma   90.22154415
_symmetry_Int_Tables_number   1
_chemical_formula_structural   Er9Th3Tc3Rh
_chemical_formula_sum   'Er9 Th3 Tc3 Rh1'
_cell_volume   432.11092689
_cell_formula_units_Z   1
loop_
 _symmetry_equiv_pos_site_id
 _symmetry_equiv_pos_as_xyz
  1  'x, y, z'
loop_
 _atom_site_type_symbol
 _atom_site_label
 _atom_site_symmetry_multiplicity
 _atom_site_fract_x
 _atom_site_fract_y
 _atom_site_fract_z
 _atom_site_occupancy
  Er  Er0  1  0.665679  0.175460  0.066222  1
  Er  Er1  1  0.168513  0.321393  0.935049  1
  Er  Er2  1  0.837382  0.678677  0.435047  1
  Er  Er3  1  0.335161  0.824575  0.562927  1
  Er  Er4  1  0.335161  0.824575  0.937073  1
  Er  Er5  1  0.837382  0.678677  0.064953  1
  Er  Er6  1  0.168513  0.321393  0.564951  1
  Er  Er7  1  0.665679  0.175460  0.433778  1
  Er  Er8  1  0.129624  0.038397  0.250000  1
  Th  Th9  1  0.866654  0.952258  0.750000  1
  Th  Th10  1  0.361725  0.549567  0.250000  1
  Th  Th11  1  0.637932  0.451340  0.750000  1
  Tc  Tc12  1  0.022410  0.627461  0.750000  1
  Tc  Tc13  1  0.531680  0.870184  0.250000  1
  Tc  Tc14  1  0.479007  0.127053  0.750000  1
  Rh  Rh15  1  0.957498  0.383528  0.250000  1
