# generated using pymatgen
data_HoPa(CoB4)2
_symmetry_space_group_name_H-M   'P 1'
_cell_length_a   3.40690600
_cell_length_b   5.92144254
_cell_length_c   11.48514898
_cell_angle_alpha   89.91740339
_cell_angle_beta   90.00000000
_cell_angle_gamma   90.00000000
_symmetry_Int_Tables_number   1
_chemical_formula_structural   HoPa(CoB4)2
_chemical_formula_sum   'Ho2 Pa2 Co4 B16'
_cell_volume   231.69883613
_cell_formula_units_Z   2
loop_
 _symmetry_equiv_pos_site_id
 _symmetry_equiv_pos_as_xyz
  1  'x, y, z'
loop_
 _atom_site_type_symbol
 _atom_site_label
 _atom_site_symmetry_multiplicity
 _atom_site_fract_x
 _atom_site_fract_y
 _atom_site_fract_z
 _atom_site_occupancy
  Ho  Ho0  1  0.500000  0.127948  0.647771  1
  Ho  Ho1  1  0.500000  0.872052  0.352229  1
  Pa  Pa2  1  0.500000  0.372568  0.151802  1
  Pa  Pa3  1  0.500000  0.627432  0.848198  1
  Co  Co4  1  0.500000  0.365973  0.409847  1
  Co  Co5  1  0.500000  0.634027  0.590153  1
  Co  Co6  1  0.500000  0.134656  0.909806  1
  Co  Co7  1  0.500000  0.865344  0.090194  1
  B  B8  1  0.000000  0.110824  0.046309  1
  B  B9  1  0.000000  0.889176  0.953691  1
  B  B10  1  0.000000  0.386757  0.544986  1
  B  B11  1  0.000000  0.613243  0.455014  1
  B  B12  1  0.000000  0.137858  0.467086  1
  B  B13  1  0.000000  0.862142  0.532914  1
  B  B14  1  0.000000  0.361299  0.965526  1
  B  B15  1  0.000000  0.638701  0.034474  1
  B  B16  1  0.000000  0.020560  0.191227  1
  B  B17  1  0.000000  0.979440  0.808773  1
  B  B18  1  0.000000  0.476356  0.688390  1
  B  B19  1  0.000000  0.523644  0.311610  1
  B  B20  1  0.000000  0.216573  0.316531  1
  B  B21  1  0.000000  0.783427  0.683469  1
  B  B22  1  0.000000  0.281815  0.814044  1
  B  B23  1  0.000000  0.718185  0.185956  1
