# generated using pymatgen
data_Sm2CdAg3O8
_symmetry_space_group_name_H-M   'P 1'
_cell_length_a   6.86536377
_cell_length_b   6.78409799
_cell_length_c   6.58787677
_cell_angle_alpha   126.40547562
_cell_angle_beta   125.23586573
_cell_angle_gamma   82.07721560
_symmetry_Int_Tables_number   1
_chemical_formula_structural   Sm2CdAg3O8
_chemical_formula_sum   'Sm2 Cd1 Ag3 O8'
_cell_volume   191.68913508
_cell_formula_units_Z   1
loop_
 _symmetry_equiv_pos_site_id
 _symmetry_equiv_pos_as_xyz
  1  'x, y, z'
loop_
 _atom_site_type_symbol
 _atom_site_label
 _atom_site_symmetry_multiplicity
 _atom_site_fract_x
 _atom_site_fract_y
 _atom_site_fract_z
 _atom_site_occupancy
  Sm  Sm0  1  0.754259  0.248512  0.503727  1
  Sm  Sm1  1  0.995741  0.001488  0.996273  1
  Cd  Cd2  1  0.375000  0.125000  0.750000  1
  Ag  Ag3  1  0.375000  0.625000  0.250000  1
  Ag  Ag4  1  0.875000  0.625000  0.250000  1
  Ag  Ag5  1  0.375000  0.625000  0.750000  1
  O  O6  1  0.018233  0.004215  0.645827  1
  O  O7  1  0.620906  0.943647  0.959548  1
  O  O8  1  0.007649  0.671486  0.064979  1
  O  O9  1  0.387972  0.871713  0.144538  1
  O  O10  1  0.742351  0.578514  0.435021  1
  O  O11  1  0.129094  0.306353  0.540452  1
  O  O12  1  0.362028  0.378287  0.355462  1
  O  O13  1  0.731767  0.245785  0.854173  1
