# generated using pymatgen
data_Dy4Lu3Mg(B6Os)4
_symmetry_space_group_name_H-M   'P 1'
_cell_length_a   3.60662100
_cell_length_b   9.04183543
_cell_length_c   11.43195455
_cell_angle_alpha   89.96456040
_cell_angle_beta   90.00000000
_cell_angle_gamma   90.00000000
_symmetry_Int_Tables_number   1
_chemical_formula_structural   Dy4Lu3Mg(B6Os)4
_chemical_formula_sum   'Dy4 Lu3 Mg1 B24 Os4'
_cell_volume   372.80138005
_cell_formula_units_Z   1
loop_
 _symmetry_equiv_pos_site_id
 _symmetry_equiv_pos_as_xyz
  1  'x, y, z'
loop_
 _atom_site_type_symbol
 _atom_site_label
 _atom_site_symmetry_multiplicity
 _atom_site_fract_x
 _atom_site_fract_y
 _atom_site_fract_z
 _atom_site_occupancy
  Dy  Dy0  1  0.000000  0.320952  0.412517  1
  Dy  Dy1  1  0.000000  0.679501  0.583162  1
  Dy  Dy2  1  0.000000  0.822501  0.088554  1
  Dy  Dy3  1  0.000000  0.177935  0.915798  1
  Lu  Lu4  1  0.000000  0.054949  0.624517  1
  Lu  Lu5  1  0.000000  0.443762  0.128356  1
  Lu  Lu6  1  0.000000  0.556161  0.872768  1
  Mg  Mg7  1  0.000000  0.946195  0.376377  1
  B  B8  1  0.500000  0.555727  0.432389  1
  B  B9  1  0.500000  0.445407  0.566590  1
  B  B10  1  0.500000  0.053575  0.068394  1
  B  B11  1  0.500000  0.945802  0.932751  1
  B  B12  1  0.500000  0.752614  0.418647  1
  B  B13  1  0.500000  0.249063  0.579683  1
  B  B14  1  0.500000  0.249229  0.081461  1
  B  B15  1  0.500000  0.750121  0.919222  1
  B  B16  1  0.500000  0.794475  0.266292  1
  B  B17  1  0.500000  0.207372  0.733449  1
  B  B18  1  0.500000  0.290219  0.234740  1
  B  B19  1  0.500000  0.708242  0.765267  1
  B  B20  1  0.500000  0.631461  0.185525  1
  B  B21  1  0.500000  0.369088  0.815386  1
  B  B22  1  0.500000  0.127432  0.316428  1
  B  B23  1  0.500000  0.869505  0.683061  1
  B  B24  1  0.500000  0.980863  0.214619  1
  B  B25  1  0.500000  0.017549  0.785822  1
  B  B26  1  0.500000  0.483062  0.287197  1
  B  B27  1  0.500000  0.517371  0.713142  1
  B  B28  1  0.500000  0.604091  0.028760  1
  B  B29  1  0.500000  0.396040  0.971873  1
  B  B30  1  0.500000  0.099672  0.470144  1
  B  B31  1  0.500000  0.898137  0.525698  1
  Os  Os32  1  0.000000  0.641747  0.320086  1
  Os  Os33  1  0.000000  0.360981  0.679883  1
  Os  Os34  1  0.000000  0.137082  0.181315  1
  Os  Os35  1  0.000000  0.862116  0.820129  1
