# generated using pymatgen
data_Zr5(NpH10)3
_symmetry_space_group_name_H-M   'P 1'
_cell_length_a   7.17180640
_cell_length_b   7.23279504
_cell_length_c   7.21531716
_cell_angle_alpha   109.39967677
_cell_angle_beta   109.61028202
_cell_angle_gamma   109.23287186
_symmetry_Int_Tables_number   1
_chemical_formula_structural   Zr5(NpH10)3
_chemical_formula_sum   'Zr5 Np3 H30'
_cell_volume   288.72005352
_cell_formula_units_Z   1
loop_
 _symmetry_equiv_pos_site_id
 _symmetry_equiv_pos_as_xyz
  1  'x, y, z'
loop_
 _atom_site_type_symbol
 _atom_site_label
 _atom_site_symmetry_multiplicity
 _atom_site_fract_x
 _atom_site_fract_y
 _atom_site_fract_z
 _atom_site_occupancy
  Zr  Zr0  1  0.104420  0.500856  0.004308  1
  Zr  Zr1  1  0.999896  0.590256  0.493746  1
  Zr  Zr2  1  0.600363  0.495033  0.997789  1
  Zr  Zr3  1  0.495086  0.998383  0.590766  1
  Zr  Zr4  1  0.405623  0.409394  0.405774  1
  Np  Np5  1  0.909405  0.906552  0.907583  1
  Np  Np6  1  0.495599  0.000926  0.090750  1
  Np  Np7  1  0.004443  0.095011  0.506187  1
  H  H8  1  0.645177  0.970060  0.389029  1
  H  H9  1  0.234317  0.324930  0.861274  1
  H  H10  1  0.193430  0.423908  0.532472  1
  H  H11  1  0.094758  0.287728  0.127810  1
  H  H12  1  0.281467  0.143483  0.100880  1
  H  H13  1  0.137904  0.106079  0.283192  1
  H  H14  1  0.463306  0.158923  0.870732  1
  H  H15  1  0.720584  0.338979  0.812805  1
  H  H16  1  0.622590  0.374370  0.248159  1
  H  H17  1  0.248903  0.624812  0.372164  1
  H  H18  1  0.745984  0.867342  0.125646  1
  H  H19  1  0.122265  0.740582  0.872504  1
  H  H20  1  0.377423  0.255150  0.627527  1
  H  H21  1  0.876820  0.132704  0.755622  1
  H  H22  1  0.771351  0.580692  0.606939  1
  H  H23  1  0.305765  0.837081  0.227863  1
  H  H24  1  0.377503  0.645599  0.974323  1
  H  H25  1  0.977030  0.393934  0.665620  1
  H  H26  1  0.527465  0.192209  0.421330  1
  H  H27  1  0.413364  0.531650  0.189516  1
  H  H28  1  0.853212  0.240198  0.320029  1
  H  H29  1  0.905052  0.671431  0.029771  1
  H  H30  1  0.810150  0.710219  0.336015  1
  H  H31  1  0.156610  0.870178  0.461814  1
  H  H32  1  0.676632  0.033898  0.895084  1
  H  H33  1  0.338057  0.807368  0.710217  1
  H  H34  1  0.879422  0.465005  0.154519  1
  H  H35  1  0.608108  0.772583  0.578654  1
  H  H36  1  0.582807  0.608058  0.772480  1
  H  H37  1  0.037708  0.894437  0.679110  1
