# generated using pymatgen
data_Ca6Th2SbPd24
_symmetry_space_group_name_H-M   'P 1'
_cell_length_a   8.45988400
_cell_length_b   8.47939136
_cell_length_c   8.47939136
_cell_angle_alpha   90.19567112
_cell_angle_beta   90.00000000
_cell_angle_gamma   90.00000000
_symmetry_Int_Tables_number   1
_chemical_formula_structural   Ca6Th2SbPd24
_chemical_formula_sum   'Ca6 Th2 Sb1 Pd24'
_cell_volume   608.26277126
_cell_formula_units_Z   1
loop_
 _symmetry_equiv_pos_site_id
 _symmetry_equiv_pos_as_xyz
  1  'x, y, z'
loop_
 _atom_site_type_symbol
 _atom_site_label
 _atom_site_symmetry_multiplicity
 _atom_site_fract_x
 _atom_site_fract_y
 _atom_site_fract_z
 _atom_site_occupancy
  Ca  Ca0  1  0.250813  0.748339  0.748339  1
  Ca  Ca1  1  0.749066  0.749564  0.749564  1
  Ca  Ca2  1  0.749066  0.250436  0.250436  1
  Ca  Ca3  1  0.251492  0.252507  0.747493  1
  Ca  Ca4  1  0.251492  0.747493  0.252507  1
  Ca  Ca5  1  0.250813  0.251661  0.251661  1
  Th  Th6  1  0.742640  0.744296  0.255704  1
  Th  Th7  1  0.742640  0.255704  0.744296  1
  Sb  Sb8  1  0.005603  0.000000  0.000000  1
  Pd  Pd9  1  0.999882  0.000013  0.310141  1
  Pd  Pd10  1  0.734657  0.000000  0.500000  1
  Pd  Pd11  1  0.734657  0.500000  0.000000  1
  Pd  Pd12  1  0.502322  0.000346  0.733457  1
  Pd  Pd13  1  0.996635  0.733812  0.500051  1
  Pd  Pd14  1  0.502322  0.999654  0.266543  1
  Pd  Pd15  1  0.996635  0.266188  0.499949  1
  Pd  Pd16  1  0.502322  0.733457  0.000346  1
  Pd  Pd17  1  0.254398  0.500000  0.500000  1
  Pd  Pd18  1  0.500989  0.501618  0.744444  1
  Pd  Pd19  1  0.500989  0.498382  0.255556  1
  Pd  Pd20  1  0.500989  0.255556  0.498382  1
  Pd  Pd21  1  0.500989  0.744444  0.501618  1
  Pd  Pd22  1  0.743263  0.500000  0.500000  1
  Pd  Pd23  1  0.313973  0.000000  0.000000  1
  Pd  Pd24  1  0.999882  0.999987  0.689859  1
  Pd  Pd25  1  0.996635  0.499949  0.266188  1
  Pd  Pd26  1  0.999882  0.310141  0.000013  1
  Pd  Pd27  1  0.999882  0.689859  0.999987  1
  Pd  Pd28  1  0.692013  0.000000  0.000000  1
  Pd  Pd29  1  0.267050  0.500000  0.000000  1
  Pd  Pd30  1  0.267050  0.000000  0.500000  1
  Pd  Pd31  1  0.996635  0.500051  0.733812  1
  Pd  Pd32  1  0.502322  0.266543  0.999654  1
