# generated using pymatgen
data_Ce3Sm7(Al2Ru3)2
_symmetry_space_group_name_H-M   'P 1'
_cell_length_a   8.54106630
_cell_length_b   8.54106569
_cell_length_c   8.54106648
_cell_angle_alpha   110.12355075
_cell_angle_beta   110.12354864
_cell_angle_gamma   110.12355025
_symmetry_Int_Tables_number   1
_chemical_formula_structural   Ce3Sm7(Al2Ru3)2
_chemical_formula_sum   'Ce3 Sm7 Al4 Ru6'
_cell_volume   467.69638777
_cell_formula_units_Z   1
loop_
 _symmetry_equiv_pos_site_id
 _symmetry_equiv_pos_as_xyz
  1  'x, y, z'
loop_
 _atom_site_type_symbol
 _atom_site_label
 _atom_site_symmetry_multiplicity
 _atom_site_fract_x
 _atom_site_fract_y
 _atom_site_fract_z
 _atom_site_occupancy
  Ce  Ce0  1  0.252516  0.200436  0.944020  1
  Ce  Ce1  1  0.944020  0.252516  0.200436  1
  Ce  Ce2  1  0.200436  0.944020  0.252516  1
  Sm  Sm3  1  0.782682  0.782682  0.782682  1
  Sm  Sm4  1  0.311553  0.564797  0.752924  1
  Sm  Sm5  1  0.752924  0.311553  0.564797  1
  Sm  Sm6  1  0.564797  0.752924  0.311553  1
  Sm  Sm7  1  0.721289  0.504961  0.992753  1
  Sm  Sm8  1  0.992753  0.721289  0.504961  1
  Sm  Sm9  1  0.504961  0.992753  0.721289  1
  Al  Al10  1  0.408104  0.408104  0.408104  1
  Al  Al11  1  0.094485  0.497467  0.005782  1
  Al  Al12  1  0.005782  0.094485  0.497467  1
  Al  Al13  1  0.497467  0.005782  0.094485  1
  Ru  Ru14  1  0.912111  0.123540  0.756063  1
  Ru  Ru15  1  0.756063  0.912111  0.123540  1
  Ru  Ru16  1  0.123540  0.756063  0.912111  1
  Ru  Ru17  1  0.220332  0.589740  0.364445  1
  Ru  Ru18  1  0.364445  0.220332  0.589740  1
  Ru  Ru19  1  0.589740  0.364445  0.220332  1
