# generated using pymatgen
data_TaNb11Al8PdRu3C4
_symmetry_space_group_name_H-M   'P 1'
_cell_length_a   8.39570974
_cell_length_b   8.40176399
_cell_length_c   8.39570900
_cell_angle_alpha   59.97614533
_cell_angle_beta   59.97883853
_cell_angle_gamma   59.97613953
_symmetry_Int_Tables_number   1
_chemical_formula_structural   TaNb11Al8PdRu3C4
_chemical_formula_sum   'Ta1 Nb11 Al8 Pd1 Ru3 C4'
_cell_volume   418.54688646
_cell_formula_units_Z   1
loop_
 _symmetry_equiv_pos_site_id
 _symmetry_equiv_pos_as_xyz
  1  'x, y, z'
loop_
 _atom_site_type_symbol
 _atom_site_label
 _atom_site_symmetry_multiplicity
 _atom_site_fract_x
 _atom_site_fract_y
 _atom_site_fract_z
 _atom_site_occupancy
  Ta  Ta0  1  0.939640  0.560048  0.940264  1
  Nb  Nb1  1  0.567700  0.937309  0.557683  1
  Nb  Nb2  1  0.312923  0.681941  0.692482  1
  Nb  Nb3  1  0.689928  0.310594  0.310088  1
  Nb  Nb4  1  0.311502  0.688860  0.310777  1
  Nb  Nb5  1  0.689928  0.689390  0.310088  1
  Nb  Nb6  1  0.312923  0.312654  0.692482  1
  Nb  Nb7  1  0.560577  0.560896  0.939788  1
  Nb  Nb8  1  0.936908  0.568324  0.558099  1
  Nb  Nb9  1  0.560577  0.938739  0.939788  1
  Nb  Nb10  1  0.936908  0.936671  0.558099  1
  Nb  Nb11  1  0.681904  0.313124  0.691847  1
  Al  Al12  1  0.914783  0.916260  0.917258  1
  Al  Al13  1  0.998330  0.334351  0.332967  1
  Al  Al14  1  0.334443  0.998443  0.331948  1
  Al  Al15  1  0.332938  0.331884  0.003293  1
  Al  Al16  1  0.914783  0.251701  0.917258  1
  Al  Al17  1  0.918233  0.917607  0.246553  1
  Al  Al18  1  0.251402  0.915119  0.918361  1
  Al  Al19  1  0.334443  0.335162  0.331948  1
  Pd  Pd20  1  0.125185  0.124878  0.625059  1
  Ru  Ru21  1  0.123711  0.127769  0.123587  1
  Ru  Ru22  1  0.625054  0.124934  0.125078  1
  Ru  Ru23  1  0.123711  0.624933  0.123587  1
  C  C24  1  0.625127  0.624927  0.625174  1
  C  C25  1  0.124059  0.624367  0.627206  1
  C  C26  1  0.625127  0.124774  0.625174  1
  C  C27  1  0.627255  0.624340  0.124065  1
