# generated using pymatgen
data_CsMnSb3F18
_symmetry_space_group_name_H-M   'P 1'
_cell_length_a   10.45253100
_cell_length_b   11.47078900
_cell_length_c   15.38141500
_cell_angle_alpha   90.00000000
_cell_angle_beta   90.00000000
_cell_angle_gamma   90.00000000
_symmetry_Int_Tables_number   1
_chemical_formula_structural   CsMnSb3F18
_chemical_formula_sum   'Cs4 Mn4 Sb12 F72'
_cell_volume   1844.21285652
_cell_formula_units_Z   4
loop_
 _symmetry_equiv_pos_site_id
 _symmetry_equiv_pos_as_xyz
  1  'x, y, z'
loop_
 _atom_site_type_symbol
 _atom_site_label
 _atom_site_symmetry_multiplicity
 _atom_site_fract_x
 _atom_site_fract_y
 _atom_site_fract_z
 _atom_site_occupancy
  Cs  Cs0  1  0.519131  0.925977  0.750000  1
  Cs  Cs1  1  0.980869  0.425977  0.750000  1
  Cs  Cs2  1  0.480869  0.074023  0.250000  1
  Cs  Cs3  1  0.019131  0.574023  0.250000  1
  Mn  Mn4  1  0.000000  0.000000  0.500000  1
  Mn  Mn5  1  0.500000  0.500000  0.000000  1
  Mn  Mn6  1  0.000000  0.000000  0.000000  1
  Mn  Mn7  1  0.500000  0.500000  0.500000  1
  Sb  Sb8  1  0.098260  0.011788  0.750000  1
  Sb  Sb9  1  0.401740  0.511788  0.750000  1
  Sb  Sb10  1  0.901740  0.988212  0.250000  1
  Sb  Sb11  1  0.598260  0.488212  0.250000  1
  Sb  Sb12  1  0.696681  0.204748  0.541765  1
  Sb  Sb13  1  0.803319  0.704748  0.958235  1
  Sb  Sb14  1  0.303319  0.795252  0.041765  1
  Sb  Sb15  1  0.196681  0.295252  0.458235  1
  Sb  Sb16  1  0.303319  0.795252  0.458235  1
  Sb  Sb17  1  0.196681  0.295252  0.041765  1
  Sb  Sb18  1  0.696681  0.204748  0.958235  1
  Sb  Sb19  1  0.803319  0.704748  0.541765  1
  F  F20  1  0.094932  0.014003  0.621957  1
  F  F21  1  0.405068  0.514003  0.878043  1
  F  F22  1  0.905068  0.985997  0.121957  1
  F  F23  1  0.594932  0.485997  0.378043  1
  F  F24  1  0.905068  0.985997  0.378043  1
  F  F25  1  0.594932  0.485997  0.121957  1
  F  F26  1  0.094932  0.014003  0.878043  1
  F  F27  1  0.405068  0.514003  0.621957  1
  F  F28  1  0.169877  0.859761  0.750000  1
  F  F29  1  0.330123  0.359761  0.750000  1
  F  F30  1  0.830123  0.140239  0.250000  1
  F  F31  1  0.669877  0.640239  0.250000  1
  F  F32  1  0.267750  0.072765  0.750000  1
  F  F33  1  0.232250  0.572765  0.750000  1
  F  F34  1  0.732250  0.927235  0.250000  1
  F  F35  1  0.767750  0.427235  0.250000  1
  F  F36  1  0.032889  0.167224  0.750000  1
  F  F37  1  0.467111  0.667224  0.750000  1
  F  F38  1  0.967111  0.832776  0.250000  1
  F  F39  1  0.532889  0.332776  0.250000  1
  F  F40  1  0.928697  0.951915  0.750000  1
  F  F41  1  0.571303  0.451915  0.750000  1
  F  F42  1  0.071303  0.048085  0.250000  1
  F  F43  1  0.428697  0.548085  0.250000  1
  F  F44  1  0.827015  0.080287  0.549094  1
  F  F45  1  0.672985  0.580287  0.950906  1
  F  F46  1  0.172985  0.919713  0.049094  1
  F  F47  1  0.327015  0.419713  0.450906  1
  F  F48  1  0.172985  0.919713  0.450906  1
  F  F49  1  0.327015  0.419713  0.049094  1
  F  F50  1  0.827015  0.080287  0.950906  1
  F  F51  1  0.672985  0.580287  0.549094  1
  F  F52  1  0.798147  0.284429  0.458535  1
  F  F53  1  0.701853  0.784429  0.041465  1
  F  F54  1  0.201853  0.715571  0.958535  1
  F  F55  1  0.298147  0.215571  0.541465  1
  F  F56  1  0.201853  0.715571  0.541465  1
  F  F57  1  0.298147  0.215571  0.958535  1
  F  F58  1  0.798147  0.284429  0.041465  1
  F  F59  1  0.701853  0.784429  0.458535  1
  F  F60  1  0.610547  0.122971  0.451144  1
  F  F61  1  0.889453  0.622971  0.048856  1
  F  F62  1  0.389453  0.877029  0.951144  1
  F  F63  1  0.110547  0.377029  0.548856  1
  F  F64  1  0.389453  0.877029  0.548856  1
  F  F65  1  0.110547  0.377029  0.951144  1
  F  F66  1  0.610547  0.122971  0.048856  1
  F  F67  1  0.889453  0.622971  0.451144  1
  F  F68  1  0.569004  0.330878  0.535520  1
  F  F69  1  0.930996  0.830878  0.964480  1
  F  F70  1  0.430996  0.669122  0.035520  1
  F  F71  1  0.069004  0.169122  0.464480  1
  F  F72  1  0.430996  0.669122  0.464480  1
  F  F73  1  0.069004  0.169122  0.035520  1
  F  F74  1  0.569004  0.330878  0.964480  1
  F  F75  1  0.930996  0.830878  0.535520  1
  F  F76  1  0.595476  0.124660  0.625684  1
  F  F77  1  0.904524  0.624660  0.874316  1
  F  F78  1  0.404524  0.875340  0.125684  1
  F  F79  1  0.095476  0.375340  0.374316  1
  F  F80  1  0.404524  0.875340  0.374316  1
  F  F81  1  0.095476  0.375340  0.125684  1
  F  F82  1  0.595476  0.124660  0.874316  1
  F  F83  1  0.904524  0.624660  0.625684  1
  F  F84  1  0.781146  0.285741  0.633693  1
  F  F85  1  0.718854  0.785741  0.866307  1
  F  F86  1  0.218854  0.714259  0.133693  1
  F  F87  1  0.281146  0.214259  0.366307  1
  F  F88  1  0.218854  0.714259  0.366307  1
  F  F89  1  0.281146  0.214259  0.133693  1
  F  F90  1  0.781146  0.285741  0.866307  1
  F  F91  1  0.718854  0.785741  0.633693  1
