# generated using pymatgen
data_Ce2Mn9VP6
_symmetry_space_group_name_H-M   'P 1'
_cell_length_a   3.66322000
_cell_length_b   10.71816500
_cell_length_c   12.25331500
_cell_angle_alpha   90.00000000
_cell_angle_beta   90.00000000
_cell_angle_gamma   90.00000000
_symmetry_Int_Tables_number   1
_chemical_formula_structural   Ce2Mn9VP6
_chemical_formula_sum   'Ce4 Mn18 V2 P12'
_cell_volume   481.10186263
_cell_formula_units_Z   2
loop_
 _symmetry_equiv_pos_site_id
 _symmetry_equiv_pos_as_xyz
  1  'x, y, z'
loop_
 _atom_site_type_symbol
 _atom_site_label
 _atom_site_symmetry_multiplicity
 _atom_site_fract_x
 _atom_site_fract_y
 _atom_site_fract_z
 _atom_site_occupancy
  Ce  Ce0  1  0.250000  0.585326  0.706454  1
  Ce  Ce1  1  0.250000  0.914674  0.206454  1
  Ce  Ce2  1  0.750000  0.414825  0.294252  1
  Ce  Ce3  1  0.750000  0.085175  0.794252  1
  Mn  Mn4  1  0.750000  0.295198  0.011714  1
  Mn  Mn5  1  0.750000  0.204802  0.511714  1
  Mn  Mn6  1  0.250000  0.406297  0.492169  1
  Mn  Mn7  1  0.250000  0.093703  0.992169  1
  Mn  Mn8  1  0.750000  0.588963  0.509554  1
  Mn  Mn9  1  0.750000  0.911037  0.009554  1
  Mn  Mn10  1  0.250000  0.215919  0.177533  1
  Mn  Mn11  1  0.250000  0.284081  0.677533  1
  Mn  Mn12  1  0.750000  0.785152  0.821956  1
  Mn  Mn13  1  0.750000  0.714848  0.321956  1
  Mn  Mn14  1  0.250000  0.882971  0.697138  1
  Mn  Mn15  1  0.250000  0.617029  0.197138  1
  Mn  Mn16  1  0.750000  0.119940  0.302154  1
  Mn  Mn17  1  0.750000  0.380060  0.802154  1
  Mn  Mn18  1  0.250000  0.463875  0.936154  1
  Mn  Mn19  1  0.250000  0.036125  0.436154  1
  Mn  Mn20  1  0.750000  0.530486  0.065592  1
  Mn  Mn21  1  0.750000  0.969514  0.565592  1
  V  V22  1  0.250000  0.702622  0.985405  1
  V  V23  1  0.250000  0.797378  0.485405  1
  P  P24  1  0.250000  0.415797  0.113178  1
  P  P25  1  0.250000  0.084203  0.613178  1
  P  P26  1  0.750000  0.581069  0.886859  1
  P  P27  1  0.750000  0.918931  0.386859  1
  P  P28  1  0.250000  0.268186  0.873092  1
  P  P29  1  0.250000  0.231814  0.373092  1
  P  P30  1  0.750000  0.729922  0.127486  1
  P  P31  1  0.750000  0.770078  0.627486  1
  P  P32  1  0.250000  0.594626  0.388878  1
  P  P33  1  0.250000  0.905374  0.888878  1
  P  P34  1  0.750000  0.400269  0.610432  1
  P  P35  1  0.750000  0.099731  0.110432  1
