# generated using pymatgen
data_Sc20(Sn3Sb)3
_symmetry_space_group_name_H-M   'P 1'
_cell_length_a   6.04857300
_cell_length_b   8.43663849
_cell_length_c   14.67857205
_cell_angle_alpha   90.03882659
_cell_angle_beta   90.00000000
_cell_angle_gamma   90.00000000
_symmetry_Int_Tables_number   1
_chemical_formula_structural   Sc20(Sn3Sb)3
_chemical_formula_sum   'Sc20 Sn9 Sb3'
_cell_volume   749.04183719
_cell_formula_units_Z   1
loop_
 _symmetry_equiv_pos_site_id
 _symmetry_equiv_pos_as_xyz
  1  'x, y, z'
loop_
 _atom_site_type_symbol
 _atom_site_label
 _atom_site_symmetry_multiplicity
 _atom_site_fract_x
 _atom_site_fract_y
 _atom_site_fract_z
 _atom_site_occupancy
  Sc  Sc0  1  0.749565  0.999571  0.334419  1
  Sc  Sc1  1  0.749625  0.500665  0.832455  1
  Sc  Sc2  1  0.749686  0.499067  0.166722  1
  Sc  Sc3  1  0.749619  0.000863  0.666839  1
  Sc  Sc4  1  0.250314  0.499067  0.166722  1
  Sc  Sc5  1  0.250381  0.000863  0.666839  1
  Sc  Sc6  1  0.250435  0.999571  0.334419  1
  Sc  Sc7  1  0.250375  0.500665  0.832455  1
  Sc  Sc8  1  0.000000  0.263965  0.500294  1
  Sc  Sc9  1  0.000000  0.763819  0.998561  1
  Sc  Sc10  1  0.000000  0.618227  0.380994  1
  Sc  Sc11  1  0.000000  0.117668  0.879935  1
  Sc  Sc12  1  0.000000  0.120128  0.119378  1
  Sc  Sc13  1  0.000000  0.617197  0.618833  1
  Sc  Sc14  1  0.500000  0.738462  0.500066  1
  Sc  Sc15  1  0.500000  0.237293  0.000501  1
  Sc  Sc16  1  0.500000  0.879450  0.119365  1
  Sc  Sc17  1  0.500000  0.382602  0.619304  1
  Sc  Sc18  1  0.500000  0.380606  0.381258  1
  Sc  Sc19  1  0.500000  0.881291  0.880750  1
  Sn  Sn20  1  0.000000  0.303423  0.697093  1
  Sn  Sn21  1  0.000000  0.302802  0.303288  1
  Sn  Sn22  1  0.000000  0.803521  0.802050  1
  Sn  Sn23  1  0.500000  0.607030  0.999800  1
  Sn  Sn24  1  0.500000  0.108495  0.500691  1
  Sn  Sn25  1  0.500000  0.695888  0.303972  1
  Sn  Sn26  1  0.500000  0.197421  0.803583  1
  Sn  Sn27  1  0.500000  0.194783  0.196990  1
  Sn  Sn28  1  0.500000  0.698180  0.696351  1
  Sb  Sb29  1  0.000000  0.891194  0.500696  1
  Sb  Sb30  1  0.000000  0.391626  0.999400  1
  Sb  Sb31  1  0.000000  0.804526  0.195961  1
