# generated using pymatgen
data_K11Rb5(SnSe4)4
_symmetry_space_group_name_H-M   'P 1'
_cell_length_a   8.39758522
_cell_length_b   10.51317000
_cell_length_c   15.42983785
_cell_angle_alpha   90.00000000
_cell_angle_beta   90.19416149
_cell_angle_gamma   90.00000000
_symmetry_Int_Tables_number   1
_chemical_formula_structural   K11Rb5(SnSe4)4
_chemical_formula_sum   'K11 Rb5 Sn4 Se16'
_cell_volume   1362.21913132
_cell_formula_units_Z   1
loop_
 _symmetry_equiv_pos_site_id
 _symmetry_equiv_pos_as_xyz
  1  'x, y, z'
loop_
 _atom_site_type_symbol
 _atom_site_label
 _atom_site_symmetry_multiplicity
 _atom_site_fract_x
 _atom_site_fract_y
 _atom_site_fract_z
 _atom_site_occupancy
  K  K0  1  0.477770  0.250000  0.073270  1
  K  K1  1  0.022175  0.250000  0.573912  1
  K  K2  1  0.522161  0.750000  0.926161  1
  K  K3  1  0.838772  0.050130  0.267048  1
  K  K4  1  0.338081  0.951415  0.230436  1
  K  K5  1  0.161113  0.549100  0.732916  1
  K  K6  1  0.661191  0.449695  0.769084  1
  K  K7  1  0.161113  0.950900  0.732916  1
  K  K8  1  0.661191  0.050305  0.769084  1
  K  K9  1  0.838772  0.449870  0.267048  1
  K  K10  1  0.338081  0.548585  0.230436  1
  Rb  Rb11  1  0.999661  0.999908  0.999515  1
  Rb  Rb12  1  0.500200  0.000669  0.500372  1
  Rb  Rb13  1  0.999661  0.500092  0.999515  1
  Rb  Rb14  1  0.500200  0.499331  0.500372  1
  Rb  Rb15  1  0.989826  0.750000  0.424526  1
  Sn  Sn16  1  0.765980  0.750000  0.669682  1
  Sn  Sn17  1  0.234718  0.250000  0.330744  1
  Sn  Sn18  1  0.730985  0.750000  0.167743  1
  Sn  Sn19  1  0.267065  0.250000  0.832022  1
  Se  Se20  1  0.961339  0.250000  0.824959  1
  Se  Se21  1  0.540269  0.250000  0.323737  1
  Se  Se22  1  0.460392  0.750000  0.675791  1
  Se  Se23  1  0.037209  0.750000  0.174978  1
  Se  Se24  1  0.632264  0.552230  0.088682  1
  Se  Se25  1  0.134032  0.446083  0.410042  1
  Se  Se26  1  0.367310  0.052665  0.911068  1
  Se  Se27  1  0.865127  0.948926  0.592409  1
  Se  Se28  1  0.367310  0.447335  0.911068  1
  Se  Se29  1  0.865127  0.551074  0.592409  1
  Se  Se30  1  0.632264  0.947770  0.088682  1
  Se  Se31  1  0.134032  0.053917  0.410042  1
  Se  Se32  1  0.614084  0.750000  0.323038  1
  Se  Se33  1  0.119120  0.250000  0.174752  1
  Se  Se34  1  0.380396  0.250000  0.675883  1
  Se  Se35  1  0.881005  0.750000  0.825659  1
