# generated using pymatgen
data_Dy2Th3(Co2Sn5)2
_symmetry_space_group_name_H-M   'P 1'
_cell_length_a   13.91816200
_cell_length_b   13.91816200
_cell_length_c   4.52766700
_cell_angle_alpha   90.00000000
_cell_angle_beta   90.00000000
_cell_angle_gamma   90.00000000
_symmetry_Int_Tables_number   1
_chemical_formula_structural   Dy2Th3(Co2Sn5)2
_chemical_formula_sum   'Dy4 Th6 Co8 Sn20'
_cell_volume   877.07806993
_cell_formula_units_Z   2
loop_
 _symmetry_equiv_pos_site_id
 _symmetry_equiv_pos_as_xyz
  1  'x, y, z'
loop_
 _atom_site_type_symbol
 _atom_site_label
 _atom_site_symmetry_multiplicity
 _atom_site_fract_x
 _atom_site_fract_y
 _atom_site_fract_z
 _atom_site_occupancy
  Dy  Dy0  1  0.679288  0.179288  0.500000  1
  Dy  Dy1  1  0.320712  0.820712  0.500000  1
  Dy  Dy2  1  0.179288  0.320712  0.500000  1
  Dy  Dy3  1  0.820712  0.679288  0.500000  1
  Th  Th4  1  0.500000  0.500000  0.000000  1
  Th  Th5  1  0.000000  0.000000  0.000000  1
  Th  Th6  1  0.891385  0.391385  0.500000  1
  Th  Th7  1  0.108615  0.608615  0.500000  1
  Th  Th8  1  0.391385  0.108615  0.500000  1
  Th  Th9  1  0.608615  0.891385  0.500000  1
  Co  Co10  1  0.743483  0.532418  0.000000  1
  Co  Co11  1  0.256517  0.467582  0.000000  1
  Co  Co12  1  0.243483  0.967582  0.000000  1
  Co  Co13  1  0.756517  0.032418  0.000000  1
  Co  Co14  1  0.467582  0.743483  0.000000  1
  Co  Co15  1  0.532418  0.256517  0.000000  1
  Co  Co16  1  0.032418  0.243483  0.000000  1
  Co  Co17  1  0.967582  0.756517  0.000000  1
  Sn  Sn18  1  0.573066  0.073066  0.000000  1
  Sn  Sn19  1  0.426934  0.926934  0.000000  1
  Sn  Sn20  1  0.073066  0.426934  0.000000  1
  Sn  Sn21  1  0.926934  0.573066  0.000000  1
  Sn  Sn22  1  0.650505  0.699505  0.000000  1
  Sn  Sn23  1  0.349495  0.300495  0.000000  1
  Sn  Sn24  1  0.150505  0.800495  0.000000  1
  Sn  Sn25  1  0.849495  0.199505  0.000000  1
  Sn  Sn26  1  0.300495  0.650505  0.000000  1
  Sn  Sn27  1  0.699505  0.349495  0.000000  1
  Sn  Sn28  1  0.199505  0.150505  0.000000  1
  Sn  Sn29  1  0.800495  0.849495  0.000000  1
  Sn  Sn30  1  0.669272  0.509957  0.500000  1
  Sn  Sn31  1  0.330728  0.490043  0.500000  1
  Sn  Sn32  1  0.169272  0.990043  0.500000  1
  Sn  Sn33  1  0.830728  0.009957  0.500000  1
  Sn  Sn34  1  0.490043  0.669272  0.500000  1
  Sn  Sn35  1  0.509957  0.330728  0.500000  1
  Sn  Sn36  1  0.009957  0.169272  0.500000  1
  Sn  Sn37  1  0.990043  0.830728  0.500000  1
