# generated using pymatgen
data_Y7LuZr11Si16Mo
_symmetry_space_group_name_H-M   'P 1'
_cell_length_a   7.09428671
_cell_length_b   7.27787844
_cell_length_c   13.92368258
_cell_angle_alpha   89.94768052
_cell_angle_beta   89.94316724
_cell_angle_gamma   89.90586409
_symmetry_Int_Tables_number   1
_chemical_formula_structural   Y7LuZr11Si16Mo
_chemical_formula_sum   'Y7 Lu1 Zr11 Si16 Mo1'
_cell_volume   718.89699378
_cell_formula_units_Z   1
loop_
 _symmetry_equiv_pos_site_id
 _symmetry_equiv_pos_as_xyz
  1  'x, y, z'
loop_
 _atom_site_type_symbol
 _atom_site_label
 _atom_site_symmetry_multiplicity
 _atom_site_fract_x
 _atom_site_fract_y
 _atom_site_fract_z
 _atom_site_occupancy
  Y  Y0  1  0.516118  0.326067  0.098678  1
  Y  Y1  1  0.012320  0.178131  0.400400  1
  Y  Y2  1  0.485494  0.676242  0.595934  1
  Y  Y3  1  0.985556  0.823000  0.905496  1
  Y  Y4  1  0.484575  0.676125  0.904533  1
  Y  Y5  1  0.986037  0.823138  0.595424  1
  Y  Y6  1  0.516224  0.326419  0.400240  1
  Lu  Lu7  1  0.012585  0.179540  0.101060  1
  Zr  Zr8  1  0.828396  0.322576  0.623765  1
  Zr  Zr9  1  0.327607  0.176573  0.875461  1
  Zr  Zr10  1  0.169784  0.676367  0.126040  1
  Zr  Zr11  1  0.675335  0.820721  0.373295  1
  Zr  Zr12  1  0.169720  0.675349  0.373176  1
  Zr  Zr13  1  0.676183  0.821572  0.125439  1
  Zr  Zr14  1  0.828919  0.321641  0.877299  1
  Zr  Zr15  1  0.328923  0.176632  0.624735  1
  Zr  Zr16  1  0.655451  0.001592  0.750247  1
  Zr  Zr17  1  0.154268  0.498140  0.750269  1
  Zr  Zr18  1  0.344499  0.998511  0.249599  1
  Si  Si19  1  0.654743  0.031740  0.538974  1
  Si  Si20  1  0.155279  0.464286  0.962748  1
  Si  Si21  1  0.342566  0.969121  0.041356  1
  Si  Si22  1  0.846186  0.530766  0.455772  1
  Si  Si23  1  0.345447  0.967189  0.458622  1
  Si  Si24  1  0.847648  0.527819  0.045549  1
  Si  Si25  1  0.652659  0.031047  0.960228  1
  Si  Si26  1  0.155389  0.466167  0.538491  1
  Si  Si27  1  0.531902  0.383090  0.750366  1
  Si  Si28  1  0.031295  0.117640  0.750212  1
  Si  Si29  1  0.473555  0.613497  0.249328  1
  Si  Si30  1  0.967949  0.884539  0.249292  1
  Si  Si31  1  0.781460  0.626829  0.750490  1
  Si  Si32  1  0.280623  0.872364  0.750217  1
  Si  Si33  1  0.208958  0.374065  0.249007  1
  Si  Si34  1  0.719959  0.132484  0.249007  1
  Mo  Mo35  1  0.846387  0.509014  0.249253  1
