# generated using pymatgen
data_Sc2AlRe3
_symmetry_space_group_name_H-M   'P 1'
_cell_length_a   5.24776100
_cell_length_b   5.24776009
_cell_length_c   8.71014500
_cell_angle_alpha   90.00000000
_cell_angle_beta   90.00000000
_cell_angle_gamma   120.00001204
_symmetry_Int_Tables_number   1
_chemical_formula_structural   Sc2AlRe3
_chemical_formula_sum   'Sc4 Al2 Re6'
_cell_volume   207.73227814
_cell_formula_units_Z   2
loop_
 _symmetry_equiv_pos_site_id
 _symmetry_equiv_pos_as_xyz
  1  'x, y, z'
loop_
 _atom_site_type_symbol
 _atom_site_label
 _atom_site_symmetry_multiplicity
 _atom_site_fract_x
 _atom_site_fract_y
 _atom_site_fract_z
 _atom_site_occupancy
  Sc  Sc0  1  0.333333  0.666667  0.433471  1
  Sc  Sc1  1  0.666667  0.333333  0.566529  1
  Sc  Sc2  1  0.666667  0.333333  0.933471  1
  Sc  Sc3  1  0.333333  0.666667  0.066529  1
  Al  Al4  1  0.000000  0.000000  0.000000  1
  Al  Al5  1  0.000000  0.000000  0.500000  1
  Re  Re6  1  0.170079  0.340157  0.750000  1
  Re  Re7  1  0.170079  0.829921  0.750000  1
  Re  Re8  1  0.340157  0.170079  0.250000  1
  Re  Re9  1  0.829921  0.659843  0.250000  1
  Re  Re10  1  0.659843  0.829921  0.750000  1
  Re  Re11  1  0.829921  0.170079  0.250000  1
