# generated using pymatgen
data_LuTaNb6O12
_symmetry_space_group_name_H-M   'P 1'
_cell_length_a   6.82550852
_cell_length_b   6.82550962
_cell_length_c   6.82550900
_cell_angle_alpha   73.99054602
_cell_angle_beta   73.99053463
_cell_angle_gamma   73.99053379
_symmetry_Int_Tables_number   1
_chemical_formula_structural   LuTaNb6O12
_chemical_formula_sum   'Lu1 Ta1 Nb6 O12'
_cell_volume   286.84996050
_cell_formula_units_Z   1
loop_
 _symmetry_equiv_pos_site_id
 _symmetry_equiv_pos_as_xyz
  1  'x, y, z'
loop_
 _atom_site_type_symbol
 _atom_site_label
 _atom_site_symmetry_multiplicity
 _atom_site_fract_x
 _atom_site_fract_y
 _atom_site_fract_z
 _atom_site_occupancy
  Lu  Lu0  1  0.275998  0.275998  0.275998  1
  Ta  Ta1  1  0.725668  0.725668  0.725668  1
  Nb  Nb2  1  0.947290  0.113009  0.711195  1
  Nb  Nb3  1  0.711195  0.947290  0.113009  1
  Nb  Nb4  1  0.113009  0.711195  0.947290  1
  Nb  Nb5  1  0.058128  0.891715  0.287456  1
  Nb  Nb6  1  0.287456  0.058128  0.891715  1
  Nb  Nb7  1  0.891715  0.287456  0.058128  1
  O  O8  1  0.166910  0.598030  0.244288  1
  O  O9  1  0.244288  0.166910  0.598030  1
  O  O10  1  0.598030  0.244288  0.166910  1
  O  O11  1  0.823791  0.427328  0.743980  1
  O  O12  1  0.743980  0.823791  0.427328  1
  O  O13  1  0.427328  0.743980  0.823791  1
  O  O14  1  0.649629  0.023981  0.801335  1
  O  O15  1  0.801335  0.649629  0.023981  1
  O  O16  1  0.958740  0.193442  0.358084  1
  O  O17  1  0.193442  0.358084  0.958740  1
  O  O18  1  0.358084  0.958740  0.193442  1
  O  O19  1  0.023981  0.801335  0.649629  1
