# generated using pymatgen
data_Hf6SiSnSb
_symmetry_space_group_name_H-M   'P 1'
_cell_length_a   7.53141800
_cell_length_b   7.53141736
_cell_length_c   3.87751000
_cell_angle_alpha   90.00000000
_cell_angle_beta   90.00000000
_cell_angle_gamma   120.00001159
_symmetry_Int_Tables_number   1
_chemical_formula_structural   Hf6SiSnSb
_chemical_formula_sum   'Hf6 Si1 Sn1 Sb1'
_cell_volume   190.47455808
_cell_formula_units_Z   1
loop_
 _symmetry_equiv_pos_site_id
 _symmetry_equiv_pos_as_xyz
  1  'x, y, z'
loop_
 _atom_site_type_symbol
 _atom_site_label
 _atom_site_symmetry_multiplicity
 _atom_site_fract_x
 _atom_site_fract_y
 _atom_site_fract_z
 _atom_site_occupancy
  Hf  Hf0  1  0.240088  0.997816  0.500000  1
  Hf  Hf1  1  0.002184  0.242272  0.500000  1
  Hf  Hf2  1  0.757728  0.759912  0.500000  1
  Hf  Hf3  1  0.611247  0.001489  0.000000  1
  Hf  Hf4  1  0.998511  0.609757  0.000000  1
  Hf  Hf5  1  0.390243  0.388753  0.000000  1
  Si  Si6  1  0.000000  0.000000  0.000000  1
  Sn  Sn7  1  0.333333  0.666667  0.500000  1
  Sb  Sb8  1  0.666667  0.333333  0.500000  1
