# generated using pymatgen
data_Y5Ti2P12Rh17
_symmetry_space_group_name_H-M   'P 1'
_cell_length_a   12.77751700
_cell_length_b   12.64995992
_cell_length_c   3.90868600
_cell_angle_alpha   90.00000000
_cell_angle_beta   90.00000000
_cell_angle_gamma   119.67030205
_symmetry_Int_Tables_number   1
_chemical_formula_structural   Y5Ti2P12Rh17
_chemical_formula_sum   'Y5 Ti2 P12 Rh17'
_cell_volume   548.94685749
_cell_formula_units_Z   1
loop_
 _symmetry_equiv_pos_site_id
 _symmetry_equiv_pos_as_xyz
  1  'x, y, z'
loop_
 _atom_site_type_symbol
 _atom_site_label
 _atom_site_symmetry_multiplicity
 _atom_site_fract_x
 _atom_site_fract_y
 _atom_site_fract_z
 _atom_site_occupancy
  Y  Y0  1  0.662087  0.331093  0.000000  1
  Y  Y1  1  0.337913  0.669007  0.000000  1
  Y  Y2  1  0.190458  0.188179  0.500000  1
  Y  Y3  1  0.809542  0.997721  0.500000  1
  Y  Y4  1  0.000000  0.810275  0.500000  1
  Ti  Ti5  1  0.554998  0.554286  0.000000  1
  Ti  Ti6  1  0.445002  0.999290  0.000000  1
  P  P7  1  0.361145  0.363278  0.000000  1
  P  P8  1  0.638855  0.002134  0.000000  1
  P  P9  1  0.000000  0.638168  0.000000  1
  P  P10  1  0.830280  0.313387  0.500000  1
  P  P11  1  0.681829  0.515239  0.500000  1
  P  P12  1  0.481024  0.163497  0.500000  1
  P  P13  1  0.318171  0.833410  0.500000  1
  P  P14  1  0.518976  0.682474  0.500000  1
  P  P15  1  0.169720  0.483108  0.500000  1
  P  P16  1  0.824190  0.823936  0.000000  1
  P  P17  1  0.175810  0.999744  0.000000  1
  P  P18  1  0.000000  0.181503  0.000000  1
  Rh  Rh19  1  0.000000  0.457093  0.000000  1
  Rh  Rh20  1  0.822782  0.201306  0.000000  1
  Rh  Rh21  1  0.804139  0.623471  0.000000  1
  Rh  Rh22  1  0.372132  0.176435  0.000000  1
  Rh  Rh23  1  0.195861  0.819332  0.000000  1
  Rh  Rh24  1  0.627868  0.804302  0.000000  1
  Rh  Rh25  1  0.177218  0.378523  0.000000  1
  Rh  Rh26  1  0.642779  0.126972  0.500000  1
  Rh  Rh27  1  0.864916  0.508317  0.500000  1
  Rh  Rh28  1  0.487098  0.355153  0.500000  1
  Rh  Rh29  1  0.135084  0.643402  0.500000  1
  Rh  Rh30  1  0.512902  0.868055  0.500000  1
  Rh  Rh31  1  0.357221  0.484193  0.500000  1
  Rh  Rh32  1  0.720473  0.718452  0.500000  1
  Rh  Rh33  1  0.279527  0.997978  0.500000  1
  Rh  Rh34  1  0.000000  0.284358  0.500000  1
  Rh  Rh35  1  0.000000  0.002928  0.000000  1
