# generated using pymatgen
data_Pr2Ho7Er(In2Pt)4
_symmetry_space_group_name_H-M   'P 1'
_cell_length_a   3.63192400
_cell_length_b   8.20375529
_cell_length_c   18.39940565
_cell_angle_alpha   90.03051885
_cell_angle_beta   90.00000000
_cell_angle_gamma   90.00000000
_symmetry_Int_Tables_number   1
_chemical_formula_structural   Pr2Ho7Er(In2Pt)4
_chemical_formula_sum   'Pr2 Ho7 Er1 In8 Pt4'
_cell_volume   548.21786286
_cell_formula_units_Z   1
loop_
 _symmetry_equiv_pos_site_id
 _symmetry_equiv_pos_as_xyz
  1  'x, y, z'
loop_
 _atom_site_type_symbol
 _atom_site_label
 _atom_site_symmetry_multiplicity
 _atom_site_fract_x
 _atom_site_fract_y
 _atom_site_fract_z
 _atom_site_occupancy
  Pr  Pr0  1  0.000000  0.999999  0.000032  1
  Pr  Pr1  1  0.000000  0.499986  0.499995  1
  Ho  Ho2  1  0.000000  0.118612  0.413640  1
  Ho  Ho3  1  0.000000  0.881315  0.586306  1
  Ho  Ho4  1  0.000000  0.381313  0.913700  1
  Ho  Ho5  1  0.000000  0.618695  0.086369  1
  Ho  Ho6  1  0.000000  0.242459  0.219918  1
  Ho  Ho7  1  0.000000  0.757540  0.780092  1
  Ho  Ho8  1  0.000000  0.257571  0.719910  1
  Er  Er9  1  0.000000  0.742680  0.279952  1
  In  In10  1  0.500000  0.421878  0.348006  1
  In  In11  1  0.500000  0.578332  0.651968  1
  In  In12  1  0.500000  0.078342  0.848029  1
  In  In13  1  0.500000  0.921491  0.152075  1
  In  In14  1  0.500000  0.299931  0.067945  1
  In  In15  1  0.500000  0.700133  0.932071  1
  In  In16  1  0.500000  0.200179  0.567928  1
  In  In17  1  0.500000  0.799710  0.431908  1
  Pt  Pt18  1  0.500000  0.023751  0.303338  1
  Pt  Pt19  1  0.500000  0.975532  0.696607  1
  Pt  Pt20  1  0.500000  0.475549  0.803393  1
  Pt  Pt21  1  0.500000  0.525003  0.196820  1
