# generated using pymatgen
data_Tb6Dy9Th(CdCo)4
_symmetry_space_group_name_H-M   'P 1'
_cell_length_a   9.51722767
_cell_length_b   9.55083191
_cell_length_c   9.52507185
_cell_angle_alpha   60.14388778
_cell_angle_beta   60.03430914
_cell_angle_gamma   60.14262943
_symmetry_Int_Tables_number   1
_chemical_formula_structural   Tb6Dy9Th(CdCo)4
_chemical_formula_sum   'Tb6 Dy9 Th1 Cd4 Co4'
_cell_volume   613.69827911
_cell_formula_units_Z   1
loop_
 _symmetry_equiv_pos_site_id
 _symmetry_equiv_pos_as_xyz
  1  'x, y, z'
loop_
 _atom_site_type_symbol
 _atom_site_label
 _atom_site_symmetry_multiplicity
 _atom_site_fract_x
 _atom_site_fract_y
 _atom_site_fract_z
 _atom_site_occupancy
  Tb  Tb0  1  0.687485  0.313310  0.689023  1
  Tb  Tb1  1  0.688240  0.312304  0.310956  1
  Tb  Tb2  1  0.937355  0.563072  0.562294  1
  Tb  Tb3  1  0.541546  0.150580  0.153221  1
  Tb  Tb4  1  0.153855  0.149791  0.543120  1
  Tb  Tb5  1  0.937676  0.939129  0.561052  1
  Dy  Dy6  1  0.310898  0.689997  0.312691  1
  Dy  Dy7  1  0.561839  0.938235  0.937657  1
  Dy  Dy8  1  0.561855  0.939129  0.561422  1
  Dy  Dy9  1  0.686397  0.690254  0.312589  1
  Dy  Dy10  1  0.562356  0.563038  0.937757  1
  Dy  Dy11  1  0.937128  0.562558  0.937937  1
  Dy  Dy12  1  0.311995  0.689054  0.686909  1
  Dy  Dy13  1  0.154775  0.151046  0.152779  1
  Dy  Dy14  1  0.309873  0.313109  0.689176  1
  Th  Th15  1  0.157138  0.529756  0.155760  1
  Cd  Cd16  1  0.919558  0.241850  0.919757  1
  Cd  Cd17  1  0.918647  0.919249  0.919447  1
  Cd  Cd18  1  0.918627  0.919477  0.243192  1
  Cd  Cd19  1  0.242892  0.919624  0.919104  1
  Co  Co20  1  0.355599  0.361055  0.927106  1
  Co  Co21  1  0.359926  0.922230  0.357691  1
  Co  Co22  1  0.927841  0.361009  0.354424  1
  Co  Co23  1  0.356505  0.361143  0.354941  1
