# generated using pymatgen
data_CeEr4Sn3N
_symmetry_space_group_name_H-M   'P 1'
_cell_length_a   8.90928803
_cell_length_b   8.94198770
_cell_length_c   6.41356300
_cell_angle_alpha   90.00000000
_cell_angle_beta   90.00000000
_cell_angle_gamma   120.12148214
_symmetry_Int_Tables_number   1
_chemical_formula_structural   CeEr4Sn3N
_chemical_formula_sum   'Ce2 Er8 Sn6 N2'
_cell_volume   441.95100613
_cell_formula_units_Z   2
loop_
 _symmetry_equiv_pos_site_id
 _symmetry_equiv_pos_as_xyz
  1  'x, y, z'
loop_
 _atom_site_type_symbol
 _atom_site_label
 _atom_site_symmetry_multiplicity
 _atom_site_fract_x
 _atom_site_fract_y
 _atom_site_fract_z
 _atom_site_occupancy
  Ce  Ce0  1  0.785685  0.785484  0.750000  1
  Ce  Ce1  1  0.214315  0.999799  0.750000  1
  Er  Er2  1  0.666620  0.332758  0.000635  1
  Er  Er3  1  0.333380  0.666139  0.000635  1
  Er  Er4  1  0.333380  0.666139  0.499365  1
  Er  Er5  1  0.666620  0.332758  0.499365  1
  Er  Er6  1  0.000000  0.217969  0.750000  1
  Er  Er7  1  0.213306  0.213947  0.250000  1
  Er  Er8  1  0.786694  0.000642  0.250000  1
  Er  Er9  1  0.000000  0.787102  0.250000  1
  Sn  Sn10  1  0.402651  0.404503  0.750000  1
  Sn  Sn11  1  0.597349  0.001851  0.750000  1
  Sn  Sn12  1  0.000000  0.590272  0.750000  1
  Sn  Sn13  1  0.598380  0.598104  0.250000  1
  Sn  Sn14  1  0.401620  0.999723  0.250000  1
  Sn  Sn15  1  0.000000  0.400131  0.250000  1
  N  N16  1  0.000000  0.001339  0.006295  1
  N  N17  1  0.000000  0.001339  0.493705  1
