# generated using pymatgen
data_NdV(Sb4Os)3
_symmetry_space_group_name_H-M   'P 1'
_cell_length_a   8.16328697
_cell_length_b   8.21001047
_cell_length_c   8.21001061
_cell_angle_alpha   109.58621894
_cell_angle_beta   109.35596824
_cell_angle_gamma   109.35597967
_symmetry_Int_Tables_number   1
_chemical_formula_structural   NdV(Sb4Os)3
_chemical_formula_sum   'Nd1 V1 Sb12 Os3'
_cell_volume   424.17623616
_cell_formula_units_Z   1
loop_
 _symmetry_equiv_pos_site_id
 _symmetry_equiv_pos_as_xyz
  1  'x, y, z'
loop_
 _atom_site_type_symbol
 _atom_site_label
 _atom_site_symmetry_multiplicity
 _atom_site_fract_x
 _atom_site_fract_y
 _atom_site_fract_z
 _atom_site_occupancy
  Nd  Nd0  1  0.000000  0.000000  0.000000  1
  V  V1  1  0.500000  0.000000  0.000000  1
  Sb  Sb2  1  0.153358  0.816914  0.657999  1
  Sb  Sb3  1  0.846642  0.183086  0.342001  1
  Sb  Sb4  1  0.843322  0.505373  0.662349  1
  Sb  Sb5  1  0.156678  0.494627  0.337651  1
  Sb  Sb6  1  0.819027  0.662349  0.156977  1
  Sb  Sb7  1  0.180973  0.337651  0.843023  1
  Sb  Sb8  1  0.504642  0.657999  0.841085  1
  Sb  Sb9  1  0.495358  0.342001  0.158915  1
  Sb  Sb10  1  0.663556  0.158915  0.816914  1
  Sb  Sb11  1  0.336444  0.841085  0.183086  1
  Sb  Sb12  1  0.662051  0.843023  0.505373  1
  Sb  Sb13  1  0.337949  0.156977  0.494627  1
  Os  Os14  1  0.000000  0.000000  0.500000  1
  Os  Os15  1  0.000000  0.500000  0.000000  1
  Os  Os16  1  0.500000  0.500000  0.500000  1
