# generated using pymatgen
data_Mn8S7O
_symmetry_space_group_name_H-M   'P 1'
_cell_length_a   7.37581421
_cell_length_b   7.37536247
_cell_length_c   6.36020730
_cell_angle_alpha   73.30519298
_cell_angle_beta   73.31524194
_cell_angle_gamma   60.17737347
_symmetry_Int_Tables_number   1
_chemical_formula_structural   Mn8S7O
_chemical_formula_sum   'Mn8 S7 O1'
_cell_volume   283.15405464
_cell_formula_units_Z   1
loop_
 _symmetry_equiv_pos_site_id
 _symmetry_equiv_pos_as_xyz
  1  'x, y, z'
loop_
 _atom_site_type_symbol
 _atom_site_label
 _atom_site_symmetry_multiplicity
 _atom_site_fract_x
 _atom_site_fract_y
 _atom_site_fract_z
 _atom_site_occupancy
  Mn  Mn0  1  0.498539  0.498777  0.492164  1
  Mn  Mn1  1  0.769675  0.238617  0.990551  1
  Mn  Mn2  1  0.752545  0.752557  0.013345  1
  Mn  Mn3  1  0.247300  0.247424  0.985254  1
  Mn  Mn4  1  0.013011  0.467509  0.517880  1
  Mn  Mn5  1  0.467966  0.012654  0.517961  1
  Mn  Mn6  1  0.238436  0.770458  0.990047  1
  Mn  Mn7  1  0.009342  0.009453  0.520018  1
  S  S8  1  0.372967  0.372889  0.248609  1
  S  S9  1  0.879995  0.370994  0.246380  1
  S  S10  1  0.370963  0.880113  0.246330  1
  S  S11  1  0.879010  0.878924  0.250921  1
  S  S12  1  0.624636  0.624456  0.749457  1
  S  S13  1  0.625057  0.124386  0.748709  1
  S  S14  1  0.124330  0.625055  0.748663  1
  O  O15  1  0.126228  0.125734  0.733713  1
