# generated using pymatgen
data_Sr5(InP3)2
_symmetry_space_group_name_H-M   'P 1'
_cell_length_a   4.30787400
_cell_length_b   11.89550300
_cell_length_c   13.71144800
_cell_angle_alpha   90.00000000
_cell_angle_beta   90.00000000
_cell_angle_gamma   90.00000000
_symmetry_Int_Tables_number   1
_chemical_formula_structural   Sr5(InP3)2
_chemical_formula_sum   'Sr10 In4 P12'
_cell_volume   702.63393991
_cell_formula_units_Z   2
loop_
 _symmetry_equiv_pos_site_id
 _symmetry_equiv_pos_as_xyz
  1  'x, y, z'
loop_
 _atom_site_type_symbol
 _atom_site_label
 _atom_site_symmetry_multiplicity
 _atom_site_fract_x
 _atom_site_fract_y
 _atom_site_fract_z
 _atom_site_occupancy
  Sr  Sr0  1  0.500000  0.085390  0.755940  1
  Sr  Sr1  1  0.500000  0.176463  0.013570  1
  Sr  Sr2  1  0.500000  0.414610  0.255940  1
  Sr  Sr3  1  0.500000  0.823537  0.986430  1
  Sr  Sr4  1  0.500000  0.323537  0.513570  1
  Sr  Sr5  1  0.500000  0.000000  0.500000  1
  Sr  Sr6  1  0.500000  0.585390  0.744060  1
  Sr  Sr7  1  0.500000  0.914610  0.244060  1
  Sr  Sr8  1  0.500000  0.500000  0.000000  1
  Sr  Sr9  1  0.500000  0.676463  0.486430  1
  In  In10  1  0.000000  0.328083  0.715251  1
  In  In11  1  0.000000  0.171917  0.215251  1
  In  In12  1  0.000000  0.671917  0.284749  1
  In  In13  1  0.000000  0.828083  0.784749  1
  P  P14  1  0.000000  0.655239  0.898403  1
  P  P15  1  0.500000  0.659766  0.179282  1
  P  P16  1  0.000000  0.016040  0.917990  1
  P  P17  1  0.000000  0.483960  0.417990  1
  P  P18  1  0.500000  0.340234  0.820718  1
  P  P19  1  0.500000  0.159766  0.320718  1
  P  P20  1  0.000000  0.344761  0.101597  1
  P  P21  1  0.000000  0.155239  0.601597  1
  P  P22  1  0.000000  0.983960  0.082010  1
  P  P23  1  0.500000  0.840234  0.679282  1
  P  P24  1  0.000000  0.516040  0.582010  1
  P  P25  1  0.000000  0.844761  0.398403  1
