# generated using pymatgen
data_Dy4HoMg2P12Ir17
_symmetry_space_group_name_H-M   'P 1'
_cell_length_a   12.66904800
_cell_length_b   12.83130329
_cell_length_c   3.98132700
_cell_angle_alpha   90.00000000
_cell_angle_beta   90.00000000
_cell_angle_gamma   119.58362553
_symmetry_Int_Tables_number   1
_chemical_formula_structural   Dy4HoMg2P12Ir17
_chemical_formula_sum   'Dy4 Ho1 Mg2 P12 Ir17'
_cell_volume   562.83375985
_cell_formula_units_Z   1
loop_
 _symmetry_equiv_pos_site_id
 _symmetry_equiv_pos_as_xyz
  1  'x, y, z'
loop_
 _atom_site_type_symbol
 _atom_site_label
 _atom_site_symmetry_multiplicity
 _atom_site_fract_x
 _atom_site_fract_y
 _atom_site_fract_z
 _atom_site_occupancy
  Dy  Dy0  1  0.333016  0.664331  0.500000  1
  Dy  Dy1  1  0.668685  0.335675  0.500000  1
  Dy  Dy2  1  0.188972  0.186845  0.000000  1
  Dy  Dy3  1  0.810142  0.999999  0.000000  1
  Ho  Ho4  1  0.002107  0.813122  0.000000  1
  Mg  Mg5  1  0.997823  0.444390  0.500000  1
  Mg  Mg6  1  0.553453  0.555625  0.500000  1
  P  P7  1  0.003069  0.643642  0.500000  1
  P  P8  1  0.359550  0.356482  0.500000  1
  P  P9  1  0.642722  0.000003  0.500000  1
  P  P10  1  0.514001  0.685941  0.000000  1
  P  P11  1  0.308338  0.824385  0.000000  1
  P  P12  1  0.168883  0.481512  0.000000  1
  P  P13  1  0.483934  0.175610  0.000000  1
  P  P14  1  0.687372  0.518468  0.000000  1
  P  P15  1  0.828062  0.314072  0.000000  1
  P  P16  1  0.998723  0.175885  0.500000  1
  P  P17  1  0.822895  0.824092  0.500000  1
  P  P18  1  0.178749  0.999922  0.500000  1
  Ir  Ir19  1  0.505005  0.866050  0.000000  1
  Ir  Ir20  1  0.128437  0.639943  0.000000  1
  Ir  Ir21  1  0.357729  0.492476  0.000000  1
  Ir  Ir22  1  0.488520  0.360083  0.000000  1
  Ir  Ir23  1  0.865231  0.507514  0.000000  1
  Ir  Ir24  1  0.638946  0.133951  0.000000  1
  Ir  Ir25  1  0.462082  0.999995  0.500000  1
  Ir  Ir26  1  0.996460  0.279365  0.000000  1
  Ir  Ir27  1  0.717197  0.720664  0.000000  1
  Ir  Ir28  1  0.287213  0.999942  0.000000  1
  Ir  Ir29  1  0.622961  0.807157  0.500000  1
  Ir  Ir30  1  0.200830  0.824848  0.500000  1
  Ir  Ir31  1  0.176944  0.367621  0.500000  1
  Ir  Ir32  1  0.376169  0.175142  0.500000  1
  Ir  Ir33  1  0.809544  0.632595  0.500000  1
  Ir  Ir34  1  0.815792  0.192839  0.500000  1
  Ir  Ir35  1  0.000440  0.999816  0.500000  1
