# generated using pymatgen
data_Ta4Cd3PbO14
_symmetry_space_group_name_H-M   'P 1'
_cell_length_a   7.52357246
_cell_length_b   7.46910795
_cell_length_c   7.46910800
_cell_angle_alpha   59.99999979
_cell_angle_beta   60.23918244
_cell_angle_gamma   60.23918090
_symmetry_Int_Tables_number   1
_chemical_formula_structural   Ta4Cd3PbO14
_chemical_formula_sum   'Ta4 Cd3 Pb1 O14'
_cell_volume   297.85660506
_cell_formula_units_Z   1
loop_
 _symmetry_equiv_pos_site_id
 _symmetry_equiv_pos_as_xyz
  1  'x, y, z'
loop_
 _atom_site_type_symbol
 _atom_site_label
 _atom_site_symmetry_multiplicity
 _atom_site_fract_x
 _atom_site_fract_y
 _atom_site_fract_z
 _atom_site_occupancy
  Ta  Ta0  1  0.125000  0.625000  0.125000  1
  Ta  Ta1  1  0.125000  0.125000  0.625000  1
  Ta  Ta2  1  0.625000  0.125000  0.125000  1
  Ta  Ta3  1  0.125000  0.125000  0.125000  1
  Cd  Cd4  1  0.625000  0.625000  0.625000  1
  Cd  Cd5  1  0.625000  0.125000  0.625000  1
  Cd  Cd6  1  0.625000  0.625000  0.125000  1
  Pb  Pb7  1  0.125000  0.625000  0.625000  1
  O  O8  1  0.714655  0.761782  0.761782  1
  O  O9  1  0.189406  0.809516  0.809516  1
  O  O10  1  0.189406  0.809516  0.191561  1
  O  O11  1  0.812227  0.188701  0.810372  1
  O  O12  1  0.189406  0.191561  0.809516  1
  O  O13  1  0.812227  0.810372  0.188701  1
  O  O14  1  0.437773  0.061299  0.061299  1
  O  O15  1  0.812227  0.188701  0.188701  1
  O  O16  1  0.060594  0.440484  0.058439  1
  O  O17  1  0.060594  0.058439  0.440484  1
  O  O18  1  0.437773  0.439628  0.061299  1
  O  O19  1  0.437773  0.061299  0.439628  1
  O  O20  1  0.060594  0.440484  0.440484  1
  O  O21  1  0.535345  0.488218  0.488218  1
