# generated using pymatgen
data_Tb2Dy2Mg3ZnRh4
_symmetry_space_group_name_H-M   'P 1'
_cell_length_a   4.10691900
_cell_length_b   7.07071925
_cell_length_c   8.43296501
_cell_angle_alpha   90.01731315
_cell_angle_beta   90.00000000
_cell_angle_gamma   90.00000000
_symmetry_Int_Tables_number   1
_chemical_formula_structural   Tb2Dy2Mg3ZnRh4
_chemical_formula_sum   'Tb2 Dy2 Mg3 Zn1 Rh4'
_cell_volume   244.88377371
_cell_formula_units_Z   1
loop_
 _symmetry_equiv_pos_site_id
 _symmetry_equiv_pos_as_xyz
  1  'x, y, z'
loop_
 _atom_site_type_symbol
 _atom_site_label
 _atom_site_symmetry_multiplicity
 _atom_site_fract_x
 _atom_site_fract_y
 _atom_site_fract_z
 _atom_site_occupancy
  Tb  Tb0  1  0.250000  0.534160  0.183915  1
  Tb  Tb1  1  0.750000  0.459721  0.819172  1
  Dy  Dy2  1  0.250000  0.048708  0.328129  1
  Dy  Dy3  1  0.750000  0.962630  0.674964  1
  Mg  Mg4  1  0.250000  0.135341  0.939996  1
  Mg  Mg5  1  0.750000  0.863221  0.059976  1
  Mg  Mg6  1  0.250000  0.630856  0.555398  1
  Zn  Zn7  1  0.750000  0.366035  0.439281  1
  Rh  Rh8  1  0.750000  0.749179  0.372421  1
  Rh  Rh9  1  0.250000  0.253344  0.625117  1
  Rh  Rh10  1  0.750000  0.248506  0.131982  1
  Rh  Rh11  1  0.250000  0.748301  0.869649  1
