# generated using pymatgen
data_Sr6Co4SnO15
_symmetry_space_group_name_H-M   'P 1'
_cell_length_a   6.97212541
_cell_length_b   6.97212457
_cell_length_c   6.97212400
_cell_angle_alpha   87.84928162
_cell_angle_beta   87.84928187
_cell_angle_gamma   87.84929124
_symmetry_Int_Tables_number   1
_chemical_formula_structural   Sr6Co4SnO15
_chemical_formula_sum   'Sr6 Co4 Sn1 O15'
_cell_volume   338.21982985
_cell_formula_units_Z   1
loop_
 _symmetry_equiv_pos_site_id
 _symmetry_equiv_pos_as_xyz
  1  'x, y, z'
loop_
 _atom_site_type_symbol
 _atom_site_label
 _atom_site_symmetry_multiplicity
 _atom_site_fract_x
 _atom_site_fract_y
 _atom_site_fract_z
 _atom_site_occupancy
  Sr  Sr0  1  0.499998  0.861427  0.138594  1
  Sr  Sr1  1  0.138572  0.499983  0.861412  1
  Sr  Sr2  1  0.861442  0.138570  0.499994  1
  Sr  Sr3  1  0.999998  0.672159  0.327836  1
  Sr  Sr4  1  0.327822  0.000012  0.672156  1
  Sr  Sr5  1  0.672171  0.327817  0.000004  1
  Co  Co6  1  0.713633  0.713611  0.713625  1
  Co  Co7  1  0.286390  0.286374  0.286382  1
  Co  Co8  1  0.903096  0.903124  0.903113  1
  Co  Co9  1  0.096879  0.096906  0.096883  1
  Sn  Sn10  1  0.500000  0.500011  0.500004  1
  O  O11  1  0.365481  0.545968  0.234265  1
  O  O12  1  0.234255  0.365500  0.545948  1
  O  O13  1  0.545957  0.234270  0.365499  1
  O  O14  1  0.634517  0.765768  0.454050  1
  O  O15  1  0.454034  0.634529  0.765758  1
  O  O16  1  0.765758  0.454049  0.634512  1
  O  O17  1  0.196703  0.025531  0.338501  1
  O  O18  1  0.338518  0.196671  0.025533  1
  O  O19  1  0.025514  0.338495  0.196667  1
  O  O20  1  0.803319  0.661475  0.974459  1
  O  O21  1  0.974469  0.803292  0.661497  1
  O  O22  1  0.150757  0.849221  0.999992  1
  O  O23  1  0.849213  0.999977  0.150797  1
  O  O24  1  0.000005  0.150777  0.849183  1
  O  O25  1  0.661498  0.974483  0.803337  1
