# generated using pymatgen
data_Lu2Ga4Tc3
_symmetry_space_group_name_H-M   'P 1'
_cell_length_a   6.91872609
_cell_length_b   6.81577833
_cell_length_c   6.89402558
_cell_angle_alpha   70.60934239
_cell_angle_beta   89.98305239
_cell_angle_gamma   90.09490597
_symmetry_Int_Tables_number   1
_chemical_formula_structural   Lu2Ga4Tc3
_chemical_formula_sum   'Lu4 Ga8 Tc6'
_cell_volume   306.65699199
_cell_formula_units_Z   2
loop_
 _symmetry_equiv_pos_site_id
 _symmetry_equiv_pos_as_xyz
  1  'x, y, z'
loop_
 _atom_site_type_symbol
 _atom_site_label
 _atom_site_symmetry_multiplicity
 _atom_site_fract_x
 _atom_site_fract_y
 _atom_site_fract_z
 _atom_site_occupancy
  Lu  Lu0  1  0.332233  0.550400  0.812036  1
  Lu  Lu1  1  0.832200  0.949719  0.187893  1
  Lu  Lu2  1  0.667767  0.449600  0.187964  1
  Lu  Lu3  1  0.167800  0.050281  0.812107  1
  Ga  Ga4  1  0.546276  0.863273  0.908969  1
  Ga  Ga5  1  0.046316  0.636436  0.091433  1
  Ga  Ga6  1  0.453724  0.136727  0.091031  1
  Ga  Ga7  1  0.953684  0.363564  0.908567  1
  Ga  Ga8  1  0.137705  0.863517  0.497633  1
  Ga  Ga9  1  0.637934  0.636125  0.502358  1
  Ga  Ga10  1  0.862295  0.136483  0.502367  1
  Ga  Ga11  1  0.362066  0.363875  0.497642  1
  Tc  Tc12  1  0.500000  0.000000  0.500000  1
  Tc  Tc13  1  0.000000  0.500000  0.500000  1
  Tc  Tc14  1  0.840707  0.750819  0.749188  1
  Tc  Tc15  1  0.340824  0.749352  0.250750  1
  Tc  Tc16  1  0.159293  0.249181  0.250812  1
  Tc  Tc17  1  0.659176  0.250648  0.749250  1
