# generated using pymatgen
data_LiTb15TmCd3Co4
_symmetry_space_group_name_H-M   'P 1'
_cell_length_a   9.52458601
_cell_length_b   9.52458665
_cell_length_c   9.57775086
_cell_angle_alpha   60.01040315
_cell_angle_beta   60.01040102
_cell_angle_gamma   59.91634935
_symmetry_Int_Tables_number   1
_chemical_formula_structural   LiTb15TmCd3Co4
_chemical_formula_sum   'Li1 Tb15 Tm1 Cd3 Co4'
_cell_volume   614.09230295
_cell_formula_units_Z   1
loop_
 _symmetry_equiv_pos_site_id
 _symmetry_equiv_pos_as_xyz
  1  'x, y, z'
loop_
 _atom_site_type_symbol
 _atom_site_label
 _atom_site_symmetry_multiplicity
 _atom_site_fract_x
 _atom_site_fract_y
 _atom_site_fract_z
 _atom_site_occupancy
  Li  Li0  1  0.821998  0.821998  0.533358  1
  Tb  Tb1  1  0.593343  0.593343  0.596947  1
  Tb  Tb2  1  0.188416  0.812662  0.812839  1
  Tb  Tb3  1  0.063520  0.063520  0.434536  1
  Tb  Tb4  1  0.438280  0.063030  0.059945  1
  Tb  Tb5  1  0.812662  0.188416  0.812839  1
  Tb  Tb6  1  0.435860  0.063846  0.435249  1
  Tb  Tb7  1  0.594780  0.215167  0.597047  1
  Tb  Tb8  1  0.810999  0.810999  0.188721  1
  Tb  Tb9  1  0.215167  0.594780  0.597047  1
  Tb  Tb10  1  0.810487  0.190702  0.188144  1
  Tb  Tb11  1  0.063846  0.435860  0.435249  1
  Tb  Tb12  1  0.190702  0.810487  0.188144  1
  Tb  Tb13  1  0.596776  0.596776  0.208393  1
  Tb  Tb14  1  0.187690  0.187690  0.812759  1
  Tb  Tb15  1  0.063030  0.438280  0.059945  1
  Tm  Tm16  1  0.439056  0.439056  0.059073  1
  Cd  Cd17  1  0.831405  0.831405  0.826945  1
  Cd  Cd18  1  0.508337  0.830799  0.828090  1
  Cd  Cd19  1  0.830799  0.508337  0.828090  1
  Co  Co20  1  0.391567  0.391567  0.388683  1
  Co  Co21  1  0.827836  0.391756  0.390075  1
  Co  Co22  1  0.391756  0.827836  0.390075  1
  Co  Co23  1  0.391691  0.391691  0.827808  1
