# generated using pymatgen
data_Sr2Yb2NbSbO9
_symmetry_space_group_name_H-M   'P 1'
_cell_length_a   5.81152375
_cell_length_b   5.81132948
_cell_length_c   14.92450662
_cell_angle_alpha   90.00810725
_cell_angle_beta   89.99198166
_cell_angle_gamma   120.00536555
_symmetry_Int_Tables_number   1
_chemical_formula_structural   Sr2Yb2NbSbO9
_chemical_formula_sum   'Sr4 Yb4 Nb2 Sb2 O18'
_cell_volume   436.48833458
_cell_formula_units_Z   2
loop_
 _symmetry_equiv_pos_site_id
 _symmetry_equiv_pos_as_xyz
  1  'x, y, z'
loop_
 _atom_site_type_symbol
 _atom_site_label
 _atom_site_symmetry_multiplicity
 _atom_site_fract_x
 _atom_site_fract_y
 _atom_site_fract_z
 _atom_site_occupancy
  Sr  Sr0  1  0.999975  0.999548  0.264808  1
  Sr  Sr1  1  0.000025  0.000452  0.735192  1
  Sr  Sr2  1  0.666526  0.333663  0.577259  1
  Sr  Sr3  1  0.333474  0.666337  0.422741  1
  Yb  Yb4  1  0.333325  0.666208  0.156014  1
  Yb  Yb5  1  0.666675  0.333792  0.843986  1
  Yb  Yb6  1  0.000000  0.000000  0.000000  1
  Yb  Yb7  1  0.000000  0.000000  0.500000  1
  Nb  Nb8  1  0.333468  0.667303  0.861257  1
  Nb  Nb9  1  0.666532  0.332697  0.138743  1
  Sb  Sb10  1  0.666688  0.332829  0.339515  1
  Sb  Sb11  1  0.333312  0.667171  0.660485  1
  O  O12  1  0.651140  0.899963  0.589185  1
  O  O13  1  0.348860  0.100037  0.410815  1
  O  O14  1  0.100230  0.752282  0.589461  1
  O  O15  1  0.899770  0.247718  0.410539  1
  O  O16  1  0.248168  0.349469  0.589065  1
  O  O17  1  0.751832  0.650531  0.410935  1
  O  O18  1  0.965674  0.551412  0.249727  1
  O  O19  1  0.034326  0.448588  0.750273  1
  O  O20  1  0.448245  0.413530  0.249765  1
  O  O21  1  0.551755  0.586470  0.750235  1
  O  O22  1  0.585883  0.033637  0.249752  1
  O  O23  1  0.414117  0.966363  0.750248  1
  O  O24  1  0.347695  0.046316  0.093128  1
  O  O25  1  0.652305  0.953684  0.906872  1
  O  O26  1  0.953031  0.300348  0.093215  1
  O  O27  1  0.046969  0.699652  0.906785  1
  O  O28  1  0.698976  0.651472  0.093038  1
  O  O29  1  0.301024  0.348528  0.906962  1
