# generated using pymatgen
data_Tb3Pr5Au4
_symmetry_space_group_name_H-M   'P 1'
_cell_length_a   5.07010200
_cell_length_b   7.36403124
_cell_length_c   9.22970793
_cell_angle_alpha   90.03834993
_cell_angle_beta   90.00000000
_cell_angle_gamma   90.00000000
_symmetry_Int_Tables_number   1
_chemical_formula_structural   Tb3Pr5Au4
_chemical_formula_sum   'Tb3 Pr5 Au4'
_cell_volume   344.60389313
_cell_formula_units_Z   1
loop_
 _symmetry_equiv_pos_site_id
 _symmetry_equiv_pos_as_xyz
  1  'x, y, z'
loop_
 _atom_site_type_symbol
 _atom_site_label
 _atom_site_symmetry_multiplicity
 _atom_site_fract_x
 _atom_site_fract_y
 _atom_site_fract_z
 _atom_site_occupancy
  Tb  Tb0  1  0.250000  0.851425  0.918657  1
  Tb  Tb1  1  0.250000  0.349384  0.585357  1
  Tb  Tb2  1  0.750000  0.150710  0.081801  1
  Pr  Pr3  1  0.750000  0.651399  0.413365  1
  Pr  Pr4  1  0.250000  0.490911  0.176368  1
  Pr  Pr5  1  0.250000  0.994932  0.324094  1
  Pr  Pr6  1  0.750000  0.507689  0.823499  1
  Pr  Pr7  1  0.750000  0.009382  0.678359  1
  Au  Au8  1  0.250000  0.246058  0.902830  1
  Au  Au9  1  0.250000  0.747768  0.605201  1
  Au  Au10  1  0.750000  0.755977  0.088187  1
  Au  Au11  1  0.750000  0.244366  0.402283  1
