# generated using pymatgen
data_Sc12AlSi11Os4
_symmetry_space_group_name_H-M   'P 1'
_cell_length_a   4.00436200
_cell_length_b   10.35651265
_cell_length_c   11.74033673
_cell_angle_alpha   90.04040642
_cell_angle_beta   90.00000000
_cell_angle_gamma   90.00000000
_symmetry_Int_Tables_number   1
_chemical_formula_structural   Sc12AlSi11Os4
_chemical_formula_sum   'Sc12 Al1 Si11 Os4'
_cell_volume   486.88603305
_cell_formula_units_Z   1
loop_
 _symmetry_equiv_pos_site_id
 _symmetry_equiv_pos_as_xyz
  1  'x, y, z'
loop_
 _atom_site_type_symbol
 _atom_site_label
 _atom_site_symmetry_multiplicity
 _atom_site_fract_x
 _atom_site_fract_y
 _atom_site_fract_z
 _atom_site_occupancy
  Sc  Sc0  1  0.250000  0.874279  0.020189  1
  Sc  Sc1  1  0.250000  0.621578  0.518785  1
  Sc  Sc2  1  0.750000  0.124512  0.983246  1
  Sc  Sc3  1  0.750000  0.377049  0.480687  1
  Sc  Sc4  1  0.250000  0.919700  0.598601  1
  Sc  Sc5  1  0.250000  0.578200  0.106543  1
  Sc  Sc6  1  0.750000  0.079541  0.393337  1
  Sc  Sc7  1  0.750000  0.423734  0.895372  1
  Sc  Sc8  1  0.250000  0.663122  0.799102  1
  Sc  Sc9  1  0.250000  0.841876  0.298812  1
  Sc  Sc10  1  0.750000  0.342719  0.202258  1
  Sc  Sc11  1  0.750000  0.167629  0.701359  1
  Al  Al12  1  0.250000  0.015410  0.819447  1
  Si  Si13  1  0.250000  0.484059  0.322177  1
  Si  Si14  1  0.750000  0.983836  0.178571  1
  Si  Si15  1  0.750000  0.515359  0.677506  1
  Si  Si16  1  0.250000  0.256241  0.844980  1
  Si  Si17  1  0.250000  0.247980  0.341608  1
  Si  Si18  1  0.750000  0.747719  0.158347  1
  Si  Si19  1  0.750000  0.751167  0.655515  1
  Si  Si20  1  0.250000  0.191916  0.545291  1
  Si  Si21  1  0.250000  0.307758  0.046910  1
  Si  Si22  1  0.750000  0.804296  0.453652  1
  Si  Si23  1  0.750000  0.689782  0.957333  1
  Os  Os24  1  0.250000  0.389591  0.675578  1
  Os  Os25  1  0.250000  0.109756  0.175044  1
  Os  Os26  1  0.750000  0.609343  0.323576  1
  Os  Os27  1  0.750000  0.881849  0.826172  1
