# generated using pymatgen
data_La2Pr6MgCdIr2
_symmetry_space_group_name_H-M   'P 1'
_cell_length_a   10.09594020
_cell_length_b   10.09594006
_cell_length_c   10.09244900
_cell_angle_alpha   60.01144775
_cell_angle_beta   60.01144822
_cell_angle_gamma   59.98377367
_symmetry_Int_Tables_number   1
_chemical_formula_structural   La2Pr6MgCdIr2
_chemical_formula_sum   'La4 Pr12 Mg2 Cd2 Ir4'
_cell_volume   727.43956942
_cell_formula_units_Z   2
loop_
 _symmetry_equiv_pos_site_id
 _symmetry_equiv_pos_as_xyz
  1  'x, y, z'
loop_
 _atom_site_type_symbol
 _atom_site_label
 _atom_site_symmetry_multiplicity
 _atom_site_fract_x
 _atom_site_fract_y
 _atom_site_fract_z
 _atom_site_occupancy
  La  La0  1  0.346832  0.346832  0.346722  1
  La  La1  1  0.346832  0.346832  0.959614  1
  La  La2  1  0.346606  0.960192  0.346600  1
  La  La3  1  0.960192  0.346606  0.346600  1
  Pr  Pr4  1  0.810930  0.188895  0.189547  1
  Pr  Pr5  1  0.188895  0.810930  0.810628  1
  Pr  Pr6  1  0.188895  0.810930  0.189547  1
  Pr  Pr7  1  0.810930  0.188895  0.810628  1
  Pr  Pr8  1  0.190607  0.190607  0.809393  1
  Pr  Pr9  1  0.811843  0.811843  0.188157  1
  Pr  Pr10  1  0.939248  0.561922  0.561871  1
  Pr  Pr11  1  0.561922  0.939248  0.936957  1
  Pr  Pr12  1  0.561922  0.939248  0.561871  1
  Pr  Pr13  1  0.939248  0.561922  0.936957  1
  Pr  Pr14  1  0.563407  0.563407  0.936593  1
  Pr  Pr15  1  0.938822  0.938822  0.561178  1
  Mg  Mg16  1  0.575579  0.575579  0.579624  1
  Mg  Mg17  1  0.575579  0.575579  0.269217  1
  Cd  Cd18  1  0.581462  0.257803  0.580367  1
  Cd  Cd19  1  0.257803  0.581462  0.580367  1
  Ir  Ir20  1  0.142866  0.142866  0.140853  1
  Ir  Ir21  1  0.142866  0.142866  0.573414  1
  Ir  Ir22  1  0.142695  0.574013  0.141645  1
  Ir  Ir23  1  0.574013  0.142695  0.141645  1
