# generated using pymatgen
data_Ho7LuZnIn3
_symmetry_space_group_name_H-M   'P 1'
_cell_length_a   10.60146793
_cell_length_b   10.60146663
_cell_length_c   6.73975066
_cell_angle_alpha   90.04411477
_cell_angle_beta   89.95589042
_cell_angle_gamma   119.98152810
_symmetry_Int_Tables_number   1
_chemical_formula_structural   Ho7LuZnIn3
_chemical_formula_sum   'Ho14 Lu2 Zn2 In6'
_cell_volume   656.12570402
_cell_formula_units_Z   2
loop_
 _symmetry_equiv_pos_site_id
 _symmetry_equiv_pos_as_xyz
  1  'x, y, z'
loop_
 _atom_site_type_symbol
 _atom_site_label
 _atom_site_symmetry_multiplicity
 _atom_site_fract_x
 _atom_site_fract_y
 _atom_site_fract_z
 _atom_site_occupancy
  Ho  Ho0  1  0.520107  0.479893  0.516856  1
  Ho  Ho1  1  0.479320  0.958325  0.017287  1
  Ho  Ho2  1  0.041675  0.520680  0.017287  1
  Ho  Ho3  1  0.479057  0.520943  0.017031  1
  Ho  Ho4  1  0.171816  0.345332  0.733628  1
  Ho  Ho5  1  0.654668  0.828184  0.733628  1
  Ho  Ho6  1  0.172946  0.827054  0.733285  1
  Ho  Ho7  1  0.827168  0.653288  0.235147  1
  Ho  Ho8  1  0.346712  0.172832  0.235147  1
  Ho  Ho9  1  0.826742  0.173258  0.236750  1
  Ho  Ho10  1  0.667135  0.332865  0.863458  1
  Ho  Ho11  1  0.332745  0.667255  0.367906  1
  Ho  Ho12  1  0.999936  0.000064  0.498629  1
  Ho  Ho13  1  0.000155  0.999845  0.999817  1
  Lu  Lu14  1  0.519954  0.040981  0.517820  1
  Lu  Lu15  1  0.959019  0.480046  0.517820  1
  Zn  Zn16  1  0.667432  0.332568  0.303245  1
  Zn  Zn17  1  0.333749  0.666251  0.802238  1
  In  In18  1  0.835367  0.670849  0.749036  1
  In  In19  1  0.329151  0.164633  0.749036  1
  In  In20  1  0.835431  0.164569  0.749147  1
  In  In21  1  0.164106  0.328963  0.250284  1
  In  In22  1  0.671037  0.835894  0.250284  1
  In  In23  1  0.164574  0.835426  0.249435  1
