# generated using pymatgen
data_HoZr3ScPd15
_symmetry_space_group_name_H-M   'P 1'
_cell_length_a   4.04735800
_cell_length_b   4.04735800
_cell_length_c   20.26909200
_cell_angle_alpha   90.00000000
_cell_angle_beta   90.00000000
_cell_angle_gamma   90.00000000
_symmetry_Int_Tables_number   1
_chemical_formula_structural   HoZr3ScPd15
_chemical_formula_sum   'Ho1 Zr3 Sc1 Pd15'
_cell_volume   332.03016039
_cell_formula_units_Z   1
loop_
 _symmetry_equiv_pos_site_id
 _symmetry_equiv_pos_as_xyz
  1  'x, y, z'
loop_
 _atom_site_type_symbol
 _atom_site_label
 _atom_site_symmetry_multiplicity
 _atom_site_fract_x
 _atom_site_fract_y
 _atom_site_fract_z
 _atom_site_occupancy
  Ho  Ho0  1  0.000000  0.000000  0.803211  1
  Zr  Zr1  1  0.000000  0.000000  0.196923  1
  Zr  Zr2  1  0.000000  0.000000  0.398800  1
  Zr  Zr3  1  0.000000  0.000000  0.600722  1
  Sc  Sc4  1  0.000000  0.000000  0.999413  1
  Pd  Pd5  1  0.500000  0.500000  0.003366  1
  Pd  Pd6  1  0.500000  0.500000  0.201243  1
  Pd  Pd7  1  0.500000  0.500000  0.398903  1
  Pd  Pd8  1  0.500000  0.500000  0.596389  1
  Pd  Pd9  1  0.500000  0.500000  0.800084  1
  Pd  Pd10  1  0.500000  0.000000  0.102064  1
  Pd  Pd11  1  0.500000  0.000000  0.300010  1
  Pd  Pd12  1  0.500000  0.000000  0.497891  1
  Pd  Pd13  1  0.500000  0.000000  0.695559  1
  Pd  Pd14  1  0.500000  0.000000  0.904949  1
  Pd  Pd15  1  0.000000  0.500000  0.102064  1
  Pd  Pd16  1  0.000000  0.500000  0.300010  1
  Pd  Pd17  1  0.000000  0.500000  0.497891  1
  Pd  Pd18  1  0.000000  0.500000  0.695559  1
  Pd  Pd19  1  0.000000  0.500000  0.904949  1
