# generated using pymatgen
data_Y4Sc4PtRh3
_symmetry_space_group_name_H-M   'P 1'
_cell_length_a   4.32177700
_cell_length_b   7.14142401
_cell_length_c   8.71594251
_cell_angle_alpha   89.50502708
_cell_angle_beta   90.00000000
_cell_angle_gamma   90.00000000
_symmetry_Int_Tables_number   1
_chemical_formula_structural   Y4Sc4PtRh3
_chemical_formula_sum   'Y4 Sc4 Pt1 Rh3'
_cell_volume   268.99569183
_cell_formula_units_Z   1
loop_
 _symmetry_equiv_pos_site_id
 _symmetry_equiv_pos_as_xyz
  1  'x, y, z'
loop_
 _atom_site_type_symbol
 _atom_site_label
 _atom_site_symmetry_multiplicity
 _atom_site_fract_x
 _atom_site_fract_y
 _atom_site_fract_z
 _atom_site_occupancy
  Y  Y0  1  0.250000  0.012196  0.673487  1
  Y  Y1  1  0.250000  0.518725  0.824070  1
  Y  Y2  1  0.750000  0.985998  0.328360  1
  Y  Y3  1  0.750000  0.485580  0.176452  1
  Sc  Sc4  1  0.250000  0.139416  0.069739  1
  Sc  Sc5  1  0.250000  0.638766  0.432176  1
  Sc  Sc6  1  0.750000  0.861337  0.934212  1
  Sc  Sc7  1  0.750000  0.358036  0.569375  1
  Pt  Pt8  1  0.750000  0.242667  0.897505  1
  Rh  Rh9  1  0.250000  0.259896  0.401425  1
  Rh  Rh10  1  0.250000  0.758858  0.095736  1
  Rh  Rh11  1  0.750000  0.738526  0.597462  1
