# generated using pymatgen
data_Tb6YCo4Tc2Sn23
_symmetry_space_group_name_H-M   'P 1'
_cell_length_a   9.78154543
_cell_length_b   9.78154375
_cell_length_c   10.03863500
_cell_angle_alpha   89.93431939
_cell_angle_beta   90.06568059
_cell_angle_gamma   119.52403649
_symmetry_Int_Tables_number   1
_chemical_formula_structural   Tb6YCo4Tc2Sn23
_chemical_formula_sum   'Tb6 Y1 Co4 Tc2 Sn23'
_cell_volume   835.76235338
_cell_formula_units_Z   1
loop_
 _symmetry_equiv_pos_site_id
 _symmetry_equiv_pos_as_xyz
  1  'x, y, z'
loop_
 _atom_site_type_symbol
 _atom_site_label
 _atom_site_symmetry_multiplicity
 _atom_site_fract_x
 _atom_site_fract_y
 _atom_site_fract_z
 _atom_site_occupancy
  Tb  Tb0  1  0.000000  0.000000  0.000000  1
  Tb  Tb1  1  0.519491  0.480509  0.692968  1
  Tb  Tb2  1  0.482451  0.960077  0.305349  1
  Tb  Tb3  1  0.517549  0.039923  0.694651  1
  Tb  Tb4  1  0.039923  0.517549  0.305349  1
  Tb  Tb5  1  0.960077  0.482451  0.694651  1
  Y  Y6  1  0.480509  0.519491  0.307032  1
  Co  Co7  1  0.829820  0.660057  0.198013  1
  Co  Co8  1  0.170180  0.339943  0.801987  1
  Co  Co9  1  0.339943  0.170180  0.198013  1
  Co  Co10  1  0.660057  0.829820  0.801987  1
  Tc  Tc11  1  0.834964  0.165036  0.202656  1
  Tc  Tc12  1  0.165036  0.834964  0.797344  1
  Sn  Sn13  1  0.347487  0.001117  0.004166  1
  Sn  Sn14  1  0.652513  0.998883  0.995834  1
  Sn  Sn15  1  0.001117  0.347487  0.995834  1
  Sn  Sn16  1  0.998883  0.652513  0.004166  1
  Sn  Sn17  1  0.651742  0.651742  0.000000  1
  Sn  Sn18  1  0.348258  0.348258  0.000000  1
  Sn  Sn19  1  0.333551  0.666449  0.816578  1
  Sn  Sn20  1  0.666449  0.333551  0.183422  1
  Sn  Sn21  1  0.000000  0.000000  0.500000  1
  Sn  Sn22  1  0.780228  0.219772  0.460082  1
  Sn  Sn23  1  0.219772  0.780228  0.539918  1
  Sn  Sn24  1  0.782417  0.565171  0.452573  1
  Sn  Sn25  1  0.217583  0.434829  0.547427  1
  Sn  Sn26  1  0.434829  0.217583  0.452573  1
  Sn  Sn27  1  0.565171  0.782417  0.547427  1
  Sn  Sn28  1  0.333333  0.666667  0.118842  1
  Sn  Sn29  1  0.666667  0.333333  0.881158  1
  Sn  Sn30  1  0.116877  0.883123  0.272888  1
  Sn  Sn31  1  0.883123  0.116877  0.727112  1
  Sn  Sn32  1  0.127914  0.238420  0.270295  1
  Sn  Sn33  1  0.872086  0.761580  0.729705  1
  Sn  Sn34  1  0.761580  0.872086  0.270295  1
  Sn  Sn35  1  0.238420  0.127914  0.729705  1
