# generated using pymatgen
data_SrLaNi2(As2Pd)2
_symmetry_space_group_name_H-M   'P 1'
_cell_length_a   4.35548700
_cell_length_b   4.35548700
_cell_length_c   9.83059600
_cell_angle_alpha   90.00000000
_cell_angle_beta   90.00000000
_cell_angle_gamma   90.00000000
_symmetry_Int_Tables_number   1
_chemical_formula_structural   SrLaNi2(As2Pd)2
_chemical_formula_sum   'Sr1 La1 Ni2 As4 Pd2'
_cell_volume   186.48903096
_cell_formula_units_Z   1
loop_
 _symmetry_equiv_pos_site_id
 _symmetry_equiv_pos_as_xyz
  1  'x, y, z'
loop_
 _atom_site_type_symbol
 _atom_site_label
 _atom_site_symmetry_multiplicity
 _atom_site_fract_x
 _atom_site_fract_y
 _atom_site_fract_z
 _atom_site_occupancy
  Sr  Sr0  1  0.000000  0.500000  0.755232  1
  La  La1  1  0.500000  0.000000  0.241350  1
  Ni  Ni2  1  0.000000  0.500000  0.113728  1
  Ni  Ni3  1  0.500000  0.000000  0.891686  1
  As  As4  1  0.000000  0.500000  0.354567  1
  As  As5  1  0.000000  0.000000  0.001009  1
  As  As6  1  0.500000  0.000000  0.646500  1
  As  As7  1  0.500000  0.500000  0.001009  1
  Pd  Pd8  1  0.000000  0.000000  0.497460  1
  Pd  Pd9  1  0.500000  0.500000  0.497460  1
