# generated using pymatgen
data_Sc2InCo5B2
_symmetry_space_group_name_H-M   'P 1'
_cell_length_a   8.93179100
_cell_length_b   8.93179100
_cell_length_c   3.01826600
_cell_angle_alpha   90.00000000
_cell_angle_beta   90.00000000
_cell_angle_gamma   90.00000000
_symmetry_Int_Tables_number   1
_chemical_formula_structural   Sc2InCo5B2
_chemical_formula_sum   'Sc4 In2 Co10 B4'
_cell_volume   240.78787608
_cell_formula_units_Z   2
loop_
 _symmetry_equiv_pos_site_id
 _symmetry_equiv_pos_as_xyz
  1  'x, y, z'
loop_
 _atom_site_type_symbol
 _atom_site_label
 _atom_site_symmetry_multiplicity
 _atom_site_fract_x
 _atom_site_fract_y
 _atom_site_fract_z
 _atom_site_occupancy
  Sc  Sc0  1  0.824649  0.324649  0.000000  1
  Sc  Sc1  1  0.324649  0.175351  0.000000  1
  Sc  Sc2  1  0.675351  0.824649  0.000000  1
  Sc  Sc3  1  0.175351  0.675351  0.000000  1
  In  In4  1  0.000000  0.000000  0.000000  1
  In  In5  1  0.500000  0.500000  0.000000  1
  Co  Co6  1  0.500000  0.000000  0.500000  1
  Co  Co7  1  0.000000  0.500000  0.500000  1
  Co  Co8  1  0.070405  0.232372  0.500000  1
  Co  Co9  1  0.232372  0.929595  0.500000  1
  Co  Co10  1  0.767628  0.070405  0.500000  1
  Co  Co11  1  0.929595  0.767628  0.500000  1
  Co  Co12  1  0.429595  0.732372  0.500000  1
  Co  Co13  1  0.570405  0.267628  0.500000  1
  Co  Co14  1  0.732372  0.570405  0.500000  1
  Co  Co15  1  0.267628  0.429595  0.500000  1
  B  B16  1  0.618345  0.118345  0.000000  1
  B  B17  1  0.118345  0.381655  0.000000  1
  B  B18  1  0.881655  0.618345  0.000000  1
  B  B19  1  0.381655  0.881655  0.000000  1
