# generated using pymatgen
data_Lu6Sc4(BiPb)3
_symmetry_space_group_name_H-M   'P 1'
_cell_length_a   8.84382500
_cell_length_b   8.83629043
_cell_length_c   6.20241400
_cell_angle_alpha   90.00000000
_cell_angle_beta   90.00000000
_cell_angle_gamma   120.02820684
_symmetry_Int_Tables_number   1
_chemical_formula_structural   Lu6Sc4(BiPb)3
_chemical_formula_sum   'Lu6 Sc4 Bi3 Pb3'
_cell_volume   419.64107900
_cell_formula_units_Z   1
loop_
 _symmetry_equiv_pos_site_id
 _symmetry_equiv_pos_as_xyz
  1  'x, y, z'
loop_
 _atom_site_type_symbol
 _atom_site_label
 _atom_site_symmetry_multiplicity
 _atom_site_fract_x
 _atom_site_fract_y
 _atom_site_fract_z
 _atom_site_occupancy
  Lu  Lu0  1  0.234174  0.000000  0.250000  1
  Lu  Lu1  1  0.235657  0.233615  0.750000  1
  Lu  Lu2  1  0.002042  0.766385  0.750000  1
  Lu  Lu3  1  0.002190  0.237245  0.250000  1
  Lu  Lu4  1  0.764944  0.762755  0.250000  1
  Lu  Lu5  1  0.763408  0.000000  0.750000  1
  Sc  Sc6  1  0.332934  0.666572  0.000477  1
  Sc  Sc7  1  0.666363  0.333428  0.499523  1
  Sc  Sc8  1  0.666363  0.333428  0.000477  1
  Sc  Sc9  1  0.332934  0.666572  0.499523  1
  Bi  Bi10  1  0.603112  0.000000  0.250000  1
  Bi  Bi11  1  0.602223  0.602706  0.750000  1
  Bi  Bi12  1  0.999517  0.397294  0.750000  1
  Pb  Pb13  1  0.999718  0.602658  0.250000  1
  Pb  Pb14  1  0.397060  0.397342  0.250000  1
  Pb  Pb15  1  0.397362  0.000000  0.750000  1
