# generated using pymatgen
data_Ho4ReTc2B16W
_symmetry_space_group_name_H-M   'P 1'
_cell_length_a   3.59970400
_cell_length_b   5.97831126
_cell_length_c   11.56258152
_cell_angle_alpha   90.11313090
_cell_angle_beta   90.00000000
_cell_angle_gamma   90.00000000
_symmetry_Int_Tables_number   1
_chemical_formula_structural   Ho4ReTc2B16W
_chemical_formula_sum   'Ho4 Re1 Tc2 B16 W1'
_cell_volume   248.82801483
_cell_formula_units_Z   1
loop_
 _symmetry_equiv_pos_site_id
 _symmetry_equiv_pos_as_xyz
  1  'x, y, z'
loop_
 _atom_site_type_symbol
 _atom_site_label
 _atom_site_symmetry_multiplicity
 _atom_site_fract_x
 _atom_site_fract_y
 _atom_site_fract_z
 _atom_site_occupancy
  Ho  Ho0  1  0.000000  0.628435  0.152804  1
  Ho  Ho1  1  0.000000  0.372787  0.847329  1
  Ho  Ho2  1  0.000000  0.127234  0.352527  1
  Ho  Ho3  1  0.000000  0.873052  0.647967  1
  Re  Re4  1  0.000000  0.869423  0.913887  1
  Tc  Tc5  1  0.000000  0.634778  0.412785  1
  Tc  Tc6  1  0.000000  0.364706  0.588505  1
  B  B7  1  0.500000  0.975560  0.194164  1
  B  B8  1  0.500000  0.021870  0.806009  1
  B  B9  1  0.500000  0.477755  0.308574  1
  B  B10  1  0.500000  0.523680  0.691971  1
  B  B11  1  0.500000  0.786172  0.315822  1
  B  B12  1  0.500000  0.212640  0.684709  1
  B  B13  1  0.500000  0.290356  0.187022  1
  B  B14  1  0.500000  0.711830  0.814248  1
  B  B15  1  0.500000  0.863719  0.469072  1
  B  B16  1  0.500000  0.136115  0.531214  1
  B  B17  1  0.500000  0.367087  0.030953  1
  B  B18  1  0.500000  0.635011  0.967109  1
  B  B19  1  0.500000  0.883177  0.046568  1
  B  B20  1  0.500000  0.113346  0.950863  1
  B  B21  1  0.500000  0.386475  0.453171  1
  B  B22  1  0.500000  0.613414  0.547362  1
  W  W23  1  0.000000  0.131379  0.085366  1
