# generated using pymatgen
data_Na4Ge2S5
_symmetry_space_group_name_H-M   'P 1'
_cell_length_a   6.83458649
_cell_length_b   7.91584229
_cell_length_c   10.28923503
_cell_angle_alpha   73.72157226
_cell_angle_beta   70.77593181
_cell_angle_gamma   81.94322140
_symmetry_Int_Tables_number   1
_chemical_formula_structural   Na4Ge2S5
_chemical_formula_sum   'Na8 Ge4 S10'
_cell_volume   503.84694720
_cell_formula_units_Z   2
loop_
 _symmetry_equiv_pos_site_id
 _symmetry_equiv_pos_as_xyz
  1  'x, y, z'
loop_
 _atom_site_type_symbol
 _atom_site_label
 _atom_site_symmetry_multiplicity
 _atom_site_fract_x
 _atom_site_fract_y
 _atom_site_fract_z
 _atom_site_occupancy
  Na  Na0  1  0.204572  0.000653  0.594598  1
  Na  Na1  1  0.795428  0.999347  0.405402  1
  Na  Na2  1  0.912504  0.520098  0.683261  1
  Na  Na3  1  0.087496  0.479902  0.316739  1
  Na  Na4  1  0.500000  0.500000  0.500000  1
  Na  Na5  1  0.000000  0.000000  0.000000  1
  Na  Na6  1  0.270154  0.495354  0.896193  1
  Na  Na7  1  0.729846  0.504646  0.103807  1
  Ge  Ge8  1  0.425399  0.840543  0.230494  1
  Ge  Ge9  1  0.574601  0.159457  0.769506  1
  Ge  Ge10  1  0.382108  0.161544  0.165510  1
  Ge  Ge11  1  0.617892  0.838456  0.834490  1
  S  S12  1  0.065368  0.247995  0.153144  1
  S  S13  1  0.934632  0.752005  0.846856  1
  S  S14  1  0.637197  0.258213  0.947204  1
  S  S15  1  0.362803  0.741787  0.052796  1
  S  S16  1  0.832113  0.252705  0.573513  1
  S  S17  1  0.167887  0.747295  0.426487  1
  S  S18  1  0.538370  0.744877  0.676026  1
  S  S19  1  0.461630  0.255123  0.323974  1
  S  S20  1  0.264367  0.247837  0.745691  1
  S  S21  1  0.735633  0.752163  0.254309  1
