# generated using pymatgen
data_Nd10Cd5In3Pd4
_symmetry_space_group_name_H-M   'P 1'
_cell_length_a   3.77863300
_cell_length_b   8.25694355
_cell_length_c   18.85300921
_cell_angle_alpha   89.70966601
_cell_angle_beta   90.00000000
_cell_angle_gamma   90.00000000
_symmetry_Int_Tables_number   1
_chemical_formula_structural   Nd10Cd5In3Pd4
_chemical_formula_sum   'Nd10 Cd5 In3 Pd4'
_cell_volume   588.20556981
_cell_formula_units_Z   1
loop_
 _symmetry_equiv_pos_site_id
 _symmetry_equiv_pos_as_xyz
  1  'x, y, z'
loop_
 _atom_site_type_symbol
 _atom_site_label
 _atom_site_symmetry_multiplicity
 _atom_site_fract_x
 _atom_site_fract_y
 _atom_site_fract_z
 _atom_site_occupancy
  Nd  Nd0  1  0.000000  0.497386  0.498983  1
  Nd  Nd1  1  0.000000  0.000824  0.000641  1
  Nd  Nd2  1  0.000000  0.742139  0.281915  1
  Nd  Nd3  1  0.000000  0.260887  0.717654  1
  Nd  Nd4  1  0.000000  0.758640  0.781271  1
  Nd  Nd5  1  0.000000  0.243317  0.219053  1
  Nd  Nd6  1  0.000000  0.615519  0.082937  1
  Nd  Nd7  1  0.000000  0.383774  0.916502  1
  Nd  Nd8  1  0.000000  0.884206  0.583513  1
  Nd  Nd9  1  0.000000  0.113396  0.417249  1
  Cd  Cd10  1  0.500000  0.713470  0.929681  1
  Cd  Cd11  1  0.500000  0.287444  0.070164  1
  Cd  Cd12  1  0.500000  0.785556  0.430598  1
  Cd  Cd13  1  0.500000  0.210799  0.569541  1
  Cd  Cd14  1  0.500000  0.574482  0.649133  1
  In  In15  1  0.500000  0.423980  0.350755  1
  In  In16  1  0.500000  0.925495  0.149897  1
  In  In17  1  0.500000  0.074602  0.850113  1
  Pd  Pd18  1  0.500000  0.526541  0.196638  1
  Pd  Pd19  1  0.500000  0.474842  0.803675  1
  Pd  Pd20  1  0.500000  0.977045  0.696587  1
  Pd  Pd21  1  0.500000  0.025657  0.303498  1
