# generated using pymatgen
data_Dy2UFe3
_symmetry_space_group_name_H-M   'P 1'
_cell_length_a   5.66864500
_cell_length_b   5.66864412
_cell_length_c   7.58272500
_cell_angle_alpha   90.00000000
_cell_angle_beta   90.00000000
_cell_angle_gamma   119.99997597
_symmetry_Int_Tables_number   1
_chemical_formula_structural   Dy2UFe3
_chemical_formula_sum   'Dy4 U2 Fe6'
_cell_volume   211.01556706
_cell_formula_units_Z   2
loop_
 _symmetry_equiv_pos_site_id
 _symmetry_equiv_pos_as_xyz
  1  'x, y, z'
loop_
 _atom_site_type_symbol
 _atom_site_label
 _atom_site_symmetry_multiplicity
 _atom_site_fract_x
 _atom_site_fract_y
 _atom_site_fract_z
 _atom_site_occupancy
  Dy  Dy0  1  0.333333  0.666667  0.448394  1
  Dy  Dy1  1  0.666667  0.333333  0.551606  1
  Dy  Dy2  1  0.666667  0.333333  0.948394  1
  Dy  Dy3  1  0.333333  0.666667  0.051606  1
  U  U4  1  0.000000  0.000000  0.500000  1
  U  U5  1  0.000000  0.000000  0.000000  1
  Fe  Fe6  1  0.844419  0.155581  0.250000  1
  Fe  Fe7  1  0.844419  0.688840  0.250000  1
  Fe  Fe8  1  0.311160  0.155581  0.250000  1
  Fe  Fe9  1  0.155581  0.844419  0.750000  1
  Fe  Fe10  1  0.155581  0.311160  0.750000  1
  Fe  Fe11  1  0.688840  0.844419  0.750000  1
