# generated using pymatgen
data_Sr4LaPt4
_symmetry_space_group_name_H-M   'P 1'
_cell_length_a   7.96566200
_cell_length_b   8.14539700
_cell_length_c   15.66980300
_cell_angle_alpha   90.00000000
_cell_angle_beta   90.00000000
_cell_angle_gamma   90.00000000
_symmetry_Int_Tables_number   1
_chemical_formula_structural   Sr4LaPt4
_chemical_formula_sum   'Sr16 La4 Pt16'
_cell_volume   1016.71133949
_cell_formula_units_Z   4
loop_
 _symmetry_equiv_pos_site_id
 _symmetry_equiv_pos_as_xyz
  1  'x, y, z'
loop_
 _atom_site_type_symbol
 _atom_site_label
 _atom_site_symmetry_multiplicity
 _atom_site_fract_x
 _atom_site_fract_y
 _atom_site_fract_z
 _atom_site_occupancy
  Sr  Sr0  1  0.663103  0.171861  0.118327  1
  Sr  Sr1  1  0.163103  0.328139  0.381673  1
  Sr  Sr2  1  0.336897  0.828139  0.618328  1
  Sr  Sr3  1  0.836897  0.671861  0.881672  1
  Sr  Sr4  1  0.492424  0.322624  0.901719  1
  Sr  Sr5  1  0.992424  0.177376  0.598281  1
  Sr  Sr6  1  0.507576  0.677376  0.401719  1
  Sr  Sr7  1  0.007576  0.822624  0.098281  1
  Sr  Sr8  1  0.506965  0.682051  0.094915  1
  Sr  Sr9  1  0.006965  0.817949  0.405085  1
  Sr  Sr10  1  0.493035  0.317949  0.594915  1
  Sr  Sr11  1  0.993035  0.182051  0.905085  1
  Sr  Sr12  1  0.176743  0.486136  0.749979  1
  Sr  Sr13  1  0.676743  0.013864  0.750021  1
  Sr  Sr14  1  0.823257  0.513864  0.249979  1
  Sr  Sr15  1  0.323257  0.986136  0.250021  1
  La  La16  1  0.332965  0.834814  0.877687  1
  La  La17  1  0.832965  0.665186  0.622313  1
  La  La18  1  0.667035  0.165186  0.377688  1
  La  La19  1  0.167035  0.334814  0.122312  1
  Pt  Pt20  1  0.314836  0.044843  0.035614  1
  Pt  Pt21  1  0.814836  0.455157  0.464386  1
  Pt  Pt22  1  0.685164  0.955157  0.535614  1
  Pt  Pt23  1  0.185164  0.544843  0.964386  1
  Pt  Pt24  1  0.639825  0.969598  0.955278  1
  Pt  Pt25  1  0.139825  0.530402  0.544722  1
  Pt  Pt26  1  0.360175  0.030402  0.455278  1
  Pt  Pt27  1  0.860175  0.469598  0.044722  1
  Pt  Pt28  1  0.544365  0.623972  0.751695  1
  Pt  Pt29  1  0.044365  0.876028  0.748305  1
  Pt  Pt30  1  0.455635  0.376028  0.251695  1
  Pt  Pt31  1  0.955635  0.123972  0.248305  1
  Pt  Pt32  1  0.288140  0.119409  0.754979  1
  Pt  Pt33  1  0.788140  0.380591  0.745021  1
  Pt  Pt34  1  0.711860  0.880591  0.254979  1
  Pt  Pt35  1  0.211860  0.619409  0.245021  1
