# generated using pymatgen
data_Dy8Y4Co5Bi
_symmetry_space_group_name_H-M   'P 1'
_cell_length_a   8.35262094
_cell_length_b   8.35262080
_cell_length_c   8.35262020
_cell_angle_alpha   110.69675828
_cell_angle_beta   110.70901920
_cell_angle_gamma   107.03501283
_symmetry_Int_Tables_number   1
_chemical_formula_structural   Dy8Y4Co5Bi
_chemical_formula_sum   'Dy8 Y4 Co5 Bi1'
_cell_volume   447.98164587
_cell_formula_units_Z   1
loop_
 _symmetry_equiv_pos_site_id
 _symmetry_equiv_pos_as_xyz
  1  'x, y, z'
loop_
 _atom_site_type_symbol
 _atom_site_label
 _atom_site_symmetry_multiplicity
 _atom_site_fract_x
 _atom_site_fract_y
 _atom_site_fract_z
 _atom_site_occupancy
  Dy  Dy0  1  0.688481  0.378224  0.689743  1
  Dy  Dy1  1  0.311519  0.621776  0.310257  1
  Dy  Dy2  1  0.688481  0.998738  0.310257  1
  Dy  Dy3  1  0.311519  0.001262  0.689743  1
  Dy  Dy4  1  0.600534  0.794634  0.805900  1
  Dy  Dy5  1  0.399466  0.205366  0.194100  1
  Dy  Dy6  1  0.988734  0.794634  0.194100  1
  Dy  Dy7  1  0.011266  0.205366  0.805900  1
  Y  Y8  1  0.815617  0.710084  0.525701  1
  Y  Y9  1  0.184383  0.289916  0.474299  1
  Y  Y10  1  0.184383  0.710084  0.894466  1
  Y  Y11  1  0.815617  0.289916  0.105534  1
  Co  Co12  1  0.623083  0.000000  0.623083  1
  Co  Co13  1  0.376917  0.000000  0.376917  1
  Co  Co14  1  0.111126  0.611126  0.500000  1
  Co  Co15  1  0.888874  0.388874  0.500000  1
  Co  Co16  1  0.000000  0.000000  0.000000  1
  Bi  Bi17  1  0.500000  0.500000  0.000000  1
