# generated using pymatgen
data_DyCr3BiO8
_symmetry_space_group_name_H-M   'P 1'
_cell_length_a   6.32870502
_cell_length_b   6.32870476
_cell_length_c   5.14176728
_cell_angle_alpha   71.84707979
_cell_angle_beta   71.84706832
_cell_angle_gamma   57.76326756
_symmetry_Int_Tables_number   1
_chemical_formula_structural   DyCr3BiO8
_chemical_formula_sum   'Dy1 Cr3 Bi1 O8'
_cell_volume   162.79555028
_cell_formula_units_Z   1
loop_
 _symmetry_equiv_pos_site_id
 _symmetry_equiv_pos_as_xyz
  1  'x, y, z'
loop_
 _atom_site_type_symbol
 _atom_site_label
 _atom_site_symmetry_multiplicity
 _atom_site_fract_x
 _atom_site_fract_y
 _atom_site_fract_z
 _atom_site_occupancy
  Dy  Dy0  1  0.276840  0.276840  0.674183  1
  Cr  Cr1  1  0.998341  0.998341  0.495897  1
  Cr  Cr2  1  0.742411  0.254746  0.002009  1
  Cr  Cr3  1  0.254746  0.742411  0.002009  1
  Bi  Bi4  1  0.716159  0.716159  0.336861  1
  O  O5  1  0.395658  0.395658  0.936436  1
  O  O6  1  0.608931  0.608931  0.044164  1
  O  O7  1  0.901226  0.901226  0.913252  1
  O  O8  1  0.100661  0.100661  0.086721  1
  O  O9  1  0.330207  0.896115  0.600202  1
  O  O10  1  0.896115  0.330207  0.600202  1
  O  O11  1  0.114362  0.664342  0.404032  1
  O  O12  1  0.664342  0.114362  0.404032  1
