# generated using pymatgen
data_Y11Lu(C2I11)2
_symmetry_space_group_name_H-M   'P 1'
_cell_length_a   9.54726033
_cell_length_b   10.80867099
_cell_length_c   15.07826963
_cell_angle_alpha   89.72619930
_cell_angle_beta   104.19294062
_cell_angle_gamma   109.80109696
_symmetry_Int_Tables_number   1
_chemical_formula_structural   Y11Lu(C2I11)2
_chemical_formula_sum   'Y11 Lu1 C4 I22'
_cell_volume   1414.05352712
_cell_formula_units_Z   1
loop_
 _symmetry_equiv_pos_site_id
 _symmetry_equiv_pos_as_xyz
  1  'x, y, z'
loop_
 _atom_site_type_symbol
 _atom_site_label
 _atom_site_symmetry_multiplicity
 _atom_site_fract_x
 _atom_site_fract_y
 _atom_site_fract_z
 _atom_site_occupancy
  Y  Y0  1  0.613457  0.520408  0.879287  1
  Y  Y1  1  0.425390  0.781153  0.266330  1
  Y  Y2  1  0.574566  0.218327  0.733306  1
  Y  Y3  1  0.625892  0.580624  0.361124  1
  Y  Y4  1  0.373567  0.419123  0.638244  1
  Y  Y5  1  0.832411  0.648861  0.200754  1
  Y  Y6  1  0.166518  0.350795  0.799271  1
  Y  Y7  1  0.629439  0.843925  0.102936  1
  Y  Y8  1  0.370263  0.155947  0.897204  1
  Y  Y9  1  0.859276  0.945240  0.346810  1
  Y  Y10  1  0.139952  0.053946  0.652679  1
  Lu  Lu11  1  0.389790  0.482550  0.122185  1
  C  C12  1  0.430304  0.343473  0.796656  1
  C  C13  1  0.568541  0.655388  0.202572  1
  C  C14  1  0.315681  0.232184  0.740326  1
  C  C15  1  0.683351  0.767047  0.259159  1
  I  I16  1  0.384675  0.311098  0.271704  1
  I  I17  1  0.613183  0.690490  0.724701  1
  I  I18  1  0.126317  0.556071  0.149418  1
  I  I19  1  0.877232  0.441169  0.849405  1
  I  I20  1  0.624718  0.377162  0.064470  1
  I  I21  1  0.371157  0.621556  0.939250  1
  I  I22  1  0.119690  0.208407  0.479357  1
  I  I23  1  0.880105  0.791188  0.520348  1
  I  I24  1  0.615057  0.034360  0.390240  1
  I  I25  1  0.384693  0.965385  0.609595  1
  I  I26  1  0.128711  0.868427  0.305136  1
  I  I27  1  0.870970  0.130483  0.694602  1
  I  I28  1  0.130214  0.530393  0.651478  1
  I  I29  1  0.870197  0.469835  0.348793  1
  I  I30  1  0.617567  0.369082  0.563235  1
  I  I31  1  0.382326  0.630656  0.436491  1
  I  I32  1  0.145045  0.227017  0.983379  1
  I  I33  1  0.860027  0.777409  0.019194  1
  I  I34  1  0.626543  0.053494  0.898872  1
  I  I35  1  0.373565  0.947223  0.101414  1
  I  I36  1  0.127234  0.891538  0.818049  1
  I  I37  1  0.872375  0.108568  0.182024  1
