# generated using pymatgen
data_Hf6Al16CoPd2Pt3Rh
_symmetry_space_group_name_H-M   'P 1'
_cell_length_a   8.71187277
_cell_length_b   8.69889714
_cell_length_c   8.69889800
_cell_angle_alpha   60.20076942
_cell_angle_beta   59.95064371
_cell_angle_gamma   59.95064403
_symmetry_Int_Tables_number   1
_chemical_formula_structural   Hf6Al16CoPd2Pt3Rh
_chemical_formula_sum   'Hf6 Al16 Co1 Pd2 Pt3 Rh1'
_cell_volume   466.50274986
_cell_formula_units_Z   1
loop_
 _symmetry_equiv_pos_site_id
 _symmetry_equiv_pos_as_xyz
  1  'x, y, z'
loop_
 _atom_site_type_symbol
 _atom_site_label
 _atom_site_symmetry_multiplicity
 _atom_site_fract_x
 _atom_site_fract_y
 _atom_site_fract_z
 _atom_site_occupancy
  Hf  Hf0  1  0.683368  0.682251  0.318381  1
  Hf  Hf1  1  0.315809  0.682247  0.317738  1
  Hf  Hf2  1  0.683330  0.315930  0.316694  1
  Hf  Hf3  1  0.316632  0.317749  0.681619  1
  Hf  Hf4  1  0.684191  0.317753  0.682262  1
  Hf  Hf5  1  0.316670  0.684070  0.683306  1
  Al  Al6  1  0.885864  0.870357  0.358282  1
  Al  Al7  1  0.885613  0.357966  0.870419  1
  Al  Al8  1  0.357135  0.879651  0.879957  1
  Al  Al9  1  0.883267  0.879980  0.879763  1
  Al  Al10  1  0.114136  0.129643  0.641718  1
  Al  Al11  1  0.114387  0.642034  0.129581  1
  Al  Al12  1  0.642865  0.120349  0.120043  1
  Al  Al13  1  0.116733  0.120020  0.120237  1
  Al  Al14  1  0.665224  0.664107  0.007236  1
  Al  Al15  1  0.663956  0.007603  0.664401  1
  Al  Al16  1  0.007056  0.658572  0.659558  1
  Al  Al17  1  0.675085  0.658832  0.658718  1
  Al  Al18  1  0.334776  0.335893  0.992764  1
  Al  Al19  1  0.336044  0.992397  0.335599  1
  Al  Al20  1  0.992944  0.341428  0.340442  1
  Al  Al21  1  0.324915  0.341168  0.341282  1
  Co  Co22  1  0.000000  0.500000  0.500000  1
  Pd  Pd23  1  0.000000  0.500000  0.000000  1
  Pd  Pd24  1  0.500000  0.000000  0.000000  1
  Pt  Pt25  1  0.000000  0.000000  0.500000  1
  Pt  Pt26  1  0.500000  0.000000  0.500000  1
  Pt  Pt27  1  0.500000  0.500000  0.000000  1
  Rh  Rh28  1  0.000000  0.000000  0.000000  1
