# generated using pymatgen
data_Tb7Er3(Pb3Br)2
_symmetry_space_group_name_H-M   'P 1'
_cell_length_a   9.28683100
_cell_length_b   9.28683149
_cell_length_c   6.67746100
_cell_angle_alpha   90.00000000
_cell_angle_beta   90.00000000
_cell_angle_gamma   119.99998756
_symmetry_Int_Tables_number   1
_chemical_formula_structural   Tb7Er3(Pb3Br)2
_chemical_formula_sum   'Tb7 Er3 Pb6 Br2'
_cell_volume   498.74339139
_cell_formula_units_Z   1
loop_
 _symmetry_equiv_pos_site_id
 _symmetry_equiv_pos_as_xyz
  1  'x, y, z'
loop_
 _atom_site_type_symbol
 _atom_site_label
 _atom_site_symmetry_multiplicity
 _atom_site_fract_x
 _atom_site_fract_y
 _atom_site_fract_z
 _atom_site_occupancy
  Tb  Tb0  1  0.267368  0.000036  0.249846  1
  Tb  Tb1  1  0.732668  0.000036  0.750154  1
  Tb  Tb2  1  0.999964  0.267332  0.249846  1
  Tb  Tb3  1  0.999964  0.732632  0.750154  1
  Tb  Tb4  1  0.732668  0.732632  0.249846  1
  Tb  Tb5  1  0.267368  0.267332  0.750154  1
  Tb  Tb6  1  0.333333  0.666667  0.500000  1
  Er  Er7  1  0.333333  0.666667  0.000000  1
  Er  Er8  1  0.666667  0.333333  0.000000  1
  Er  Er9  1  0.666667  0.333333  0.500000  1
  Pb  Pb10  1  0.612379  0.000996  0.249402  1
  Pb  Pb11  1  0.388616  0.000996  0.750598  1
  Pb  Pb12  1  0.999004  0.611384  0.249402  1
  Pb  Pb13  1  0.999004  0.387621  0.750598  1
  Pb  Pb14  1  0.388616  0.387621  0.249402  1
  Pb  Pb15  1  0.612379  0.611384  0.750598  1
  Br  Br16  1  0.000000  0.000000  0.000000  1
  Br  Br17  1  0.000000  0.000000  0.500000  1
