# generated using pymatgen
data_Ce4Mn9Fe11P12
_symmetry_space_group_name_H-M   'P 1'
_cell_length_a   3.66982400
_cell_length_b   10.38843100
_cell_length_c   12.12321115
_cell_angle_alpha   89.66465235
_cell_angle_beta   90.00000000
_cell_angle_gamma   90.00000000
_symmetry_Int_Tables_number   1
_chemical_formula_structural   Ce4Mn9Fe11P12
_chemical_formula_sum   'Ce4 Mn9 Fe11 P12'
_cell_volume   462.17391124
_cell_formula_units_Z   1
loop_
 _symmetry_equiv_pos_site_id
 _symmetry_equiv_pos_as_xyz
  1  'x, y, z'
loop_
 _atom_site_type_symbol
 _atom_site_label
 _atom_site_symmetry_multiplicity
 _atom_site_fract_x
 _atom_site_fract_y
 _atom_site_fract_z
 _atom_site_occupancy
  Ce  Ce0  1  0.250000  0.581795  0.709978  1
  Ce  Ce1  1  0.250000  0.914989  0.211219  1
  Ce  Ce2  1  0.750000  0.421034  0.290815  1
  Ce  Ce3  1  0.750000  0.081673  0.789729  1
  Mn  Mn4  1  0.250000  0.705096  0.992515  1
  Mn  Mn5  1  0.250000  0.795076  0.493466  1
  Mn  Mn6  1  0.750000  0.294720  0.010322  1
  Mn  Mn7  1  0.750000  0.205867  0.506629  1
  Mn  Mn8  1  0.250000  0.408916  0.490054  1
  Mn  Mn9  1  0.250000  0.091205  0.989486  1
  Mn  Mn10  1  0.750000  0.592912  0.510970  1
  Mn  Mn11  1  0.750000  0.904672  0.010020  1
  Mn  Mn12  1  0.250000  0.218313  0.171133  1
  Fe  Fe13  1  0.250000  0.278543  0.671628  1
  Fe  Fe14  1  0.750000  0.778084  0.827548  1
  Fe  Fe15  1  0.750000  0.722334  0.328270  1
  Fe  Fe16  1  0.250000  0.882055  0.696854  1
  Fe  Fe17  1  0.250000  0.619380  0.196513  1
  Fe  Fe18  1  0.750000  0.121840  0.300700  1
  Fe  Fe19  1  0.750000  0.381156  0.804085  1
  Fe  Fe20  1  0.250000  0.464382  0.934462  1
  Fe  Fe21  1  0.250000  0.035930  0.434234  1
  Fe  Fe22  1  0.750000  0.535799  0.064447  1
  Fe  Fe23  1  0.750000  0.965187  0.565321  1
  P  P24  1  0.250000  0.424287  0.110477  1
  P  P25  1  0.250000  0.078727  0.609828  1
  P  P26  1  0.750000  0.578415  0.889281  1
  P  P27  1  0.750000  0.922589  0.390162  1
  P  P28  1  0.250000  0.273891  0.861211  1
  P  P29  1  0.250000  0.228784  0.364977  1
  P  P30  1  0.750000  0.726067  0.137706  1
  P  P31  1  0.750000  0.773900  0.638538  1
  P  P32  1  0.250000  0.607106  0.383854  1
  P  P33  1  0.250000  0.893701  0.883779  1
  P  P34  1  0.750000  0.394397  0.616971  1
  P  P35  1  0.750000  0.097175  0.112821  1
