# generated using pymatgen
data_Zr6Zn19AsPt4
_symmetry_space_group_name_H-M   'P 1'
_cell_length_a   8.82763033
_cell_length_b   8.82763297
_cell_length_c   8.82763410
_cell_angle_alpha   59.90820363
_cell_angle_beta   59.90821311
_cell_angle_gamma   59.90823950
_symmetry_Int_Tables_number   1
_chemical_formula_structural   Zr6Zn19AsPt4
_chemical_formula_sum   'Zr6 Zn19 As1 Pt4'
_cell_volume   485.41427173
_cell_formula_units_Z   1
loop_
 _symmetry_equiv_pos_site_id
 _symmetry_equiv_pos_as_xyz
  1  'x, y, z'
loop_
 _atom_site_type_symbol
 _atom_site_label
 _atom_site_symmetry_multiplicity
 _atom_site_fract_x
 _atom_site_fract_y
 _atom_site_fract_z
 _atom_site_occupancy
  Zr  Zr0  1  0.709270  0.287180  0.287181  1
  Zr  Zr1  1  0.290730  0.712820  0.712819  1
  Zr  Zr2  1  0.287180  0.709269  0.287182  1
  Zr  Zr3  1  0.712820  0.290731  0.712818  1
  Zr  Zr4  1  0.287180  0.287181  0.709269  1
  Zr  Zr5  1  0.712820  0.712819  0.290731  1
  Zn  Zn6  1  0.121275  0.121275  0.121275  1
  Zn  Zn7  1  0.878725  0.878725  0.878725  1
  Zn  Zn8  1  0.123647  0.123647  0.631221  1
  Zn  Zn9  1  0.123648  0.631221  0.123647  1
  Zn  Zn10  1  0.876353  0.876353  0.368779  1
  Zn  Zn11  1  0.876352  0.368779  0.876353  1
  Zn  Zn12  1  0.631221  0.123648  0.123647  1
  Zn  Zn13  1  0.368779  0.876352  0.876353  1
  Zn  Zn14  1  0.500000  0.000000  0.000000  1
  Zn  Zn15  1  0.000000  0.500000  0.000000  1
  Zn  Zn16  1  0.000000  0.000000  0.500000  1
  Zn  Zn17  1  0.336744  0.336744  0.336743  1
  Zn  Zn18  1  0.663256  0.663256  0.663257  1
  Zn  Zn19  1  0.336123  0.336123  0.987385  1
  Zn  Zn20  1  0.336123  0.987386  0.336123  1
  Zn  Zn21  1  0.663877  0.663877  0.012615  1
  Zn  Zn22  1  0.663877  0.012614  0.663877  1
  Zn  Zn23  1  0.987386  0.336123  0.336123  1
  Zn  Zn24  1  0.012614  0.663877  0.663877  1
  As  As25  1  0.500000  0.500000  0.500000  1
  Pt  Pt26  1  0.000000  0.500000  0.500000  1
  Pt  Pt27  1  0.500000  0.000000  0.500000  1
  Pt  Pt28  1  0.500000  0.500000  0.000000  1
  Pt  Pt29  1  0.000000  0.000000  0.000000  1
