# generated using pymatgen
data_Tb13Th3CdHg3Ir4
_symmetry_space_group_name_H-M   'P 1'
_cell_length_a   9.74200443
_cell_length_b   9.74034621
_cell_length_c   9.74034500
_cell_angle_alpha   60.00000071
_cell_angle_beta   60.00563117
_cell_angle_gamma   60.00563547
_symmetry_Int_Tables_number   1
_chemical_formula_structural   Tb13Th3CdHg3Ir4
_chemical_formula_sum   'Tb13 Th3 Cd1 Hg3 Ir4'
_cell_volume   653.61052117
_cell_formula_units_Z   1
loop_
 _symmetry_equiv_pos_site_id
 _symmetry_equiv_pos_as_xyz
  1  'x, y, z'
loop_
 _atom_site_type_symbol
 _atom_site_label
 _atom_site_symmetry_multiplicity
 _atom_site_fract_x
 _atom_site_fract_y
 _atom_site_fract_z
 _atom_site_occupancy
  Tb  Tb0  1  0.194447  0.601851  0.601851  1
  Tb  Tb1  1  0.060745  0.440136  0.440136  1
  Tb  Tb2  1  0.438289  0.062111  0.062111  1
  Tb  Tb3  1  0.438289  0.062111  0.437488  1
  Tb  Tb4  1  0.060745  0.440136  0.058984  1
  Tb  Tb5  1  0.438289  0.437488  0.062111  1
  Tb  Tb6  1  0.060745  0.058984  0.440136  1
  Tb  Tb7  1  0.185413  0.813581  0.813581  1
  Tb  Tb8  1  0.813980  0.185684  0.185684  1
  Tb  Tb9  1  0.813980  0.185684  0.814651  1
  Tb  Tb10  1  0.185413  0.813581  0.187426  1
  Tb  Tb11  1  0.813980  0.814651  0.185684  1
  Tb  Tb12  1  0.185413  0.187426  0.813581  1
  Th  Th13  1  0.598278  0.599932  0.599932  1
  Th  Th14  1  0.598278  0.599932  0.201859  1
  Th  Th15  1  0.598278  0.201859  0.599932  1
  Cd  Cd16  1  0.501482  0.832839  0.832839  1
  Hg  Hg17  1  0.837161  0.836137  0.836137  1
  Hg  Hg18  1  0.837161  0.836137  0.490566  1
  Hg  Hg19  1  0.837161  0.490566  0.836137  1
  Ir  Ir20  1  0.394064  0.392423  0.392423  1
  Ir  Ir21  1  0.394064  0.392423  0.821090  1
  Ir  Ir22  1  0.394064  0.821090  0.392423  1
  Ir  Ir23  1  0.820280  0.393240  0.393240  1
