# generated using pymatgen
data_Nd8Zr2Ir5Rh
_symmetry_space_group_name_H-M   'P 1'
_cell_length_a   11.18966400
_cell_length_b   11.18966400
_cell_length_c   6.39449100
_cell_angle_alpha   90.00000000
_cell_angle_beta   90.00000000
_cell_angle_gamma   90.00000000
_symmetry_Int_Tables_number   1
_chemical_formula_structural   Nd8Zr2Ir5Rh
_chemical_formula_sum   'Nd16 Zr4 Ir10 Rh2'
_cell_volume   800.64514070
_cell_formula_units_Z   2
loop_
 _symmetry_equiv_pos_site_id
 _symmetry_equiv_pos_as_xyz
  1  'x, y, z'
loop_
 _atom_site_type_symbol
 _atom_site_label
 _atom_site_symmetry_multiplicity
 _atom_site_fract_x
 _atom_site_fract_y
 _atom_site_fract_z
 _atom_site_occupancy
  Nd  Nd0  1  0.086883  0.287676  0.121010  1
  Nd  Nd1  1  0.787676  0.413117  0.121010  1
  Nd  Nd2  1  0.212324  0.586883  0.121010  1
  Nd  Nd3  1  0.913117  0.712324  0.121010  1
  Nd  Nd4  1  0.413117  0.787676  0.378990  1
  Nd  Nd5  1  0.586883  0.212324  0.378990  1
  Nd  Nd6  1  0.287676  0.086883  0.378990  1
  Nd  Nd7  1  0.712324  0.913117  0.378990  1
  Nd  Nd8  1  0.413092  0.212577  0.877990  1
  Nd  Nd9  1  0.712577  0.086908  0.877990  1
  Nd  Nd10  1  0.287423  0.913092  0.877990  1
  Nd  Nd11  1  0.586908  0.787423  0.877990  1
  Nd  Nd12  1  0.086908  0.712577  0.622010  1
  Nd  Nd13  1  0.913092  0.287423  0.622010  1
  Nd  Nd14  1  0.212577  0.413092  0.622010  1
  Nd  Nd15  1  0.787423  0.586908  0.622010  1
  Zr  Zr16  1  0.000000  0.000000  0.999841  1
  Zr  Zr17  1  0.500000  0.500000  0.999841  1
  Zr  Zr18  1  0.500000  0.500000  0.500159  1
  Zr  Zr19  1  0.000000  0.000000  0.500159  1
  Ir  Ir20  1  0.138965  0.861035  0.250000  1
  Ir  Ir21  1  0.361035  0.361035  0.250000  1
  Ir  Ir22  1  0.638965  0.638965  0.250000  1
  Ir  Ir23  1  0.861035  0.138965  0.250000  1
  Ir  Ir24  1  0.360946  0.639054  0.750000  1
  Ir  Ir25  1  0.139054  0.139054  0.750000  1
  Ir  Ir26  1  0.860946  0.860946  0.750000  1
  Ir  Ir27  1  0.639054  0.360946  0.750000  1
  Ir  Ir28  1  0.500000  0.000000  0.621174  1
  Ir  Ir29  1  0.000000  0.500000  0.878826  1
  Rh  Rh30  1  0.000000  0.500000  0.379612  1
  Rh  Rh31  1  0.500000  0.000000  0.120388  1
