# generated using pymatgen
data_Dy8Ta10TiSi16Rh
_symmetry_space_group_name_H-M   'P 1'
_cell_length_a   7.04061004
_cell_length_b   7.04005763
_cell_length_c   12.96106192
_cell_angle_alpha   89.80372159
_cell_angle_beta   90.26106966
_cell_angle_gamma   89.66852394
_symmetry_Int_Tables_number   1
_chemical_formula_structural   Dy8Ta10TiSi16Rh
_chemical_formula_sum   'Dy8 Ta10 Ti1 Si16 Rh1'
_cell_volume   642.41064049
_cell_formula_units_Z   1
loop_
 _symmetry_equiv_pos_site_id
 _symmetry_equiv_pos_as_xyz
  1  'x, y, z'
loop_
 _atom_site_type_symbol
 _atom_site_label
 _atom_site_symmetry_multiplicity
 _atom_site_fract_x
 _atom_site_fract_y
 _atom_site_fract_z
 _atom_site_occupancy
  Dy  Dy0  1  0.997234  0.658586  0.032156  1
  Dy  Dy1  1  0.001562  0.342970  0.532009  1
  Dy  Dy2  1  0.658999  0.997448  0.968294  1
  Dy  Dy3  1  0.158672  0.504808  0.780692  1
  Dy  Dy4  1  0.840736  0.497353  0.283255  1
  Dy  Dy5  1  0.504946  0.158146  0.219234  1
  Dy  Dy6  1  0.498324  0.842080  0.716324  1
  Dy  Dy7  1  0.342839  0.001768  0.468299  1
  Ta  Ta8  1  0.341935  0.504971  0.375796  1
  Ta  Ta9  1  0.850955  0.996018  0.375453  1
  Ta  Ta10  1  0.007762  0.152062  0.125744  1
  Ta  Ta11  1  0.995614  0.851924  0.624730  1
  Ta  Ta12  1  0.505921  0.342784  0.624640  1
  Ta  Ta13  1  0.151365  0.006169  0.874024  1
  Ta  Ta14  1  0.826099  0.171640  0.747543  1
  Ta  Ta15  1  0.171581  0.825920  0.251923  1
  Ta  Ta16  1  0.327681  0.328091  0.000347  1
  Ta  Ta17  1  0.494528  0.651422  0.125423  1
  Ti  Ti18  1  0.653065  0.493989  0.874483  1
  Si  Si19  1  0.046877  0.709272  0.438353  1
  Si  Si20  1  0.953298  0.295702  0.934555  1
  Si  Si21  1  0.709158  0.047168  0.561587  1
  Si  Si22  1  0.205582  0.454386  0.186384  1
  Si  Si23  1  0.790161  0.551402  0.683554  1
  Si  Si24  1  0.455125  0.208204  0.814517  1
  Si  Si25  1  0.550787  0.790883  0.316937  1
  Si  Si26  1  0.294451  0.953926  0.064371  1
  Si  Si27  1  0.796419  0.864854  0.183175  1
  Si  Si28  1  0.296080  0.630912  0.567409  1
  Si  Si29  1  0.703177  0.365563  0.066943  1
  Si  Si30  1  0.630823  0.296583  0.432736  1
  Si  Si31  1  0.367351  0.702885  0.932513  1
  Si  Si32  1  0.134244  0.203980  0.317552  1
  Si  Si33  1  0.204857  0.134375  0.682786  1
  Si  Si34  1  0.863672  0.796521  0.816818  1
  Rh  Rh35  1  0.668121  0.665236  0.499442  1
