# generated using pymatgen
data_Y7Cd(Co3Sn11)2
_symmetry_space_group_name_H-M   'P 1'
_cell_length_a   9.68890200
_cell_length_b   9.68890313
_cell_length_c   10.01999200
_cell_angle_alpha   90.00000000
_cell_angle_beta   90.00000000
_cell_angle_gamma   120.00000295
_symmetry_Int_Tables_number   1
_chemical_formula_structural   Y7Cd(Co3Sn11)2
_chemical_formula_sum   'Y7 Cd1 Co6 Sn22'
_cell_volume   814.60518639
_cell_formula_units_Z   1
loop_
 _symmetry_equiv_pos_site_id
 _symmetry_equiv_pos_as_xyz
  1  'x, y, z'
loop_
 _atom_site_type_symbol
 _atom_site_label
 _atom_site_symmetry_multiplicity
 _atom_site_fract_x
 _atom_site_fract_y
 _atom_site_fract_z
 _atom_site_occupancy
  Y  Y0  1  0.000000  0.000000  0.000000  1
  Y  Y1  1  0.043695  0.521848  0.306108  1
  Y  Y2  1  0.478152  0.956305  0.306108  1
  Y  Y3  1  0.478152  0.521848  0.306108  1
  Y  Y4  1  0.956305  0.478152  0.693892  1
  Y  Y5  1  0.521848  0.043695  0.693892  1
  Y  Y6  1  0.521848  0.478152  0.693892  1
  Cd  Cd7  1  0.000000  0.000000  0.500000  1
  Co  Co8  1  0.167378  0.832622  0.803290  1
  Co  Co9  1  0.665244  0.832622  0.803290  1
  Co  Co10  1  0.167378  0.334756  0.803290  1
  Co  Co11  1  0.832622  0.167378  0.196710  1
  Co  Co12  1  0.334756  0.167378  0.196710  1
  Co  Co13  1  0.832622  0.665244  0.196710  1
  Sn  Sn14  1  0.116302  0.883698  0.272081  1
  Sn  Sn15  1  0.767396  0.883698  0.272081  1
  Sn  Sn16  1  0.116302  0.232604  0.272081  1
  Sn  Sn17  1  0.883698  0.116302  0.727919  1
  Sn  Sn18  1  0.232604  0.116302  0.727919  1
  Sn  Sn19  1  0.883698  0.767396  0.727919  1
  Sn  Sn20  1  0.345647  0.000000  0.000000  1
  Sn  Sn21  1  0.654353  0.654353  0.000000  1
  Sn  Sn22  1  0.000000  0.345647  0.000000  1
  Sn  Sn23  1  0.345647  0.345647  0.000000  1
  Sn  Sn24  1  0.000000  0.654353  0.000000  1
  Sn  Sn25  1  0.654353  0.000000  0.000000  1
  Sn  Sn26  1  0.781776  0.563553  0.451855  1
  Sn  Sn27  1  0.781776  0.218224  0.451855  1
  Sn  Sn28  1  0.436447  0.218224  0.451855  1
  Sn  Sn29  1  0.218224  0.436447  0.548145  1
  Sn  Sn30  1  0.218224  0.781776  0.548145  1
  Sn  Sn31  1  0.563553  0.781776  0.548145  1
  Sn  Sn32  1  0.666667  0.333333  0.181977  1
  Sn  Sn33  1  0.333333  0.666667  0.818023  1
  Sn  Sn34  1  0.666667  0.333333  0.883904  1
  Sn  Sn35  1  0.333333  0.666667  0.116096  1
