# generated using pymatgen
data_Tm2NbB2Ru5
_symmetry_space_group_name_H-M   'P 1'
_cell_length_a   9.63303500
_cell_length_b   9.63303500
_cell_length_c   3.11731700
_cell_angle_alpha   90.00000000
_cell_angle_beta   90.00000000
_cell_angle_gamma   90.00000000
_symmetry_Int_Tables_number   1
_chemical_formula_structural   Tm2NbB2Ru5
_chemical_formula_sum   'Tm4 Nb2 B4 Ru10'
_cell_volume   289.27256357
_cell_formula_units_Z   2
loop_
 _symmetry_equiv_pos_site_id
 _symmetry_equiv_pos_as_xyz
  1  'x, y, z'
loop_
 _atom_site_type_symbol
 _atom_site_label
 _atom_site_symmetry_multiplicity
 _atom_site_fract_x
 _atom_site_fract_y
 _atom_site_fract_z
 _atom_site_occupancy
  Tm  Tm0  1  0.825085  0.674915  0.000000  1
  Tm  Tm1  1  0.174915  0.325085  0.000000  1
  Tm  Tm2  1  0.325085  0.825085  0.000000  1
  Tm  Tm3  1  0.674915  0.174915  0.000000  1
  Nb  Nb4  1  0.500000  0.500000  0.000000  1
  Nb  Nb5  1  0.000000  0.000000  0.000000  1
  B  B6  1  0.620304  0.879696  0.000000  1
  B  B7  1  0.379696  0.120304  0.000000  1
  B  B8  1  0.120304  0.620304  0.000000  1
  B  B9  1  0.879696  0.379696  0.000000  1
  Ru  Ru10  1  0.571017  0.718226  0.500000  1
  Ru  Ru11  1  0.428983  0.281774  0.500000  1
  Ru  Ru12  1  0.071017  0.781774  0.500000  1
  Ru  Ru13  1  0.928983  0.218226  0.500000  1
  Ru  Ru14  1  0.281774  0.571017  0.500000  1
  Ru  Ru15  1  0.718226  0.428983  0.500000  1
  Ru  Ru16  1  0.218226  0.071017  0.500000  1
  Ru  Ru17  1  0.781774  0.928983  0.500000  1
  Ru  Ru18  1  0.500000  0.000000  0.500000  1
  Ru  Ru19  1  0.000000  0.500000  0.500000  1
