# generated using pymatgen
data_ReTc3S8
_symmetry_space_group_name_H-M   'P 1'
_cell_length_a   6.41074961
_cell_length_b   6.51482558
_cell_length_c   7.54244539
_cell_angle_alpha   66.84266796
_cell_angle_beta   77.80517171
_cell_angle_gamma   61.16176436
_symmetry_Int_Tables_number   1
_chemical_formula_structural   ReTc3S8
_chemical_formula_sum   'Re1 Tc3 S8'
_cell_volume   253.61960386
_cell_formula_units_Z   1
loop_
 _symmetry_equiv_pos_site_id
 _symmetry_equiv_pos_as_xyz
  1  'x, y, z'
loop_
 _atom_site_type_symbol
 _atom_site_label
 _atom_site_symmetry_multiplicity
 _atom_site_fract_x
 _atom_site_fract_y
 _atom_site_fract_z
 _atom_site_occupancy
  Re  Re0  1  0.510891  0.285885  0.502064  1
  Tc  Tc1  1  0.488535  0.714989  0.498155  1
  Tc  Tc2  1  0.938496  0.309512  0.507477  1
  Tc  Tc3  1  0.061642  0.691318  0.492062  1
  S  S4  1  0.322184  0.170532  0.329409  1
  S  S5  1  0.677620  0.829841  0.671015  1
  S  S6  1  0.858658  0.151520  0.305984  1
  S  S7  1  0.140700  0.848658  0.693174  1
  S  S8  1  0.363349  0.668950  0.249803  1
  S  S9  1  0.637098  0.329948  0.750314  1
  S  S10  1  0.825198  0.700952  0.275096  1
  S  S11  1  0.175628  0.297896  0.725448  1
