# generated using pymatgen
data_PrTh(Ga3Pd)2
_symmetry_space_group_name_H-M   'P 1'
_cell_length_a   6.06403665
_cell_length_b   6.06403678
_cell_length_c   6.00603900
_cell_angle_alpha   90.00000000
_cell_angle_beta   90.00000000
_cell_angle_gamma   116.79288129
_symmetry_Int_Tables_number   1
_chemical_formula_structural   PrTh(Ga3Pd)2
_chemical_formula_sum   'Pr1 Th1 Ga6 Pd2'
_cell_volume   197.14647969
_cell_formula_units_Z   1
loop_
 _symmetry_equiv_pos_site_id
 _symmetry_equiv_pos_as_xyz
  1  'x, y, z'
loop_
 _atom_site_type_symbol
 _atom_site_label
 _atom_site_symmetry_multiplicity
 _atom_site_fract_x
 _atom_site_fract_y
 _atom_site_fract_z
 _atom_site_occupancy
  Pr  Pr0  1  0.237672  0.762328  0.750000  1
  Th  Th1  1  0.762353  0.237647  0.250000  1
  Ga  Ga2  1  0.663948  0.336052  0.750000  1
  Ga  Ga3  1  0.335418  0.664582  0.250000  1
  Ga  Ga4  1  0.718613  0.717955  0.001624  1
  Ga  Ga5  1  0.718613  0.717955  0.498376  1
  Ga  Ga6  1  0.282045  0.281387  0.001624  1
  Ga  Ga7  1  0.282045  0.281387  0.498376  1
  Pd  Pd8  1  0.903143  0.096857  0.750000  1
  Pd  Pd9  1  0.096147  0.903853  0.250000  1
