# generated using pymatgen
data_Ta12AlGa7(IrC)4
_symmetry_space_group_name_H-M   'P 1'
_cell_length_a   8.31965446
_cell_length_b   8.31965509
_cell_length_c   8.31965426
_cell_angle_alpha   60.02355521
_cell_angle_beta   60.02355371
_cell_angle_gamma   60.02355010
_symmetry_Int_Tables_number   1
_chemical_formula_structural   Ta12AlGa7(IrC)4
_chemical_formula_sum   'Ta12 Al1 Ga7 Ir4 C4'
_cell_volume   407.41096333
_cell_formula_units_Z   1
loop_
 _symmetry_equiv_pos_site_id
 _symmetry_equiv_pos_as_xyz
  1  'x, y, z'
loop_
 _atom_site_type_symbol
 _atom_site_label
 _atom_site_symmetry_multiplicity
 _atom_site_fract_x
 _atom_site_fract_y
 _atom_site_fract_z
 _atom_site_occupancy
  Ta  Ta0  1  0.563918  0.936421  0.563918  1
  Ta  Ta1  1  0.313530  0.686618  0.686618  1
  Ta  Ta2  1  0.684973  0.314272  0.314272  1
  Ta  Ta3  1  0.314272  0.684973  0.314272  1
  Ta  Ta4  1  0.686618  0.686618  0.313530  1
  Ta  Ta5  1  0.314272  0.314272  0.684973  1
  Ta  Ta6  1  0.563918  0.563918  0.936421  1
  Ta  Ta7  1  0.936421  0.563918  0.563918  1
  Ta  Ta8  1  0.562899  0.936535  0.936535  1
  Ta  Ta9  1  0.936535  0.936535  0.562899  1
  Ta  Ta10  1  0.686618  0.313530  0.686618  1
  Ta  Ta11  1  0.936535  0.562899  0.936535  1
  Al  Al12  1  0.332776  0.332776  0.332776  1
  Ga  Ga13  1  0.913932  0.913932  0.913932  1
  Ga  Ga14  1  0.992331  0.335988  0.335988  1
  Ga  Ga15  1  0.335988  0.992331  0.335988  1
  Ga  Ga16  1  0.335988  0.335988  0.992331  1
  Ga  Ga17  1  0.914215  0.257455  0.914215  1
  Ga  Ga18  1  0.914215  0.914215  0.257455  1
  Ga  Ga19  1  0.257455  0.914215  0.914215  1
  Ir  Ir20  1  0.124955  0.124955  0.124955  1
  Ir  Ir21  1  0.624233  0.126453  0.126453  1
  Ir  Ir22  1  0.126453  0.624233  0.126453  1
  Ir  Ir23  1  0.126453  0.126453  0.624233  1
  C  C24  1  0.624977  0.624977  0.624977  1
  C  C25  1  0.124947  0.625286  0.625286  1
  C  C26  1  0.625286  0.124947  0.625286  1
  C  C27  1  0.625286  0.625286  0.124947  1
