# generated using pymatgen
data_Li2La6Pr3Nd7(CdIr2)2
_symmetry_space_group_name_H-M   'P 1'
_cell_length_a   9.99052990
_cell_length_b   10.04031525
_cell_length_c   10.05319300
_cell_angle_alpha   59.63083011
_cell_angle_beta   60.29021908
_cell_angle_gamma   60.24878195
_symmetry_Int_Tables_number   1
_chemical_formula_structural   Li2La6Pr3Nd7(CdIr2)2
_chemical_formula_sum   'Li2 La6 Pr3 Nd7 Cd2 Ir4'
_cell_volume   713.91396714
_cell_formula_units_Z   1
loop_
 _symmetry_equiv_pos_site_id
 _symmetry_equiv_pos_as_xyz
  1  'x, y, z'
loop_
 _atom_site_type_symbol
 _atom_site_label
 _atom_site_symmetry_multiplicity
 _atom_site_fract_x
 _atom_site_fract_y
 _atom_site_fract_z
 _atom_site_occupancy
  Li  Li0  1  0.577383  0.575708  0.578245  1
  Li  Li1  1  0.575697  0.577434  0.268365  1
  La  La2  1  0.345062  0.348786  0.349344  1
  La  La3  1  0.348520  0.345261  0.956715  1
  La  La4  1  0.347759  0.958486  0.344910  1
  La  La5  1  0.958744  0.347916  0.349050  1
  La  La6  1  0.814212  0.185544  0.186330  1
  La  La7  1  0.185707  0.814524  0.813831  1
  Pr  Pr8  1  0.939062  0.561666  0.936420  1
  Pr  Pr9  1  0.563107  0.563690  0.936317  1
  Pr  Pr10  1  0.937243  0.937553  0.562347  1
  Nd  Nd11  1  0.188074  0.811051  0.190127  1
  Nd  Nd12  1  0.810480  0.188793  0.809885  1
  Nd  Nd13  1  0.191716  0.191370  0.808440  1
  Nd  Nd14  1  0.813424  0.813783  0.186283  1
  Nd  Nd15  1  0.937022  0.564202  0.564872  1
  Nd  Nd16  1  0.563611  0.937019  0.933658  1
  Nd  Nd17  1  0.561993  0.939234  0.562727  1
  Cd  Cd18  1  0.580170  0.259022  0.581703  1
  Cd  Cd19  1  0.258908  0.580127  0.579268  1
  Ir  Ir20  1  0.137485  0.143288  0.143935  1
  Ir  Ir21  1  0.145237  0.136458  0.575187  1
  Ir  Ir22  1  0.143797  0.575884  0.137392  1
  Ir  Ir23  1  0.575585  0.143197  0.144646  1
