# generated using pymatgen
data_Nd8Co(Si4Au)3
_symmetry_space_group_name_H-M   'P 1'
_cell_length_a   8.24420600
_cell_length_b   8.24423133
_cell_length_c   8.60386000
_cell_angle_alpha   90.00005697
_cell_angle_beta   89.99981700
_cell_angle_gamma   120.00012885
_symmetry_Int_Tables_number   1
_chemical_formula_structural   Nd8Co(Si4Au)3
_chemical_formula_sum   'Nd8 Co1 Si12 Au3'
_cell_volume   506.43347843
_cell_formula_units_Z   1
loop_
 _symmetry_equiv_pos_site_id
 _symmetry_equiv_pos_as_xyz
  1  'x, y, z'
loop_
 _atom_site_type_symbol
 _atom_site_label
 _atom_site_symmetry_multiplicity
 _atom_site_fract_x
 _atom_site_fract_y
 _atom_site_fract_z
 _atom_site_occupancy
  Nd  Nd0  1  0.000000  0.000000  0.751852  1
  Nd  Nd1  1  0.000000  0.000000  0.248131  1
  Nd  Nd2  1  0.496168  0.503830  0.755671  1
  Nd  Nd3  1  0.496170  0.992338  0.755672  1
  Nd  Nd4  1  0.007658  0.503828  0.755675  1
  Nd  Nd5  1  0.497468  0.502532  0.244303  1
  Nd  Nd6  1  0.005066  0.502534  0.244303  1
  Nd  Nd7  1  0.497466  0.994936  0.244303  1
  Co  Co8  1  0.333332  0.666667  0.001263  1
  Si  Si9  1  0.839161  0.160839  0.999366  1
  Si  Si10  1  0.839160  0.678322  0.999366  1
  Si  Si11  1  0.321679  0.160840  0.999366  1
  Si  Si12  1  0.836124  0.163876  0.500610  1
  Si  Si13  1  0.836124  0.672247  0.500610  1
  Si  Si14  1  0.327753  0.163876  0.500610  1
  Si  Si15  1  0.163227  0.836774  0.499419  1
  Si  Si16  1  0.673547  0.836774  0.499419  1
  Si  Si17  1  0.163227  0.326453  0.499419  1
  Si  Si18  1  0.174374  0.825627  0.000976  1
  Si  Si19  1  0.651252  0.825626  0.000976  1
  Si  Si20  1  0.174374  0.348748  0.000977  1
  Au  Au21  1  0.666667  0.333334  0.997690  1
  Au  Au22  1  0.666667  0.333334  0.502219  1
  Au  Au23  1  0.333334  0.666666  0.497802  1
