# generated using pymatgen
data_Tb4Fe2Co5Ni13P12
_symmetry_space_group_name_H-M   'P 1'
_cell_length_a   3.70301600
_cell_length_b   10.33497662
_cell_length_c   11.84912611
_cell_angle_alpha   90.01177831
_cell_angle_beta   90.00000000
_cell_angle_gamma   90.00000000
_symmetry_Int_Tables_number   1
_chemical_formula_structural   Tb4Fe2Co5Ni13P12
_chemical_formula_sum   'Tb4 Fe2 Co5 Ni13 P12'
_cell_volume   453.47296430
_cell_formula_units_Z   1
loop_
 _symmetry_equiv_pos_site_id
 _symmetry_equiv_pos_as_xyz
  1  'x, y, z'
loop_
 _atom_site_type_symbol
 _atom_site_label
 _atom_site_symmetry_multiplicity
 _atom_site_fract_x
 _atom_site_fract_y
 _atom_site_fract_z
 _atom_site_occupancy
  Tb  Tb0  1  0.250000  0.578015  0.703702  1
  Tb  Tb1  1  0.250000  0.921030  0.203634  1
  Tb  Tb2  1  0.750000  0.420047  0.295707  1
  Tb  Tb3  1  0.750000  0.080089  0.795934  1
  Fe  Fe4  1  0.250000  0.465171  0.933524  1
  Fe  Fe5  1  0.250000  0.035286  0.432768  1
  Co  Co6  1  0.250000  0.623171  0.199841  1
  Co  Co7  1  0.750000  0.124653  0.299613  1
  Co  Co8  1  0.750000  0.376249  0.799728  1
  Co  Co9  1  0.750000  0.536532  0.068130  1
  Co  Co10  1  0.750000  0.963732  0.567940  1
  Ni  Ni11  1  0.250000  0.714704  0.994757  1
  Ni  Ni12  1  0.250000  0.783651  0.495567  1
  Ni  Ni13  1  0.750000  0.289435  0.008516  1
  Ni  Ni14  1  0.750000  0.210365  0.509457  1
  Ni  Ni15  1  0.250000  0.407440  0.485757  1
  Ni  Ni16  1  0.250000  0.092519  0.986752  1
  Ni  Ni17  1  0.750000  0.590294  0.512329  1
  Ni  Ni18  1  0.750000  0.908379  0.012966  1
  Ni  Ni19  1  0.250000  0.226729  0.173633  1
  Ni  Ni20  1  0.250000  0.274565  0.674310  1
  Ni  Ni21  1  0.750000  0.772717  0.823925  1
  Ni  Ni22  1  0.750000  0.726191  0.325333  1
  Ni  Ni23  1  0.250000  0.877128  0.700474  1
  P  P24  1  0.250000  0.428818  0.112754  1
  P  P25  1  0.250000  0.073972  0.611606  1
  P  P26  1  0.750000  0.571155  0.886303  1
  P  P27  1  0.750000  0.929248  0.386068  1
  P  P28  1  0.250000  0.271558  0.866767  1
  P  P29  1  0.250000  0.228556  0.365518  1
  P  P30  1  0.750000  0.730032  0.133875  1
  P  P31  1  0.750000  0.767736  0.631222  1
  P  P32  1  0.250000  0.604885  0.389700  1
  P  P33  1  0.250000  0.895801  0.893206  1
  P  P34  1  0.750000  0.393814  0.609368  1
  P  P35  1  0.750000  0.106333  0.109316  1
