# generated using pymatgen
data_Er3Tl3IrAu
_symmetry_space_group_name_H-M   'P 1'
_cell_length_a   7.79516000
_cell_length_b   7.79516036
_cell_length_c   3.56437700
_cell_angle_alpha   90.00000000
_cell_angle_beta   90.00000000
_cell_angle_gamma   119.99999848
_symmetry_Int_Tables_number   1
_chemical_formula_structural   Er3Tl3IrAu
_chemical_formula_sum   'Er3 Tl3 Ir1 Au1'
_cell_volume   187.57042326
_cell_formula_units_Z   1
loop_
 _symmetry_equiv_pos_site_id
 _symmetry_equiv_pos_as_xyz
  1  'x, y, z'
loop_
 _atom_site_type_symbol
 _atom_site_label
 _atom_site_symmetry_multiplicity
 _atom_site_fract_x
 _atom_site_fract_y
 _atom_site_fract_z
 _atom_site_occupancy
  Er  Er0  1  0.570078  0.981169  0.500000  1
  Er  Er1  1  0.411091  0.429923  0.500000  1
  Er  Er2  1  0.018831  0.588910  0.500000  1
  Tl  Tl3  1  0.230175  0.998132  0.000000  1
  Tl  Tl4  1  0.001868  0.232043  0.000000  1
  Tl  Tl5  1  0.767957  0.769826  0.000000  1
  Ir  Ir6  1  0.333333  0.666666  0.000000  1
  Au  Au7  1  0.666667  0.333333  0.000000  1
