# generated using pymatgen
data_Cs4ScMoCl12
_symmetry_space_group_name_H-M   'P 1'
_cell_length_a   7.50122184
_cell_length_b   7.53592139
_cell_length_c   10.61129500
_cell_angle_alpha   90.00000000
_cell_angle_beta   90.00000000
_cell_angle_gamma   89.59217354
_symmetry_Int_Tables_number   1
_chemical_formula_structural   Cs4ScMoCl12
_chemical_formula_sum   'Cs4 Sc1 Mo1 Cl12'
_cell_volume   599.82664751
_cell_formula_units_Z   1
loop_
 _symmetry_equiv_pos_site_id
 _symmetry_equiv_pos_as_xyz
  1  'x, y, z'
loop_
 _atom_site_type_symbol
 _atom_site_label
 _atom_site_symmetry_multiplicity
 _atom_site_fract_x
 _atom_site_fract_y
 _atom_site_fract_z
 _atom_site_occupancy
  Cs  Cs0  1  0.500000  0.000000  0.773594  1
  Cs  Cs1  1  0.000000  0.500000  0.226339  1
  Cs  Cs2  1  0.500000  0.000000  0.226406  1
  Cs  Cs3  1  0.000000  0.500000  0.773661  1
  Sc  Sc4  1  0.000000  0.000000  0.000000  1
  Mo  Mo5  1  0.500000  0.500000  0.500000  1
  Cl  Cl6  1  0.000000  0.000000  0.762091  1
  Cl  Cl7  1  0.500000  0.500000  0.278480  1
  Cl  Cl8  1  0.721409  0.721197  0.500000  1
  Cl  Cl9  1  0.235821  0.235582  0.000000  1
  Cl  Cl10  1  0.722328  0.277840  0.500000  1
  Cl  Cl11  1  0.236682  0.763561  0.000000  1
  Cl  Cl12  1  0.000000  0.000000  0.237909  1
  Cl  Cl13  1  0.500000  0.500000  0.721520  1
  Cl  Cl14  1  0.278591  0.278803  0.500000  1
  Cl  Cl15  1  0.764179  0.764418  0.000000  1
  Cl  Cl16  1  0.277672  0.722160  0.500000  1
  Cl  Cl17  1  0.763318  0.236439  0.000000  1
