# generated using pymatgen
data_Hf6Ti3Al13FePt6
_symmetry_space_group_name_H-M   'P 1'
_cell_length_a   8.77870783
_cell_length_b   8.76330435
_cell_length_c   8.76330530
_cell_angle_alpha   59.93772873
_cell_angle_beta   59.82978424
_cell_angle_gamma   59.82979191
_symmetry_Int_Tables_number   1
_chemical_formula_structural   Hf6Ti3Al13FePt6
_chemical_formula_sum   'Hf6 Ti3 Al13 Fe1 Pt6'
_cell_volume   475.25375098
_cell_formula_units_Z   1
loop_
 _symmetry_equiv_pos_site_id
 _symmetry_equiv_pos_as_xyz
  1  'x, y, z'
loop_
 _atom_site_type_symbol
 _atom_site_label
 _atom_site_symmetry_multiplicity
 _atom_site_fract_x
 _atom_site_fract_y
 _atom_site_fract_z
 _atom_site_occupancy
  Hf  Hf0  1  0.683949  0.680699  0.317559  1
  Hf  Hf1  1  0.315559  0.680884  0.317727  1
  Hf  Hf2  1  0.684718  0.314461  0.314461  1
  Hf  Hf3  1  0.315559  0.317727  0.680884  1
  Hf  Hf4  1  0.683949  0.317559  0.680699  1
  Hf  Hf5  1  0.313606  0.684740  0.684740  1
  Ti  Ti6  1  0.885221  0.864435  0.363924  1
  Ti  Ti7  1  0.885221  0.363924  0.864435  1
  Ti  Ti8  1  0.361317  0.878336  0.878336  1
  Al  Al9  1  0.883916  0.880523  0.880523  1
  Al  Al10  1  0.115966  0.131059  0.637971  1
  Al  Al11  1  0.115966  0.637971  0.131059  1
  Al  Al12  1  0.640908  0.121874  0.121874  1
  Al  Al13  1  0.117210  0.123127  0.123127  1
  Al  Al14  1  0.664940  0.662488  0.008486  1
  Al  Al15  1  0.664940  0.008486  0.662488  1
  Al  Al16  1  0.009464  0.659765  0.659765  1
  Al  Al17  1  0.668901  0.658523  0.658523  1
  Al  Al18  1  0.336415  0.336628  0.991296  1
  Al  Al19  1  0.336415  0.991296  0.336628  1
  Al  Al20  1  0.991949  0.341265  0.341265  1
  Al  Al21  1  0.325603  0.340805  0.340805  1
  Fe  Fe22  1  0.994411  0.504762  0.504762  1
  Pt  Pt23  1  0.003714  0.001820  0.001820  1
  Pt  Pt24  1  0.999353  0.998389  0.500572  1
  Pt  Pt25  1  0.500342  0.998409  0.500958  1
  Pt  Pt26  1  0.500342  0.500958  0.998409  1
  Pt  Pt27  1  0.999353  0.500572  0.998389  1
  Pt  Pt28  1  0.500794  0.998512  0.998512  1
