# generated using pymatgen
data_La5Os2
_symmetry_space_group_name_H-M   'P 1'
_cell_length_a   9.04137242
_cell_length_b   9.04137242
_cell_length_c   7.45849968
_cell_angle_alpha   84.69023935
_cell_angle_beta   84.69024009
_cell_angle_gamma   43.97282880
_symmetry_Int_Tables_number   1
_chemical_formula_structural   La5Os2
_chemical_formula_sum   'La10 Os4'
_cell_volume   421.21568068
_cell_formula_units_Z   2
loop_
 _symmetry_equiv_pos_site_id
 _symmetry_equiv_pos_as_xyz
  1  'x, y, z'
loop_
 _atom_site_type_symbol
 _atom_site_label
 _atom_site_symmetry_multiplicity
 _atom_site_fract_x
 _atom_site_fract_y
 _atom_site_fract_z
 _atom_site_occupancy
  La  La0  1  0.017986  0.798167  0.907462  1
  La  La1  1  0.201833  0.982014  0.592538  1
  La  La2  1  0.982014  0.201833  0.092538  1
  La  La3  1  0.798167  0.017986  0.407462  1
  La  La4  1  0.361129  0.208311  0.818083  1
  La  La5  1  0.791689  0.638871  0.681917  1
  La  La6  1  0.638871  0.791689  0.181917  1
  La  La7  1  0.208311  0.361129  0.318083  1
  La  La8  1  0.575366  0.424634  0.750000  1
  La  La9  1  0.424634  0.575366  0.250000  1
  Os  Os10  1  0.176083  0.602331  0.577281  1
  Os  Os11  1  0.397669  0.823917  0.922719  1
  Os  Os12  1  0.823917  0.397669  0.422719  1
  Os  Os13  1  0.602331  0.176083  0.077281  1
