# generated using pymatgen
data_Mg4Zn6CoIr
_symmetry_space_group_name_H-M   'P 1'
_cell_length_a   5.11004477
_cell_length_b   5.19322980
_cell_length_c   8.30263500
_cell_angle_alpha   90.00000000
_cell_angle_beta   90.00000000
_cell_angle_gamma   119.78051486
_symmetry_Int_Tables_number   1
_chemical_formula_structural   Mg4Zn6CoIr
_chemical_formula_sum   'Mg4 Zn6 Co1 Ir1'
_cell_volume   191.23399622
_cell_formula_units_Z   1
loop_
 _symmetry_equiv_pos_site_id
 _symmetry_equiv_pos_as_xyz
  1  'x, y, z'
loop_
 _atom_site_type_symbol
 _atom_site_label
 _atom_site_symmetry_multiplicity
 _atom_site_fract_x
 _atom_site_fract_y
 _atom_site_fract_z
 _atom_site_occupancy
  Mg  Mg0  1  0.323997  0.652669  0.066887  1
  Mg  Mg1  1  0.674240  0.331613  0.567322  1
  Mg  Mg2  1  0.674240  0.331613  0.932678  1
  Mg  Mg3  1  0.323997  0.652669  0.433113  1
  Zn  Zn4  1  0.993592  0.023909  0.007159  1
  Zn  Zn5  1  0.993592  0.023909  0.492841  1
  Zn  Zn6  1  0.347648  0.160112  0.250000  1
  Zn  Zn7  1  0.664216  0.827320  0.750000  1
  Zn  Zn8  1  0.170070  0.832629  0.750000  1
  Zn  Zn9  1  0.832563  0.655882  0.250000  1
  Co  Co10  1  0.823747  0.164205  0.250000  1
  Ir  Ir11  1  0.178098  0.343470  0.750000  1
