# generated using pymatgen
data_Pr2Al6CuHg
_symmetry_space_group_name_H-M   'P 1'
_cell_length_a   4.28741100
_cell_length_b   4.28741100
_cell_length_c   11.17065700
_cell_angle_alpha   90.00000000
_cell_angle_beta   90.00000000
_cell_angle_gamma   90.00000000
_symmetry_Int_Tables_number   1
_chemical_formula_structural   Pr2Al6CuHg
_chemical_formula_sum   'Pr2 Al6 Cu1 Hg1'
_cell_volume   205.33782264
_cell_formula_units_Z   1
loop_
 _symmetry_equiv_pos_site_id
 _symmetry_equiv_pos_as_xyz
  1  'x, y, z'
loop_
 _atom_site_type_symbol
 _atom_site_label
 _atom_site_symmetry_multiplicity
 _atom_site_fract_x
 _atom_site_fract_y
 _atom_site_fract_z
 _atom_site_occupancy
  Pr  Pr0  1  0.000000  0.000000  0.002007  1
  Pr  Pr1  1  0.500000  0.500000  0.482285  1
  Al  Al2  1  0.000000  0.500000  0.235808  1
  Al  Al3  1  0.500000  0.000000  0.761022  1
  Al  Al4  1  0.500000  0.000000  0.235808  1
  Al  Al5  1  0.000000  0.500000  0.761022  1
  Al  Al6  1  0.000000  0.000000  0.379616  1
  Al  Al7  1  0.500000  0.500000  0.907676  1
  Cu  Cu8  1  0.500000  0.500000  0.122588  1
  Hg  Hg9  1  0.000000  0.000000  0.612169  1
