# generated using pymatgen
data_Ni4Sb3W5O24
_symmetry_space_group_name_H-M   'P 1'
_cell_length_a   4.68315300
_cell_length_b   10.59967115
_cell_length_c   9.36786300
_cell_angle_alpha   63.77713711
_cell_angle_beta   89.99790806
_cell_angle_gamma   89.99817961
_symmetry_Int_Tables_number   1
_chemical_formula_structural   Ni4Sb3W5O24
_chemical_formula_sum   'Ni4 Sb3 W5 O24'
_cell_volume   417.16078021
_cell_formula_units_Z   1
loop_
 _symmetry_equiv_pos_site_id
 _symmetry_equiv_pos_as_xyz
  1  'x, y, z'
loop_
 _atom_site_type_symbol
 _atom_site_label
 _atom_site_symmetry_multiplicity
 _atom_site_fract_x
 _atom_site_fract_y
 _atom_site_fract_z
 _atom_site_occupancy
  Ni  Ni0  1  0.499964  0.499423  0.000306  1
  Ni  Ni1  1  0.999129  0.998974  0.499961  1
  Ni  Ni2  1  0.500039  0.500412  0.499774  1
  Ni  Ni3  1  0.001026  0.998848  0.001222  1
  Sb  Sb4  1  0.499964  0.832640  0.333707  1
  Sb  Sb5  1  0.999687  0.332616  0.333293  1
  Sb  Sb6  1  0.000367  0.332623  0.834153  1
  W  W7  1  0.500013  0.164920  0.167542  1
  W  W8  1  0.500020  0.167815  0.666108  1
  W  W9  1  0.005138  0.663686  0.168035  1
  W  W10  1  0.994822  0.663693  0.668253  1
  W  W11  1  0.499972  0.836717  0.831629  1
  O  O12  1  0.191748  0.499393  0.844954  1
  O  O13  1  0.190359  0.499200  0.346739  1
  O  O14  1  0.808266  0.499355  0.155665  1
  O  O15  1  0.809680  0.499182  0.654053  1
  O  O16  1  0.309801  0.999886  0.345997  1
  O  O17  1  0.307919  0.001880  0.844313  1
  O  O18  1  0.690158  0.999854  0.154127  1
  O  O19  1  0.692058  0.001863  0.653798  1
  O  O20  1  0.201365  0.171940  0.015007  1
  O  O21  1  0.201872  0.172007  0.514540  1
  O  O22  1  0.798654  0.171945  0.313030  1
  O  O23  1  0.798179  0.172016  0.813434  1
  O  O24  1  0.293960  0.671754  0.015800  1
  O  O25  1  0.299192  0.673470  0.515177  1
  O  O26  1  0.705975  0.671742  0.812415  1
  O  O27  1  0.700788  0.673480  0.311335  1
  O  O28  1  0.793694  0.826240  0.984114  1
  O  O29  1  0.802698  0.829228  0.486255  1
  O  O30  1  0.206243  0.826264  0.689604  1
  O  O31  1  0.197282  0.829212  0.184524  1
  O  O32  1  0.697863  0.328718  0.986618  1
  O  O33  1  0.698781  0.330144  0.485651  1
  O  O34  1  0.302110  0.328712  0.184659  1
  O  O35  1  0.301214  0.330145  0.684210  1
