# generated using pymatgen
data_Hf3Sc4TaRu8
_symmetry_space_group_name_H-M   'P 1'
_cell_length_a   6.40744200
_cell_length_b   4.55379900
_cell_length_c   9.14056300
_cell_angle_alpha   89.99951648
_cell_angle_beta   89.99992698
_cell_angle_gamma   90.00052354
_symmetry_Int_Tables_number   1
_chemical_formula_structural   Hf3Sc4TaRu8
_chemical_formula_sum   'Hf3 Sc4 Ta1 Ru8'
_cell_volume   266.70520249
_cell_formula_units_Z   1
loop_
 _symmetry_equiv_pos_site_id
 _symmetry_equiv_pos_as_xyz
  1  'x, y, z'
loop_
 _atom_site_type_symbol
 _atom_site_label
 _atom_site_symmetry_multiplicity
 _atom_site_fract_x
 _atom_site_fract_y
 _atom_site_fract_z
 _atom_site_occupancy
  Hf  Hf0  1  0.250043  0.249997  0.124771  1
  Hf  Hf1  1  0.750024  0.750002  0.375000  1
  Hf  Hf2  1  0.249966  0.249998  0.625205  1
  Sc  Sc3  1  0.750047  0.250002  0.124273  1
  Sc  Sc4  1  0.250024  0.750001  0.374988  1
  Sc  Sc5  1  0.749964  0.250003  0.625694  1
  Sc  Sc6  1  0.249949  0.750001  0.875008  1
  Ta  Ta7  1  0.749953  0.750001  0.875000  1
  Ru  Ru8  1  0.503261  0.750000  0.120374  1
  Ru  Ru9  1  0.996813  0.750000  0.120381  1
  Ru  Ru10  1  0.499810  0.249998  0.374986  1
  Ru  Ru11  1  0.000240  0.249998  0.374983  1
  Ru  Ru12  1  0.996837  0.749997  0.629644  1
  Ru  Ru13  1  0.503105  0.749999  0.629654  1
  Ru  Ru14  1  0.993481  0.250002  0.875020  1
  Ru  Ru15  1  0.506483  0.250000  0.875016  1
