# generated using pymatgen
data_Y(BOs)4
_symmetry_space_group_name_H-M   'P 1'
_cell_length_a   7.55461800
_cell_length_b   7.55461800
_cell_length_c   4.01509300
_cell_angle_alpha   90.00000000
_cell_angle_beta   90.00000000
_cell_angle_gamma   90.00000000
_symmetry_Int_Tables_number   1
_chemical_formula_structural   Y(BOs)4
_chemical_formula_sum   'Y2 B8 Os8'
_cell_volume   229.15040402
_cell_formula_units_Z   2
loop_
 _symmetry_equiv_pos_site_id
 _symmetry_equiv_pos_as_xyz
  1  'x, y, z'
loop_
 _atom_site_type_symbol
 _atom_site_label
 _atom_site_symmetry_multiplicity
 _atom_site_fract_x
 _atom_site_fract_y
 _atom_site_fract_z
 _atom_site_occupancy
  Y  Y0  1  0.250000  0.250000  0.250000  1
  Y  Y1  1  0.750000  0.750000  0.750000  1
  B  B2  1  0.913595  0.030422  0.363159  1
  B  B3  1  0.586405  0.469578  0.363159  1
  B  B4  1  0.530422  0.086405  0.863159  1
  B  B5  1  0.969578  0.413595  0.863159  1
  B  B6  1  0.086405  0.969578  0.636841  1
  B  B7  1  0.413595  0.530422  0.636841  1
  B  B8  1  0.469578  0.913595  0.136841  1
  B  B9  1  0.030422  0.586405  0.136841  1
  Os  Os10  1  0.396439  0.642163  0.133916  1
  Os  Os11  1  0.103561  0.857837  0.133916  1
  Os  Os12  1  0.142163  0.603561  0.633916  1
  Os  Os13  1  0.357837  0.896439  0.633916  1
  Os  Os14  1  0.603561  0.357837  0.866084  1
  Os  Os15  1  0.896439  0.142163  0.866084  1
  Os  Os16  1  0.857837  0.396439  0.366084  1
  Os  Os17  1  0.642163  0.103561  0.366084  1
