# generated using pymatgen
data_DyTm5(B7W)2
_symmetry_space_group_name_H-M   'P 1'
_cell_length_a   8.06934449
_cell_length_b   8.06934450
_cell_length_c   9.44023700
_cell_angle_alpha   90.00000000
_cell_angle_beta   90.00000000
_cell_angle_gamma   155.48373426
_symmetry_Int_Tables_number   1
_chemical_formula_structural   DyTm5(B7W)2
_chemical_formula_sum   'Dy1 Tm5 B14 W2'
_cell_volume   255.06848820
_cell_formula_units_Z   1
loop_
 _symmetry_equiv_pos_site_id
 _symmetry_equiv_pos_as_xyz
  1  'x, y, z'
loop_
 _atom_site_type_symbol
 _atom_site_label
 _atom_site_symmetry_multiplicity
 _atom_site_fract_x
 _atom_site_fract_y
 _atom_site_fract_z
 _atom_site_occupancy
  Dy  Dy0  1  0.753150  0.246850  0.750000  1
  Tm  Tm1  1  0.892612  0.107388  0.439949  1
  Tm  Tm2  1  0.107194  0.892806  0.558662  1
  Tm  Tm3  1  0.892612  0.107388  0.060051  1
  Tm  Tm4  1  0.107194  0.892806  0.941338  1
  Tm  Tm5  1  0.245528  0.754472  0.250000  1
  B  B6  1  0.728113  0.271887  0.465180  1
  B  B7  1  0.272467  0.727533  0.530929  1
  B  B8  1  0.728113  0.271887  0.034820  1
  B  B9  1  0.272467  0.727533  0.969071  1
  B  B10  1  0.635462  0.364538  0.147483  1
  B  B11  1  0.364633  0.635367  0.853799  1
  B  B12  1  0.635462  0.364538  0.352517  1
  B  B13  1  0.364633  0.635367  0.646201  1
  B  B14  1  0.518861  0.481139  0.091140  1
  B  B15  1  0.481213  0.518787  0.908861  1
  B  B16  1  0.518861  0.481139  0.408860  1
  B  B17  1  0.481213  0.518787  0.591139  1
  B  B18  1  0.452538  0.547462  0.250000  1
  B  B19  1  0.547662  0.452338  0.750000  1
  W  W20  1  0.052673  0.947327  0.250000  1
  W  W21  1  0.947339  0.052661  0.750000  1
