# generated using pymatgen
data_Sr9Th(Si9Au)2
_symmetry_space_group_name_H-M   'P 1'
_cell_length_a   4.34864227
_cell_length_b   4.42976899
_cell_length_c   35.60327042
_cell_angle_alpha   86.43585697
_cell_angle_beta   86.48126457
_cell_angle_gamma   89.99998246
_symmetry_Int_Tables_number   1
_chemical_formula_structural   Sr9Th(Si9Au)2
_chemical_formula_sum   'Sr9 Th1 Si18 Au2'
_cell_volume   683.22090152
_cell_formula_units_Z   1
loop_
 _symmetry_equiv_pos_site_id
 _symmetry_equiv_pos_as_xyz
  1  'x, y, z'
loop_
 _atom_site_type_symbol
 _atom_site_label
 _atom_site_symmetry_multiplicity
 _atom_site_fract_x
 _atom_site_fract_y
 _atom_site_fract_z
 _atom_site_occupancy
  Sr  Sr0  1  0.949085  0.449493  0.100560  1
  Sr  Sr1  1  0.350820  0.850859  0.298782  1
  Sr  Sr2  1  0.751572  0.252151  0.496102  1
  Sr  Sr3  1  0.149140  0.649380  0.701226  1
  Sr  Sr4  1  0.548529  0.048048  0.903454  1
  Sr  Sr5  1  0.999044  0.999017  0.001472  1
  Sr  Sr6  1  0.401028  0.400137  0.199333  1
  Sr  Sr7  1  0.801220  0.801558  0.397525  1
  Sr  Sr8  1  0.201470  0.201380  0.597156  1
  Th  Th9  1  0.600694  0.600732  0.799342  1
  Si  Si10  1  0.464781  0.966300  0.067460  1
  Si  Si11  1  0.867327  0.367578  0.265437  1
  Si  Si12  1  0.267857  0.768736  0.463196  1
  Si  Si13  1  0.666378  0.166650  0.667100  1
  Si  Si14  1  0.067259  0.565663  0.867993  1
  Si  Si15  1  0.916874  0.916240  0.166541  1
  Si  Si16  1  0.317208  0.318176  0.364577  1
  Si  Si17  1  0.718412  0.718944  0.561950  1
  Si  Si18  1  0.115705  0.118085  0.767349  1
  Si  Si19  1  0.515427  0.515075  0.968825  1
  Si  Si20  1  0.433573  0.933117  0.133352  1
  Si  Si21  1  0.834585  0.334654  0.331364  1
  Si  Si22  1  0.235313  0.735781  0.529227  1
  Si  Si23  1  0.632841  0.131310  0.734679  1
  Si  Si24  1  0.032918  0.532240  0.935418  1
  Si  Si25  1  0.482447  0.482339  0.034609  1
  Si  Si26  1  0.885204  0.883633  0.232465  1
  Si  Si27  1  0.284912  0.284765  0.430500  1
  Au  Au28  1  0.683466  0.683507  0.632968  1
  Au  Au29  1  0.082111  0.081652  0.835641  1
