# generated using pymatgen
data_La19Y(Bi2Rh)4
_symmetry_space_group_name_H-M   'P 1'
_cell_length_a   8.39015402
_cell_length_b   9.41801800
_cell_length_c   13.06744600
_cell_angle_alpha   90.00000000
_cell_angle_beta   90.00370811
_cell_angle_gamma   90.00000000
_symmetry_Int_Tables_number   1
_chemical_formula_structural   La19Y(Bi2Rh)4
_chemical_formula_sum   'La19 Y1 Bi8 Rh4'
_cell_volume   1032.57156807
_cell_formula_units_Z   1
loop_
 _symmetry_equiv_pos_site_id
 _symmetry_equiv_pos_as_xyz
  1  'x, y, z'
loop_
 _atom_site_type_symbol
 _atom_site_label
 _atom_site_symmetry_multiplicity
 _atom_site_fract_x
 _atom_site_fract_y
 _atom_site_fract_z
 _atom_site_occupancy
  La  La0  1  0.149399  0.250000  0.203440  1
  La  La1  1  0.348446  0.250000  0.705900  1
  La  La2  1  0.651518  0.750000  0.295275  1
  La  La3  1  0.374893  0.750000  0.694450  1
  La  La4  1  0.626461  0.250000  0.306480  1
  La  La5  1  0.873881  0.250000  0.806977  1
  La  La6  1  0.127694  0.750000  0.195418  1
  La  La7  1  0.948474  0.750000  0.504094  1
  La  La8  1  0.050256  0.250000  0.498128  1
  La  La9  1  0.449195  0.250000  0.995981  1
  La  La10  1  0.557676  0.750000  0.003586  1
  La  La11  1  0.684046  0.040437  0.565665  1
  La  La12  1  0.315886  0.958968  0.434417  1
  La  La13  1  0.181635  0.955024  0.934409  1
  La  La14  1  0.315886  0.541032  0.434417  1
  La  La15  1  0.817025  0.039921  0.064240  1
  La  La16  1  0.684046  0.459563  0.565665  1
  La  La17  1  0.817025  0.460079  0.064240  1
  La  La18  1  0.181635  0.544976  0.934409  1
  Y  Y19  1  0.847266  0.750000  0.793127  1
  Bi  Bi20  1  0.576783  0.498128  0.826295  1
  Bi  Bi21  1  0.427564  0.504821  0.172554  1
  Bi  Bi22  1  0.068762  0.509295  0.675399  1
  Bi  Bi23  1  0.427564  0.995179  0.172554  1
  Bi  Bi24  1  0.927187  0.494169  0.327268  1
  Bi  Bi25  1  0.576783  0.001872  0.826295  1
  Bi  Bi26  1  0.927187  0.005831  0.327268  1
  Bi  Bi27  1  0.068762  0.990705  0.675399  1
  Rh  Rh28  1  0.575211  0.750000  0.508775  1
  Rh  Rh29  1  0.421245  0.250000  0.491611  1
  Rh  Rh30  1  0.077704  0.250000  0.988500  1
  Rh  Rh31  1  0.922903  0.750000  0.007764  1
