# generated using pymatgen
data_Y3Ho(CrB4)4
_symmetry_space_group_name_H-M   'P 1'
_cell_length_a   3.44558700
_cell_length_b   5.93547511
_cell_length_c   11.47151236
_cell_angle_alpha   89.99677820
_cell_angle_beta   90.00000000
_cell_angle_gamma   90.00000000
_symmetry_Int_Tables_number   1
_chemical_formula_structural   Y3Ho(CrB4)4
_chemical_formula_sum   'Y3 Ho1 Cr4 B16'
_cell_volume   234.60614585
_cell_formula_units_Z   1
loop_
 _symmetry_equiv_pos_site_id
 _symmetry_equiv_pos_as_xyz
  1  'x, y, z'
loop_
 _atom_site_type_symbol
 _atom_site_label
 _atom_site_symmetry_multiplicity
 _atom_site_fract_x
 _atom_site_fract_y
 _atom_site_fract_z
 _atom_site_occupancy
  Y  Y0  1  0.000000  0.624397  0.349114  1
  Y  Y1  1  0.000000  0.375605  0.651052  1
  Y  Y2  1  0.000000  0.124321  0.150752  1
  Ho  Ho3  1  0.000000  0.875583  0.849221  1
  Cr  Cr4  1  0.000000  0.624458  0.080718  1
  Cr  Cr5  1  0.000000  0.375687  0.918775  1
  Cr  Cr6  1  0.000000  0.124100  0.419179  1
  Cr  Cr7  1  0.000000  0.875878  0.581211  1
  B  B8  1  0.500000  0.781060  0.183848  1
  B  B9  1  0.500000  0.218319  0.816040  1
  B  B10  1  0.500000  0.281042  0.315958  1
  B  B11  1  0.500000  0.719141  0.684487  1
  B  B12  1  0.500000  0.862672  0.031939  1
  B  B13  1  0.500000  0.137168  0.967329  1
  B  B14  1  0.500000  0.362483  0.467701  1
  B  B15  1  0.500000  0.637528  0.532628  1
  B  B16  1  0.500000  0.886765  0.453331  1
  B  B17  1  0.500000  0.113047  0.546995  1
  B  B18  1  0.500000  0.387006  0.046500  1
  B  B19  1  0.500000  0.613657  0.952922  1
  B  B20  1  0.500000  0.975175  0.308589  1
  B  B21  1  0.500000  0.024433  0.691882  1
  B  B22  1  0.500000  0.475206  0.191219  1
  B  B23  1  0.500000  0.525270  0.808610  1
