# generated using pymatgen
data_Tm3MgCo7NiP6
_symmetry_space_group_name_H-M   'P 1'
_cell_length_a   3.71560200
_cell_length_b   10.58016200
_cell_length_c   12.23239200
_cell_angle_alpha   90.00000000
_cell_angle_beta   90.00000000
_cell_angle_gamma   90.00000000
_symmetry_Int_Tables_number   1
_chemical_formula_structural   Tm3MgCo7NiP6
_chemical_formula_sum   'Tm6 Mg2 Co14 Ni2 P12'
_cell_volume   480.87577092
_cell_formula_units_Z   2
loop_
 _symmetry_equiv_pos_site_id
 _symmetry_equiv_pos_as_xyz
  1  'x, y, z'
loop_
 _atom_site_type_symbol
 _atom_site_label
 _atom_site_symmetry_multiplicity
 _atom_site_fract_x
 _atom_site_fract_y
 _atom_site_fract_z
 _atom_site_occupancy
  Tm  Tm0  1  0.000000  0.500000  0.524545  1
  Tm  Tm1  1  0.500000  0.000000  0.475455  1
  Tm  Tm2  1  0.500000  0.820239  0.205286  1
  Tm  Tm3  1  0.500000  0.179761  0.205286  1
  Tm  Tm4  1  0.000000  0.679761  0.794714  1
  Tm  Tm5  1  0.000000  0.320239  0.794714  1
  Mg  Mg6  1  0.500000  0.500000  0.156746  1
  Mg  Mg7  1  0.000000  0.000000  0.843254  1
  Co  Co8  1  0.000000  0.500000  0.988677  1
  Co  Co9  1  0.500000  0.000000  0.011323  1
  Co  Co10  1  0.500000  0.332516  0.996113  1
  Co  Co11  1  0.500000  0.667484  0.996113  1
  Co  Co12  1  0.000000  0.167484  0.003887  1
  Co  Co13  1  0.000000  0.832516  0.003887  1
  Co  Co14  1  0.500000  0.296912  0.432452  1
  Co  Co15  1  0.500000  0.703088  0.432452  1
  Co  Co16  1  0.000000  0.203088  0.567548  1
  Co  Co17  1  0.000000  0.796912  0.567548  1
  Co  Co18  1  0.500000  0.876637  0.705954  1
  Co  Co19  1  0.500000  0.123363  0.705954  1
  Co  Co20  1  0.000000  0.623363  0.294046  1
  Co  Co21  1  0.000000  0.376637  0.294046  1
  Ni  Ni22  1  0.500000  0.500000  0.703531  1
  Ni  Ni23  1  0.000000  0.000000  0.296469  1
  P  P24  1  0.500000  0.500000  0.884561  1
  P  P25  1  0.000000  0.000000  0.115439  1
  P  P26  1  0.500000  0.500000  0.356510  1
  P  P27  1  0.000000  0.000000  0.643490  1
  P  P28  1  0.500000  0.310186  0.615677  1
  P  P29  1  0.500000  0.689814  0.615677  1
  P  P30  1  0.000000  0.189814  0.384323  1
  P  P31  1  0.000000  0.810186  0.384323  1
  P  P32  1  0.500000  0.838607  0.892309  1
  P  P33  1  0.500000  0.161393  0.892309  1
  P  P34  1  0.000000  0.661393  0.107691  1
  P  P35  1  0.000000  0.338607  0.107691  1
