# generated using pymatgen
data_Tb12Tc2IrRu
_symmetry_space_group_name_H-M   'P 1'
_cell_length_a   6.33283024
_cell_length_b   7.39717646
_cell_length_c   9.24787900
_cell_angle_alpha   90.00000000
_cell_angle_beta   90.00000000
_cell_angle_gamma   89.92816024
_symmetry_Int_Tables_number   1
_chemical_formula_structural   Tb12Tc2IrRu
_chemical_formula_sum   'Tb12 Tc2 Ir1 Ru1'
_cell_volume   433.21713171
_cell_formula_units_Z   1
loop_
 _symmetry_equiv_pos_site_id
 _symmetry_equiv_pos_as_xyz
  1  'x, y, z'
loop_
 _atom_site_type_symbol
 _atom_site_label
 _atom_site_symmetry_multiplicity
 _atom_site_fract_x
 _atom_site_fract_y
 _atom_site_fract_z
 _atom_site_occupancy
  Tb  Tb0  1  0.333217  0.675903  0.065269  1
  Tb  Tb1  1  0.168035  0.175769  0.434070  1
  Tb  Tb2  1  0.665826  0.325449  0.563009  1
  Tb  Tb3  1  0.833065  0.823622  0.937507  1
  Tb  Tb4  1  0.665826  0.325449  0.936991  1
  Tb  Tb5  1  0.833065  0.823622  0.562493  1
  Tb  Tb6  1  0.333217  0.675903  0.434731  1
  Tb  Tb7  1  0.168035  0.175769  0.065930  1
  Tb  Tb8  1  0.872065  0.540321  0.250000  1
  Tb  Tb9  1  0.627895  0.041050  0.250000  1
  Tb  Tb10  1  0.137026  0.458633  0.750000  1
  Tb  Tb11  1  0.364762  0.955871  0.750000  1
  Tc  Tc12  1  0.038561  0.886380  0.250000  1
  Tc  Tc13  1  0.461094  0.385767  0.250000  1
  Ir  Ir14  1  0.956928  0.115339  0.750000  1
  Ru  Ru15  1  0.541382  0.615151  0.750000  1
