# generated using pymatgen
data_Yb3ThFeOs7
_symmetry_space_group_name_H-M   'P 1'
_cell_length_a   5.30466669
_cell_length_b   5.26942542
_cell_length_c   8.85007474
_cell_angle_alpha   89.95913290
_cell_angle_beta   89.62405789
_cell_angle_gamma   119.89789995
_symmetry_Int_Tables_number   1
_chemical_formula_structural   Yb3ThFeOs7
_chemical_formula_sum   'Yb3 Th1 Fe1 Os7'
_cell_volume   214.45239157
_cell_formula_units_Z   1
loop_
 _symmetry_equiv_pos_site_id
 _symmetry_equiv_pos_as_xyz
  1  'x, y, z'
loop_
 _atom_site_type_symbol
 _atom_site_label
 _atom_site_symmetry_multiplicity
 _atom_site_fract_x
 _atom_site_fract_y
 _atom_site_fract_z
 _atom_site_occupancy
  Yb  Yb0  1  0.333790  0.667485  0.427638  1
  Yb  Yb1  1  0.333862  0.666878  0.065489  1
  Yb  Yb2  1  0.661682  0.330895  0.942042  1
  Th  Th3  1  0.661424  0.332114  0.563571  1
  Fe  Fe4  1  0.338086  0.168583  0.247561  1
  Os  Os5  1  0.995466  0.999907  0.495172  1
  Os  Os6  1  0.991448  0.996352  0.003160  1
  Os  Os7  1  0.171120  0.344216  0.754263  1
  Os  Os8  1  0.172586  0.824410  0.754301  1
  Os  Os9  1  0.664812  0.832907  0.753451  1
  Os  Os10  1  0.837879  0.659121  0.246621  1
  Os  Os11  1  0.837847  0.177132  0.246730  1
