# generated using pymatgen
data_Er7TmCd2IrRu
_symmetry_space_group_name_H-M   'P 1'
_cell_length_a   9.54584704
_cell_length_b   9.54584743
_cell_length_c   9.58576100
_cell_angle_alpha   59.86159221
_cell_angle_beta   59.86159085
_cell_angle_gamma   59.71080451
_symmetry_Int_Tables_number   1
_chemical_formula_structural   Er7TmCd2IrRu
_chemical_formula_sum   'Er14 Tm2 Cd4 Ir2 Ru2'
_cell_volume   614.99927307
_cell_formula_units_Z   2
loop_
 _symmetry_equiv_pos_site_id
 _symmetry_equiv_pos_as_xyz
  1  'x, y, z'
loop_
 _atom_site_type_symbol
 _atom_site_label
 _atom_site_symmetry_multiplicity
 _atom_site_fract_x
 _atom_site_fract_y
 _atom_site_fract_z
 _atom_site_occupancy
  Er  Er0  1  0.597061  0.209080  0.596930  1
  Er  Er1  1  0.209080  0.597061  0.596930  1
  Er  Er2  1  0.061607  0.438108  0.440316  1
  Er  Er3  1  0.438108  0.061607  0.059970  1
  Er  Er4  1  0.438108  0.061607  0.440316  1
  Er  Er5  1  0.061607  0.438108  0.059970  1
  Er  Er6  1  0.438381  0.438381  0.061619  1
  Er  Er7  1  0.059317  0.059317  0.440683  1
  Er  Er8  1  0.188021  0.810225  0.813522  1
  Er  Er9  1  0.810225  0.188021  0.188232  1
  Er  Er10  1  0.810225  0.188021  0.813522  1
  Er  Er11  1  0.188021  0.810225  0.188232  1
  Er  Er12  1  0.811404  0.811404  0.188596  1
  Er  Er13  1  0.187976  0.187976  0.812024  1
  Tm  Tm14  1  0.598149  0.598149  0.597901  1
  Tm  Tm15  1  0.598149  0.598149  0.205798  1
  Cd  Cd16  1  0.830452  0.830452  0.830638  1
  Cd  Cd17  1  0.830452  0.830452  0.508457  1
  Cd  Cd18  1  0.830790  0.507500  0.830855  1
  Cd  Cd19  1  0.507500  0.830790  0.830855  1
  Ir  Ir20  1  0.394391  0.826472  0.389568  1
  Ir  Ir21  1  0.826472  0.394391  0.389568  1
  Ru  Ru22  1  0.392250  0.392250  0.387408  1
  Ru  Ru23  1  0.392250  0.392250  0.828090  1
