# generated using pymatgen
data_Th3Co3BiTe3
_symmetry_space_group_name_H-M   'P 1'
_cell_length_a   8.35344442
_cell_length_b   8.33053649
_cell_length_c   8.33053495
_cell_angle_alpha   109.37166512
_cell_angle_beta   109.45578563
_cell_angle_gamma   109.45578633
_symmetry_Int_Tables_number   1
_chemical_formula_structural   Th3Co3BiTe3
_chemical_formula_sum   'Th6 Co6 Bi2 Te6'
_cell_volume   446.97826777
_cell_formula_units_Z   2
loop_
 _symmetry_equiv_pos_site_id
 _symmetry_equiv_pos_as_xyz
  1  'x, y, z'
loop_
 _atom_site_type_symbol
 _atom_site_label
 _atom_site_symmetry_multiplicity
 _atom_site_fract_x
 _atom_site_fract_y
 _atom_site_fract_z
 _atom_site_occupancy
  Th  Th0  1  0.373845  0.248853  0.624620  1
  Th  Th1  1  0.750336  0.874547  0.125201  1
  Th  Th2  1  0.250336  0.625201  0.374547  1
  Th  Th3  1  0.625682  0.375626  0.250898  1
  Th  Th4  1  0.873845  0.124620  0.748853  1
  Th  Th5  1  0.125682  0.750898  0.875626  1
  Co  Co6  1  0.117258  0.873328  0.240456  1
  Co  Co7  1  0.617258  0.740456  0.373328  1
  Co  Co8  1  0.874837  0.248799  0.123778  1
  Co  Co9  1  0.257690  0.132797  0.883167  1
  Co  Co10  1  0.757690  0.383167  0.632797  1
  Co  Co11  1  0.374837  0.623778  0.748799  1
  Bi  Bi12  1  0.500097  0.000560  0.334715  1
  Bi  Bi13  1  0.000097  0.834715  0.500560  1
  Te  Te14  1  0.000233  0.342881  0.501272  1
  Te  Te15  1  0.842370  0.501356  0.000303  1
  Te  Te16  1  0.500233  0.001272  0.842881  1
  Te  Te17  1  0.657651  0.658685  0.658160  1
  Te  Te18  1  0.157651  0.158160  0.158685  1
  Te  Te19  1  0.342370  0.500303  0.001356  1
