# generated using pymatgen
data_NaPr5S8
_symmetry_space_group_name_H-M   'P 1'
_cell_length_a   7.49437961
_cell_length_b   7.49437890
_cell_length_c   7.49437985
_cell_angle_alpha   109.46928051
_cell_angle_beta   109.46928114
_cell_angle_gamma   109.47509669
_symmetry_Int_Tables_number   1
_chemical_formula_structural   NaPr5S8
_chemical_formula_sum   'Na1 Pr5 S8'
_cell_volume   324.02995638
_cell_formula_units_Z   1
loop_
 _symmetry_equiv_pos_site_id
 _symmetry_equiv_pos_as_xyz
  1  'x, y, z'
loop_
 _atom_site_type_symbol
 _atom_site_label
 _atom_site_symmetry_multiplicity
 _atom_site_fract_x
 _atom_site_fract_y
 _atom_site_fract_z
 _atom_site_occupancy
  Na  Na0  1  0.000000  0.000000  0.000000  1
  Pr  Pr1  1  0.241189  0.623401  0.122159  1
  Pr  Pr2  1  0.376599  0.498759  0.617789  1
  Pr  Pr3  1  0.501241  0.119030  0.877841  1
  Pr  Pr4  1  0.880970  0.758811  0.382211  1
  Pr  Pr5  1  0.750000  0.250000  0.500000  1
  S  S6  1  0.279201  0.026654  0.402902  1
  S  S7  1  0.623751  0.876299  0.597098  1
  S  S8  1  0.490013  0.385232  0.255270  1
  S  S9  1  0.765257  0.509987  0.895219  1
  S  S10  1  0.614768  0.870038  0.104781  1
  S  S11  1  0.123701  0.720799  0.747453  1
  S  S12  1  0.973346  0.376249  0.252547  1
  S  S13  1  0.129962  0.234743  0.744730  1
