# generated using pymatgen
data_La13Ho3Cd4PdRu3
_symmetry_space_group_name_H-M   'P 1'
_cell_length_a   10.04787016
_cell_length_b   10.04786974
_cell_length_c   10.02156524
_cell_angle_alpha   59.39128828
_cell_angle_beta   59.39128713
_cell_angle_gamma   60.36391758
_symmetry_Int_Tables_number   1
_chemical_formula_structural   La13Ho3Cd4PdRu3
_chemical_formula_sum   'La13 Ho3 Cd4 Pd1 Ru3'
_cell_volume   710.67069369
_cell_formula_units_Z   1
loop_
 _symmetry_equiv_pos_site_id
 _symmetry_equiv_pos_as_xyz
  1  'x, y, z'
loop_
 _atom_site_type_symbol
 _atom_site_label
 _atom_site_symmetry_multiplicity
 _atom_site_fract_x
 _atom_site_fract_y
 _atom_site_fract_z
 _atom_site_occupancy
  La  La0  1  0.437220  0.064336  0.061894  1
  La  La1  1  0.310291  0.691107  0.311909  1
  La  La2  1  0.692588  0.692588  0.308299  1
  La  La3  1  0.691107  0.310291  0.311909  1
  La  La4  1  0.293421  0.893836  0.907526  1
  La  La5  1  0.893836  0.293421  0.907526  1
  La  La6  1  0.308730  0.687723  0.694158  1
  La  La7  1  0.907791  0.907791  0.286126  1
  La  La8  1  0.064336  0.437220  0.061894  1
  La  La9  1  0.305969  0.305969  0.697460  1
  La  La10  1  0.063741  0.447759  0.427010  1
  La  La11  1  0.447759  0.063741  0.427010  1
  La  La12  1  0.687723  0.308730  0.694158  1
  Ho  Ho13  1  0.899176  0.899176  0.907357  1
  Ho  Ho14  1  0.442278  0.442278  0.058586  1
  Ho  Ho15  1  0.055082  0.055082  0.440859  1
  Cd  Cd16  1  0.671650  0.671650  0.988257  1
  Cd  Cd17  1  0.987645  0.677617  0.670643  1
  Cd  Cd18  1  0.677617  0.987645  0.670643  1
  Cd  Cd19  1  0.670213  0.670213  0.673932  1
  Pd  Pd20  1  0.103661  0.103661  0.672920  1
  Ru  Ru21  1  0.114682  0.114682  0.105264  1
  Ru  Ru22  1  0.108235  0.665251  0.107332  1
  Ru  Ru23  1  0.665251  0.108235  0.107332  1
