# generated using pymatgen
data_ZrNbGaRh5
_symmetry_space_group_name_H-M   'P 1'
_cell_length_a   5.54229580
_cell_length_b   5.54229601
_cell_length_c   8.07081100
_cell_angle_alpha   90.00000000
_cell_angle_beta   90.00000000
_cell_angle_gamma   96.55128538
_symmetry_Int_Tables_number   1
_chemical_formula_structural   ZrNbGaRh5
_chemical_formula_sum   'Zr2 Nb2 Ga2 Rh10'
_cell_volume   246.29262639
_cell_formula_units_Z   2
loop_
 _symmetry_equiv_pos_site_id
 _symmetry_equiv_pos_as_xyz
  1  'x, y, z'
loop_
 _atom_site_type_symbol
 _atom_site_label
 _atom_site_symmetry_multiplicity
 _atom_site_fract_x
 _atom_site_fract_y
 _atom_site_fract_z
 _atom_site_occupancy
  Zr  Zr0  1  0.223962  0.776038  0.500000  1
  Zr  Zr1  1  0.776038  0.223962  0.000000  1
  Nb  Nb2  1  0.777888  0.222112  0.500000  1
  Nb  Nb3  1  0.222112  0.777888  0.000000  1
  Ga  Ga4  1  0.502315  0.502315  0.750000  1
  Ga  Ga5  1  0.497685  0.497685  0.250000  1
  Rh  Rh6  1  0.722508  0.722821  0.000947  1
  Rh  Rh7  1  0.722821  0.722508  0.499053  1
  Rh  Rh8  1  0.277179  0.277492  0.999053  1
  Rh  Rh9  1  0.277492  0.277179  0.500947  1
  Rh  Rh10  1  0.500073  0.000338  0.749952  1
  Rh  Rh11  1  0.499927  0.999662  0.249952  1
  Rh  Rh12  1  0.000251  0.000251  0.250000  1
  Rh  Rh13  1  0.999749  0.999749  0.750000  1
  Rh  Rh14  1  0.000338  0.500073  0.750048  1
  Rh  Rh15  1  0.999662  0.499927  0.250048  1
