# generated using pymatgen
data_Li4MnNb4Fe3O16
_symmetry_space_group_name_H-M   'P 1'
_cell_length_a   6.27435288
_cell_length_b   6.27435288
_cell_length_c   8.48239106
_cell_angle_alpha   89.85885817
_cell_angle_beta   89.85885817
_cell_angle_gamma   89.01317109
_symmetry_Int_Tables_number   1
_chemical_formula_structural   Li4MnNb4Fe3O16
_chemical_formula_sum   'Li4 Mn1 Nb4 Fe3 O16'
_cell_volume   333.87904408
_cell_formula_units_Z   1
loop_
 _symmetry_equiv_pos_site_id
 _symmetry_equiv_pos_as_xyz
  1  'x, y, z'
loop_
 _atom_site_type_symbol
 _atom_site_label
 _atom_site_symmetry_multiplicity
 _atom_site_fract_x
 _atom_site_fract_y
 _atom_site_fract_z
 _atom_site_occupancy
  Li  Li0  1  0.999937  0.221147  0.000993  1
  Li  Li1  1  0.219346  0.999163  0.250178  1
  Li  Li2  1  0.000837  0.780653  0.499822  1
  Li  Li3  1  0.778852  0.000063  0.749007  1
  Mn  Mn4  1  0.254296  0.745703  0.875000  1
  Nb  Nb5  1  0.500080  0.217918  0.000293  1
  Nb  Nb6  1  0.218065  0.498888  0.252428  1
  Nb  Nb7  1  0.501112  0.781936  0.497572  1
  Nb  Nb8  1  0.782083  0.499920  0.749707  1
  Fe  Fe9  1  0.744872  0.743591  0.125381  1
  Fe  Fe10  1  0.744314  0.255685  0.375000  1
  Fe  Fe11  1  0.256408  0.255127  0.624620  1
  O  O12  1  0.738947  0.025953  0.006464  1
  O  O13  1  0.267573  0.478833  0.018230  1
  O  O14  1  0.480907  0.265757  0.235462  1
  O  O15  1  0.026215  0.737894  0.244089  1
  O  O16  1  0.026114  0.268144  0.258238  1
  O  O17  1  0.479525  0.729702  0.264365  1
  O  O18  1  0.270297  0.520475  0.485635  1
  O  O19  1  0.731857  0.973887  0.491762  1
  O  O20  1  0.262107  0.973786  0.505912  1
  O  O21  1  0.734242  0.519093  0.514538  1
  O  O22  1  0.521167  0.732426  0.731770  1
  O  O23  1  0.974048  0.261054  0.743536  1
  O  O24  1  0.971668  0.733502  0.751980  1
  O  O25  1  0.518969  0.270335  0.766210  1
  O  O26  1  0.729664  0.481031  0.983791  1
  O  O27  1  0.266499  0.028333  0.998020  1
