# generated using pymatgen
data_Na8SrYb3(TiAs4)2
_symmetry_space_group_name_H-M   'P 1'
_cell_length_a   9.51791287
_cell_length_b   9.46506708
_cell_length_c   7.37632834
_cell_angle_alpha   89.13357882
_cell_angle_beta   89.65962746
_cell_angle_gamma   119.83685490
_symmetry_Int_Tables_number   1
_chemical_formula_structural   Na8SrYb3(TiAs4)2
_chemical_formula_sum   'Na8 Sr1 Yb3 Ti2 As8'
_cell_volume   576.29641863
_cell_formula_units_Z   1
loop_
 _symmetry_equiv_pos_site_id
 _symmetry_equiv_pos_as_xyz
  1  'x, y, z'
loop_
 _atom_site_type_symbol
 _atom_site_label
 _atom_site_symmetry_multiplicity
 _atom_site_fract_x
 _atom_site_fract_y
 _atom_site_fract_z
 _atom_site_occupancy
  Na  Na0  1  0.473156  0.938344  0.385065  1
  Na  Na1  1  0.934861  0.470248  0.886359  1
  Na  Na2  1  0.866929  0.730686  0.196837  1
  Na  Na3  1  0.279372  0.132360  0.231909  1
  Na  Na4  1  0.854963  0.133229  0.217066  1
  Na  Na5  1  0.131531  0.276741  0.732977  1
  Na  Na6  1  0.727410  0.866211  0.700772  1
  Na  Na7  1  0.134233  0.857269  0.717962  1
  Sr  Sr8  1  0.057053  0.531119  0.390234  1
  Yb  Yb9  1  0.480392  0.532204  0.382173  1
  Yb  Yb10  1  0.529754  0.056829  0.889942  1
  Yb  Yb11  1  0.530393  0.477793  0.882715  1
  Ti  Ti12  1  0.659823  0.328196  0.498867  1
  Ti  Ti13  1  0.332246  0.664283  0.995651  1
  As  As14  1  0.202487  0.381448  0.117604  1
  As  As15  1  0.619041  0.805847  0.093567  1
  As  As16  1  0.198689  0.815872  0.096885  1
  As  As17  1  0.800544  0.618662  0.593875  1
  As  As18  1  0.381997  0.197759  0.623215  1
  As  As19  1  0.805674  0.191317  0.609400  1
  As  As20  1  0.654847  0.333760  0.160559  1
  As  As21  1  0.344620  0.659834  0.660956  1
