# generated using pymatgen
data_Tb8Si12Ni3Pd
_symmetry_space_group_name_H-M   'P 1'
_cell_length_a   8.01455500
_cell_length_b   8.01455418
_cell_length_c   8.11545700
_cell_angle_alpha   90.00000000
_cell_angle_beta   90.00000000
_cell_angle_gamma   120.00000749
_symmetry_Int_Tables_number   1
_chemical_formula_structural   Tb8Si12Ni3Pd
_chemical_formula_sum   'Tb8 Si12 Ni3 Pd1'
_cell_volume   451.44241746
_cell_formula_units_Z   1
loop_
 _symmetry_equiv_pos_site_id
 _symmetry_equiv_pos_as_xyz
  1  'x, y, z'
loop_
 _atom_site_type_symbol
 _atom_site_label
 _atom_site_symmetry_multiplicity
 _atom_site_fract_x
 _atom_site_fract_y
 _atom_site_fract_z
 _atom_site_occupancy
  Tb  Tb0  1  0.501844  0.003688  0.248578  1
  Tb  Tb1  1  0.501324  0.002649  0.751428  1
  Tb  Tb2  1  0.996312  0.498156  0.248578  1
  Tb  Tb3  1  0.997351  0.498676  0.751428  1
  Tb  Tb4  1  0.501844  0.498156  0.248578  1
  Tb  Tb5  1  0.501324  0.498676  0.751428  1
  Tb  Tb6  1  0.000000  0.000000  0.248845  1
  Tb  Tb7  1  0.000000  0.000000  0.751112  1
  Si  Si8  1  0.171195  0.342391  0.000418  1
  Si  Si9  1  0.829482  0.658963  0.999762  1
  Si  Si10  1  0.657609  0.828805  0.000418  1
  Si  Si11  1  0.828234  0.656468  0.500165  1
  Si  Si12  1  0.341037  0.170518  0.999762  1
  Si  Si13  1  0.164399  0.328798  0.499719  1
  Si  Si14  1  0.171195  0.828805  0.000418  1
  Si  Si15  1  0.343532  0.171766  0.500165  1
  Si  Si16  1  0.829482  0.170518  0.999762  1
  Si  Si17  1  0.671202  0.835601  0.499719  1
  Si  Si18  1  0.828234  0.171766  0.500165  1
  Si  Si19  1  0.164399  0.835601  0.499719  1
  Ni  Ni20  1  0.333333  0.666667  0.000435  1
  Ni  Ni21  1  0.666667  0.333333  0.998456  1
  Ni  Ni22  1  0.666667  0.333333  0.501471  1
  Pd  Pd23  1  0.333333  0.666667  0.499468  1
