# generated using pymatgen
data_Tm3Lu9(Si3Ir)4
_symmetry_space_group_name_H-M   'P 1'
_cell_length_a   4.19224700
_cell_length_b   10.47830049
_cell_length_c   12.06435500
_cell_angle_alpha   90.05863382
_cell_angle_beta   90.00000000
_cell_angle_gamma   90.00000000
_symmetry_Int_Tables_number   1
_chemical_formula_structural   Tm3Lu9(Si3Ir)4
_chemical_formula_sum   'Tm3 Lu9 Si12 Ir4'
_cell_volume   529.95817009
_cell_formula_units_Z   1
loop_
 _symmetry_equiv_pos_site_id
 _symmetry_equiv_pos_as_xyz
  1  'x, y, z'
loop_
 _atom_site_type_symbol
 _atom_site_label
 _atom_site_symmetry_multiplicity
 _atom_site_fract_x
 _atom_site_fract_y
 _atom_site_fract_z
 _atom_site_occupancy
  Tm  Tm0  1  0.250000  0.841353  0.300465  1
  Tm  Tm1  1  0.750000  0.340456  0.199772  1
  Tm  Tm2  1  0.750000  0.158891  0.699592  1
  Lu  Lu3  1  0.250000  0.879216  0.020105  1
  Lu  Lu4  1  0.250000  0.620583  0.520294  1
  Lu  Lu5  1  0.750000  0.120615  0.979791  1
  Lu  Lu6  1  0.750000  0.379404  0.480058  1
  Lu  Lu7  1  0.250000  0.919222  0.602751  1
  Lu  Lu8  1  0.250000  0.580476  0.102926  1
  Lu  Lu9  1  0.750000  0.080336  0.397521  1
  Lu  Lu10  1  0.750000  0.420039  0.896891  1
  Lu  Lu11  1  0.250000  0.660083  0.799826  1
  Si  Si12  1  0.250000  0.011913  0.821705  1
  Si  Si13  1  0.250000  0.487529  0.321695  1
  Si  Si14  1  0.750000  0.988114  0.178295  1
  Si  Si15  1  0.750000  0.512846  0.678599  1
  Si  Si16  1  0.250000  0.248079  0.841531  1
  Si  Si17  1  0.250000  0.251593  0.341856  1
  Si  Si18  1  0.750000  0.751973  0.158303  1
  Si  Si19  1  0.750000  0.747731  0.658494  1
  Si  Si20  1  0.250000  0.197978  0.543904  1
  Si  Si21  1  0.250000  0.302135  0.043512  1
  Si  Si22  1  0.750000  0.801715  0.456285  1
  Si  Si23  1  0.750000  0.697583  0.955463  1
  Ir  Ir24  1  0.250000  0.390876  0.679060  1
  Ir  Ir25  1  0.250000  0.109928  0.177941  1
  Ir  Ir26  1  0.750000  0.609647  0.321483  1
  Ir  Ir27  1  0.750000  0.889685  0.821883  1
