# generated using pymatgen
data_La5Tb(Sn6Ru)2
_symmetry_space_group_name_H-M   'P 1'
_cell_length_a   8.73205113
_cell_length_b   8.73205039
_cell_length_c   13.59825600
_cell_angle_alpha   90.00000000
_cell_angle_beta   90.00000000
_cell_angle_gamma   148.33040189
_symmetry_Int_Tables_number   1
_chemical_formula_structural   La5Tb(Sn6Ru)2
_chemical_formula_sum   'La5 Tb1 Sn12 Ru2'
_cell_volume   544.36684671
_cell_formula_units_Z   1
loop_
 _symmetry_equiv_pos_site_id
 _symmetry_equiv_pos_as_xyz
  1  'x, y, z'
loop_
 _atom_site_type_symbol
 _atom_site_label
 _atom_site_symmetry_multiplicity
 _atom_site_fract_x
 _atom_site_fract_y
 _atom_site_fract_z
 _atom_site_occupancy
  La  La0  1  0.603600  0.396400  0.250000  1
  La  La1  1  0.399717  0.600283  0.405454  1
  La  La2  1  0.599956  0.400044  0.596386  1
  La  La3  1  0.399717  0.600283  0.094546  1
  La  La4  1  0.599956  0.400044  0.903614  1
  Tb  Tb5  1  0.396186  0.603814  0.750000  1
  Sn  Sn6  1  0.925128  0.074872  0.919343  1
  Sn  Sn7  1  0.071653  0.928347  0.075800  1
  Sn  Sn8  1  0.925128  0.074872  0.580657  1
  Sn  Sn9  1  0.071653  0.928347  0.424200  1
  Sn  Sn10  1  0.959126  0.040874  0.250000  1
  Sn  Sn11  1  0.039681  0.960319  0.750000  1
  Sn  Sn12  1  0.746686  0.253315  0.433600  1
  Sn  Sn13  1  0.255249  0.744751  0.568285  1
  Sn  Sn14  1  0.746686  0.253315  0.066400  1
  Sn  Sn15  1  0.255249  0.744751  0.931715  1
  Sn  Sn16  1  0.234079  0.765921  0.250000  1
  Sn  Sn17  1  0.769484  0.230516  0.750000  1
  Ru  Ru18  1  0.800362  0.199638  0.250000  1
  Ru  Ru19  1  0.200706  0.799294  0.750000  1
