# generated using pymatgen
data_Ho(Tm3In2)3
_symmetry_space_group_name_H-M   'P 1'
_cell_length_a   5.97397804
_cell_length_b   9.06467654
_cell_length_c   9.06467644
_cell_angle_alpha   83.76634867
_cell_angle_beta   70.76038210
_cell_angle_gamma   70.76038250
_symmetry_Int_Tables_number   1
_chemical_formula_structural   Ho(Tm3In2)3
_chemical_formula_sum   'Ho1 Tm9 In6'
_cell_volume   437.57155447
_cell_formula_units_Z   1
loop_
 _symmetry_equiv_pos_site_id
 _symmetry_equiv_pos_as_xyz
  1  'x, y, z'
loop_
 _atom_site_type_symbol
 _atom_site_label
 _atom_site_symmetry_multiplicity
 _atom_site_fract_x
 _atom_site_fract_y
 _atom_site_fract_z
 _atom_site_occupancy
  Ho  Ho0  1  0.250000  0.500000  0.500000  1
  Tm  Tm1  1  0.718889  0.861925  0.700099  1
  Tm  Tm2  1  0.280914  0.138075  0.299901  1
  Tm  Tm3  1  0.781111  0.299901  0.138075  1
  Tm  Tm4  1  0.219086  0.700099  0.861925  1
  Tm  Tm5  1  0.581011  0.700099  0.138075  1
  Tm  Tm6  1  0.419186  0.299901  0.861925  1
  Tm  Tm7  1  0.080814  0.138075  0.700099  1
  Tm  Tm8  1  0.918989  0.861925  0.299901  1
  Tm  Tm9  1  0.750000  0.500000  0.500000  1
  In  In10  1  0.162513  0.500000  0.174614  1
  In  In11  1  0.837127  0.500000  0.825386  1
  In  In12  1  0.337487  0.825386  0.500000  1
  In  In13  1  0.662873  0.174614  0.500000  1
  In  In14  1  0.250000  0.000000  0.000000  1
  In  In15  1  0.750000  0.000000  0.000000  1
