# generated using pymatgen
data_TbYbHo2(Si3Ni5)4
_symmetry_space_group_name_H-M   'P 1'
_cell_length_a   18.74667834
_cell_length_b   3.79951300
_cell_length_c   6.56941292
_cell_angle_alpha   90.00000000
_cell_angle_beta   90.32743901
_cell_angle_gamma   90.00000000
_symmetry_Int_Tables_number   1
_chemical_formula_structural   TbYbHo2(Si3Ni5)4
_chemical_formula_sum   'Tb1 Yb1 Ho2 Si12 Ni20'
_cell_volume   467.92013222
_cell_formula_units_Z   1
loop_
 _symmetry_equiv_pos_site_id
 _symmetry_equiv_pos_as_xyz
  1  'x, y, z'
loop_
 _atom_site_type_symbol
 _atom_site_label
 _atom_site_symmetry_multiplicity
 _atom_site_fract_x
 _atom_site_fract_y
 _atom_site_fract_z
 _atom_site_occupancy
  Tb  Tb0  1  0.643279  0.250000  0.624957  1
  Yb  Yb1  1  0.856735  0.750000  0.121569  1
  Ho  Ho2  1  0.144142  0.250000  0.874853  1
  Ho  Ho3  1  0.355756  0.750000  0.376615  1
  Si  Si4  1  0.913946  0.250000  0.419910  1
  Si  Si5  1  0.412484  0.250000  0.078944  1
  Si  Si6  1  0.086916  0.750000  0.575853  1
  Si  Si7  1  0.586099  0.750000  0.924195  1
  Si  Si8  1  0.738130  0.250000  0.120657  1
  Si  Si9  1  0.237402  0.250000  0.383346  1
  Si  Si10  1  0.262718  0.750000  0.883392  1
  Si  Si11  1  0.762462  0.750000  0.621193  1
  Si  Si12  1  0.925839  0.250000  0.841121  1
  Si  Si13  1  0.426277  0.250000  0.656145  1
  Si  Si14  1  0.073682  0.750000  0.153468  1
  Si  Si15  1  0.573933  0.750000  0.342473  1
  Ni  Ni16  1  0.800732  0.250000  0.814319  1
  Ni  Ni17  1  0.301266  0.250000  0.689041  1
  Ni  Ni18  1  0.198434  0.750000  0.187664  1
  Ni  Ni19  1  0.699768  0.750000  0.314239  1
  Ni  Ni20  1  0.995012  0.250000  0.132389  1
  Ni  Ni21  1  0.494482  0.250000  0.365037  1
  Ni  Ni22  1  0.004965  0.750000  0.862200  1
  Ni  Ni23  1  0.505663  0.750000  0.634774  1
  Ni  Ni24  1  0.515642  0.250000  0.888378  1
  Ni  Ni25  1  0.016616  0.250000  0.612121  1
  Ni  Ni26  1  0.482916  0.750000  0.115070  1
  Ni  Ni27  1  0.983656  0.750000  0.383332  1
  Ni  Ni28  1  0.616406  0.250000  0.145713  1
  Ni  Ni29  1  0.115686  0.250000  0.352305  1
  Ni  Ni30  1  0.384509  0.750000  0.852870  1
  Ni  Ni31  1  0.883811  0.750000  0.642112  1
  Ni  Ni32  1  0.793730  0.250000  0.429750  1
  Ni  Ni33  1  0.291723  0.250000  0.074098  1
  Ni  Ni34  1  0.207627  0.750000  0.573787  1
  Ni  Ni35  1  0.707559  0.750000  0.932112  1
