# generated using pymatgen
data_K4Rb2VAsSe8
_symmetry_space_group_name_H-M   'P 1'
_cell_length_a   9.79611502
_cell_length_b   10.08833661
_cell_length_c   11.02795400
_cell_angle_alpha   90.00000000
_cell_angle_beta   90.00000000
_cell_angle_gamma   88.96486376
_symmetry_Int_Tables_number   1
_chemical_formula_structural   K4Rb2VAsSe8
_chemical_formula_sum   'K8 Rb4 V2 As2 Se16'
_cell_volume   1089.67630152
_cell_formula_units_Z   2
loop_
 _symmetry_equiv_pos_site_id
 _symmetry_equiv_pos_as_xyz
  1  'x, y, z'
loop_
 _atom_site_type_symbol
 _atom_site_label
 _atom_site_symmetry_multiplicity
 _atom_site_fract_x
 _atom_site_fract_y
 _atom_site_fract_z
 _atom_site_occupancy
  K  K0  1  0.056707  0.803243  0.954544  1
  K  K1  1  0.563447  0.703425  0.548902  1
  K  K2  1  0.436553  0.296575  0.048902  1
  K  K3  1  0.943293  0.196757  0.454544  1
  K  K4  1  0.943293  0.196757  0.045456  1
  K  K5  1  0.436553  0.296575  0.451098  1
  K  K6  1  0.563447  0.703425  0.951098  1
  K  K7  1  0.056707  0.803243  0.545456  1
  Rb  Rb8  1  0.641093  0.922181  0.250000  1
  Rb  Rb9  1  0.150889  0.588533  0.250000  1
  Rb  Rb10  1  0.849111  0.411467  0.750000  1
  Rb  Rb11  1  0.358907  0.077819  0.750000  1
  V  V12  1  0.782966  0.979786  0.750000  1
  V  V13  1  0.217034  0.020214  0.250000  1
  As  As14  1  0.730317  0.480516  0.250000  1
  As  As15  1  0.269683  0.519484  0.750000  1
  Se  Se16  1  0.333082  0.958159  0.078166  1
  Se  Se17  1  0.854126  0.531694  0.427826  1
  Se  Se18  1  0.145874  0.468306  0.927826  1
  Se  Se19  1  0.666918  0.041841  0.578166  1
  Se  Se20  1  0.004351  0.924317  0.250000  1
  Se  Se21  1  0.516024  0.593794  0.250000  1
  Se  Se22  1  0.483976  0.406206  0.750000  1
  Se  Se23  1  0.995649  0.075683  0.750000  1
  Se  Se24  1  0.666918  0.041841  0.921834  1
  Se  Se25  1  0.333082  0.958159  0.421834  1
  Se  Se26  1  0.854126  0.531694  0.072174  1
  Se  Se27  1  0.145874  0.468306  0.572174  1
  Se  Se28  1  0.811586  0.752950  0.750000  1
  Se  Se29  1  0.309597  0.748917  0.750000  1
  Se  Se30  1  0.690403  0.251083  0.250000  1
  Se  Se31  1  0.188414  0.247050  0.250000  1
