# generated using pymatgen
data_Lu4Al4GaTc3
_symmetry_space_group_name_H-M   'P 1'
_cell_length_a   5.44500406
_cell_length_b   5.46156424
_cell_length_c   8.69580400
_cell_angle_alpha   90.00000000
_cell_angle_beta   90.00000000
_cell_angle_gamma   120.15119357
_symmetry_Int_Tables_number   1
_chemical_formula_structural   Lu4Al4GaTc3
_chemical_formula_sum   'Lu4 Al4 Ga1 Tc3'
_cell_volume   223.61037582
_cell_formula_units_Z   1
loop_
 _symmetry_equiv_pos_site_id
 _symmetry_equiv_pos_as_xyz
  1  'x, y, z'
loop_
 _atom_site_type_symbol
 _atom_site_label
 _atom_site_symmetry_multiplicity
 _atom_site_fract_x
 _atom_site_fract_y
 _atom_site_fract_z
 _atom_site_occupancy
  Lu  Lu0  1  0.336296  0.667952  0.443256  1
  Lu  Lu1  1  0.665436  0.332548  0.554207  1
  Lu  Lu2  1  0.665436  0.332548  0.945793  1
  Lu  Lu3  1  0.336296  0.667952  0.056744  1
  Al  Al4  1  0.834217  0.672592  0.250000  1
  Al  Al5  1  0.323012  0.162838  0.250000  1
  Al  Al6  1  0.186527  0.842738  0.750000  1
  Al  Al7  1  0.186437  0.343707  0.750000  1
  Ga  Ga8  1  0.833241  0.165098  0.250000  1
  Tc  Tc9  1  0.978692  0.987105  0.510146  1
  Tc  Tc10  1  0.978692  0.987105  0.989854  1
  Tc  Tc11  1  0.675718  0.837817  0.750000  1
