# generated using pymatgen
data_LaTa2BiO8
_symmetry_space_group_name_H-M   'P 1'
_cell_length_a   5.18066100
_cell_length_b   5.37466394
_cell_length_c   13.54056021
_cell_angle_alpha   70.85900731
_cell_angle_beta   90.00000000
_cell_angle_gamma   90.00000000
_symmetry_Int_Tables_number   1
_chemical_formula_structural   LaTa2BiO8
_chemical_formula_sum   'La2 Ta4 Bi2 O16'
_cell_volume   356.18344566
_cell_formula_units_Z   2
loop_
 _symmetry_equiv_pos_site_id
 _symmetry_equiv_pos_as_xyz
  1  'x, y, z'
loop_
 _atom_site_type_symbol
 _atom_site_label
 _atom_site_symmetry_multiplicity
 _atom_site_fract_x
 _atom_site_fract_y
 _atom_site_fract_z
 _atom_site_occupancy
  La  La0  1  0.209119  0.345434  0.655047  1
  La  La1  1  0.290881  0.345434  0.155047  1
  Ta  Ta2  1  0.749648  0.907122  0.074541  1
  Ta  Ta3  1  0.750352  0.907122  0.574541  1
  Ta  Ta4  1  0.251499  0.094467  0.924685  1
  Ta  Ta5  1  0.248501  0.094467  0.424685  1
  Bi  Bi6  1  0.773189  0.677710  0.336401  1
  Bi  Bi7  1  0.726811  0.677710  0.836401  1
  O  O8  1  0.441474  0.752359  0.031254  1
  O  O9  1  0.058526  0.752359  0.531254  1
  O  O10  1  0.543601  0.248465  0.977964  1
  O  O11  1  0.956399  0.248465  0.477964  1
  O  O12  1  0.604647  0.985508  0.194288  1
  O  O13  1  0.895353  0.985508  0.694288  1
  O  O14  1  0.406115  0.000677  0.813271  1
  O  O15  1  0.093885  0.000677  0.313271  1
  O  O16  1  0.055106  0.139429  0.054164  1
  O  O17  1  0.444894  0.139429  0.554164  1
  O  O18  1  0.936361  0.856299  0.943242  1
  O  O19  1  0.563639  0.856299  0.443242  1
  O  O20  1  0.886240  0.588121  0.168475  1
  O  O21  1  0.613760  0.588121  0.668475  1
  O  O22  1  0.108081  0.404411  0.826669  1
  O  O23  1  0.391919  0.404411  0.326669  1
