# generated using pymatgen
data_Nd3Tm2P12Ir10Ru9
_symmetry_space_group_name_H-M   'P 1'
_cell_length_a   12.69278900
_cell_length_b   12.69278849
_cell_length_c   3.96964500
_cell_angle_alpha   90.00000000
_cell_angle_beta   90.00000000
_cell_angle_gamma   119.99999350
_symmetry_Int_Tables_number   1
_chemical_formula_structural   Nd3Tm2P12Ir10Ru9
_chemical_formula_sum   'Nd3 Tm2 P12 Ir10 Ru9'
_cell_volume   553.85545063
_cell_formula_units_Z   1
loop_
 _symmetry_equiv_pos_site_id
 _symmetry_equiv_pos_as_xyz
  1  'x, y, z'
loop_
 _atom_site_type_symbol
 _atom_site_label
 _atom_site_symmetry_multiplicity
 _atom_site_fract_x
 _atom_site_fract_y
 _atom_site_fract_z
 _atom_site_occupancy
  Nd  Nd0  1  0.188627  0.188627  0.000000  1
  Nd  Nd1  1  0.811373  0.000000  0.000000  1
  Nd  Nd2  1  0.000000  0.811373  0.000000  1
  Tm  Tm3  1  0.333333  0.666667  0.500000  1
  Tm  Tm4  1  0.666667  0.333333  0.500000  1
  P  P5  1  0.307226  0.825221  0.000000  1
  P  P6  1  0.174779  0.482006  0.000000  1
  P  P7  1  0.517994  0.692774  0.000000  1
  P  P8  1  0.825221  0.307226  0.000000  1
  P  P9  1  0.482006  0.174779  0.000000  1
  P  P10  1  0.692774  0.517994  0.000000  1
  P  P11  1  0.365907  0.365907  0.500000  1
  P  P12  1  0.634093  0.000000  0.500000  1
  P  P13  1  0.000000  0.634093  0.500000  1
  P  P14  1  0.815985  0.815985  0.500000  1
  P  P15  1  0.184015  0.000000  0.500000  1
  P  P16  1  0.000000  0.184015  0.500000  1
  Ir  Ir17  1  0.130341  0.635033  0.000000  1
  Ir  Ir18  1  0.364967  0.495307  0.000000  1
  Ir  Ir19  1  0.504693  0.869659  0.000000  1
  Ir  Ir20  1  0.635033  0.130341  0.000000  1
  Ir  Ir21  1  0.495307  0.364967  0.000000  1
  Ir  Ir22  1  0.869659  0.504693  0.000000  1
  Ir  Ir23  1  0.710943  0.710943  0.000000  1
  Ir  Ir24  1  0.289057  0.000000  0.000000  1
  Ir  Ir25  1  0.000000  0.289057  0.000000  1
  Ir  Ir26  1  0.000000  0.000000  0.500000  1
  Ru  Ru27  1  0.199367  0.817378  0.500000  1
  Ru  Ru28  1  0.182622  0.381989  0.500000  1
  Ru  Ru29  1  0.618011  0.800633  0.500000  1
  Ru  Ru30  1  0.817378  0.199367  0.500000  1
  Ru  Ru31  1  0.381989  0.182622  0.500000  1
  Ru  Ru32  1  0.800633  0.618011  0.500000  1
  Ru  Ru33  1  0.547536  0.547536  0.500000  1
  Ru  Ru34  1  0.452464  0.000000  0.500000  1
  Ru  Ru35  1  0.000000  0.452464  0.500000  1
