# generated using pymatgen
data_Zr6TcNi17P12
_symmetry_space_group_name_H-M   'P 1'
_cell_length_a   3.66792701
_cell_length_b   10.38894105
_cell_length_c   12.14059900
_cell_angle_alpha   89.99891767
_cell_angle_beta   90.00098063
_cell_angle_gamma   90.01026372
_symmetry_Int_Tables_number   1
_chemical_formula_structural   Zr6TcNi17P12
_chemical_formula_sum   'Zr6 Tc1 Ni17 P12'
_cell_volume   462.62817079
_cell_formula_units_Z   1
loop_
 _symmetry_equiv_pos_site_id
 _symmetry_equiv_pos_as_xyz
  1  'x, y, z'
loop_
 _atom_site_type_symbol
 _atom_site_label
 _atom_site_symmetry_multiplicity
 _atom_site_fract_x
 _atom_site_fract_y
 _atom_site_fract_z
 _atom_site_occupancy
  Zr  Zr0  1  0.751943  0.999999  0.470503  1
  Zr  Zr1  1  0.251810  0.500005  0.524594  1
  Zr  Zr2  1  0.252291  0.680755  0.794140  1
  Zr  Zr3  1  0.251368  0.319238  0.794127  1
  Zr  Zr4  1  0.751825  0.819917  0.207408  1
  Zr  Zr5  1  0.751803  0.180092  0.207427  1
  Tc  Tc6  1  0.251950  0.000002  0.839505  1
  Ni  Ni7  1  0.751739  0.999975  0.015682  1
  Ni  Ni8  1  0.251483  0.500023  0.984006  1
  Ni  Ni9  1  0.251910  0.197566  0.568315  1
  Ni  Ni10  1  0.252007  0.802379  0.568301  1
  Ni  Ni11  1  0.752055  0.301324  0.430881  1
  Ni  Ni12  1  0.751813  0.698730  0.430870  1
  Ni  Ni13  1  0.251788  0.623551  0.292576  1
  Ni  Ni14  1  0.251769  0.376443  0.292628  1
  Ni  Ni15  1  0.752180  0.875366  0.705176  1
  Ni  Ni16  1  0.751808  0.124631  0.705187  1
  Ni  Ni17  1  0.251489  0.171662  0.010463  1
  Ni  Ni18  1  0.252074  0.828370  0.010416  1
  Ni  Ni19  1  0.751451  0.333834  0.994587  1
  Ni  Ni20  1  0.751662  0.666158  0.994605  1
  Ni  Ni21  1  0.751797  0.499967  0.164029  1
  Ni  Ni22  1  0.251887  0.000017  0.298908  1
  Ni  Ni23  1  0.751857  0.499977  0.699584  1
  P  P24  1  0.251999  0.184120  0.383453  1
  P  P25  1  0.251897  0.815872  0.383441  1
  P  P26  1  0.751936  0.316831  0.616009  1
  P  P27  1  0.751921  0.683168  0.615991  1
  P  P28  1  0.251812  0.000008  0.122326  1
  P  P29  1  0.751618  0.499995  0.875588  1
  P  P30  1  0.251666  0.652211  0.112222  1
  P  P31  1  0.251551  0.347830  0.112249  1
  P  P32  1  0.751996  0.843914  0.889118  1
  P  P33  1  0.751692  0.156071  0.889135  1
  P  P34  1  0.252017  0.999992  0.646224  1
  P  P35  1  0.751742  0.500011  0.350326  1
