# generated using pymatgen
data_La10TcOs3
_symmetry_space_group_name_H-M   'P 1'
_cell_length_a   9.06857063
_cell_length_b   9.00507636
_cell_length_c   7.44869875
_cell_angle_alpha   85.00660629
_cell_angle_beta   84.77037861
_cell_angle_gamma   44.15698967
_symmetry_Int_Tables_number   1
_chemical_formula_structural   La10TcOs3
_chemical_formula_sum   'La10 Tc1 Os3'
_cell_volume   421.77774542
_cell_formula_units_Z   1
loop_
 _symmetry_equiv_pos_site_id
 _symmetry_equiv_pos_as_xyz
  1  'x, y, z'
loop_
 _atom_site_type_symbol
 _atom_site_label
 _atom_site_symmetry_multiplicity
 _atom_site_fract_x
 _atom_site_fract_y
 _atom_site_fract_z
 _atom_site_occupancy
  La  La0  1  0.019395  0.794879  0.901866  1
  La  La1  1  0.199012  0.982389  0.592428  1
  La  La2  1  0.986103  0.198568  0.093476  1
  La  La3  1  0.798327  0.016503  0.406039  1
  La  La4  1  0.358863  0.209976  0.822014  1
  La  La5  1  0.790913  0.638965  0.681318  1
  La  La6  1  0.640470  0.789787  0.178964  1
  La  La7  1  0.210456  0.360890  0.321529  1
  La  La8  1  0.576734  0.425899  0.751042  1
  La  La9  1  0.426984  0.571756  0.248790  1
  Tc  Tc10  1  0.166826  0.615711  0.576395  1
  Os  Os11  1  0.395602  0.827465  0.926103  1
  Os  Os12  1  0.823365  0.397916  0.423348  1
  Os  Os13  1  0.606948  0.169296  0.076690  1
