# generated using pymatgen
data_Th8BeSi11Os4
_symmetry_space_group_name_H-M   'P 1'
_cell_length_a   8.23860500
_cell_length_b   8.23860527
_cell_length_c   8.46609700
_cell_angle_alpha   90.00006259
_cell_angle_beta   89.99993741
_cell_angle_gamma   120.04940234
_symmetry_Int_Tables_number   1
_chemical_formula_structural   Th8BeSi11Os4
_chemical_formula_sum   'Th8 Be1 Si11 Os4'
_cell_volume   497.39891805
_cell_formula_units_Z   1
loop_
 _symmetry_equiv_pos_site_id
 _symmetry_equiv_pos_as_xyz
  1  'x, y, z'
loop_
 _atom_site_type_symbol
 _atom_site_label
 _atom_site_symmetry_multiplicity
 _atom_site_fract_x
 _atom_site_fract_y
 _atom_site_fract_z
 _atom_site_occupancy
  Th  Th0  1  0.497266  0.502734  0.753551  1
  Th  Th1  1  0.497342  0.502658  0.246464  1
  Th  Th2  1  0.995881  0.496787  0.755354  1
  Th  Th3  1  0.995723  0.496694  0.244632  1
  Th  Th4  1  0.503213  0.004119  0.755354  1
  Th  Th5  1  0.503306  0.004277  0.244632  1
  Th  Th6  1  0.001397  0.998603  0.750594  1
  Th  Th7  1  0.001395  0.998605  0.249404  1
  Be  Be8  1  0.836943  0.163057  0.999949  1
  Si  Si9  1  0.167067  0.832933  0.999999  1
  Si  Si10  1  0.333954  0.169138  0.000000  1
  Si  Si11  1  0.165384  0.834616  0.499979  1
  Si  Si12  1  0.676713  0.847705  0.000003  1
  Si  Si13  1  0.834279  0.165721  0.500029  1
  Si  Si14  1  0.830862  0.666046  0.000000  1
  Si  Si15  1  0.666664  0.833467  0.499964  1
  Si  Si16  1  0.152295  0.323287  0.000003  1
  Si  Si17  1  0.332947  0.167659  0.500049  1
  Si  Si18  1  0.166533  0.333336  0.499964  1
  Si  Si19  1  0.832341  0.667053  0.500049  1
  Os  Os20  1  0.673172  0.326828  0.999936  1
  Os  Os21  1  0.336134  0.663866  0.000047  1
  Os  Os22  1  0.332261  0.667739  0.500077  1
  Os  Os23  1  0.666928  0.333072  0.499967  1
