# generated using pymatgen
data_TaZn6Ru12W5
_symmetry_space_group_name_H-M   'P 1'
_cell_length_a   4.34036900
_cell_length_b   6.16249300
_cell_length_c   13.02356000
_cell_angle_alpha   89.99976475
_cell_angle_beta   90.00301387
_cell_angle_gamma   90.00016288
_symmetry_Int_Tables_number   1
_chemical_formula_structural   TaZn6Ru12W5
_chemical_formula_sum   'Ta1 Zn6 Ru12 W5'
_cell_volume   348.34758724
_cell_formula_units_Z   1
loop_
 _symmetry_equiv_pos_site_id
 _symmetry_equiv_pos_as_xyz
  1  'x, y, z'
loop_
 _atom_site_type_symbol
 _atom_site_label
 _atom_site_symmetry_multiplicity
 _atom_site_fract_x
 _atom_site_fract_y
 _atom_site_fract_z
 _atom_site_occupancy
  Ta  Ta0  1  0.000000  0.500000  0.000000  1
  Zn  Zn1  1  0.000000  0.000000  0.000000  1
  Zn  Zn2  1  0.499716  0.500000  0.165901  1
  Zn  Zn3  1  0.999710  0.000000  0.334534  1
  Zn  Zn4  1  0.500001  0.500000  0.500000  1
  Zn  Zn5  1  0.000289  0.000000  0.665466  1
  Zn  Zn6  1  0.500284  0.500000  0.834099  1
  Ru  Ru7  1  0.500002  0.245617  0.000000  1
  Ru  Ru8  1  0.500000  0.754383  0.000000  1
  Ru  Ru9  1  0.999751  0.247789  0.169164  1
  Ru  Ru10  1  0.999750  0.752213  0.169165  1
  Ru  Ru11  1  0.499748  0.250421  0.333946  1
  Ru  Ru12  1  0.499749  0.749578  0.333946  1
  Ru  Ru13  1  0.000000  0.250026  0.500000  1
  Ru  Ru14  1  0.000000  0.749974  0.500000  1
  Ru  Ru15  1  0.500250  0.250422  0.666054  1
  Ru  Ru16  1  0.500251  0.749579  0.666054  1
  Ru  Ru17  1  0.000251  0.247787  0.830835  1
  Ru  Ru18  1  0.000250  0.752211  0.830836  1
  W  W19  1  0.499703  0.999998  0.166246  1
  W  W20  1  0.999746  0.500003  0.332983  1
  W  W21  1  0.500001  0.000000  0.500000  1
  W  W22  1  0.000256  0.499997  0.667017  1
  W  W23  1  0.500296  0.000002  0.833754  1
