# generated using pymatgen
data_NaEu(CoP)4
_symmetry_space_group_name_H-M   'P 1'
_cell_length_a   6.38196067
_cell_length_b   6.38196112
_cell_length_c   5.16869700
_cell_angle_alpha   90.00000000
_cell_angle_beta   90.00000000
_cell_angle_gamma   132.24473459
_symmetry_Int_Tables_number   1
_chemical_formula_structural   NaEu(CoP)4
_chemical_formula_sum   'Na1 Eu1 Co4 P4'
_cell_volume   155.84228831
_cell_formula_units_Z   1
loop_
 _symmetry_equiv_pos_site_id
 _symmetry_equiv_pos_as_xyz
  1  'x, y, z'
loop_
 _atom_site_type_symbol
 _atom_site_label
 _atom_site_symmetry_multiplicity
 _atom_site_fract_x
 _atom_site_fract_y
 _atom_site_fract_z
 _atom_site_occupancy
  Na  Na0  1  0.000000  0.000000  0.000000  1
  Eu  Eu1  1  0.500000  0.500000  0.500000  1
  Co  Co2  1  0.500000  0.000000  0.750096  1
  Co  Co3  1  0.000000  0.500000  0.249904  1
  Co  Co4  1  0.000000  0.500000  0.750096  1
  Co  Co5  1  0.500000  0.000000  0.249904  1
  P  P6  1  0.355639  0.644361  0.000000  1
  P  P7  1  0.855577  0.144423  0.500000  1
  P  P8  1  0.144423  0.855577  0.500000  1
  P  P9  1  0.644361  0.355639  0.000000  1
