# generated using pymatgen
data_Nd5HgSe4
_symmetry_space_group_name_H-M   'P 1'
_cell_length_a   7.40907878
_cell_length_b   7.40907950
_cell_length_c   7.40907859
_cell_angle_alpha   99.71560251
_cell_angle_beta   99.71560021
_cell_angle_gamma   131.48962664
_symmetry_Int_Tables_number   1
_chemical_formula_structural   Nd5HgSe4
_chemical_formula_sum   'Nd5 Hg1 Se4'
_cell_volume   277.76796839
_cell_formula_units_Z   1
loop_
 _symmetry_equiv_pos_site_id
 _symmetry_equiv_pos_as_xyz
  1  'x, y, z'
loop_
 _atom_site_type_symbol
 _atom_site_label
 _atom_site_symmetry_multiplicity
 _atom_site_fract_x
 _atom_site_fract_y
 _atom_site_fract_z
 _atom_site_occupancy
  Nd  Nd0  1  0.397311  0.806674  0.203985  1
  Nd  Nd1  1  0.000000  0.000000  0.000000  1
  Nd  Nd2  1  0.602689  0.193326  0.796015  1
  Nd  Nd3  1  0.193326  0.397311  0.590637  1
  Nd  Nd4  1  0.806674  0.602689  0.409363  1
  Hg  Hg5  1  0.500000  0.500000  0.000000  1
  Se  Se6  1  0.101350  0.699169  0.800518  1
  Se  Se7  1  0.699169  0.898650  0.597818  1
  Se  Se8  1  0.300831  0.101350  0.402182  1
  Se  Se9  1  0.898650  0.300831  0.199482  1
