# generated using pymatgen
data_TbEr(IrO4)2
_symmetry_space_group_name_H-M   'P 1'
_cell_length_a   5.35049643
_cell_length_b   7.63031977
_cell_length_c   7.39410488
_cell_angle_alpha   80.80222325
_cell_angle_beta   90.75566432
_cell_angle_gamma   93.12243751
_symmetry_Int_Tables_number   1
_chemical_formula_structural   TbEr(IrO4)2
_chemical_formula_sum   'Tb2 Er2 Ir4 O16'
_cell_volume   297.54492323
_cell_formula_units_Z   2
loop_
 _symmetry_equiv_pos_site_id
 _symmetry_equiv_pos_as_xyz
  1  'x, y, z'
loop_
 _atom_site_type_symbol
 _atom_site_label
 _atom_site_symmetry_multiplicity
 _atom_site_fract_x
 _atom_site_fract_y
 _atom_site_fract_z
 _atom_site_occupancy
  Tb  Tb0  1  0.262634  0.127661  0.612244  1
  Tb  Tb1  1  0.737366  0.872339  0.387756  1
  Er  Er2  1  0.200037  0.165885  0.105824  1
  Er  Er3  1  0.799963  0.834115  0.894176  1
  Ir  Ir4  1  0.239355  0.660323  0.202994  1
  Ir  Ir5  1  0.760645  0.339677  0.797006  1
  Ir  Ir6  1  0.717819  0.337406  0.300001  1
  Ir  Ir7  1  0.282181  0.662594  0.699999  1
  O  O8  1  0.079310  0.446262  0.689181  1
  O  O9  1  0.920690  0.553738  0.310819  1
  O  O10  1  0.609766  0.328170  0.553020  1
  O  O11  1  0.390234  0.671830  0.446980  1
  O  O12  1  0.863501  0.332458  0.055270  1
  O  O13  1  0.136499  0.667542  0.944730  1
  O  O14  1  0.399909  0.436933  0.193798  1
  O  O15  1  0.600091  0.563067  0.806202  1
  O  O16  1  0.048095  0.887707  0.170234  1
  O  O17  1  0.951905  0.112293  0.829766  1
  O  O18  1  0.495969  0.108671  0.320300  1
  O  O19  1  0.504031  0.891329  0.679700  1
  O  O20  1  0.455773  0.201644  0.876946  1
  O  O21  1  0.544227  0.798356  0.123054  1
  O  O22  1  0.982089  0.168410  0.379976  1
  O  O23  1  0.017911  0.831590  0.620024  1
