# generated using pymatgen
data_Pr12Sn4Ge4Ir3Rh5
_symmetry_space_group_name_H-M   'P 1'
_cell_length_a   5.81037271
_cell_length_b   8.44693141
_cell_length_c   13.75327856
_cell_angle_alpha   90.06028910
_cell_angle_beta   89.96436733
_cell_angle_gamma   90.31147154
_symmetry_Int_Tables_number   1
_chemical_formula_structural   Pr12Sn4Ge4Ir3Rh5
_chemical_formula_sum   'Pr12 Sn4 Ge4 Ir3 Rh5'
_cell_volume   674.99795736
_cell_formula_units_Z   1
loop_
 _symmetry_equiv_pos_site_id
 _symmetry_equiv_pos_as_xyz
  1  'x, y, z'
loop_
 _atom_site_type_symbol
 _atom_site_label
 _atom_site_symmetry_multiplicity
 _atom_site_fract_x
 _atom_site_fract_y
 _atom_site_fract_z
 _atom_site_occupancy
  Pr  Pr0  1  0.644108  0.250978  0.249259  1
  Pr  Pr1  1  0.356895  0.750454  0.749748  1
  Pr  Pr2  1  0.356483  0.752070  0.249218  1
  Pr  Pr3  1  0.642967  0.246837  0.749802  1
  Pr  Pr4  1  0.158373  0.393691  0.101493  1
  Pr  Pr5  1  0.841000  0.606162  0.898611  1
  Pr  Pr6  1  0.840873  0.605869  0.601383  1
  Pr  Pr7  1  0.840884  0.895549  0.399423  1
  Pr  Pr8  1  0.157364  0.395495  0.398373  1
  Pr  Pr9  1  0.156653  0.104410  0.600256  1
  Pr  Pr10  1  0.157387  0.104096  0.899578  1
  Pr  Pr11  1  0.843179  0.896296  0.100988  1
  Sn  Sn12  1  0.655230  0.250501  0.999951  1
  Sn  Sn13  1  0.344361  0.749714  0.999947  1
  Sn  Sn14  1  0.343263  0.749073  0.499967  1
  Sn  Sn15  1  0.655809  0.250253  0.499644  1
  Ge  Ge16  1  0.144157  0.105064  0.250978  1
  Ge  Ge17  1  0.857834  0.895801  0.750161  1
  Ge  Ge18  1  0.856826  0.605102  0.249894  1
  Ge  Ge19  1  0.143956  0.395202  0.749925  1
  Ir  Ir20  1  0.369973  0.038503  0.097475  1
  Ir  Ir21  1  0.630335  0.961250  0.902920  1
  Ir  Ir22  1  0.630784  0.960903  0.597577  1
  Rh  Rh23  1  0.625651  0.538473  0.402761  1
  Rh  Rh24  1  0.372827  0.037261  0.403594  1
  Rh  Rh25  1  0.373126  0.461555  0.596952  1
  Rh  Rh26  1  0.372484  0.461088  0.903381  1
  Rh  Rh27  1  0.627218  0.538350  0.096741  1
