# generated using pymatgen
data_Ho12In2Fe2Ru
_symmetry_space_group_name_H-M   'P 1'
_cell_length_a   8.33150985
_cell_length_b   8.33150972
_cell_length_c   8.33150948
_cell_angle_alpha   108.69014916
_cell_angle_beta   108.69015506
_cell_angle_gamma   111.04491928
_symmetry_Int_Tables_number   1
_chemical_formula_structural   Ho12In2Fe2Ru
_chemical_formula_sum   'Ho12 In2 Fe2 Ru1'
_cell_volume   444.94120622
_cell_formula_units_Z   1
loop_
 _symmetry_equiv_pos_site_id
 _symmetry_equiv_pos_as_xyz
  1  'x, y, z'
loop_
 _atom_site_type_symbol
 _atom_site_label
 _atom_site_symmetry_multiplicity
 _atom_site_fract_x
 _atom_site_fract_y
 _atom_site_fract_z
 _atom_site_occupancy
  Ho  Ho0  1  0.432251  0.193494  0.238757  1
  Ho  Ho1  1  0.567749  0.806506  0.761243  1
  Ho  Ho2  1  0.954738  0.193494  0.761243  1
  Ho  Ho3  1  0.193494  0.954738  0.761243  1
  Ho  Ho4  1  0.045262  0.806506  0.238757  1
  Ho  Ho5  1  0.806506  0.045262  0.238757  1
  Ho  Ho6  1  0.193494  0.432251  0.238757  1
  Ho  Ho7  1  0.806506  0.567749  0.761243  1
  Ho  Ho8  1  0.306523  0.306523  0.613046  1
  Ho  Ho9  1  0.693477  0.693477  0.386954  1
  Ho  Ho10  1  0.306523  0.693477  0.000000  1
  Ho  Ho11  1  0.693477  0.306523  0.000000  1
  In  In12  1  0.500000  0.000000  0.500000  1
  In  In13  1  0.000000  0.500000  0.500000  1
  Fe  Fe14  1  0.386185  0.386185  0.000000  1
  Fe  Fe15  1  0.613815  0.613815  0.000000  1
  Ru  Ru16  1  0.000000  0.000000  0.000000  1
