# generated using pymatgen
data_Pm(GeAu)2
_symmetry_space_group_name_H-M   'P 1'
_cell_length_a   6.15190554
_cell_length_b   6.15190570
_cell_length_c   6.15190500
_cell_angle_alpha   137.63245066
_cell_angle_beta   137.63244515
_cell_angle_gamma   61.46638587
_symmetry_Int_Tables_number   1
_chemical_formula_structural   Pm(GeAu)2
_chemical_formula_sum   'Pm1 Ge2 Au2'
_cell_volume   104.53092433
_cell_formula_units_Z   1
loop_
 _symmetry_equiv_pos_site_id
 _symmetry_equiv_pos_as_xyz
  1  'x, y, z'
loop_
 _atom_site_type_symbol
 _atom_site_label
 _atom_site_symmetry_multiplicity
 _atom_site_fract_x
 _atom_site_fract_y
 _atom_site_fract_z
 _atom_site_occupancy
  Pm  Pm0  1  0.000000  0.000000  0.000000  1
  Ge  Ge1  1  0.383636  0.383636  0.000000  1
  Ge  Ge2  1  0.616363  0.616363  0.000000  1
  Au  Au3  1  0.750000  0.250000  0.500000  1
  Au  Au4  1  0.250000  0.750000  0.500000  1
