# generated using pymatgen
data_La5Yb2Pr3(Si2Ge)2
_symmetry_space_group_name_H-M   'P 1'
_cell_length_a   7.88645219
_cell_length_b   9.01871341
_cell_length_c   7.88645219
_cell_angle_alpha   115.83938702
_cell_angle_beta   90.26181382
_cell_angle_gamma   115.76039300
_symmetry_Int_Tables_number   1
_chemical_formula_structural   La5Yb2Pr3(Si2Ge)2
_chemical_formula_sum   'La5 Yb2 Pr3 Si4 Ge2'
_cell_volume   441.46156276
_cell_formula_units_Z   1
loop_
 _symmetry_equiv_pos_site_id
 _symmetry_equiv_pos_as_xyz
  1  'x, y, z'
loop_
 _atom_site_type_symbol
 _atom_site_label
 _atom_site_symmetry_multiplicity
 _atom_site_fract_x
 _atom_site_fract_y
 _atom_site_fract_z
 _atom_site_occupancy
  La  La0  1  0.532843  0.709668  0.676827  1
  La  La1  1  0.675148  0.707172  0.175001  1
  La  La2  1  0.032172  0.707172  0.532025  1
  La  La3  1  0.325039  0.292345  0.825262  1
  La  La4  1  0.967083  0.292345  0.467305  1
  Yb  Yb5  1  0.000395  0.000572  0.000454  1
  Yb  Yb6  1  0.500118  0.000572  0.500177  1
  Pr  Pr7  1  0.178982  0.713388  0.034407  1
  Pr  Pr8  1  0.466414  0.288210  0.321796  1
  Pr  Pr9  1  0.821265  0.287391  0.966125  1
  Si  Si10  1  0.886860  0.000320  0.613461  1
  Si  Si11  1  0.114847  0.000700  0.385853  1
  Si  Si12  1  0.613064  0.000745  0.114095  1
  Si  Si13  1  0.386650  0.000745  0.887681  1
  Ge  Ge14  1  0.750338  0.499327  0.750543  1
  Ge  Ge15  1  0.248783  0.499327  0.248989  1
