# generated using pymatgen
data_BaIn2SbPt
_symmetry_space_group_name_H-M   'P 1'
_cell_length_a   6.82233464
_cell_length_b   6.82233411
_cell_length_c   6.82233280
_cell_angle_alpha   137.77403720
_cell_angle_beta   137.77402507
_cell_angle_gamma   61.24925018
_symmetry_Int_Tables_number   1
_chemical_formula_structural   BaIn2SbPt
_chemical_formula_sum   'Ba1 In2 Sb1 Pt1'
_cell_volume   141.81713717
_cell_formula_units_Z   1
loop_
 _symmetry_equiv_pos_site_id
 _symmetry_equiv_pos_as_xyz
  1  'x, y, z'
loop_
 _atom_site_type_symbol
 _atom_site_label
 _atom_site_symmetry_multiplicity
 _atom_site_fract_x
 _atom_site_fract_y
 _atom_site_fract_z
 _atom_site_occupancy
  Ba  Ba0  1  0.003361  0.003361  0.000000  1
  In  In1  1  0.248636  0.748636  0.500000  1
  In  In2  1  0.748636  0.248636  0.500000  1
  Sb  Sb3  1  0.425652  0.425652  0.000000  1
  Pt  Pt4  1  0.652816  0.652816  0.000000  1
