# generated using pymatgen
data_Yb10PdRh3
_symmetry_space_group_name_H-M   'P 1'
_cell_length_a   8.54791549
_cell_length_b   8.53669119
_cell_length_c   7.48497434
_cell_angle_alpha   83.21473692
_cell_angle_beta   83.40279195
_cell_angle_gamma   43.87079664
_symmetry_Int_Tables_number   1
_chemical_formula_structural   Yb10PdRh3
_chemical_formula_sum   'Yb10 Pd1 Rh3'
_cell_volume   375.52355475
_cell_formula_units_Z   1
loop_
 _symmetry_equiv_pos_site_id
 _symmetry_equiv_pos_as_xyz
  1  'x, y, z'
loop_
 _atom_site_type_symbol
 _atom_site_label
 _atom_site_symmetry_multiplicity
 _atom_site_fract_x
 _atom_site_fract_y
 _atom_site_fract_z
 _atom_site_occupancy
  Yb  Yb0  1  0.037677  0.787610  0.916159  1
  Yb  Yb1  1  0.201819  0.976045  0.582436  1
  Yb  Yb2  1  0.977175  0.203242  0.081933  1
  Yb  Yb3  1  0.800752  0.025128  0.425099  1
  Yb  Yb4  1  0.363299  0.198162  0.814712  1
  Yb  Yb5  1  0.797287  0.635052  0.679035  1
  Yb  Yb6  1  0.633214  0.795330  0.178462  1
  Yb  Yb7  1  0.193143  0.369683  0.326618  1
  Yb  Yb8  1  0.572832  0.432001  0.742437  1
  Yb  Yb9  1  0.426010  0.576524  0.255000  1
  Pd  Pd10  1  0.598682  0.179367  0.078828  1
  Rh  Rh11  1  0.176546  0.599855  0.581182  1
  Rh  Rh12  1  0.395519  0.825985  0.920217  1
  Rh  Rh13  1  0.826045  0.396017  0.417882  1
