# generated using pymatgen
data_Tm2Si14Ir5Rh
_symmetry_space_group_name_H-M   'P 1'
_cell_length_a   8.03879467
_cell_length_b   8.03879490
_cell_length_c   8.04688600
_cell_angle_alpha   56.56195568
_cell_angle_beta   56.56194604
_cell_angle_gamma   56.53300213
_symmetry_Int_Tables_number   1
_chemical_formula_structural   Tm2Si14Ir5Rh
_chemical_formula_sum   'Tm2 Si14 Ir5 Rh1'
_cell_volume   338.40656049
_cell_formula_units_Z   1
loop_
 _symmetry_equiv_pos_site_id
 _symmetry_equiv_pos_as_xyz
  1  'x, y, z'
loop_
 _atom_site_type_symbol
 _atom_site_label
 _atom_site_symmetry_multiplicity
 _atom_site_fract_x
 _atom_site_fract_y
 _atom_site_fract_z
 _atom_site_occupancy
  Tm  Tm0  1  0.000178  0.999543  0.000100  1
  Tm  Tm1  1  0.500457  0.499822  0.499900  1
  Si  Si2  1  0.751167  0.748833  0.750000  1
  Si  Si3  1  0.250064  0.249936  0.250000  1
  Si  Si4  1  0.850244  0.064473  0.672460  1
  Si  Si5  1  0.672299  0.850668  0.064122  1
  Si  Si6  1  0.063310  0.672485  0.850241  1
  Si  Si7  1  0.649332  0.827701  0.435878  1
  Si  Si8  1  0.435527  0.649756  0.827540  1
  Si  Si9  1  0.827515  0.436690  0.649759  1
  Si  Si10  1  0.173111  0.563027  0.350826  1
  Si  Si11  1  0.564930  0.350207  0.172072  1
  Si  Si12  1  0.349880  0.173782  0.564817  1
  Si  Si13  1  0.936973  0.326889  0.149174  1
  Si  Si14  1  0.326218  0.150120  0.935183  1
  Si  Si15  1  0.149793  0.935070  0.327928  1
  Ir  Ir16  1  0.249786  0.929003  0.571656  1
  Ir  Ir17  1  0.570997  0.250214  0.928344  1
  Ir  Ir18  1  0.928030  0.571970  0.250000  1
  Ir  Ir19  1  0.428695  0.749633  0.071679  1
  Ir  Ir20  1  0.750367  0.071305  0.428321  1
  Rh  Rh21  1  0.071127  0.428873  0.750000  1
