# generated using pymatgen
data_Na10InGaSe8
_symmetry_space_group_name_H-M   'P 1'
_cell_length_a   9.22357700
_cell_length_b   7.11762524
_cell_length_c   8.14701622
_cell_angle_alpha   89.11333632
_cell_angle_beta   90.00000000
_cell_angle_gamma   90.00000000
_symmetry_Int_Tables_number   1
_chemical_formula_structural   Na10InGaSe8
_chemical_formula_sum   'Na10 In1 Ga1 Se8'
_cell_volume   534.78728350
_cell_formula_units_Z   1
loop_
 _symmetry_equiv_pos_site_id
 _symmetry_equiv_pos_as_xyz
  1  'x, y, z'
loop_
 _atom_site_type_symbol
 _atom_site_label
 _atom_site_symmetry_multiplicity
 _atom_site_fract_x
 _atom_site_fract_y
 _atom_site_fract_z
 _atom_site_occupancy
  Na  Na0  1  0.481704  0.351017  0.666569  1
  Na  Na1  1  0.976629  0.653003  0.334003  1
  Na  Na2  1  0.523371  0.653003  0.334003  1
  Na  Na3  1  0.018296  0.351017  0.666569  1
  Na  Na4  1  0.750000  0.024294  0.536825  1
  Na  Na5  1  0.250000  0.979437  0.469297  1
  Na  Na6  1  0.750000  0.336534  0.158682  1
  Na  Na7  1  0.250000  0.666342  0.838755  1
  Na  Na8  1  0.998345  0.998608  0.998685  1
  Na  Na9  1  0.501655  0.998608  0.998685  1
  In  In10  1  0.250000  0.361585  0.176888  1
  Ga  Ga11  1  0.750000  0.635150  0.822276  1
  Se  Se12  1  0.250000  0.234174  0.876137  1
  Se  Se13  1  0.750000  0.754855  0.105138  1
  Se  Se14  1  0.969154  0.762970  0.678925  1
  Se  Se15  1  0.482768  0.228072  0.329556  1
  Se  Se16  1  0.017232  0.228072  0.329556  1
  Se  Se17  1  0.530846  0.762970  0.678925  1
  Se  Se18  1  0.750000  0.288709  0.819313  1
  Se  Se19  1  0.250000  0.731581  0.181214  1
