# generated using pymatgen
data_TaBe3Nb5As
_symmetry_space_group_name_H-M   'P 1'
_cell_length_a   6.61755531
_cell_length_b   6.62346853
_cell_length_c   3.41269000
_cell_angle_alpha   90.00000000
_cell_angle_beta   90.00000000
_cell_angle_gamma   90.02503380
_symmetry_Int_Tables_number   1
_chemical_formula_structural   TaBe3Nb5As
_chemical_formula_sum   'Ta1 Be3 Nb5 As1'
_cell_volume   149.58217890
_cell_formula_units_Z   1
loop_
 _symmetry_equiv_pos_site_id
 _symmetry_equiv_pos_as_xyz
  1  'x, y, z'
loop_
 _atom_site_type_symbol
 _atom_site_label
 _atom_site_symmetry_multiplicity
 _atom_site_fract_x
 _atom_site_fract_y
 _atom_site_fract_z
 _atom_site_occupancy
  Ta  Ta0  1  0.997165  0.006867  0.000000  1
  Be  Be1  1  0.876541  0.376051  0.000000  1
  Be  Be2  1  0.615837  0.887048  0.000000  1
  Be  Be3  1  0.386454  0.115204  0.000000  1
  Nb  Nb4  1  0.506536  0.497332  0.000000  1
  Nb  Nb5  1  0.677912  0.177751  0.500000  1
  Nb  Nb6  1  0.332015  0.832194  0.500000  1
  Nb  Nb7  1  0.180338  0.310382  0.500000  1
  Nb  Nb8  1  0.810719  0.680602  0.500000  1
  As  As9  1  0.116483  0.616569  0.000000  1
