# generated using pymatgen
data_LaNdIr2F14
_symmetry_space_group_name_H-M   'P 1'
_cell_length_a   5.75171900
_cell_length_b   9.27778783
_cell_length_c   12.36071036
_cell_angle_alpha   62.12445533
_cell_angle_beta   90.00000000
_cell_angle_gamma   90.00000000
_symmetry_Int_Tables_number   1
_chemical_formula_structural   LaNdIr2F14
_chemical_formula_sum   'La2 Nd2 Ir4 F28'
_cell_volume   583.07004650
_cell_formula_units_Z   2
loop_
 _symmetry_equiv_pos_site_id
 _symmetry_equiv_pos_as_xyz
  1  'x, y, z'
loop_
 _atom_site_type_symbol
 _atom_site_label
 _atom_site_symmetry_multiplicity
 _atom_site_fract_x
 _atom_site_fract_y
 _atom_site_fract_z
 _atom_site_occupancy
  La  La0  1  0.240463  0.190893  0.733684  1
  La  La1  1  0.740463  0.809107  0.766316  1
  Nd  Nd2  1  0.759440  0.811728  0.265865  1
  Nd  Nd3  1  0.259440  0.188272  0.234135  1
  Ir  Ir4  1  0.245171  0.727880  0.540404  1
  Ir  Ir5  1  0.745171  0.272120  0.959596  1
  Ir  Ir6  1  0.756126  0.276511  0.452714  1
  Ir  Ir7  1  0.256126  0.723489  0.047286  1
  F  F8  1  0.960363  0.715516  0.454510  1
  F  F9  1  0.460363  0.284484  0.045490  1
  F  F10  1  0.037482  0.288208  0.539461  1
  F  F11  1  0.537482  0.711792  0.960539  1
  F  F12  1  0.057933  0.706158  0.923629  1
  F  F13  1  0.557933  0.293842  0.576371  1
  F  F14  1  0.944374  0.291136  0.081565  1
  F  F15  1  0.444374  0.708864  0.418435  1
  F  F16  1  0.740107  0.508941  0.863810  1
  F  F17  1  0.240107  0.491059  0.636190  1
  F  F18  1  0.260179  0.486201  0.141625  1
  F  F19  1  0.760179  0.513799  0.358375  1
  F  F20  1  0.740665  0.034539  0.051530  1
  F  F21  1  0.240665  0.965461  0.448470  1
  F  F22  1  0.260160  0.960192  0.954199  1
  F  F23  1  0.760160  0.039808  0.545801  1
  F  F24  1  0.050328  0.743933  0.665207  1
  F  F25  1  0.550328  0.256067  0.834793  1
  F  F26  1  0.953503  0.258108  0.328751  1
  F  F27  1  0.453503  0.741892  0.171249  1
  F  F28  1  0.023997  0.266658  0.868620  1
  F  F29  1  0.523997  0.733342  0.631380  1
  F  F30  1  0.978511  0.731824  0.137499  1
  F  F31  1  0.478511  0.268176  0.362501  1
  F  F32  1  0.083400  0.971086  0.231631  1
  F  F33  1  0.583400  0.028914  0.268369  1
  F  F34  1  0.907795  0.032399  0.769392  1
  F  F35  1  0.407795  0.967601  0.730608  1
