# generated using pymatgen
data_Sr2In8CuPd
_symmetry_space_group_name_H-M   'P 1'
_cell_length_a   8.99947923
_cell_length_b   8.99947959
_cell_length_c   7.51846500
_cell_angle_alpha   90.00000000
_cell_angle_beta   90.00000000
_cell_angle_gamma   149.90284471
_symmetry_Int_Tables_number   1
_chemical_formula_structural   Sr2In8CuPd
_chemical_formula_sum   'Sr2 In8 Cu1 Pd1'
_cell_volume   305.35637680
_cell_formula_units_Z   1
loop_
 _symmetry_equiv_pos_site_id
 _symmetry_equiv_pos_as_xyz
  1  'x, y, z'
loop_
 _atom_site_type_symbol
 _atom_site_label
 _atom_site_symmetry_multiplicity
 _atom_site_fract_x
 _atom_site_fract_y
 _atom_site_fract_z
 _atom_site_occupancy
  Sr  Sr0  1  0.123461  0.876539  0.750000  1
  Sr  Sr1  1  0.876855  0.123145  0.250000  1
  In  In2  1  0.316407  0.683593  0.949609  1
  In  In3  1  0.685307  0.314693  0.049048  1
  In  In4  1  0.316407  0.683593  0.550391  1
  In  In5  1  0.500359  0.499641  0.000302  1
  In  In6  1  0.685307  0.314693  0.450952  1
  In  In7  1  0.500359  0.499641  0.499698  1
  In  In8  1  0.070344  0.929656  0.250000  1
  In  In9  1  0.927373  0.072627  0.750000  1
  Cu  Cu10  1  0.772955  0.227045  0.750000  1
  Pd  Pd11  1  0.224864  0.775136  0.250000  1
