# generated using pymatgen
data_HoLu3(AlGa2)2
_symmetry_space_group_name_H-M   'P 1'
_cell_length_a   6.95451900
_cell_length_b   6.95451841
_cell_length_c   4.26475000
_cell_angle_alpha   90.00000000
_cell_angle_beta   90.00000000
_cell_angle_gamma   89.66990879
_symmetry_Int_Tables_number   1
_chemical_formula_structural   HoLu3(AlGa2)2
_chemical_formula_sum   'Ho1 Lu3 Al2 Ga4'
_cell_volume   206.26261992
_cell_formula_units_Z   1
loop_
 _symmetry_equiv_pos_site_id
 _symmetry_equiv_pos_as_xyz
  1  'x, y, z'
loop_
 _atom_site_type_symbol
 _atom_site_label
 _atom_site_symmetry_multiplicity
 _atom_site_fract_x
 _atom_site_fract_y
 _atom_site_fract_z
 _atom_site_occupancy
  Ho  Ho0  1  0.672872  0.172872  0.500000  1
  Lu  Lu1  1  0.326356  0.826356  0.500000  1
  Lu  Lu2  1  0.173062  0.327921  0.500000  1
  Lu  Lu3  1  0.827921  0.673062  0.500000  1
  Al  Al4  1  0.499547  0.500202  0.000000  1
  Al  Al5  1  0.000202  0.999547  0.000000  1
  Ga  Ga6  1  0.130722  0.630722  0.000000  1
  Ga  Ga7  1  0.871414  0.371414  0.000000  1
  Ga  Ga8  1  0.629614  0.868291  0.000000  1
  Ga  Ga9  1  0.368291  0.129614  0.000000  1
