# generated using pymatgen
data_Tb4DyY7Ru4
_symmetry_space_group_name_H-M   'P 1'
_cell_length_a   6.36181285
_cell_length_b   7.31902631
_cell_length_c   9.26511705
_cell_angle_alpha   89.98721218
_cell_angle_beta   90.02274895
_cell_angle_gamma   90.05234376
_symmetry_Int_Tables_number   1
_chemical_formula_structural   Tb4DyY7Ru4
_chemical_formula_sum   'Tb4 Dy1 Y7 Ru4'
_cell_volume   431.40470857
_cell_formula_units_Z   1
loop_
 _symmetry_equiv_pos_site_id
 _symmetry_equiv_pos_as_xyz
  1  'x, y, z'
loop_
 _atom_site_type_symbol
 _atom_site_label
 _atom_site_symmetry_multiplicity
 _atom_site_fract_x
 _atom_site_fract_y
 _atom_site_fract_z
 _atom_site_occupancy
  Tb  Tb0  1  0.171433  0.176243  0.065786  1
  Tb  Tb1  1  0.863800  0.542360  0.249968  1
  Tb  Tb2  1  0.635830  0.042373  0.249975  1
  Tb  Tb3  1  0.135906  0.457440  0.750226  1
  Dy  Dy4  1  0.364365  0.957333  0.750176  1
  Y  Y5  1  0.329107  0.676757  0.065183  1
  Y  Y6  1  0.171184  0.176547  0.434991  1
  Y  Y7  1  0.670933  0.323347  0.565209  1
  Y  Y8  1  0.829150  0.823314  0.934788  1
  Y  Y9  1  0.670678  0.323139  0.934926  1
  Y  Y10  1  0.828922  0.823474  0.565273  1
  Y  Y11  1  0.328986  0.676632  0.434920  1
  Ru  Ru12  1  0.036005  0.885877  0.248796  1
  Ru  Ru13  1  0.463440  0.384056  0.249215  1
  Ru  Ru14  1  0.965016  0.115476  0.750533  1
  Ru  Ru15  1  0.535243  0.615631  0.750037  1
