# generated using pymatgen
data_Tb2MgAl8Ru5
_symmetry_space_group_name_H-M   'P 1'
_cell_length_a   8.06954566
_cell_length_b   8.06954497
_cell_length_c   8.06954566
_cell_angle_alpha   134.89544575
_cell_angle_beta   134.89543435
_cell_angle_gamma   65.69270187
_symmetry_Int_Tables_number   1
_chemical_formula_structural   Tb2MgAl8Ru5
_chemical_formula_sum   'Tb2 Mg1 Al8 Ru5'
_cell_volume   259.74246446
_cell_formula_units_Z   1
loop_
 _symmetry_equiv_pos_site_id
 _symmetry_equiv_pos_as_xyz
  1  'x, y, z'
loop_
 _atom_site_type_symbol
 _atom_site_label
 _atom_site_symmetry_multiplicity
 _atom_site_fract_x
 _atom_site_fract_y
 _atom_site_fract_z
 _atom_site_occupancy
  Tb  Tb0  1  0.000000  0.500000  0.500000  1
  Tb  Tb1  1  0.500000  0.000000  0.500000  1
  Mg  Mg2  1  0.000000  0.000000  0.000000  1
  Al  Al3  1  0.438654  0.863830  0.000000  1
  Al  Al4  1  0.136170  0.136170  0.574824  1
  Al  Al5  1  0.863830  0.438654  0.000000  1
  Al  Al6  1  0.863830  0.863830  0.425176  1
  Al  Al7  1  0.561346  0.136170  0.000000  1
  Al  Al8  1  0.136170  0.561346  0.000000  1
  Al  Al9  1  0.561346  0.561346  0.425176  1
  Al  Al10  1  0.438654  0.438654  0.574824  1
  Ru  Ru11  1  0.194112  0.194112  0.000000  1
  Ru  Ru12  1  0.805888  0.805888  0.000000  1
  Ru  Ru13  1  0.250000  0.750000  0.500000  1
  Ru  Ru14  1  0.750000  0.250000  0.500000  1
  Ru  Ru15  1  0.500000  0.500000  0.000000  1
