# generated using pymatgen
data_Ho9Er11(Ir5Pt)2
_symmetry_space_group_name_H-M   'P 1'
_cell_length_a   10.86697990
_cell_length_b   10.86689105
_cell_length_c   6.30959901
_cell_angle_alpha   89.99535555
_cell_angle_beta   89.95310860
_cell_angle_gamma   89.99032830
_symmetry_Int_Tables_number   1
_chemical_formula_structural   Ho9Er11(Ir5Pt)2
_chemical_formula_sum   'Ho9 Er11 Ir10 Pt2'
_cell_volume   745.10209261
_cell_formula_units_Z   1
loop_
 _symmetry_equiv_pos_site_id
 _symmetry_equiv_pos_as_xyz
  1  'x, y, z'
loop_
 _atom_site_type_symbol
 _atom_site_label
 _atom_site_symmetry_multiplicity
 _atom_site_fract_x
 _atom_site_fract_y
 _atom_site_fract_z
 _atom_site_occupancy
  Ho  Ho0  1  0.290915  0.088159  0.375552  1
  Ho  Ho1  1  0.290952  0.911796  0.875597  1
  Ho  Ho2  1  0.705834  0.089878  0.873821  1
  Ho  Ho3  1  0.705859  0.910076  0.373818  1
  Ho  Ho4  1  0.584642  0.790571  0.877844  1
  Ho  Ho5  1  0.584665  0.209372  0.377854  1
  Ho  Ho6  1  0.410971  0.791140  0.376839  1
  Ho  Ho7  1  0.411095  0.208866  0.877039  1
  Ho  Ho8  1  0.208958  0.411900  0.622607  1
  Er  Er9  1  0.208595  0.588177  0.122519  1
  Er  Er10  1  0.791180  0.414894  0.122992  1
  Er  Er11  1  0.791118  0.585079  0.622842  1
  Er  Er12  1  0.913885  0.706890  0.126622  1
  Er  Er13  1  0.913744  0.293130  0.626578  1
  Er  Er14  1  0.090978  0.706724  0.622539  1
  Er  Er15  1  0.090946  0.293310  0.122699  1
  Er  Er16  1  0.002737  0.999634  0.500116  1
  Er  Er17  1  0.002781  0.000356  0.999976  1
  Er  Er18  1  0.499852  0.499590  0.000122  1
  Er  Er19  1  0.500006  0.500482  0.500084  1
  Ir  Ir20  1  0.152214  0.153828  0.750410  1
  Ir  Ir21  1  0.152283  0.845914  0.250324  1
  Ir  Ir22  1  0.655125  0.346367  0.749839  1
  Ir  Ir23  1  0.655125  0.653592  0.249856  1
  Ir  Ir24  1  0.346539  0.346648  0.250143  1
  Ir  Ir25  1  0.346460  0.653451  0.750689  1
  Ir  Ir26  1  0.500738  0.999836  0.123350  1
  Ir  Ir27  1  0.500718  0.000174  0.623407  1
  Ir  Ir28  1  0.999393  0.500194  0.877053  1
  Ir  Ir29  1  0.999361  0.499971  0.376763  1
  Pt  Pt30  1  0.846129  0.153649  0.250029  1
  Pt  Pt31  1  0.846200  0.846351  0.750075  1
