# generated using pymatgen
data_YEr2Fe8Ru
_symmetry_space_group_name_H-M   'P 1'
_cell_length_a   8.78620856
_cell_length_b   8.78620849
_cell_length_c   8.78620908
_cell_angle_alpha   33.60534094
_cell_angle_beta   33.60534252
_cell_angle_gamma   33.60533898
_symmetry_Int_Tables_number   1
_chemical_formula_structural   YEr2Fe8Ru
_chemical_formula_sum   'Y1 Er2 Fe8 Ru1'
_cell_volume   185.08392436
_cell_formula_units_Z   1
loop_
 _symmetry_equiv_pos_site_id
 _symmetry_equiv_pos_as_xyz
  1  'x, y, z'
loop_
 _atom_site_type_symbol
 _atom_site_label
 _atom_site_symmetry_multiplicity
 _atom_site_fract_x
 _atom_site_fract_y
 _atom_site_fract_z
 _atom_site_occupancy
  Y  Y0  1  0.000000  0.000000  0.000000  1
  Er  Er1  1  0.141772  0.141772  0.141772  1
  Er  Er2  1  0.858228  0.858228  0.858228  1
  Fe  Fe3  1  0.418242  0.418242  0.923001  1
  Fe  Fe4  1  0.923001  0.418242  0.418242  1
  Fe  Fe5  1  0.581758  0.076999  0.581758  1
  Fe  Fe6  1  0.581758  0.581758  0.076999  1
  Fe  Fe7  1  0.418242  0.923001  0.418242  1
  Fe  Fe8  1  0.076999  0.581758  0.581758  1
  Fe  Fe9  1  0.332832  0.332832  0.332832  1
  Fe  Fe10  1  0.667168  0.667168  0.667168  1
  Ru  Ru11  1  0.500000  0.500000  0.500000  1
