# generated using pymatgen
data_Dy3Tm(HfRh)4
_symmetry_space_group_name_H-M   'P 1'
_cell_length_a   4.58756100
_cell_length_b   7.03100812
_cell_length_c   8.24556404
_cell_angle_alpha   89.96155429
_cell_angle_beta   90.00000000
_cell_angle_gamma   90.00000000
_symmetry_Int_Tables_number   1
_chemical_formula_structural   Dy3Tm(HfRh)4
_chemical_formula_sum   'Dy3 Tm1 Hf4 Rh4'
_cell_volume   265.96208144
_cell_formula_units_Z   1
loop_
 _symmetry_equiv_pos_site_id
 _symmetry_equiv_pos_as_xyz
  1  'x, y, z'
loop_
 _atom_site_type_symbol
 _atom_site_label
 _atom_site_symmetry_multiplicity
 _atom_site_fract_x
 _atom_site_fract_y
 _atom_site_fract_z
 _atom_site_occupancy
  Dy  Dy0  1  0.250000  0.516338  0.178318  1
  Dy  Dy1  1  0.750000  0.483678  0.822312  1
  Dy  Dy2  1  0.750000  0.983693  0.676582  1
  Tm  Tm3  1  0.250000  0.017943  0.322930  1
  Hf  Hf4  1  0.250000  0.640178  0.572190  1
  Hf  Hf5  1  0.750000  0.358990  0.425788  1
  Hf  Hf6  1  0.750000  0.860404  0.076490  1
  Hf  Hf7  1  0.250000  0.138647  0.927314  1
  Rh  Rh8  1  0.250000  0.769990  0.912947  1
  Rh  Rh9  1  0.750000  0.229614  0.088533  1
  Rh  Rh10  1  0.750000  0.731336  0.411287  1
  Rh  Rh11  1  0.250000  0.269188  0.585310  1
