# generated using pymatgen
data_Ho11ErMn2In3
_symmetry_space_group_name_H-M   'P 1'
_cell_length_a   8.42908208
_cell_length_b   8.42974302
_cell_length_c   8.42908135
_cell_angle_alpha   110.20725447
_cell_angle_beta   110.18291266
_cell_angle_gamma   108.02990510
_symmetry_Int_Tables_number   1
_chemical_formula_structural   Ho11ErMn2In3
_chemical_formula_sum   'Ho11 Er1 Mn2 In3'
_cell_volume   460.85514634
_cell_formula_units_Z   1
loop_
 _symmetry_equiv_pos_site_id
 _symmetry_equiv_pos_as_xyz
  1  'x, y, z'
loop_
 _atom_site_type_symbol
 _atom_site_label
 _atom_site_symmetry_multiplicity
 _atom_site_fract_x
 _atom_site_fract_y
 _atom_site_fract_z
 _atom_site_occupancy
  Ho  Ho0  1  0.303386  0.303374  0.606613  1
  Ho  Ho1  1  0.696790  0.696689  0.393502  1
  Ho  Ho2  1  0.303188  0.696689  0.999899  1
  Ho  Ho3  1  0.696759  0.303374  0.999988  1
  Ho  Ho4  1  0.457178  0.210402  0.246859  1
  Ho  Ho5  1  0.542948  0.789590  0.753267  1
  Ho  Ho6  1  0.963543  0.210402  0.753224  1
  Ho  Ho7  1  0.210339  0.963589  0.753250  1
  Ho  Ho8  1  0.036323  0.789590  0.246642  1
  Ho  Ho9  1  0.789618  0.036389  0.246771  1
  Ho  Ho10  1  0.210360  0.457125  0.246765  1
  Er  Er11  1  0.789594  0.542902  0.753308  1
  Mn  Mn12  1  0.394114  0.394108  0.999994  1
  Mn  Mn13  1  0.605974  0.605927  0.999953  1
  In  In14  1  0.999943  0.999829  0.999886  1
  In  In15  1  0.499997  0.999997  0.500000  1
  In  In16  1  0.999946  0.500023  0.500077  1
