# generated using pymatgen
data_BaBRhO
_symmetry_space_group_name_H-M   'P 1'
_cell_length_a   5.66870100
_cell_length_b   5.66407100
_cell_length_c   7.92920300
_cell_angle_alpha   90.00000000
_cell_angle_beta   90.00000000
_cell_angle_gamma   90.00000000
_symmetry_Int_Tables_number   1
_chemical_formula_structural   BaBRhO
_chemical_formula_sum   'Ba4 B4 Rh4 O4'
_cell_volume   254.59025477
_cell_formula_units_Z   4
loop_
 _symmetry_equiv_pos_site_id
 _symmetry_equiv_pos_as_xyz
  1  'x, y, z'
loop_
 _atom_site_type_symbol
 _atom_site_label
 _atom_site_symmetry_multiplicity
 _atom_site_fract_x
 _atom_site_fract_y
 _atom_site_fract_z
 _atom_site_occupancy
  Ba  Ba0  1  0.988014  0.997882  0.318424  1
  Ba  Ba1  1  0.488015  0.502116  0.318424  1
  Ba  Ba2  1  0.988014  0.497883  0.681577  1
  Ba  Ba3  1  0.488015  0.002117  0.681577  1
  B  B4  1  0.988130  0.498463  0.126208  1
  B  B5  1  0.488128  0.001537  0.126208  1
  B  B6  1  0.988130  0.998464  0.873791  1
  B  B7  1  0.488128  0.501536  0.873791  1
  Rh  Rh8  1  0.738097  0.749655  0.000368  1
  Rh  Rh9  1  0.238098  0.750345  0.000368  1
  Rh  Rh10  1  0.738097  0.249654  0.999632  1
  Rh  Rh11  1  0.238098  0.250344  0.999632  1
  O  O12  1  0.988160  0.496830  0.308724  1
  O  O13  1  0.488161  0.003170  0.308724  1
  O  O14  1  0.988160  0.996831  0.691275  1
  O  O15  1  0.488161  0.503171  0.691275  1
