# generated using pymatgen
data_Gd2SiBi3Pt4
_symmetry_space_group_name_H-M   'P 1'
_cell_length_a   10.40807409
_cell_length_b   11.25463065
_cell_length_c   28.82442027
_cell_angle_alpha   91.25936512
_cell_angle_beta   87.21256506
_cell_angle_gamma   88.47292032
_symmetry_Int_Tables_number   1
_chemical_formula_structural   Gd2SiBi3Pt4
_chemical_formula_sum   'Gd2 Si1 Bi3 Pt4'
_cell_volume   3370.35587807
_cell_formula_units_Z   1
loop_
 _symmetry_equiv_pos_site_id
 _symmetry_equiv_pos_as_xyz
  1  'x, y, z'
loop_
 _atom_site_type_symbol
 _atom_site_label
 _atom_site_symmetry_multiplicity
 _atom_site_fract_x
 _atom_site_fract_y
 _atom_site_fract_z
 _atom_site_occupancy
  Gd  Gd0  1  0.248644  0.250581  0.745001  1
  Gd  Gd1  1  0.753252  0.749739  0.255229  1
  Si  Si2  1  0.252200  0.749332  0.498320  1
  Bi  Bi3  1  0.239555  0.247011  0.158722  1
  Bi  Bi4  1  0.740798  0.252826  0.500031  1
  Bi  Bi5  1  0.760127  0.752340  0.842947  1
  Pt  Pt6  1  0.259203  0.251209  0.371311  1
  Pt  Pt7  1  0.234067  0.753716  0.002382  1
  Pt  Pt8  1  0.747006  0.747639  0.627215  1
  Pt  Pt9  1  0.765148  0.245606  0.998844  1
