# generated using pymatgen
data_Sc8Ti8Re3Si16Mo
_symmetry_space_group_name_H-M   'P 1'
_cell_length_a   6.57838797
_cell_length_b   6.76394228
_cell_length_c   12.86155800
_cell_angle_alpha   90.00000000
_cell_angle_beta   90.00000000
_cell_angle_gamma   90.02526096
_symmetry_Int_Tables_number   1
_chemical_formula_structural   Sc8Ti8Re3Si16Mo
_chemical_formula_sum   'Sc8 Ti8 Re3 Si16 Mo1'
_cell_volume   572.28572659
_cell_formula_units_Z   1
loop_
 _symmetry_equiv_pos_site_id
 _symmetry_equiv_pos_as_xyz
  1  'x, y, z'
loop_
 _atom_site_type_symbol
 _atom_site_label
 _atom_site_symmetry_multiplicity
 _atom_site_fract_x
 _atom_site_fract_y
 _atom_site_fract_z
 _atom_site_occupancy
  Sc  Sc0  1  0.502187  0.326884  0.095085  1
  Sc  Sc1  1  0.000860  0.173956  0.404727  1
  Sc  Sc2  1  0.498531  0.673332  0.594284  1
  Sc  Sc3  1  0.998749  0.826691  0.905676  1
  Sc  Sc4  1  0.498531  0.673332  0.905716  1
  Sc  Sc5  1  0.998749  0.826691  0.594324  1
  Sc  Sc6  1  0.502187  0.326884  0.404915  1
  Sc  Sc7  1  0.000860  0.173956  0.095273  1
  Ti  Ti8  1  0.831892  0.329469  0.626953  1
  Ti  Ti9  1  0.331815  0.170747  0.873507  1
  Ti  Ti10  1  0.167965  0.671164  0.126333  1
  Ti  Ti11  1  0.668229  0.828693  0.373901  1
  Ti  Ti12  1  0.167965  0.671164  0.373667  1
  Ti  Ti13  1  0.668229  0.828693  0.126099  1
  Ti  Ti14  1  0.831892  0.329469  0.873047  1
  Ti  Ti15  1  0.331815  0.170747  0.626493  1
  Re  Re16  1  0.660265  0.007593  0.750000  1
  Re  Re17  1  0.159822  0.492599  0.750000  1
  Re  Re18  1  0.339864  0.992364  0.250000  1
  Si  Si19  1  0.666008  0.036581  0.541545  1
  Si  Si20  1  0.166007  0.463332  0.958333  1
  Si  Si21  1  0.333734  0.964100  0.041928  1
  Si  Si22  1  0.834044  0.535738  0.459046  1
  Si  Si23  1  0.333734  0.964100  0.458072  1
  Si  Si24  1  0.834044  0.535738  0.040954  1
  Si  Si25  1  0.666008  0.036581  0.958455  1
  Si  Si26  1  0.166007  0.463332  0.541667  1
  Si  Si27  1  0.532573  0.385329  0.750000  1
  Si  Si28  1  0.032877  0.114605  0.750000  1
  Si  Si29  1  0.465692  0.615805  0.250000  1
  Si  Si30  1  0.967068  0.885151  0.250000  1
  Si  Si31  1  0.796618  0.639900  0.750000  1
  Si  Si32  1  0.296651  0.860530  0.750000  1
  Si  Si33  1  0.205421  0.360288  0.250000  1
  Si  Si34  1  0.703104  0.136988  0.250000  1
  Mo  Mo35  1  0.840004  0.507472  0.250000  1
