# generated using pymatgen
data_TmZr8(In2Rh)7
_symmetry_space_group_name_H-M   'P 1'
_cell_length_a   9.67276422
_cell_length_b   9.68574429
_cell_length_c   9.68563939
_cell_angle_alpha   60.08995256
_cell_angle_beta   60.04457310
_cell_angle_gamma   60.04358309
_symmetry_Int_Tables_number   1
_chemical_formula_structural   TmZr8(In2Rh)7
_chemical_formula_sum   'Tm1 Zr8 In14 Rh7'
_cell_volume   642.51117568
_cell_formula_units_Z   1
loop_
 _symmetry_equiv_pos_site_id
 _symmetry_equiv_pos_as_xyz
  1  'x, y, z'
loop_
 _atom_site_type_symbol
 _atom_site_label
 _atom_site_symmetry_multiplicity
 _atom_site_fract_x
 _atom_site_fract_y
 _atom_site_fract_z
 _atom_site_occupancy
  Tm  Tm0  1  0.500000  0.500000  0.500000  1
  Zr  Zr1  1  0.124055  0.627958  0.123931  1
  Zr  Zr2  1  0.372067  0.876022  0.876020  1
  Zr  Zr3  1  0.875888  0.876020  0.876022  1
  Zr  Zr4  1  0.627933  0.123978  0.123980  1
  Zr  Zr5  1  0.875943  0.876069  0.372042  1
  Zr  Zr6  1  0.124112  0.123980  0.123978  1
  Zr  Zr7  1  0.875945  0.372042  0.876069  1
  Zr  Zr8  1  0.124057  0.123931  0.627958  1
  In  In9  1  0.500000  0.847004  0.152996  1
  In  In10  1  0.500021  0.846892  0.500020  1
  In  In11  1  0.499979  0.153108  0.499980  1
  In  In12  1  0.500021  0.500020  0.846893  1
  In  In13  1  0.153168  0.500000  0.499999  1
  In  In14  1  0.846935  0.153107  0.499980  1
  In  In15  1  0.153065  0.846893  0.500020  1
  In  In16  1  0.500000  0.152996  0.847004  1
  In  In17  1  0.153067  0.500021  0.846892  1
  In  In18  1  0.499979  0.499980  0.153107  1
  In  In19  1  0.846832  0.500000  0.500001  1
  In  In20  1  0.846933  0.499979  0.153108  1
  In  In21  1  0.249978  0.250022  0.250022  1
  In  In22  1  0.750022  0.749978  0.749978  1
  Rh  Rh23  1  0.778961  0.778847  0.221155  1
  Rh  Rh24  1  0.000000  0.000000  0.000000  1
  Rh  Rh25  1  0.221042  0.778841  0.221159  1
  Rh  Rh26  1  0.221099  0.778901  0.778902  1
  Rh  Rh27  1  0.221039  0.221153  0.778845  1
  Rh  Rh28  1  0.778958  0.221159  0.778841  1
  Rh  Rh29  1  0.778901  0.221099  0.221098  1
