# generated using pymatgen
data_Er3Tm9CdCo4Ru
_symmetry_space_group_name_H-M   'P 1'
_cell_length_a   8.19049832
_cell_length_b   8.19039901
_cell_length_c   8.19040014
_cell_angle_alpha   106.13098865
_cell_angle_beta   110.93604446
_cell_angle_gamma   111.39720372
_symmetry_Int_Tables_number   1
_chemical_formula_structural   Er3Tm9CdCo4Ru
_chemical_formula_sum   'Er3 Tm9 Cd1 Co4 Ru1'
_cell_volume   421.88488278
_cell_formula_units_Z   1
loop_
 _symmetry_equiv_pos_site_id
 _symmetry_equiv_pos_as_xyz
  1  'x, y, z'
loop_
 _atom_site_type_symbol
 _atom_site_label
 _atom_site_symmetry_multiplicity
 _atom_site_fract_x
 _atom_site_fract_y
 _atom_site_fract_z
 _atom_site_occupancy
  Er  Er0  1  0.964759  0.781467  0.183294  1
  Er  Er1  1  0.034766  0.218462  0.816303  1
  Er  Er2  1  0.401781  0.218372  0.183408  1
  Tm  Tm3  1  0.693675  0.279904  0.973847  1
  Tm  Tm4  1  0.306568  0.719804  0.025937  1
  Tm  Tm5  1  0.693675  0.719828  0.413773  1
  Tm  Tm6  1  0.306568  0.280630  0.586761  1
  Tm  Tm7  1  0.807503  0.121156  0.313207  1
  Tm  Tm8  1  0.807503  0.494296  0.686347  1
  Tm  Tm9  1  0.192375  0.878514  0.686451  1
  Tm  Tm10  1  0.192375  0.505923  0.313859  1
  Tm  Tm11  1  0.598323  0.781288  0.817035  1
  Cd  Cd12  1  0.501087  0.000568  0.500519  1
  Co  Co13  1  0.874350  0.499779  0.374573  1
  Co  Co14  1  0.126107  0.500333  0.625774  1
  Co  Co15  1  0.999201  0.111873  0.111434  1
  Co  Co16  1  0.999201  0.887769  0.887329  1
  Ru  Ru17  1  0.500182  0.500033  0.000149  1
