# generated using pymatgen
data_Tm9LuOs4
_symmetry_space_group_name_H-M   'P 1'
_cell_length_a   6.25915803
_cell_length_b   7.30111576
_cell_length_c   8.27670589
_cell_angle_alpha   96.90929608
_cell_angle_beta   112.21720473
_cell_angle_gamma   90.00000052
_symmetry_Int_Tables_number   1
_chemical_formula_structural   Tm9LuOs4
_chemical_formula_sum   'Tm9 Lu1 Os4'
_cell_volume   347.18559593
_cell_formula_units_Z   1
loop_
 _symmetry_equiv_pos_site_id
 _symmetry_equiv_pos_as_xyz
  1  'x, y, z'
loop_
 _atom_site_type_symbol
 _atom_site_label
 _atom_site_symmetry_multiplicity
 _atom_site_fract_x
 _atom_site_fract_y
 _atom_site_fract_z
 _atom_site_occupancy
  Tm  Tm0  1  0.526962  0.082386  0.818572  1
  Tm  Tm1  1  0.473293  0.916914  0.181421  1
  Tm  Tm2  1  0.708389  0.417614  0.181428  1
  Tm  Tm3  1  0.291872  0.583086  0.818579  1
  Tm  Tm4  1  0.296053  0.318994  0.436255  1
  Tm  Tm5  1  0.703881  0.681313  0.564123  1
  Tm  Tm6  1  0.859798  0.181006  0.563745  1
  Tm  Tm7  1  0.139759  0.818687  0.435877  1
  Tm  Tm8  1  0.081703  0.250000  0.000000  1
  Lu  Lu9  1  0.919103  0.750000  0.000000  1
  Os  Os10  1  0.320758  0.579198  0.218579  1
  Os  Os11  1  0.678874  0.421282  0.781499  1
  Os  Os12  1  0.102179  0.920802  0.781421  1
  Os  Os13  1  0.897375  0.078718  0.218501  1
