# generated using pymatgen
data_Zr4CuTc6Ni
_symmetry_space_group_name_H-M   'P 1'
_cell_length_a   5.14900500
_cell_length_b   5.14900550
_cell_length_c   8.71443100
_cell_angle_alpha   90.00000000
_cell_angle_beta   90.00000000
_cell_angle_gamma   119.99999036
_symmetry_Int_Tables_number   1
_chemical_formula_structural   Zr4CuTc6Ni
_chemical_formula_sum   'Zr4 Cu1 Tc6 Ni1'
_cell_volume   200.08585097
_cell_formula_units_Z   1
loop_
 _symmetry_equiv_pos_site_id
 _symmetry_equiv_pos_as_xyz
  1  'x, y, z'
loop_
 _atom_site_type_symbol
 _atom_site_label
 _atom_site_symmetry_multiplicity
 _atom_site_fract_x
 _atom_site_fract_y
 _atom_site_fract_z
 _atom_site_occupancy
  Zr  Zr0  1  0.333333  0.666667  0.430226  1
  Zr  Zr1  1  0.666667  0.333333  0.569774  1
  Zr  Zr2  1  0.666667  0.333333  0.931521  1
  Zr  Zr3  1  0.333333  0.666667  0.068479  1
  Cu  Cu4  1  0.000000  0.000000  0.500000  1
  Tc  Tc5  1  0.831254  0.168746  0.248922  1
  Tc  Tc6  1  0.831254  0.662506  0.248922  1
  Tc  Tc7  1  0.337494  0.168746  0.248922  1
  Tc  Tc8  1  0.168746  0.831254  0.751078  1
  Tc  Tc9  1  0.168746  0.337494  0.751078  1
  Tc  Tc10  1  0.662506  0.831254  0.751078  1
  Ni  Ni11  1  0.000000  0.000000  0.000000  1
