# generated using pymatgen
data_Sc4UP12Ru19
_symmetry_space_group_name_H-M   'P 1'
_cell_length_a   3.92341500
_cell_length_b   12.48306993
_cell_length_c   12.40547400
_cell_angle_alpha   119.79434117
_cell_angle_beta   90.00000000
_cell_angle_gamma   90.00000000
_symmetry_Int_Tables_number   1
_chemical_formula_structural   Sc4UP12Ru19
_chemical_formula_sum   'Sc4 U1 P12 Ru19'
_cell_volume   527.26134519
_cell_formula_units_Z   1
loop_
 _symmetry_equiv_pos_site_id
 _symmetry_equiv_pos_as_xyz
  1  'x, y, z'
loop_
 _atom_site_type_symbol
 _atom_site_label
 _atom_site_symmetry_multiplicity
 _atom_site_fract_x
 _atom_site_fract_y
 _atom_site_fract_z
 _atom_site_occupancy
  Sc  Sc0  1  0.500000  0.189972  0.999685  1
  Sc  Sc1  1  0.500000  0.810030  0.809711  1
  Sc  Sc2  1  0.000000  0.330777  0.664633  1
  Sc  Sc3  1  0.000000  0.669220  0.333859  1
  U  U4  1  0.500000  0.999999  0.176609  1
  P  P5  1  0.000000  0.999999  0.819364  1
  P  P6  1  0.000000  0.812341  0.990959  1
  P  P7  1  0.000000  0.187651  0.178608  1
  P  P8  1  0.500000  0.306284  0.479470  1
  P  P9  1  0.500000  0.172431  0.695304  1
  P  P10  1  0.500000  0.517912  0.827511  1
  P  P11  1  0.500000  0.827562  0.522869  1
  P  P12  1  0.500000  0.482079  0.309597  1
  P  P13  1  0.500000  0.693713  0.173189  1
  P  P14  1  0.000000  0.999999  0.373838  1
  P  P15  1  0.000000  0.372222  0.000608  1
  P  P16  1  0.000000  0.627774  0.628385  1
  Ru  Ru17  1  0.000000  0.999998  0.556926  1
  Ru  Ru18  1  0.000000  0.557383  0.003454  1
  Ru  Ru19  1  0.000000  0.442613  0.446068  1
  Ru  Ru20  1  0.500000  0.999994  0.722501  1
  Ru  Ru21  1  0.500000  0.718545  0.999663  1
  Ru  Ru22  1  0.500000  0.281446  0.281109  1
  Ru  Ru23  1  0.000000  0.185774  0.369170  1
  Ru  Ru24  1  0.000000  0.185090  0.809680  1
  Ru  Ru25  1  0.000000  0.620847  0.813511  1
  Ru  Ru26  1  0.000000  0.814903  0.624590  1
  Ru  Ru27  1  0.000000  0.379145  0.192659  1
  Ru  Ru28  1  0.000000  0.814218  0.183399  1
  Ru  Ru29  1  0.500000  0.127687  0.493374  1
  Ru  Ru30  1  0.500000  0.365776  0.875627  1
  Ru  Ru31  1  0.500000  0.503932  0.634578  1
  Ru  Ru32  1  0.500000  0.634217  0.509845  1
  Ru  Ru33  1  0.500000  0.496062  0.130642  1
  Ru  Ru34  1  0.500000  0.872314  0.365687  1
  Ru  Ru35  1  0.000000  0.999996  0.003315  1
