# generated using pymatgen
data_CaSn4PdRh5
_symmetry_space_group_name_H-M   'P 1'
_cell_length_a   7.73860365
_cell_length_b   7.73860369
_cell_length_c   4.05302000
_cell_angle_alpha   90.00000000
_cell_angle_beta   90.00000000
_cell_angle_gamma   120.92412608
_symmetry_Int_Tables_number   1
_chemical_formula_structural   CaSn4PdRh5
_chemical_formula_sum   'Ca1 Sn4 Pd1 Rh5'
_cell_volume   208.21623894
_cell_formula_units_Z   1
loop_
 _symmetry_equiv_pos_site_id
 _symmetry_equiv_pos_as_xyz
  1  'x, y, z'
loop_
 _atom_site_type_symbol
 _atom_site_label
 _atom_site_symmetry_multiplicity
 _atom_site_fract_x
 _atom_site_fract_y
 _atom_site_fract_z
 _atom_site_occupancy
  Ca  Ca0  1  0.996706  0.003294  0.000000  1
  Sn  Sn1  1  0.804360  0.195640  0.500000  1
  Sn  Sn2  1  0.392749  0.198604  0.500000  1
  Sn  Sn3  1  0.336875  0.663125  0.000000  1
  Sn  Sn4  1  0.801396  0.607251  0.500000  1
  Pd  Pd5  1  0.200920  0.799080  0.500000  1
  Rh  Rh6  1  0.201756  0.400186  0.500000  1
  Rh  Rh7  1  0.531052  0.065945  0.000000  1
  Rh  Rh8  1  0.934055  0.468948  0.000000  1
  Rh  Rh9  1  0.533648  0.466352  0.000000  1
  Rh  Rh10  1  0.599814  0.798244  0.500000  1
