# generated using pymatgen
data_Li2P6W2O21
_symmetry_space_group_name_H-M   'P 1'
_cell_length_a   8.99140000
_cell_length_b   8.99140066
_cell_length_c   12.50003500
_cell_angle_alpha   90.00000000
_cell_angle_beta   90.00000000
_cell_angle_gamma   120.00000493
_symmetry_Int_Tables_number   1
_chemical_formula_structural   Li2P6W2O21
_chemical_formula_sum   'Li4 P12 W4 O42'
_cell_volume   875.17823403
_cell_formula_units_Z   2
loop_
 _symmetry_equiv_pos_site_id
 _symmetry_equiv_pos_as_xyz
  1  'x, y, z'
loop_
 _atom_site_type_symbol
 _atom_site_label
 _atom_site_symmetry_multiplicity
 _atom_site_fract_x
 _atom_site_fract_y
 _atom_site_fract_z
 _atom_site_occupancy
  Li  Li0  1  0.000000  0.000000  0.500000  1
  Li  Li1  1  0.000000  0.000000  0.000000  1
  Li  Li2  1  0.000000  0.000000  0.750000  1
  Li  Li3  1  0.000000  0.000000  0.250000  1
  P  P4  1  0.324280  0.975627  0.633477  1
  P  P5  1  0.024373  0.348655  0.633477  1
  P  P6  1  0.651345  0.675720  0.633477  1
  P  P7  1  0.675720  0.024373  0.133477  1
  P  P8  1  0.975627  0.651345  0.133477  1
  P  P9  1  0.348655  0.324280  0.133477  1
  P  P10  1  0.675720  0.024373  0.366523  1
  P  P11  1  0.975627  0.651345  0.366523  1
  P  P12  1  0.348655  0.324280  0.366523  1
  P  P13  1  0.324280  0.975627  0.866523  1
  P  P14  1  0.024373  0.348655  0.866523  1
  P  P15  1  0.651345  0.675720  0.866523  1
  W  W16  1  0.666667  0.333333  0.530289  1
  W  W17  1  0.333333  0.666667  0.030289  1
  W  W18  1  0.333333  0.666667  0.469711  1
  W  W19  1  0.666667  0.333333  0.969711  1
  O  O20  1  0.356848  0.919519  0.750000  1
  O  O21  1  0.080481  0.437330  0.750000  1
  O  O22  1  0.562670  0.643152  0.750000  1
  O  O23  1  0.643152  0.080481  0.250000  1
  O  O24  1  0.919519  0.562670  0.250000  1
  O  O25  1  0.437330  0.356848  0.250000  1
  O  O26  1  0.476746  0.162270  0.620386  1
  O  O27  1  0.837730  0.314476  0.620386  1
  O  O28  1  0.685524  0.523254  0.620386  1
  O  O29  1  0.523254  0.837730  0.120386  1
  O  O30  1  0.162270  0.685524  0.120386  1
  O  O31  1  0.314476  0.476746  0.120386  1
  O  O32  1  0.523254  0.837730  0.379614  1
  O  O33  1  0.162270  0.685524  0.379614  1
  O  O34  1  0.314476  0.476746  0.379614  1
  O  O35  1  0.476746  0.162270  0.879614  1
  O  O36  1  0.837730  0.314476  0.879614  1
  O  O37  1  0.685524  0.523254  0.879614  1
  O  O38  1  0.359067  0.860152  0.558449  1
  O  O39  1  0.139848  0.498915  0.558449  1
  O  O40  1  0.501085  0.640933  0.558449  1
  O  O41  1  0.640933  0.139848  0.058449  1
  O  O42  1  0.860152  0.501085  0.058449  1
  O  O43  1  0.498915  0.359067  0.058449  1
  O  O44  1  0.640933  0.139848  0.441551  1
  O  O45  1  0.860152  0.501085  0.441551  1
  O  O46  1  0.498915  0.359067  0.441551  1
  O  O47  1  0.359067  0.860152  0.941551  1
  O  O48  1  0.139848  0.498915  0.941551  1
  O  O49  1  0.501085  0.640933  0.941551  1
  O  O50  1  0.151443  0.956876  0.624306  1
  O  O51  1  0.043124  0.194564  0.624306  1
  O  O52  1  0.805436  0.848557  0.624306  1
  O  O53  1  0.848557  0.043124  0.124306  1
  O  O54  1  0.956876  0.805436  0.124306  1
  O  O55  1  0.194564  0.151443  0.124306  1
  O  O56  1  0.848557  0.043124  0.375694  1
  O  O57  1  0.956876  0.805436  0.375694  1
  O  O58  1  0.194564  0.151443  0.375694  1
  O  O59  1  0.151443  0.956876  0.875694  1
  O  O60  1  0.043124  0.194564  0.875694  1
  O  O61  1  0.805436  0.848557  0.875694  1
