# generated using pymatgen
data_Rb2La4Ag4S9
_symmetry_space_group_name_H-M   'P 1'
_cell_length_a   4.29146143
_cell_length_b   7.65513167
_cell_length_c   16.25875933
_cell_angle_alpha   93.05879376
_cell_angle_beta   97.58366530
_cell_angle_gamma   106.27809072
_symmetry_Int_Tables_number   1
_chemical_formula_structural   Rb2La4Ag4S9
_chemical_formula_sum   'Rb2 La4 Ag4 S9'
_cell_volume   505.93497653
_cell_formula_units_Z   1
loop_
 _symmetry_equiv_pos_site_id
 _symmetry_equiv_pos_as_xyz
  1  'x, y, z'
loop_
 _atom_site_type_symbol
 _atom_site_label
 _atom_site_symmetry_multiplicity
 _atom_site_fract_x
 _atom_site_fract_y
 _atom_site_fract_z
 _atom_site_occupancy
  Rb  Rb0  1  0.256012  0.282593  0.229432  1
  Rb  Rb1  1  0.743988  0.717407  0.770568  1
  La  La2  1  0.400953  0.747743  0.054162  1
  La  La3  1  0.625343  0.857253  0.393431  1
  La  La4  1  0.374658  0.142748  0.606569  1
  La  La5  1  0.599047  0.252256  0.945838  1
  Ag  Ag6  1  0.979234  0.731522  0.226950  1
  Ag  Ag7  1  0.886897  0.318060  0.455737  1
  Ag  Ag8  1  0.113103  0.681940  0.544263  1
  Ag  Ag9  1  0.020767  0.268479  0.773050  1
  S  S10  1  0.000000  0.000000  0.000000  1
  S  S11  1  0.801577  0.507614  0.095541  1
  S  S12  1  0.572518  0.924555  0.220482  1
  S  S13  1  0.985825  0.599055  0.372597  1
  S  S14  1  0.276540  0.128129  0.424950  1
  S  S15  1  0.723460  0.871870  0.575050  1
  S  S16  1  0.014176  0.400946  0.627403  1
  S  S17  1  0.427482  0.075445  0.779518  1
  S  S18  1  0.198423  0.492385  0.904459  1
