# generated using pymatgen
data_LaY4(In2Au)2
_symmetry_space_group_name_H-M   'P 1'
_cell_length_a   3.71031700
_cell_length_b   8.36389100
_cell_length_c   18.71437000
_cell_angle_alpha   90.00000000
_cell_angle_beta   90.00000000
_cell_angle_gamma   90.00000000
_symmetry_Int_Tables_number   1
_chemical_formula_structural   LaY4(In2Au)2
_chemical_formula_sum   'La2 Y8 In8 Au4'
_cell_volume   580.75718593
_cell_formula_units_Z   2
loop_
 _symmetry_equiv_pos_site_id
 _symmetry_equiv_pos_as_xyz
  1  'x, y, z'
loop_
 _atom_site_type_symbol
 _atom_site_label
 _atom_site_symmetry_multiplicity
 _atom_site_fract_x
 _atom_site_fract_y
 _atom_site_fract_z
 _atom_site_occupancy
  La  La0  1  0.000000  0.000000  0.000000  1
  La  La1  1  0.000000  0.500000  0.500000  1
  Y  Y2  1  0.000000  0.124279  0.418719  1
  Y  Y3  1  0.000000  0.875721  0.581281  1
  Y  Y4  1  0.000000  0.375721  0.918719  1
  Y  Y5  1  0.000000  0.624279  0.081281  1
  Y  Y6  1  0.000000  0.238679  0.215971  1
  Y  Y7  1  0.000000  0.761321  0.784029  1
  Y  Y8  1  0.000000  0.261321  0.715971  1
  Y  Y9  1  0.000000  0.738679  0.284029  1
  In  In10  1  0.500000  0.417800  0.348856  1
  In  In11  1  0.500000  0.582200  0.651144  1
  In  In12  1  0.500000  0.082200  0.848856  1
  In  In13  1  0.500000  0.917800  0.151144  1
  In  In14  1  0.500000  0.301393  0.067264  1
  In  In15  1  0.500000  0.698607  0.932736  1
  In  In16  1  0.500000  0.198607  0.567264  1
  In  In17  1  0.500000  0.801393  0.432736  1
  Au  Au18  1  0.500000  0.028339  0.302660  1
  Au  Au19  1  0.500000  0.971661  0.697340  1
  Au  Au20  1  0.500000  0.471661  0.802660  1
  Au  Au21  1  0.500000  0.528339  0.197340  1
