# generated using pymatgen
data_Ca3(BiRh)2
_symmetry_space_group_name_H-M   'P 1'
_cell_length_a   5.86316900
_cell_length_b   8.71754200
_cell_length_c   14.03955800
_cell_angle_alpha   90.00000000
_cell_angle_beta   90.00000000
_cell_angle_gamma   90.00000000
_symmetry_Int_Tables_number   1
_chemical_formula_structural   Ca3(BiRh)2
_chemical_formula_sum   'Ca12 Bi8 Rh8'
_cell_volume   717.59581334
_cell_formula_units_Z   4
loop_
 _symmetry_equiv_pos_site_id
 _symmetry_equiv_pos_as_xyz
  1  'x, y, z'
loop_
 _atom_site_type_symbol
 _atom_site_label
 _atom_site_symmetry_multiplicity
 _atom_site_fract_x
 _atom_site_fract_y
 _atom_site_fract_z
 _atom_site_occupancy
  Ca  Ca0  1  0.157282  0.601645  0.096112  1
  Ca  Ca1  1  0.157282  0.898355  0.903888  1
  Ca  Ca2  1  0.842718  0.101645  0.403888  1
  Ca  Ca3  1  0.842718  0.398355  0.596112  1
  Ca  Ca4  1  0.842718  0.398355  0.903888  1
  Ca  Ca5  1  0.842718  0.101645  0.096112  1
  Ca  Ca6  1  0.157282  0.898355  0.596112  1
  Ca  Ca7  1  0.157282  0.601645  0.403888  1
  Ca  Ca8  1  0.372166  0.232696  0.250000  1
  Ca  Ca9  1  0.372166  0.267304  0.750000  1
  Ca  Ca10  1  0.627834  0.732696  0.250000  1
  Ca  Ca11  1  0.627834  0.767304  0.750000  1
  Bi  Bi12  1  0.357772  0.250000  0.000000  1
  Bi  Bi13  1  0.642228  0.750000  0.500000  1
  Bi  Bi14  1  0.642228  0.750000  0.000000  1
  Bi  Bi15  1  0.357772  0.250000  0.500000  1
  Bi  Bi16  1  0.871064  0.388863  0.250000  1
  Bi  Bi17  1  0.871064  0.111137  0.750000  1
  Bi  Bi18  1  0.128936  0.888863  0.250000  1
  Bi  Bi19  1  0.128936  0.611137  0.750000  1
  Rh  Rh20  1  0.630080  0.466685  0.087674  1
  Rh  Rh21  1  0.630080  0.033315  0.912326  1
  Rh  Rh22  1  0.369920  0.966685  0.412326  1
  Rh  Rh23  1  0.369920  0.533315  0.587674  1
  Rh  Rh24  1  0.369920  0.533315  0.912326  1
  Rh  Rh25  1  0.369920  0.966685  0.087674  1
  Rh  Rh26  1  0.630080  0.033315  0.587674  1
  Rh  Rh27  1  0.630080  0.466685  0.412326  1
