# generated using pymatgen
data_Tb2DyGaAg3Ge2
_symmetry_space_group_name_H-M   'P 1'
_cell_length_a   7.22847028
_cell_length_b   7.22847014
_cell_length_c   4.19531400
_cell_angle_alpha   90.00000000
_cell_angle_beta   90.00000000
_cell_angle_gamma   119.96793015
_symmetry_Int_Tables_number   1
_chemical_formula_structural   Tb2DyGaAg3Ge2
_chemical_formula_sum   'Tb2 Dy1 Ga1 Ag3 Ge2'
_cell_volume   189.90139226
_cell_formula_units_Z   1
loop_
 _symmetry_equiv_pos_site_id
 _symmetry_equiv_pos_as_xyz
  1  'x, y, z'
loop_
 _atom_site_type_symbol
 _atom_site_label
 _atom_site_symmetry_multiplicity
 _atom_site_fract_x
 _atom_site_fract_y
 _atom_site_fract_z
 _atom_site_occupancy
  Tb  Tb0  1  0.999967  0.580159  0.000000  1
  Tb  Tb1  1  0.580159  0.999967  0.000000  1
  Dy  Dy2  1  0.419829  0.419829  0.000000  1
  Ga  Ga3  1  0.000127  0.000127  0.000000  1
  Ag  Ag4  1  0.751532  0.751532  0.500000  1
  Ag  Ag5  1  0.248357  0.000104  0.500000  1
  Ag  Ag6  1  0.000104  0.248357  0.500000  1
  Ge  Ge7  1  0.666532  0.333392  0.500000  1
  Ge  Ge8  1  0.333392  0.666532  0.500000  1
