# generated using pymatgen
data_Er8Be4GaSi11
_symmetry_space_group_name_H-M   'P 1'
_cell_length_a   7.84018020
_cell_length_b   7.84017773
_cell_length_c   7.96880300
_cell_angle_alpha   89.99832333
_cell_angle_beta   90.00165204
_cell_angle_gamma   119.85589002
_symmetry_Int_Tables_number   1
_chemical_formula_structural   Er8Be4GaSi11
_chemical_formula_sum   'Er8 Be4 Ga1 Si11'
_cell_volume   424.81956003
_cell_formula_units_Z   1
loop_
 _symmetry_equiv_pos_site_id
 _symmetry_equiv_pos_as_xyz
  1  'x, y, z'
loop_
 _atom_site_type_symbol
 _atom_site_label
 _atom_site_symmetry_multiplicity
 _atom_site_fract_x
 _atom_site_fract_y
 _atom_site_fract_z
 _atom_site_occupancy
  Er  Er0  1  0.997476  0.497259  0.248724  1
  Er  Er1  1  0.500806  0.499187  0.250069  1
  Er  Er2  1  0.501615  0.999981  0.751366  1
  Er  Er3  1  0.000029  0.498384  0.751363  1
  Er  Er4  1  0.499465  0.500513  0.749842  1
  Er  Er5  1  0.502749  0.002525  0.248721  1
  Er  Er6  1  0.998525  0.001485  0.751045  1
  Er  Er7  1  0.998475  0.001527  0.248901  1
  Be  Be8  1  0.333750  0.666248  0.004551  1
  Be  Be9  1  0.666720  0.333278  0.995492  1
  Be  Be10  1  0.666426  0.333576  0.504401  1
  Be  Be11  1  0.335823  0.664180  0.495401  1
  Ga  Ga12  1  0.173408  0.826585  0.499612  1
  Si  Si13  1  0.172746  0.345581  0.499719  1
  Si  Si14  1  0.654420  0.827255  0.499720  1
  Si  Si15  1  0.345473  0.172845  0.999633  1
  Si  Si16  1  0.825622  0.654387  0.500373  1
  Si  Si17  1  0.827426  0.172577  0.999706  1
  Si  Si18  1  0.827156  0.654528  0.999631  1
  Si  Si19  1  0.172055  0.345260  0.000371  1
  Si  Si20  1  0.654739  0.827944  0.000371  1
  Si  Si21  1  0.345612  0.174374  0.500373  1
  Si  Si22  1  0.827334  0.172669  0.500265  1
  Si  Si23  1  0.172149  0.827853  0.000352  1
