# generated using pymatgen
data_Ba4TbY(GaO5)2
_symmetry_space_group_name_H-M   'P 1'
_cell_length_a   6.14808200
_cell_length_b   7.87644758
_cell_length_c   12.76000288
_cell_angle_alpha   91.74388654
_cell_angle_beta   90.00000000
_cell_angle_gamma   90.00000000
_symmetry_Int_Tables_number   1
_chemical_formula_structural   Ba4TbY(GaO5)2
_chemical_formula_sum   'Ba8 Tb2 Y2 Ga4 O20'
_cell_volume   617.61753550
_cell_formula_units_Z   2
loop_
 _symmetry_equiv_pos_site_id
 _symmetry_equiv_pos_as_xyz
  1  'x, y, z'
loop_
 _atom_site_type_symbol
 _atom_site_label
 _atom_site_symmetry_multiplicity
 _atom_site_fract_x
 _atom_site_fract_y
 _atom_site_fract_z
 _atom_site_occupancy
  Ba  Ba0  1  0.762462  0.482537  0.347082  1
  Ba  Ba1  1  0.737538  0.982537  0.847082  1
  Ba  Ba2  1  0.238187  0.517278  0.653112  1
  Ba  Ba3  1  0.261813  0.017278  0.153112  1
  Ba  Ba4  1  0.758489  0.993688  0.379497  1
  Ba  Ba5  1  0.741511  0.493688  0.879497  1
  Ba  Ba6  1  0.241824  0.006585  0.620734  1
  Ba  Ba7  1  0.258176  0.506585  0.120734  1
  Tb  Tb8  1  0.749705  0.266743  0.628125  1
  Tb  Tb9  1  0.750295  0.766743  0.128125  1
  Y  Y10  1  0.250672  0.733233  0.372101  1
  Y  Y11  1  0.249328  0.233233  0.872101  1
  Ga  Ga12  1  0.735240  0.743083  0.582237  1
  Ga  Ga13  1  0.764760  0.243083  0.082237  1
  Ga  Ga14  1  0.265084  0.256956  0.417427  1
  Ga  Ga15  1  0.234916  0.756956  0.917427  1
  O  O16  1  0.765172  0.970039  0.631304  1
  O  O17  1  0.734828  0.470039  0.131304  1
  O  O18  1  0.234301  0.030185  0.368132  1
  O  O19  1  0.265699  0.530185  0.868132  1
  O  O20  1  0.731733  0.066936  0.175093  1
  O  O21  1  0.768267  0.566936  0.675093  1
  O  O22  1  0.268672  0.933384  0.824910  1
  O  O23  1  0.231328  0.433384  0.324910  1
  O  O24  1  0.544312  0.746093  0.272992  1
  O  O25  1  0.955688  0.246093  0.772992  1
  O  O26  1  0.455387  0.253493  0.727876  1
  O  O27  1  0.044613  0.753493  0.227876  1
  O  O28  1  0.551043  0.222145  0.976330  1
  O  O29  1  0.948957  0.722145  0.476330  1
  O  O30  1  0.447461  0.777973  0.023641  1
  O  O31  1  0.052539  0.277973  0.523641  1
  O  O32  1  0.043462  0.231668  0.021441  1
  O  O33  1  0.456538  0.731668  0.521441  1
  O  O34  1  0.956220  0.767980  0.977965  1
  O  O35  1  0.543780  0.267980  0.477965  1
