# generated using pymatgen
data_TbYBe25Co
_symmetry_space_group_name_H-M   'P 1'
_cell_length_a   7.22290532
_cell_length_b   7.26303104
_cell_length_c   7.20891104
_cell_angle_alpha   59.88294355
_cell_angle_beta   59.94275978
_cell_angle_gamma   59.68184953
_symmetry_Int_Tables_number   1
_chemical_formula_structural   TbYBe25Co
_chemical_formula_sum   'Tb1 Y1 Be25 Co1'
_cell_volume   266.41492204
_cell_formula_units_Z   1
loop_
 _symmetry_equiv_pos_site_id
 _symmetry_equiv_pos_as_xyz
  1  'x, y, z'
loop_
 _atom_site_type_symbol
 _atom_site_label
 _atom_site_symmetry_multiplicity
 _atom_site_fract_x
 _atom_site_fract_y
 _atom_site_fract_z
 _atom_site_occupancy
  Tb  Tb0  1  0.246797  0.254954  0.250339  1
  Y  Y1  1  0.749643  0.752143  0.753193  1
  Be  Be2  1  0.502668  0.501592  0.497331  1
  Be  Be3  1  0.998697  0.003125  0.001282  1
  Be  Be4  1  0.203995  0.439970  0.795974  1
  Be  Be5  1  0.566710  0.787502  0.433302  1
  Be  Be6  1  0.434577  0.208052  0.565448  1
  Be  Be7  1  0.290471  0.933664  0.709557  1
  Be  Be8  1  0.707935  0.064515  0.292071  1
  Be  Be9  1  0.933816  0.289652  0.066151  1
  Be  Be10  1  0.065865  0.714080  0.934126  1
  Be  Be11  1  0.206708  0.795321  0.562103  1
  Be  Be12  1  0.791257  0.207952  0.435967  1
  Be  Be13  1  0.437894  0.564133  0.793302  1
  Be  Be14  1  0.564071  0.435205  0.208716  1
  Be  Be15  1  0.711072  0.284485  0.933967  1
  Be  Be16  1  0.288037  0.712383  0.064331  1
  Be  Be17  1  0.066036  0.929536  0.288942  1
  Be  Be18  1  0.935668  0.064753  0.711975  1
  Be  Be19  1  0.559871  0.209160  0.793550  1
  Be  Be20  1  0.438860  0.790866  0.206799  1
  Be  Be21  1  0.793165  0.436542  0.561149  1
  Be  Be22  1  0.206454  0.562590  0.440122  1
  Be  Be23  1  0.936087  0.709807  0.288938  1
  Be  Be24  1  0.065486  0.288804  0.709172  1
  Be  Be25  1  0.290862  0.063451  0.934510  1
  Be  Be26  1  0.711080  0.934806  0.063889  1
  Co  Co27  1  0.796220  0.560961  0.203795  1
