# generated using pymatgen
data_TcSe29
_symmetry_space_group_name_H-M   'P 1'
_cell_length_a   7.54999326
_cell_length_b   9.79478465
_cell_length_c   11.72528582
_cell_angle_alpha   73.93446864
_cell_angle_beta   80.61394041
_cell_angle_gamma   67.49014825
_symmetry_Int_Tables_number   1
_chemical_formula_structural   TcSe29
_chemical_formula_sum   'Tc1 Se29'
_cell_volume   768.15119205
_cell_formula_units_Z   1
loop_
 _symmetry_equiv_pos_site_id
 _symmetry_equiv_pos_as_xyz
  1  'x, y, z'
loop_
 _atom_site_type_symbol
 _atom_site_label
 _atom_site_symmetry_multiplicity
 _atom_site_fract_x
 _atom_site_fract_y
 _atom_site_fract_z
 _atom_site_occupancy
  Tc  Tc0  1  0.000000  0.000000  0.000000  1
  Se  Se1  1  0.500000  0.000000  0.000000  1
  Se  Se2  1  0.101285  0.200349  0.201166  1
  Se  Se3  1  0.699756  0.401800  0.398927  1
  Se  Se4  1  0.300244  0.598200  0.601073  1
  Se  Se5  1  0.598452  0.200187  0.201913  1
  Se  Se6  1  0.898715  0.799651  0.798834  1
  Se  Se7  1  0.200555  0.399437  0.400490  1
  Se  Se8  1  0.799445  0.600563  0.599510  1
  Se  Se9  1  0.401548  0.799813  0.798087  1
  Se  Se10  1  0.240038  0.076732  0.842184  1
  Se  Se11  1  0.648818  0.716483  0.966919  1
  Se  Se12  1  0.859337  0.266437  0.034249  1
  Se  Se13  1  0.236805  0.922762  0.157688  1
  Se  Se14  1  0.451181  0.484330  0.232972  1
  Se  Se15  1  0.763195  0.077238  0.842312  1
  Se  Se16  1  0.850199  0.115397  0.366971  1
  Se  Se17  1  0.140663  0.733563  0.965751  1
  Se  Se18  1  0.051450  0.681742  0.432641  1
  Se  Se19  1  0.351182  0.283517  0.033081  1
  Se  Se20  1  0.759962  0.923268  0.157816  1
  Se  Se21  1  0.448970  0.317415  0.566825  1
  Se  Se22  1  0.648993  0.886638  0.630971  1
  Se  Se23  1  0.950873  0.483750  0.232478  1
  Se  Se24  1  0.049127  0.516250  0.767522  1
  Se  Se25  1  0.351007  0.113362  0.369029  1
  Se  Se26  1  0.551030  0.682585  0.433175  1
  Se  Se27  1  0.948550  0.318258  0.567359  1
  Se  Se28  1  0.149801  0.884603  0.633029  1
  Se  Se29  1  0.548819  0.515670  0.767028  1
