# generated using pymatgen
data_TbNb8VSe16
_symmetry_space_group_name_H-M   'P 1'
_cell_length_a   7.00267300
_cell_length_b   7.00273450
_cell_length_c   13.71238600
_cell_angle_alpha   90.00000139
_cell_angle_beta   89.99925175
_cell_angle_gamma   120.00017951
_symmetry_Int_Tables_number   1
_chemical_formula_structural   TbNb8VSe16
_chemical_formula_sum   'Tb1 Nb8 V1 Se16'
_cell_volume   582.33699843
_cell_formula_units_Z   1
loop_
 _symmetry_equiv_pos_site_id
 _symmetry_equiv_pos_as_xyz
  1  'x, y, z'
loop_
 _atom_site_type_symbol
 _atom_site_label
 _atom_site_symmetry_multiplicity
 _atom_site_fract_x
 _atom_site_fract_y
 _atom_site_fract_z
 _atom_site_occupancy
  Tb  Tb0  1  0.000000  0.000000  0.000000  1
  Nb  Nb1  1  0.000000  0.999999  0.264204  1
  Nb  Nb2  1  0.000000  0.000001  0.735796  1
  Nb  Nb3  1  0.506653  0.013304  0.266441  1
  Nb  Nb4  1  0.493347  0.986696  0.733559  1
  Nb  Nb5  1  0.986699  0.493349  0.266440  1
  Nb  Nb6  1  0.013301  0.506651  0.733560  1
  Nb  Nb7  1  0.506655  0.493349  0.266441  1
  Nb  Nb8  1  0.493345  0.506651  0.733559  1
  V  V9  1  0.000000  0.000000  0.500000  1
  Se  Se10  1  0.333343  0.666672  0.608476  1
  Se  Se11  1  0.666657  0.333328  0.391524  1
  Se  Se12  1  0.666665  0.333332  0.140219  1
  Se  Se13  1  0.333335  0.666668  0.859781  1
  Se  Se14  1  0.170182  0.340363  0.143438  1
  Se  Se15  1  0.829818  0.659637  0.856562  1
  Se  Se16  1  0.659648  0.829824  0.143444  1
  Se  Se17  1  0.833369  0.666728  0.613416  1
  Se  Se18  1  0.340352  0.170176  0.856556  1
  Se  Se19  1  0.166631  0.333272  0.386584  1
  Se  Se20  1  0.170181  0.829819  0.143437  1
  Se  Se21  1  0.333266  0.166634  0.613421  1
  Se  Se22  1  0.829819  0.170181  0.856563  1
  Se  Se23  1  0.666734  0.833366  0.386579  1
  Se  Se24  1  0.833369  0.166642  0.613416  1
  Se  Se25  1  0.166631  0.833358  0.386584  1
