# generated using pymatgen
data_Er2Ge(PIr2)6
_symmetry_space_group_name_H-M   'P 1'
_cell_length_a   9.66276400
_cell_length_b   9.66276219
_cell_length_c   3.94908500
_cell_angle_alpha   90.00000000
_cell_angle_beta   90.00000000
_cell_angle_gamma   120.00000028
_symmetry_Int_Tables_number   1
_chemical_formula_structural   Er2Ge(PIr2)6
_chemical_formula_sum   'Er2 Ge1 P6 Ir12'
_cell_volume   319.32268749
_cell_formula_units_Z   1
loop_
 _symmetry_equiv_pos_site_id
 _symmetry_equiv_pos_as_xyz
  1  'x, y, z'
loop_
 _atom_site_type_symbol
 _atom_site_label
 _atom_site_symmetry_multiplicity
 _atom_site_fract_x
 _atom_site_fract_y
 _atom_site_fract_z
 _atom_site_occupancy
  Er  Er0  1  0.333333  0.666667  0.752817  1
  Er  Er1  1  0.666667  0.333333  0.247183  1
  Ge  Ge2  1  0.000000  0.000000  0.500000  1
  P  P3  1  0.406661  0.281754  0.746999  1
  P  P4  1  0.718246  0.124906  0.746999  1
  P  P5  1  0.875094  0.593339  0.746999  1
  P  P6  1  0.593339  0.718246  0.253001  1
  P  P7  1  0.281754  0.875094  0.253001  1
  P  P8  1  0.124906  0.406661  0.253001  1
  Ir  Ir9  1  0.458119  0.070878  0.747024  1
  Ir  Ir10  1  0.929122  0.387239  0.747024  1
  Ir  Ir11  1  0.612761  0.541881  0.747024  1
  Ir  Ir12  1  0.541881  0.929122  0.252976  1
  Ir  Ir13  1  0.070878  0.612761  0.252976  1
  Ir  Ir14  1  0.387239  0.458119  0.252976  1
  Ir  Ir15  1  0.161011  0.277965  0.762568  1
  Ir  Ir16  1  0.722035  0.883047  0.762568  1
  Ir  Ir17  1  0.116953  0.838989  0.762568  1
  Ir  Ir18  1  0.838989  0.722035  0.237432  1
  Ir  Ir19  1  0.277965  0.116953  0.237432  1
  Ir  Ir20  1  0.883047  0.161011  0.237432  1
