# generated using pymatgen
data_CaYZn14Cu3
_symmetry_space_group_name_H-M   'P 1'
_cell_length_a   8.92706300
_cell_length_b   8.92706346
_cell_length_c   8.67356400
_cell_angle_alpha   90.00000000
_cell_angle_beta   90.00000000
_cell_angle_gamma   120.00000943
_symmetry_Int_Tables_number   1
_chemical_formula_structural   CaYZn14Cu3
_chemical_formula_sum   'Ca2 Y2 Zn28 Cu6'
_cell_volume   598.61197350
_cell_formula_units_Z   2
loop_
 _symmetry_equiv_pos_site_id
 _symmetry_equiv_pos_as_xyz
  1  'x, y, z'
loop_
 _atom_site_type_symbol
 _atom_site_label
 _atom_site_symmetry_multiplicity
 _atom_site_fract_x
 _atom_site_fract_y
 _atom_site_fract_z
 _atom_site_occupancy
  Ca  Ca0  1  0.000000  0.000000  0.250000  1
  Ca  Ca1  1  0.000000  0.000000  0.750000  1
  Y  Y2  1  0.333333  0.666667  0.750000  1
  Y  Y3  1  0.666667  0.333333  0.250000  1
  Zn  Zn4  1  0.333333  0.666667  0.404614  1
  Zn  Zn5  1  0.666667  0.333333  0.595386  1
  Zn  Zn6  1  0.666667  0.333333  0.904614  1
  Zn  Zn7  1  0.333333  0.666667  0.095386  1
  Zn  Zn8  1  0.332810  0.369466  0.250000  1
  Zn  Zn9  1  0.630534  0.963345  0.250000  1
  Zn  Zn10  1  0.036655  0.667190  0.250000  1
  Zn  Zn11  1  0.630534  0.667190  0.250000  1
  Zn  Zn12  1  0.036655  0.369466  0.250000  1
  Zn  Zn13  1  0.332810  0.963345  0.250000  1
  Zn  Zn14  1  0.667190  0.630534  0.750000  1
  Zn  Zn15  1  0.369466  0.036655  0.750000  1
  Zn  Zn16  1  0.963345  0.332810  0.750000  1
  Zn  Zn17  1  0.369466  0.332810  0.750000  1
  Zn  Zn18  1  0.963345  0.630534  0.750000  1
  Zn  Zn19  1  0.667190  0.036655  0.750000  1
  Zn  Zn20  1  0.169673  0.830327  0.520918  1
  Zn  Zn21  1  0.169673  0.339345  0.520918  1
  Zn  Zn22  1  0.660655  0.830327  0.520918  1
  Zn  Zn23  1  0.830327  0.169673  0.479082  1
  Zn  Zn24  1  0.830327  0.660655  0.479082  1
  Zn  Zn25  1  0.339345  0.169673  0.479082  1
  Zn  Zn26  1  0.830327  0.169673  0.020918  1
  Zn  Zn27  1  0.830327  0.660655  0.020918  1
  Zn  Zn28  1  0.339345  0.169673  0.020918  1
  Zn  Zn29  1  0.169673  0.830327  0.979082  1
  Zn  Zn30  1  0.169673  0.339345  0.979082  1
  Zn  Zn31  1  0.660655  0.830327  0.979082  1
  Cu  Cu32  1  0.500000  0.500000  0.500000  1
  Cu  Cu33  1  0.500000  0.000000  0.500000  1
  Cu  Cu34  1  0.000000  0.500000  0.500000  1
  Cu  Cu35  1  0.500000  0.500000  0.000000  1
  Cu  Cu36  1  0.500000  0.000000  0.000000  1
  Cu  Cu37  1  0.000000  0.500000  0.000000  1
