# generated using pymatgen
data_Nd8SiHgI12
_symmetry_space_group_name_H-M   'P 1'
_cell_length_a   4.38033000
_cell_length_b   14.58103751
_cell_length_c   15.36681705
_cell_angle_alpha   89.78533014
_cell_angle_beta   90.00000000
_cell_angle_gamma   90.00000000
_symmetry_Int_Tables_number   1
_chemical_formula_structural   Nd8SiHgI12
_chemical_formula_sum   'Nd8 Si1 Hg1 I12'
_cell_volume   981.46796683
_cell_formula_units_Z   1
loop_
 _symmetry_equiv_pos_site_id
 _symmetry_equiv_pos_as_xyz
  1  'x, y, z'
loop_
 _atom_site_type_symbol
 _atom_site_label
 _atom_site_symmetry_multiplicity
 _atom_site_fract_x
 _atom_site_fract_y
 _atom_site_fract_z
 _atom_site_occupancy
  Nd  Nd0  1  0.500000  0.119485  0.340053  1
  Nd  Nd1  1  0.500000  0.880515  0.659947  1
  Nd  Nd2  1  0.500000  0.613078  0.152068  1
  Nd  Nd3  1  0.500000  0.386922  0.847932  1
  Nd  Nd4  1  0.000000  0.120360  0.580866  1
  Nd  Nd5  1  0.000000  0.879640  0.419134  1
  Nd  Nd6  1  0.000000  0.611279  0.925368  1
  Nd  Nd7  1  0.000000  0.388721  0.074632  1
  Si  Si8  1  0.500000  0.500000  0.000000  1
  Hg  Hg9  1  0.500000  0.000000  0.500000  1
  I  I10  1  0.500000  0.246470  0.161243  1
  I  I11  1  0.500000  0.753530  0.838757  1
  I  I12  1  0.500000  0.742418  0.335352  1
  I  I13  1  0.500000  0.257582  0.664648  1
  I  I14  1  0.000000  0.259412  0.414054  1
  I  I15  1  0.000000  0.740588  0.585946  1
  I  I16  1  0.000000  0.756121  0.085416  1
  I  I17  1  0.000000  0.243879  0.914584  1
  I  I18  1  0.000000  0.998601  0.239526  1
  I  I19  1  0.000000  0.001399  0.760474  1
  I  I20  1  0.000000  0.498803  0.257534  1
  I  I21  1  0.000000  0.501197  0.742466  1
