# generated using pymatgen
data_PaCuPdPt3
_symmetry_space_group_name_H-M   'P 1'
_cell_length_a   5.12272201
_cell_length_b   5.38227839
_cell_length_c   5.38227900
_cell_angle_alpha   60.00000239
_cell_angle_beta   58.30928305
_cell_angle_gamma   58.30928472
_symmetry_Int_Tables_number   1
_chemical_formula_structural   PaCuPdPt3
_chemical_formula_sum   'Pa1 Cu1 Pd1 Pt3'
_cell_volume   102.17238145
_cell_formula_units_Z   1
loop_
 _symmetry_equiv_pos_site_id
 _symmetry_equiv_pos_as_xyz
  1  'x, y, z'
loop_
 _atom_site_type_symbol
 _atom_site_label
 _atom_site_symmetry_multiplicity
 _atom_site_fract_x
 _atom_site_fract_y
 _atom_site_fract_z
 _atom_site_occupancy
  Pa  Pa0  1  0.260892  0.246369  0.246369  1
  Cu  Cu1  1  0.120658  0.626447  0.626447  1
  Pd  Pd2  1  0.997447  0.000851  0.000851  1
  Pt  Pt3  1  0.623668  0.625858  0.625858  1
  Pt  Pt4  1  0.623668  0.625858  0.124615  1
  Pt  Pt5  1  0.623668  0.124615  0.625858  1
