# generated using pymatgen
data_La8Y12Si13Ir3
_symmetry_space_group_name_H-M   'P 1'
_cell_length_a   7.57743537
_cell_length_b   7.93921417
_cell_length_c   15.03899000
_cell_angle_alpha   90.09559388
_cell_angle_beta   89.92009900
_cell_angle_gamma   90.40286296
_symmetry_Int_Tables_number   1
_chemical_formula_structural   La8Y12Si13Ir3
_chemical_formula_sum   'La8 Y12 Si13 Ir3'
_cell_volume   904.70434034
_cell_formula_units_Z   1
loop_
 _symmetry_equiv_pos_site_id
 _symmetry_equiv_pos_as_xyz
  1  'x, y, z'
loop_
 _atom_site_type_symbol
 _atom_site_label
 _atom_site_symmetry_multiplicity
 _atom_site_fract_x
 _atom_site_fract_y
 _atom_site_fract_z
 _atom_site_occupancy
  La  La0  1  0.019891  0.187489  0.403922  1
  La  La1  1  0.511278  0.329017  0.403660  1
  La  La2  1  0.475558  0.683563  0.900289  1
  La  La3  1  0.478300  0.673579  0.596974  1
  La  La4  1  0.990182  0.817342  0.593351  1
  La  La5  1  0.984834  0.820670  0.901189  1
  La  La6  1  0.514809  0.325191  0.097367  1
  La  La7  1  0.018838  0.175473  0.096870  1
  Y  Y8  1  0.317904  0.188127  0.621452  1
  Y  Y9  1  0.671824  0.820497  0.375681  1
  Y  Y10  1  0.642791  0.980548  0.745458  1
  Y  Y11  1  0.179848  0.668599  0.377174  1
  Y  Y12  1  0.827372  0.318873  0.877438  1
  Y  Y13  1  0.831750  0.327661  0.622264  1
  Y  Y14  1  0.830658  0.496436  0.251605  1
  Y  Y15  1  0.351087  0.003567  0.251489  1
  Y  Y16  1  0.319087  0.175327  0.875860  1
  Y  Y17  1  0.185269  0.673109  0.126009  1
  Y  Y18  1  0.673563  0.817574  0.124609  1
  Y  Y19  1  0.166562  0.521933  0.744162  1
  Si  Si20  1  0.027431  0.105468  0.749950  1
  Si  Si21  1  0.538870  0.385071  0.753674  1
  Si  Si22  1  0.972818  0.893928  0.250542  1
  Si  Si23  1  0.732847  0.118032  0.249303  1
  Si  Si24  1  0.856973  0.527832  0.039976  1
  Si  Si25  1  0.354849  0.973894  0.039392  1
  Si  Si26  1  0.146969  0.467569  0.963612  1
  Si  Si27  1  0.644320  0.036490  0.538215  1
  Si  Si28  1  0.354396  0.974925  0.461804  1
  Si  Si29  1  0.847567  0.530688  0.459233  1
  Si  Si30  1  0.771297  0.610202  0.752490  1
  Si  Si31  1  0.226443  0.372462  0.248553  1
  Si  Si32  1  0.646585  0.033591  0.962483  1
  Ir  Ir33  1  0.270414  0.879801  0.752775  1
  Ir  Ir34  1  0.469645  0.608625  0.249104  1
  Ir  Ir35  1  0.147170  0.476848  0.542068  1
