# generated using pymatgen
data_Er4Lu4Re(B8Ir)3
_symmetry_space_group_name_H-M   'P 1'
_cell_length_a   3.61791100
_cell_length_b   9.09047108
_cell_length_c   11.43047412
_cell_angle_alpha   90.12617489
_cell_angle_beta   90.00000000
_cell_angle_gamma   90.00000000
_symmetry_Int_Tables_number   1
_chemical_formula_structural   Er4Lu4Re(B8Ir)3
_chemical_formula_sum   'Er4 Lu4 Re1 B24 Ir3'
_cell_volume   375.93041176
_cell_formula_units_Z   1
loop_
 _symmetry_equiv_pos_site_id
 _symmetry_equiv_pos_as_xyz
  1  'x, y, z'
loop_
 _atom_site_type_symbol
 _atom_site_label
 _atom_site_symmetry_multiplicity
 _atom_site_fract_x
 _atom_site_fract_y
 _atom_site_fract_z
 _atom_site_occupancy
  Er  Er0  1  0.000000  0.319955  0.413892  1
  Er  Er1  1  0.000000  0.683906  0.590285  1
  Er  Er2  1  0.000000  0.819821  0.082510  1
  Er  Er3  1  0.000000  0.176633  0.912369  1
  Lu  Lu4  1  0.000000  0.943822  0.373491  1
  Lu  Lu5  1  0.000000  0.053472  0.626381  1
  Lu  Lu6  1  0.000000  0.443647  0.125990  1
  Lu  Lu7  1  0.000000  0.557353  0.874778  1
  Re  Re8  1  0.000000  0.862280  0.820897  1
  B  B9  1  0.500000  0.554115  0.434503  1
  B  B10  1  0.500000  0.447092  0.566252  1
  B  B11  1  0.500000  0.053884  0.066136  1
  B  B12  1  0.500000  0.946540  0.933500  1
  B  B13  1  0.500000  0.751411  0.420705  1
  B  B14  1  0.500000  0.249070  0.579121  1
  B  B15  1  0.500000  0.250236  0.079048  1
  B  B16  1  0.500000  0.750415  0.919823  1
  B  B17  1  0.500000  0.792869  0.264503  1
  B  B18  1  0.500000  0.207080  0.733988  1
  B  B19  1  0.500000  0.293756  0.235582  1
  B  B20  1  0.500000  0.707175  0.765651  1
  B  B21  1  0.500000  0.630385  0.183500  1
  B  B22  1  0.500000  0.368837  0.816534  1
  B  B23  1  0.500000  0.131404  0.316394  1
  B  B24  1  0.500000  0.869487  0.684711  1
  B  B25  1  0.500000  0.981110  0.213445  1
  B  B26  1  0.500000  0.018098  0.786221  1
  B  B27  1  0.500000  0.480916  0.286763  1
  B  B28  1  0.500000  0.518429  0.714326  1
  B  B29  1  0.500000  0.605101  0.029944  1
  B  B30  1  0.500000  0.392582  0.971176  1
  B  B31  1  0.500000  0.106432  0.470419  1
  B  B32  1  0.500000  0.894428  0.527890  1
  Ir  Ir33  1  0.000000  0.638227  0.321540  1
  Ir  Ir34  1  0.000000  0.362133  0.678719  1
  Ir  Ir35  1  0.000000  0.137897  0.179015  1
