# generated using pymatgen
data_Sm3C2Cl3
_symmetry_space_group_name_H-M   'P 1'
_cell_length_a   9.90349900
_cell_length_b   9.90349851
_cell_length_c   16.42617500
_cell_angle_alpha   90.00000000
_cell_angle_beta   90.00000000
_cell_angle_gamma   112.23592371
_symmetry_Int_Tables_number   1
_chemical_formula_structural   Sm3C2Cl3
_chemical_formula_sum   'Sm24 C16 Cl24'
_cell_volume   1491.25808943
_cell_formula_units_Z   8
loop_
 _symmetry_equiv_pos_site_id
 _symmetry_equiv_pos_as_xyz
  1  'x, y, z'
loop_
 _atom_site_type_symbol
 _atom_site_label
 _atom_site_symmetry_multiplicity
 _atom_site_fract_x
 _atom_site_fract_y
 _atom_site_fract_z
 _atom_site_occupancy
  Sm  Sm0  1  0.977283  0.490571  0.626378  1
  Sm  Sm1  1  0.022717  0.509429  0.126378  1
  Sm  Sm2  1  0.509429  0.022717  0.873622  1
  Sm  Sm3  1  0.490571  0.977283  0.373622  1
  Sm  Sm4  1  0.879102  0.120898  0.750000  1
  Sm  Sm5  1  0.120898  0.879102  0.250000  1
  Sm  Sm6  1  0.888583  0.175101  0.517343  1
  Sm  Sm7  1  0.111417  0.824899  0.017343  1
  Sm  Sm8  1  0.824899  0.111417  0.982657  1
  Sm  Sm9  1  0.175101  0.888583  0.482657  1
  Sm  Sm10  1  0.245100  0.277684  0.606236  1
  Sm  Sm11  1  0.754900  0.722316  0.106236  1
  Sm  Sm12  1  0.722316  0.754900  0.893764  1
  Sm  Sm13  1  0.277684  0.245100  0.393764  1
  Sm  Sm14  1  0.951668  0.486444  0.897225  1
  Sm  Sm15  1  0.048332  0.513556  0.397225  1
  Sm  Sm16  1  0.513556  0.048332  0.602775  1
  Sm  Sm17  1  0.486444  0.951668  0.102775  1
  Sm  Sm18  1  0.361527  0.615009  0.505670  1
  Sm  Sm19  1  0.638473  0.384991  0.005670  1
  Sm  Sm20  1  0.384991  0.638473  0.994330  1
  Sm  Sm21  1  0.615009  0.361527  0.494330  1
  Sm  Sm22  1  0.667344  0.332656  0.750000  1
  Sm  Sm23  1  0.332656  0.667344  0.250000  1
  C  C24  1  0.836140  0.641436  0.974375  1
  C  C25  1  0.163860  0.358564  0.474375  1
  C  C26  1  0.358564  0.163860  0.525625  1
  C  C27  1  0.641436  0.836140  0.025625  1
  C  C28  1  0.787530  0.223027  0.650869  1
  C  C29  1  0.212470  0.776973  0.150869  1
  C  C30  1  0.776973  0.212470  0.849131  1
  C  C31  1  0.223027  0.787530  0.349131  1
  C  C32  1  0.725634  0.285839  0.593132  1
  C  C33  1  0.274366  0.714161  0.093132  1
  C  C34  1  0.714161  0.274366  0.906868  1
  C  C35  1  0.285839  0.725634  0.406868  1
  C  C36  1  0.099680  0.415353  0.534146  1
  C  C37  1  0.900320  0.584647  0.034146  1
  C  C38  1  0.584647  0.900320  0.965854  1
  C  C39  1  0.415353  0.099680  0.465854  1
  Cl  Cl40  1  0.257450  0.772548  0.624388  1
  Cl  Cl41  1  0.742550  0.227452  0.124388  1
  Cl  Cl42  1  0.227452  0.742550  0.875612  1
  Cl  Cl43  1  0.772548  0.257450  0.375612  1
  Cl  Cl44  1  0.515463  0.509371  0.625729  1
  Cl  Cl45  1  0.484537  0.490629  0.125729  1
  Cl  Cl46  1  0.490629  0.484537  0.874271  1
  Cl  Cl47  1  0.509371  0.515463  0.374271  1
  Cl  Cl48  1  0.109604  0.359855  0.996979  1
  Cl  Cl49  1  0.890396  0.640145  0.496979  1
  Cl  Cl50  1  0.640145  0.890396  0.503021  1
  Cl  Cl51  1  0.359855  0.109604  0.003021  1
  Cl  Cl52  1  0.126257  0.393756  0.755500  1
  Cl  Cl53  1  0.873743  0.606244  0.255500  1
  Cl  Cl54  1  0.606244  0.873743  0.744500  1
  Cl  Cl55  1  0.393756  0.126257  0.244500  1
  Cl  Cl56  1  0.866031  0.620342  0.760649  1
  Cl  Cl57  1  0.133969  0.379658  0.260649  1
  Cl  Cl58  1  0.379658  0.133969  0.739351  1
  Cl  Cl59  1  0.620342  0.866031  0.239351  1
  Cl  Cl60  1  0.991934  0.994689  0.114376  1
  Cl  Cl61  1  0.008066  0.005311  0.614376  1
  Cl  Cl62  1  0.005311  0.008066  0.385624  1
  Cl  Cl63  1  0.994689  0.991934  0.885624  1
