# generated using pymatgen
data_Nd5In2Ru3
_symmetry_space_group_name_H-M   'P 1'
_cell_length_a   8.74642470
_cell_length_b   8.74642450
_cell_length_c   8.74642292
_cell_angle_alpha   109.51660355
_cell_angle_beta   109.51659845
_cell_angle_gamma   109.51660063
_symmetry_Int_Tables_number   1
_chemical_formula_structural   Nd5In2Ru3
_chemical_formula_sum   'Nd10 In4 Ru6'
_cell_volume   514.20685302
_cell_formula_units_Z   2
loop_
 _symmetry_equiv_pos_site_id
 _symmetry_equiv_pos_as_xyz
  1  'x, y, z'
loop_
 _atom_site_type_symbol
 _atom_site_label
 _atom_site_symmetry_multiplicity
 _atom_site_fract_x
 _atom_site_fract_y
 _atom_site_fract_z
 _atom_site_occupancy
  Nd  Nd0  1  0.476553  0.156106  0.224144  1
  Nd  Nd1  1  0.156106  0.224144  0.476553  1
  Nd  Nd2  1  0.224144  0.476553  0.156106  1
  Nd  Nd3  1  0.408382  0.698401  0.905818  1
  Nd  Nd4  1  0.698401  0.905818  0.408382  1
  Nd  Nd5  1  0.905818  0.408382  0.698401  1
  Nd  Nd6  1  0.656721  0.090171  0.839689  1
  Nd  Nd7  1  0.090171  0.839689  0.656721  1
  Nd  Nd8  1  0.839689  0.656721  0.090171  1
  Nd  Nd9  1  0.614504  0.614504  0.614504  1
  In  In10  1  0.406197  0.314476  0.909634  1
  In  In11  1  0.314476  0.909634  0.406197  1
  In  In12  1  0.909634  0.406197  0.314476  1
  In  In13  1  0.999318  0.999318  0.999318  1
  Ru  Ru14  1  0.023012  0.159176  0.775653  1
  Ru  Ru15  1  0.159176  0.775653  0.023012  1
  Ru  Ru16  1  0.775653  0.023012  0.159176  1
  Ru  Ru17  1  0.660098  0.539462  0.292485  1
  Ru  Ru18  1  0.539462  0.292485  0.660098  1
  Ru  Ru19  1  0.292485  0.660098  0.539462  1
