# generated using pymatgen
data_Zr2TlSe4
_symmetry_space_group_name_H-M   'P 1'
_cell_length_a   6.53984600
_cell_length_b   7.54786000
_cell_length_c   17.12424600
_cell_angle_alpha   90.00000000
_cell_angle_beta   90.00000000
_cell_angle_gamma   90.00000000
_symmetry_Int_Tables_number   1
_chemical_formula_structural   Zr2TlSe4
_chemical_formula_sum   'Zr8 Tl4 Se16'
_cell_volume   845.28432593
_cell_formula_units_Z   4
loop_
 _symmetry_equiv_pos_site_id
 _symmetry_equiv_pos_as_xyz
  1  'x, y, z'
loop_
 _atom_site_type_symbol
 _atom_site_label
 _atom_site_symmetry_multiplicity
 _atom_site_fract_x
 _atom_site_fract_y
 _atom_site_fract_z
 _atom_site_occupancy
  Zr  Zr0  1  0.002293  0.000000  0.249237  1
  Zr  Zr1  1  0.002293  0.000000  0.750763  1
  Zr  Zr2  1  0.997707  0.500000  0.250763  1
  Zr  Zr3  1  0.997707  0.500000  0.749237  1
  Zr  Zr4  1  0.500000  0.250000  0.250000  1
  Zr  Zr5  1  0.500000  0.750000  0.750000  1
  Zr  Zr6  1  0.500000  0.750000  0.250000  1
  Zr  Zr7  1  0.500000  0.250000  0.750000  1
  Tl  Tl8  1  0.352354  0.000000  0.000000  1
  Tl  Tl9  1  0.647646  0.500000  0.500000  1
  Tl  Tl10  1  0.030050  0.000000  0.500000  1
  Tl  Tl11  1  0.969950  0.500000  0.000000  1
  Se  Se12  1  0.833552  0.248971  0.346717  1
  Se  Se13  1  0.833552  0.751029  0.653283  1
  Se  Se14  1  0.166448  0.748971  0.153283  1
  Se  Se15  1  0.166448  0.251029  0.846717  1
  Se  Se16  1  0.166448  0.251029  0.153283  1
  Se  Se17  1  0.166448  0.748971  0.846717  1
  Se  Se18  1  0.833552  0.751029  0.346717  1
  Se  Se19  1  0.833552  0.248971  0.653283  1
  Se  Se20  1  0.668177  0.000000  0.154210  1
  Se  Se21  1  0.668177  0.000000  0.845790  1
  Se  Se22  1  0.331823  0.500000  0.345790  1
  Se  Se23  1  0.331823  0.500000  0.654210  1
  Se  Se24  1  0.334809  0.000000  0.345330  1
  Se  Se25  1  0.334809  0.000000  0.654670  1
  Se  Se26  1  0.665191  0.500000  0.154670  1
  Se  Se27  1  0.665191  0.500000  0.845330  1
