# generated using pymatgen
data_TbY11Co4SnPd
_symmetry_space_group_name_H-M   'P 1'
_cell_length_a   8.34958670
_cell_length_b   8.35065002
_cell_length_c   8.35064990
_cell_angle_alpha   110.92227263
_cell_angle_beta   110.52477616
_cell_angle_gamma   106.99980218
_symmetry_Int_Tables_number   1
_chemical_formula_structural   TbY11Co4SnPd
_chemical_formula_sum   'Tb1 Y11 Co4 Sn1 Pd1'
_cell_volume   447.55609221
_cell_formula_units_Z   1
loop_
 _symmetry_equiv_pos_site_id
 _symmetry_equiv_pos_as_xyz
  1  'x, y, z'
loop_
 _atom_site_type_symbol
 _atom_site_label
 _atom_site_symmetry_multiplicity
 _atom_site_fract_x
 _atom_site_fract_y
 _atom_site_fract_z
 _atom_site_occupancy
  Tb  Tb0  1  0.412849  0.212257  0.200592  1
  Y  Y1  1  0.586134  0.786474  0.799659  1
  Y  Y2  1  0.013009  0.213720  0.799287  1
  Y  Y3  1  0.986517  0.785989  0.200529  1
  Y  Y4  1  0.187134  0.293418  0.480431  1
  Y  Y5  1  0.812877  0.706608  0.519595  1
  Y  Y6  1  0.187134  0.706704  0.893716  1
  Y  Y7  1  0.812877  0.293281  0.106269  1
  Y  Y8  1  0.313732  0.617680  0.304059  1
  Y  Y9  1  0.686590  0.382528  0.696352  1
  Y  Y10  1  0.313732  0.009673  0.696052  1
  Y  Y11  1  0.686590  0.990239  0.304062  1
  Co  Co12  1  0.380267  0.000593  0.379674  1
  Co  Co13  1  0.619634  0.000067  0.619567  1
  Co  Co14  1  0.111337  0.611364  0.499972  1
  Co  Co15  1  0.889079  0.388763  0.500315  1
  Sn  Sn16  1  0.500353  0.500518  0.999835  1
  Pd  Pd17  1  0.000156  0.000122  0.000034  1
