# generated using pymatgen
data_Tm3Fe8CoP6
_symmetry_space_group_name_H-M   'P 1'
_cell_length_a   3.68645700
_cell_length_b   10.43944500
_cell_length_c   12.12429400
_cell_angle_alpha   90.00000000
_cell_angle_beta   90.00000000
_cell_angle_gamma   90.00000000
_symmetry_Int_Tables_number   1
_chemical_formula_structural   Tm3Fe8CoP6
_chemical_formula_sum   'Tm6 Fe16 Co2 P12'
_cell_volume   466.59818169
_cell_formula_units_Z   2
loop_
 _symmetry_equiv_pos_site_id
 _symmetry_equiv_pos_as_xyz
  1  'x, y, z'
loop_
 _atom_site_type_symbol
 _atom_site_label
 _atom_site_symmetry_multiplicity
 _atom_site_fract_x
 _atom_site_fract_y
 _atom_site_fract_z
 _atom_site_occupancy
  Tm  Tm0  1  0.000000  0.500000  0.526041  1
  Tm  Tm1  1  0.500000  0.000000  0.473959  1
  Tm  Tm2  1  0.500000  0.820191  0.207061  1
  Tm  Tm3  1  0.500000  0.179809  0.207061  1
  Tm  Tm4  1  0.000000  0.679809  0.792939  1
  Tm  Tm5  1  0.000000  0.320191  0.792939  1
  Fe  Fe6  1  0.500000  0.500000  0.153207  1
  Fe  Fe7  1  0.000000  0.000000  0.846793  1
  Fe  Fe8  1  0.000000  0.500000  0.988764  1
  Fe  Fe9  1  0.500000  0.000000  0.011236  1
  Fe  Fe10  1  0.500000  0.327542  0.996401  1
  Fe  Fe11  1  0.500000  0.672458  0.996401  1
  Fe  Fe12  1  0.000000  0.172458  0.003599  1
  Fe  Fe13  1  0.000000  0.827542  0.003599  1
  Fe  Fe14  1  0.500000  0.299056  0.430044  1
  Fe  Fe15  1  0.500000  0.700944  0.430044  1
  Fe  Fe16  1  0.000000  0.200944  0.569956  1
  Fe  Fe17  1  0.000000  0.799056  0.569956  1
  Fe  Fe18  1  0.500000  0.881883  0.708266  1
  Fe  Fe19  1  0.500000  0.118117  0.708266  1
  Fe  Fe20  1  0.000000  0.618117  0.291734  1
  Fe  Fe21  1  0.000000  0.381883  0.291734  1
  Co  Co22  1  0.500000  0.500000  0.700010  1
  Co  Co23  1  0.000000  0.000000  0.299990  1
  P  P24  1  0.500000  0.500000  0.883374  1
  P  P25  1  0.000000  0.000000  0.116626  1
  P  P26  1  0.500000  0.500000  0.342172  1
  P  P27  1  0.000000  0.000000  0.657828  1
  P  P28  1  0.500000  0.307302  0.614573  1
  P  P29  1  0.500000  0.692698  0.614573  1
  P  P30  1  0.000000  0.192698  0.385427  1
  P  P31  1  0.000000  0.807302  0.385427  1
  P  P32  1  0.500000  0.850624  0.887640  1
  P  P33  1  0.500000  0.149376  0.887640  1
  P  P34  1  0.000000  0.649376  0.112360  1
  P  P35  1  0.000000  0.350624  0.112360  1
