# generated using pymatgen
data_Hf12Mn3I16
_symmetry_space_group_name_H-M   'P 1'
_cell_length_a   8.80418666
_cell_length_b   11.94119669
_cell_length_c   12.57390147
_cell_angle_alpha   116.92178358
_cell_angle_beta   101.22495920
_cell_angle_gamma   100.63012511
_symmetry_Int_Tables_number   1
_chemical_formula_structural   Hf12Mn3I16
_chemical_formula_sum   'Hf12 Mn3 I16'
_cell_volume   1098.51741215
_cell_formula_units_Z   1
loop_
 _symmetry_equiv_pos_site_id
 _symmetry_equiv_pos_as_xyz
  1  'x, y, z'
loop_
 _atom_site_type_symbol
 _atom_site_label
 _atom_site_symmetry_multiplicity
 _atom_site_fract_x
 _atom_site_fract_y
 _atom_site_fract_z
 _atom_site_occupancy
  Hf  Hf0  1  0.095141  0.281215  0.364766  1
  Hf  Hf1  1  0.903734  0.718535  0.635362  1
  Hf  Hf2  1  0.787161  0.536270  0.341997  1
  Hf  Hf3  1  0.211905  0.464520  0.658270  1
  Hf  Hf4  1  0.261941  0.714795  0.630279  1
  Hf  Hf5  1  0.737331  0.284411  0.369334  1
  Hf  Hf6  1  0.145723  0.532108  0.337224  1
  Hf  Hf7  1  0.853167  0.468410  0.663210  1
  Hf  Hf8  1  0.412280  0.368590  0.290009  1
  Hf  Hf9  1  0.587306  0.631772  0.709886  1
  Hf  Hf10  1  0.461680  0.321036  0.519374  1
  Hf  Hf11  1  0.538380  0.679377  0.481364  1
  Mn  Mn12  1  0.000586  0.500003  0.500026  1
  Mn  Mn13  1  0.349341  0.506579  0.505046  1
  Mn  Mn14  1  0.652142  0.491533  0.493089  1
  I  I15  1  0.392105  0.737097  0.881942  1
  I  I16  1  0.607798  0.262678  0.117824  1
  I  I17  1  0.189267  0.962851  0.781986  1
  I  I18  1  0.810665  0.036443  0.217565  1
  I  I19  1  0.337905  0.093533  0.251117  1
  I  I20  1  0.662373  0.907446  0.749525  1
  I  I21  1  0.565985  0.436557  0.800091  1
  I  I22  1  0.436497  0.563662  0.200161  1
  I  I23  1  0.302063  0.826266  0.461289  1
  I  I24  1  0.697880  0.173451  0.538604  1
  I  I25  1  0.161732  0.172951  0.536087  1
  I  I26  1  0.838412  0.827652  0.464558  1
  I  I27  1  0.924640  0.575605  0.159263  1
  I  I28  1  0.075151  0.424213  0.840516  1
  I  I29  1  0.931205  0.739596  0.884846  1
  I  I30  1  0.068505  0.260848  0.115388  1
