# generated using pymatgen
data_Ag3Rh(NO3)8
_symmetry_space_group_name_H-M   'P 1'
_cell_length_a   7.96311189
_cell_length_b   7.96311133
_cell_length_c   7.96311159
_cell_angle_alpha   88.78625111
_cell_angle_beta   91.21375092
_cell_angle_gamma   91.21373876
_symmetry_Int_Tables_number   1
_chemical_formula_structural   Ag3Rh(NO3)8
_chemical_formula_sum   'Ag3 Rh1 N8 O24'
_cell_volume   504.61487582
_cell_formula_units_Z   1
loop_
 _symmetry_equiv_pos_site_id
 _symmetry_equiv_pos_as_xyz
  1  'x, y, z'
loop_
 _atom_site_type_symbol
 _atom_site_label
 _atom_site_symmetry_multiplicity
 _atom_site_fract_x
 _atom_site_fract_y
 _atom_site_fract_z
 _atom_site_occupancy
  Ag  Ag0  1  0.500000  0.500000  0.500000  1
  Ag  Ag1  1  0.500000  0.000000  0.000000  1
  Ag  Ag2  1  0.000000  0.500000  0.000000  1
  Rh  Rh3  1  0.000000  0.000000  0.500000  1
  N  N4  1  0.692055  0.142914  0.320719  1
  N  N5  1  0.666611  0.333389  0.833389  1
  N  N6  1  0.857086  0.820719  0.807945  1
  N  N7  1  0.820719  0.692055  0.357086  1
  N  N8  1  0.142914  0.179281  0.192055  1
  N  N9  1  0.179281  0.307945  0.642914  1
  N  N10  1  0.333389  0.666611  0.166611  1
  N  N11  1  0.307945  0.857086  0.679281  1
  O  O12  1  0.546610  0.228019  0.818967  1
  O  O13  1  0.578139  0.246636  0.310096  1
  O  O14  1  0.681033  0.453390  0.728019  1
  O  O15  1  0.709286  0.029165  0.215330  1
  O  O16  1  0.715330  0.709286  0.470835  1
  O  O17  1  0.753364  0.810096  0.921861  1
  O  O18  1  0.771981  0.318967  0.953390  1
  O  O19  1  0.798000  0.154664  0.447749  1
  O  O20  1  0.845336  0.947749  0.702000  1
  O  O21  1  0.810096  0.578139  0.253364  1
  O  O22  1  0.970835  0.715330  0.790714  1
  O  O23  1  0.947749  0.798000  0.345336  1
  O  O24  1  0.052251  0.202000  0.654664  1
  O  O25  1  0.029165  0.284670  0.209286  1
  O  O26  1  0.189904  0.421861  0.746636  1
  O  O27  1  0.154664  0.052251  0.298000  1
  O  O28  1  0.228019  0.681033  0.046610  1
  O  O29  1  0.202000  0.845336  0.552251  1
  O  O30  1  0.246636  0.189904  0.078139  1
  O  O31  1  0.284670  0.290714  0.529165  1
  O  O32  1  0.318967  0.546610  0.271981  1
  O  O33  1  0.290714  0.970835  0.784670  1
  O  O34  1  0.421861  0.753364  0.689904  1
  O  O35  1  0.453390  0.771981  0.181033  1
