# generated using pymatgen
data_Zr3Be2NbP2
_symmetry_space_group_name_H-M   'P 1'
_cell_length_a   3.55368900
_cell_length_b   5.12088603
_cell_length_c   7.26588671
_cell_angle_alpha   69.29523729
_cell_angle_beta   90.00000000
_cell_angle_gamma   90.00000000
_symmetry_Int_Tables_number   1
_chemical_formula_structural   Zr3Be2NbP2
_chemical_formula_sum   'Zr3 Be2 Nb1 P2'
_cell_volume   123.68508047
_cell_formula_units_Z   1
loop_
 _symmetry_equiv_pos_site_id
 _symmetry_equiv_pos_as_xyz
  1  'x, y, z'
loop_
 _atom_site_type_symbol
 _atom_site_label
 _atom_site_symmetry_multiplicity
 _atom_site_fract_x
 _atom_site_fract_y
 _atom_site_fract_z
 _atom_site_occupancy
  Zr  Zr0  1  0.750000  0.273652  0.928050  1
  Zr  Zr1  1  0.250000  0.218091  0.574014  1
  Zr  Zr2  1  0.750000  0.780701  0.423378  1
  Be  Be3  1  0.250000  0.645041  0.720664  1
  Be  Be4  1  0.750000  0.365827  0.277967  1
  Nb  Nb5  1  0.250000  0.719055  0.072119  1
  P  P6  1  0.250000  0.154999  0.214259  1
  P  P7  1  0.750000  0.842633  0.789549  1
