# generated using pymatgen
data_V11NiP7
_symmetry_space_group_name_H-M   'P 1'
_cell_length_a   9.18844471
_cell_length_b   9.23508389
_cell_length_c   3.27429500
_cell_angle_alpha   90.00000000
_cell_angle_beta   90.00000000
_cell_angle_gamma   120.22368507
_symmetry_Int_Tables_number   1
_chemical_formula_structural   V11NiP7
_chemical_formula_sum   'V11 Ni1 P7'
_cell_volume   240.07556996
_cell_formula_units_Z   1
loop_
 _symmetry_equiv_pos_site_id
 _symmetry_equiv_pos_as_xyz
  1  'x, y, z'
loop_
 _atom_site_type_symbol
 _atom_site_label
 _atom_site_symmetry_multiplicity
 _atom_site_fract_x
 _atom_site_fract_y
 _atom_site_fract_z
 _atom_site_occupancy
  V  V0  1  0.202314  0.979808  0.000000  1
  V  V1  1  0.129055  0.612158  0.000000  1
  V  V2  1  0.004969  0.213824  0.000000  1
  V  V3  1  0.487306  0.867308  0.000000  1
  V  V4  1  0.389320  0.522704  0.000000  1
  V  V5  1  0.803022  0.809834  0.000000  1
  V  V6  1  0.617337  0.487752  0.500000  1
  V  V7  1  0.500744  0.132496  0.500000  1
  V  V8  1  0.983039  0.732815  0.500000  1
  V  V9  1  0.872530  0.375436  0.500000  1
  V  V10  1  0.754582  0.021667  0.500000  1
  Ni  Ni11  1  0.260204  0.245742  0.500000  1
  P  P12  1  0.280941  0.834044  0.500000  1
  P  P13  1  0.168979  0.442641  0.500000  1
  P  P14  1  0.561703  0.721252  0.500000  1
  P  P15  1  0.443388  0.284692  0.000000  1
  P  P16  1  0.009540  0.006781  0.500000  1
  P  P17  1  0.824268  0.535658  0.000000  1
  P  P18  1  0.706758  0.173391  0.000000  1
