# generated using pymatgen
data_Y2Er4Al24Ru7Pt
_symmetry_space_group_name_H-M   'P 1'
_cell_length_a   8.80283263
_cell_length_b   8.79746044
_cell_length_c   9.52357318
_cell_angle_alpha   89.79922744
_cell_angle_beta   90.18086298
_cell_angle_gamma   119.85865074
_symmetry_Int_Tables_number   1
_chemical_formula_structural   Y2Er4Al24Ru7Pt
_chemical_formula_sum   'Y2 Er4 Al24 Ru7 Pt1'
_cell_volume   639.62274356
_cell_formula_units_Z   1
loop_
 _symmetry_equiv_pos_site_id
 _symmetry_equiv_pos_as_xyz
  1  'x, y, z'
loop_
 _atom_site_type_symbol
 _atom_site_label
 _atom_site_symmetry_multiplicity
 _atom_site_fract_x
 _atom_site_fract_y
 _atom_site_fract_z
 _atom_site_occupancy
  Y  Y0  1  0.192186  0.386748  0.250236  1
  Y  Y1  1  0.807814  0.613252  0.749764  1
  Er  Er2  1  0.612445  0.807658  0.250605  1
  Er  Er3  1  0.387555  0.192342  0.749395  1
  Er  Er4  1  0.194887  0.805224  0.250679  1
  Er  Er5  1  0.805113  0.194776  0.749321  1
  Al  Al6  1  0.330954  0.669504  0.020381  1
  Al  Al7  1  0.669046  0.330496  0.979619  1
  Al  Al8  1  0.666716  0.332920  0.516866  1
  Al  Al9  1  0.333284  0.667080  0.483134  1
  Al  Al10  1  0.162673  0.323841  0.579275  1
  Al  Al11  1  0.837327  0.676159  0.420725  1
  Al  Al12  1  0.676092  0.837578  0.578839  1
  Al  Al13  1  0.842521  0.676550  0.078459  1
  Al  Al14  1  0.323908  0.162422  0.421161  1
  Al  Al15  1  0.157479  0.323450  0.921541  1
  Al  Al16  1  0.162787  0.837677  0.578495  1
  Al  Al17  1  0.323520  0.157319  0.077993  1
  Al  Al18  1  0.837213  0.162323  0.421505  1
  Al  Al19  1  0.676480  0.842681  0.922007  1
  Al  Al20  1  0.837259  0.162232  0.077900  1
  Al  Al21  1  0.162741  0.837768  0.922100  1
  Al  Al22  1  0.560201  0.121041  0.248629  1
  Al  Al23  1  0.439799  0.878959  0.751371  1
  Al  Al24  1  0.878509  0.439911  0.248667  1
  Al  Al25  1  0.121491  0.560089  0.751333  1
  Al  Al26  1  0.562210  0.438471  0.251985  1
  Al  Al27  1  0.437790  0.561529  0.748015  1
  Al  Al28  1  0.999134  0.999461  0.249987  1
  Al  Al29  1  0.000866  0.000539  0.750013  1
  Ru  Ru30  1  0.500000  0.000000  0.000000  1
  Ru  Ru31  1  0.000000  0.500000  0.000000  1
  Ru  Ru32  1  0.500000  0.000000  0.500000  1
  Ru  Ru33  1  0.000000  0.500000  0.500000  1
  Ru  Ru34  1  0.500000  0.500000  0.500000  1
  Ru  Ru35  1  0.000000  0.000000  0.000000  1
  Ru  Ru36  1  0.000000  0.000000  0.500000  1
  Pt  Pt37  1  0.500000  0.500000  0.000000  1
