# generated using pymatgen
data_Nd3NiAg2Hg3
_symmetry_space_group_name_H-M   'P 1'
_cell_length_a   8.10093000
_cell_length_b   8.10093035
_cell_length_c   3.83829000
_cell_angle_alpha   90.00000000
_cell_angle_beta   90.00000000
_cell_angle_gamma   120.00000674
_symmetry_Int_Tables_number   1
_chemical_formula_structural   Nd3NiAg2Hg3
_chemical_formula_sum   'Nd3 Ni1 Ag2 Hg3'
_cell_volume   218.14143431
_cell_formula_units_Z   1
loop_
 _symmetry_equiv_pos_site_id
 _symmetry_equiv_pos_as_xyz
  1  'x, y, z'
loop_
 _atom_site_type_symbol
 _atom_site_label
 _atom_site_symmetry_multiplicity
 _atom_site_fract_x
 _atom_site_fract_y
 _atom_site_fract_z
 _atom_site_occupancy
  Nd  Nd0  1  0.609886  0.026454  0.000000  1
  Nd  Nd1  1  0.416568  0.390114  0.000000  1
  Nd  Nd2  1  0.973546  0.583431  0.000000  1
  Ni  Ni3  1  0.666667  0.333334  0.500000  1
  Ag  Ag4  1  0.000000  0.000000  0.000000  1
  Ag  Ag5  1  0.333333  0.666667  0.500000  1
  Hg  Hg6  1  0.277767  0.001484  0.500000  1
  Hg  Hg7  1  0.998516  0.276283  0.500000  1
  Hg  Hg8  1  0.723717  0.722234  0.500000  1
