# generated using pymatgen
data_Sm25Y7B8(C8I19)2
_symmetry_space_group_name_H-M   'P 1'
_cell_length_a   12.82120677
_cell_length_b   14.69855650
_cell_length_c   20.09699457
_cell_angle_alpha   104.87400822
_cell_angle_beta   89.49139320
_cell_angle_gamma   112.86201778
_symmetry_Int_Tables_number   1
_chemical_formula_structural   Sm25Y7B8(C8I19)2
_chemical_formula_sum   'Sm25 Y7 B8 C16 I38'
_cell_volume   3355.28981747
_cell_formula_units_Z   1
loop_
 _symmetry_equiv_pos_site_id
 _symmetry_equiv_pos_as_xyz
  1  'x, y, z'
loop_
 _atom_site_type_symbol
 _atom_site_label
 _atom_site_symmetry_multiplicity
 _atom_site_fract_x
 _atom_site_fract_y
 _atom_site_fract_z
 _atom_site_occupancy
  Sm  Sm0  1  0.313925  0.341284  0.220889  1
  Sm  Sm1  1  0.572281  0.345489  0.221500  1
  Sm  Sm2  1  0.687494  0.659688  0.778251  1
  Sm  Sm3  1  0.397248  0.262878  0.042294  1
  Sm  Sm4  1  0.322142  0.711685  0.546049  1
  Sm  Sm5  1  0.859106  0.730141  0.542070  1
  Sm  Sm6  1  0.642510  0.504151  0.408707  1
  Sm  Sm7  1  0.443245  0.651343  0.280007  1
  Sm  Sm8  1  0.396538  0.261482  0.371489  1
  Sm  Sm9  1  0.137312  0.276143  0.955066  1
  Sm  Sm10  1  0.326616  0.716980  0.042002  1
  Sm  Sm11  1  0.403097  0.261351  0.869339  1
  Sm  Sm12  1  0.862455  0.723362  0.044304  1
  Sm  Sm13  1  0.678560  0.287813  0.456959  1
  Sm  Sm14  1  0.604285  0.737510  0.956939  1
  Sm  Sm15  1  0.596416  0.738735  0.129279  1
  Sm  Sm16  1  0.640628  0.501465  0.090761  1
  Sm  Sm17  1  0.359969  0.498721  0.907997  1
  Sm  Sm18  1  0.139128  0.272102  0.459088  1
  Sm  Sm19  1  0.703850  0.662150  0.278931  1
  Sm  Sm20  1  0.403360  0.262702  0.543863  1
  Sm  Sm21  1  0.363259  0.495748  0.407268  1
  Sm  Sm22  1  0.364697  0.497457  0.092683  1
  Sm  Sm23  1  0.635527  0.501994  0.905917  1
  Sm  Sm24  1  0.429918  0.656297  0.777734  1
  Y  Y25  1  0.363202  0.495317  0.591361  1
  Y  Y26  1  0.671704  0.285997  0.957257  1
  Y  Y27  1  0.592487  0.730772  0.457348  1
  Y  Y28  1  0.630808  0.502406  0.590787  1
  Y  Y29  1  0.555508  0.351559  0.720567  1
  Y  Y30  1  0.302839  0.343472  0.721783  1
  Y  Y31  1  0.601123  0.732483  0.625905  1
  B  B32  1  0.509548  0.500777  0.205640  1
  B  B33  1  0.470057  0.429212  0.487031  1
  B  B34  1  0.491568  0.500532  0.793900  1
  B  B35  1  0.469987  0.429531  0.986087  1
  B  B36  1  0.529845  0.570203  0.012717  1
  B  B37  1  0.492618  0.502124  0.704949  1
  B  B38  1  0.509352  0.499096  0.294953  1
  B  B39  1  0.528469  0.568471  0.513072  1
  C  C40  1  0.663479  0.634542  0.525634  1
  C  C41  1  0.462636  0.392945  0.315732  1
  C  C42  1  0.449346  0.393904  0.813894  1
  C  C43  1  0.447529  0.630505  0.025212  1
  C  C44  1  0.551884  0.368569  0.476677  1
  C  C45  1  0.539069  0.607188  0.683121  1
  C  C46  1  0.334986  0.363731  0.974918  1
  C  C47  1  0.451233  0.397095  0.644976  1
  C  C48  1  0.552114  0.369227  0.973736  1
  C  C49  1  0.664756  0.635687  0.024043  1
  C  C50  1  0.551767  0.606580  0.184850  1
  C  C51  1  0.463404  0.395914  0.145292  1
  C  C52  1  0.446829  0.629283  0.524632  1
  C  C53  1  0.335251  0.365002  0.475626  1
  C  C54  1  0.550631  0.603619  0.355645  1
  C  C55  1  0.538086  0.605125  0.854016  1
  I  I56  1  0.463718  0.087062  0.946622  1
  I  I57  1  0.623870  0.867792  0.834728  1
  I  I58  1  0.508112  0.902221  0.643956  1
  I  I59  1  0.113044  0.349532  0.821025  1
  I  I60  1  0.615421  0.208643  0.587624  1
  I  I61  1  0.868574  0.193364  0.439395  1
  I  I62  1  0.846438  0.912267  0.143419  1
  I  I63  1  0.870825  0.503155  0.953650  1
  I  I64  1  0.858368  0.817113  0.701507  1
  I  I65  1  0.376545  0.133110  0.168056  1
  I  I66  1  0.136134  0.189122  0.298513  1
  I  I67  1  0.774085  0.365664  0.325541  1
  I  I68  1  0.868720  0.805291  0.915657  1
  I  I69  1  0.750264  0.337184  0.111432  1
  I  I70  1  0.542455  0.915806  0.052577  1
  I  I71  1  0.114463  0.327361  0.616795  1
  I  I72  1  0.894964  0.672579  0.385329  1
  I  I73  1  0.809103  0.918342  0.535861  1
  I  I74  1  0.136182  0.811347  0.057573  1
  I  I75  1  0.802247  0.505084  0.749050  1
  I  I76  1  0.860511  0.194526  0.940587  1
  I  I77  1  0.125546  0.491353  0.453195  1
  I  I78  1  0.245533  0.658842  0.884900  1
  I  I79  1  0.130758  0.806315  0.563813  1
  I  I80  1  0.625329  0.220053  0.798521  1
  I  I81  1  0.193206  0.491189  0.251025  1
  I  I82  1  0.179310  0.077483  0.459834  1
  I  I83  1  0.496948  0.092860  0.360406  1
  I  I84  1  0.391659  0.797068  0.418916  1
  I  I85  1  0.153441  0.086206  0.857420  1
  I  I86  1  0.868045  0.510172  0.550384  1
  I  I87  1  0.678785  0.867026  0.327324  1
  I  I88  1  0.132689  0.194541  0.083508  1
  I  I89  1  0.127739  0.494245  0.046173  1
  I  I90  1  0.225548  0.626312  0.673071  1
  I  I91  1  0.377135  0.788254  0.202234  1
  I  I92  1  0.317944  0.136624  0.674700  1
  I  I93  1  0.890663  0.645350  0.174930  1
