# generated using pymatgen
data_NdTh3MgCdNi4
_symmetry_space_group_name_H-M   'P 1'
_cell_length_a   7.65377020
_cell_length_b   7.65246880
_cell_length_c   3.71053600
_cell_angle_alpha   90.00000000
_cell_angle_beta   90.00000000
_cell_angle_gamma   88.79259269
_symmetry_Int_Tables_number   1
_chemical_formula_structural   NdTh3MgCdNi4
_chemical_formula_sum   'Nd1 Th3 Mg1 Cd1 Ni4'
_cell_volume   217.27872176
_cell_formula_units_Z   1
loop_
 _symmetry_equiv_pos_site_id
 _symmetry_equiv_pos_as_xyz
  1  'x, y, z'
loop_
 _atom_site_type_symbol
 _atom_site_label
 _atom_site_symmetry_multiplicity
 _atom_site_fract_x
 _atom_site_fract_y
 _atom_site_fract_z
 _atom_site_occupancy
  Nd  Nd0  1  0.671522  0.172178  0.500000  1
  Th  Th1  1  0.328801  0.830340  0.500000  1
  Th  Th2  1  0.828278  0.671805  0.500000  1
  Th  Th3  1  0.171294  0.326850  0.500000  1
  Mg  Mg4  1  0.997823  0.001023  0.000000  1
  Cd  Cd5  1  0.501379  0.496540  0.000000  1
  Ni  Ni6  1  0.125908  0.630455  0.000000  1
  Ni  Ni7  1  0.621020  0.866486  0.000000  1
  Ni  Ni8  1  0.889930  0.386303  0.000000  1
  Ni  Ni9  1  0.364045  0.118019  0.000000  1
