# generated using pymatgen
data_Pa3OsF20
_symmetry_space_group_name_H-M   'P 1'
_cell_length_a   9.30838107
_cell_length_b   9.30837975
_cell_length_c   5.46503138
_cell_angle_alpha   86.08966232
_cell_angle_beta   86.08967306
_cell_angle_gamma   112.82803416
_symmetry_Int_Tables_number   1
_chemical_formula_structural   Pa3OsF20
_chemical_formula_sum   'Pa3 Os1 F20'
_cell_volume   433.10442598
_cell_formula_units_Z   1
loop_
 _symmetry_equiv_pos_site_id
 _symmetry_equiv_pos_as_xyz
  1  'x, y, z'
loop_
 _atom_site_type_symbol
 _atom_site_label
 _atom_site_symmetry_multiplicity
 _atom_site_fract_x
 _atom_site_fract_y
 _atom_site_fract_z
 _atom_site_occupancy
  Pa  Pa0  1  0.802689  0.212130  0.003887  1
  Pa  Pa1  1  0.212130  0.802689  0.003887  1
  Pa  Pa2  1  0.735250  0.735250  0.735409  1
  Os  Os3  1  0.249120  0.249120  0.253212  1
  F  F4  1  0.854379  0.854379  0.402529  1
  F  F5  1  0.138340  0.138340  0.558802  1
  F  F6  1  0.634540  0.634540  0.081950  1
  F  F7  1  0.345063  0.345063  0.935494  1
  F  F8  1  0.525038  0.725910  0.628305  1
  F  F9  1  0.265738  0.440480  0.359298  1
  F  F10  1  0.440480  0.265738  0.359298  1
  F  F11  1  0.725910  0.525038  0.628305  1
  F  F12  1  0.781878  0.975709  0.876140  1
  F  F13  1  0.040397  0.219790  0.132730  1
  F  F14  1  0.219790  0.040397  0.132730  1
  F  F15  1  0.975709  0.781878  0.876140  1
  F  F16  1  0.917150  0.308492  0.663395  1
  F  F17  1  0.704767  0.099659  0.346315  1
  F  F18  1  0.099659  0.704767  0.346315  1
  F  F19  1  0.308492  0.917150  0.663395  1
  F  F20  1  0.585313  0.170166  0.891259  1
  F  F21  1  0.838750  0.429253  0.114971  1
  F  F22  1  0.429253  0.838750  0.114971  1
  F  F23  1  0.170166  0.585313  0.891259  1
