# generated using pymatgen
data_YSc9AlSb5
_symmetry_space_group_name_H-M   'P 1'
_cell_length_a   6.00669000
_cell_length_b   8.49021630
_cell_length_c   8.43922624
_cell_angle_alpha   119.73217070
_cell_angle_beta   89.99974876
_cell_angle_gamma   90.00041018
_symmetry_Int_Tables_number   1
_chemical_formula_structural   YSc9AlSb5
_chemical_formula_sum   'Y1 Sc9 Al1 Sb5'
_cell_volume   373.72573556
_cell_formula_units_Z   1
loop_
 _symmetry_equiv_pos_site_id
 _symmetry_equiv_pos_as_xyz
  1  'x, y, z'
loop_
 _atom_site_type_symbol
 _atom_site_label
 _atom_site_symmetry_multiplicity
 _atom_site_fract_x
 _atom_site_fract_y
 _atom_site_fract_z
 _atom_site_occupancy
  Y  Y0  1  0.750001  0.990889  0.230963  1
  Sc  Sc1  1  0.501904  0.337288  0.672134  1
  Sc  Sc2  1  0.501288  0.666044  0.327969  1
  Sc  Sc3  1  0.998713  0.666049  0.327974  1
  Sc  Sc4  1  0.998099  0.337286  0.672127  1
  Sc  Sc5  1  0.750000  0.249138  0.000824  1
  Sc  Sc6  1  0.749996  0.750723  0.761826  1
  Sc  Sc7  1  0.249997  0.755648  0.999085  1
  Sc  Sc8  1  0.250001  0.247506  0.244916  1
  Sc  Sc9  1  0.250001  0.001558  0.759030  1
  Al  Al10  1  0.750003  0.595935  0.995138  1
  Sb  Sb11  1  0.749999  0.395338  0.391576  1
  Sb  Sb12  1  0.750001  0.998203  0.615218  1
  Sb  Sb13  1  0.249998  0.393373  0.999847  1
  Sb  Sb14  1  0.250001  0.612513  0.609844  1
  Sb  Sb15  1  0.250001  0.002512  0.391531  1
