# generated using pymatgen
data_HfZr3Cr2(B2Ru5)2
_symmetry_space_group_name_H-M   'P 1'
_cell_length_a   9.37541147
_cell_length_b   9.37541147
_cell_length_c   3.04862800
_cell_angle_alpha   90.00000000
_cell_angle_beta   90.00000000
_cell_angle_gamma   90.08316233
_symmetry_Int_Tables_number   1
_chemical_formula_structural   HfZr3Cr2(B2Ru5)2
_chemical_formula_sum   'Hf1 Zr3 Cr2 B4 Ru10'
_cell_volume   267.96905885
_cell_formula_units_Z   1
loop_
 _symmetry_equiv_pos_site_id
 _symmetry_equiv_pos_as_xyz
  1  'x, y, z'
loop_
 _atom_site_type_symbol
 _atom_site_label
 _atom_site_symmetry_multiplicity
 _atom_site_fract_x
 _atom_site_fract_y
 _atom_site_fract_z
 _atom_site_occupancy
  Hf  Hf0  1  0.676878  0.176878  0.000000  1
  Zr  Zr1  1  0.323481  0.823481  0.000000  1
  Zr  Zr2  1  0.177073  0.322658  0.000000  1
  Zr  Zr3  1  0.822658  0.677073  0.000000  1
  Cr  Cr4  1  0.999423  0.000104  0.000000  1
  Cr  Cr5  1  0.500104  0.499423  0.000000  1
  B  B6  1  0.122958  0.622958  0.000000  1
  B  B7  1  0.876376  0.376376  0.000000  1
  B  B8  1  0.622953  0.877291  0.000000  1
  B  B9  1  0.377291  0.122953  0.000000  1
  Ru  Ru10  1  0.213349  0.069748  0.500000  1
  Ru  Ru11  1  0.787014  0.931642  0.500000  1
  Ru  Ru12  1  0.069778  0.786932  0.500000  1
  Ru  Ru13  1  0.712577  0.428821  0.500000  1
  Ru  Ru14  1  0.928821  0.212577  0.500000  1
  Ru  Ru15  1  0.286932  0.569778  0.500000  1
  Ru  Ru16  1  0.569748  0.713349  0.500000  1
  Ru  Ru17  1  0.431642  0.287014  0.500000  1
  Ru  Ru18  1  0.501304  0.001304  0.500000  1
  Ru  Ru19  1  0.999639  0.499639  0.500000  1
