# generated using pymatgen
data_HfScTa4(B2Ru5)2
_symmetry_space_group_name_H-M   'P 1'
_cell_length_a   9.45040570
_cell_length_b   9.45040547
_cell_length_c   3.06975000
_cell_angle_alpha   90.00000000
_cell_angle_beta   90.00000000
_cell_angle_gamma   90.08809234
_symmetry_Int_Tables_number   1
_chemical_formula_structural   HfScTa4(B2Ru5)2
_chemical_formula_sum   'Hf1 Sc1 Ta4 B4 Ru10'
_cell_volume   274.15955733
_cell_formula_units_Z   1
loop_
 _symmetry_equiv_pos_site_id
 _symmetry_equiv_pos_as_xyz
  1  'x, y, z'
loop_
 _atom_site_type_symbol
 _atom_site_label
 _atom_site_symmetry_multiplicity
 _atom_site_fract_x
 _atom_site_fract_y
 _atom_site_fract_z
 _atom_site_occupancy
  Hf  Hf0  1  0.175409  0.324591  0.000000  1
  Sc  Sc1  1  0.824117  0.675883  0.000000  1
  Ta  Ta2  1  0.323940  0.822849  0.000000  1
  Ta  Ta3  1  0.677151  0.176060  0.000000  1
  Ta  Ta4  1  0.501321  0.500650  0.000000  1
  Ta  Ta5  1  0.999350  0.998679  0.000000  1
  B  B6  1  0.622822  0.877178  0.000000  1
  B  B7  1  0.378537  0.121463  0.000000  1
  B  B8  1  0.119980  0.621050  0.000000  1
  B  B9  1  0.878950  0.380020  0.000000  1
  Ru  Ru10  1  0.564281  0.720747  0.500000  1
  Ru  Ru11  1  0.431756  0.281010  0.500000  1
  Ru  Ru12  1  0.077439  0.783552  0.500000  1
  Ru  Ru13  1  0.926138  0.216262  0.500000  1
  Ru  Ru14  1  0.283738  0.573862  0.500000  1
  Ru  Ru15  1  0.716448  0.422561  0.500000  1
  Ru  Ru16  1  0.218990  0.068244  0.500000  1
  Ru  Ru17  1  0.779253  0.935719  0.500000  1
  Ru  Ru18  1  0.499206  0.000794  0.500000  1
  Ru  Ru19  1  0.001175  0.498825  0.500000  1
