# generated using pymatgen
data_Er4Si12(Ni3Ir)5
_symmetry_space_group_name_H-M   'P 1'
_cell_length_a   3.77770200
_cell_length_b   6.90560993
_cell_length_c   18.80213848
_cell_angle_alpha   90.17140727
_cell_angle_beta   90.00000000
_cell_angle_gamma   90.00000000
_symmetry_Int_Tables_number   1
_chemical_formula_structural   Er4Si12(Ni3Ir)5
_chemical_formula_sum   'Er4 Si12 Ni15 Ir5'
_cell_volume   490.49551759
_cell_formula_units_Z   1
loop_
 _symmetry_equiv_pos_site_id
 _symmetry_equiv_pos_as_xyz
  1  'x, y, z'
loop_
 _atom_site_type_symbol
 _atom_site_label
 _atom_site_symmetry_multiplicity
 _atom_site_fract_x
 _atom_site_fract_y
 _atom_site_fract_z
 _atom_site_occupancy
  Er  Er0  1  0.250000  0.625361  0.640067  1
  Er  Er1  1  0.250000  0.875269  0.142304  1
  Er  Er2  1  0.750000  0.374358  0.359690  1
  Er  Er3  1  0.750000  0.123735  0.857975  1
  Si  Si4  1  0.250000  0.415193  0.915345  1
  Si  Si5  1  0.250000  0.090312  0.416461  1
  Si  Si6  1  0.750000  0.588425  0.085661  1
  Si  Si7  1  0.750000  0.910109  0.583240  1
  Si  Si8  1  0.250000  0.121776  0.737154  1
  Si  Si9  1  0.250000  0.377642  0.239676  1
  Si  Si10  1  0.750000  0.879491  0.263233  1
  Si  Si11  1  0.750000  0.621843  0.760490  1
  Si  Si12  1  0.250000  0.839767  0.926179  1
  Si  Si13  1  0.250000  0.650200  0.428044  1
  Si  Si14  1  0.750000  0.152827  0.072774  1
  Si  Si15  1  0.750000  0.349868  0.571685  1
  Ni  Ni16  1  0.250000  0.368174  0.493842  1
  Ni  Ni17  1  0.750000  0.855419  0.006247  1
  Ni  Ni18  1  0.750000  0.632012  0.505653  1
  Ni  Ni19  1  0.250000  0.882740  0.511860  1
  Ni  Ni20  1  0.250000  0.615857  0.014025  1
  Ni  Ni21  1  0.750000  0.117315  0.487785  1
  Ni  Ni22  1  0.750000  0.392823  0.986692  1
  Ni  Ni23  1  0.250000  0.138407  0.611332  1
  Ni  Ni24  1  0.250000  0.371651  0.115801  1
  Ni  Ni25  1  0.750000  0.862263  0.388754  1
  Ni  Ni26  1  0.750000  0.636442  0.885066  1
  Ni  Ni27  1  0.250000  0.426428  0.795614  1
  Ni  Ni28  1  0.250000  0.074128  0.296887  1
  Ni  Ni29  1  0.750000  0.572917  0.205249  1
  Ni  Ni30  1  0.750000  0.927024  0.702679  1
  Ir  Ir31  1  0.250000  0.817382  0.799172  1
  Ir  Ir32  1  0.250000  0.683205  0.301619  1
  Ir  Ir33  1  0.750000  0.181920  0.199427  1
  Ir  Ir34  1  0.750000  0.317642  0.698103  1
  Ir  Ir35  1  0.250000  0.130075  0.994215  1
