# generated using pymatgen
data_La5Tl2Ir
_symmetry_space_group_name_H-M   'P 1'
_cell_length_a   8.49106400
_cell_length_b   9.38205500
_cell_length_c   12.92169800
_cell_angle_alpha   90.00000000
_cell_angle_beta   90.00000000
_cell_angle_gamma   90.00000000
_symmetry_Int_Tables_number   1
_chemical_formula_structural   La5Tl2Ir
_chemical_formula_sum   'La20 Tl8 Ir4'
_cell_volume   1029.38936142
_cell_formula_units_Z   4
loop_
 _symmetry_equiv_pos_site_id
 _symmetry_equiv_pos_as_xyz
  1  'x, y, z'
loop_
 _atom_site_type_symbol
 _atom_site_label
 _atom_site_symmetry_multiplicity
 _atom_site_fract_x
 _atom_site_fract_y
 _atom_site_fract_z
 _atom_site_occupancy
  La  La0  1  0.664152  0.750000  0.708069  1
  La  La1  1  0.335848  0.250000  0.291931  1
  La  La2  1  0.164152  0.250000  0.791931  1
  La  La3  1  0.835848  0.750000  0.208069  1
  La  La4  1  0.123537  0.750000  0.808446  1
  La  La5  1  0.876463  0.250000  0.191554  1
  La  La6  1  0.623537  0.250000  0.691554  1
  La  La7  1  0.376463  0.750000  0.308446  1
  La  La8  1  0.560255  0.750000  0.002662  1
  La  La9  1  0.439745  0.250000  0.997338  1
  La  La10  1  0.060255  0.250000  0.497338  1
  La  La11  1  0.939745  0.750000  0.502662  1
  La  La12  1  0.824399  0.463082  0.925267  1
  La  La13  1  0.175601  0.536918  0.074733  1
  La  La14  1  0.324399  0.536918  0.574733  1
  La  La15  1  0.175601  0.963082  0.074733  1
  La  La16  1  0.675601  0.463082  0.425267  1
  La  La17  1  0.824399  0.036918  0.925267  1
  La  La18  1  0.675601  0.036918  0.425267  1
  La  La19  1  0.324399  0.963082  0.574733  1
  Tl  Tl20  1  0.932439  0.015823  0.669016  1
  Tl  Tl21  1  0.067561  0.984177  0.330984  1
  Tl  Tl22  1  0.432439  0.984177  0.830984  1
  Tl  Tl23  1  0.067561  0.515823  0.330984  1
  Tl  Tl24  1  0.567561  0.015823  0.169016  1
  Tl  Tl25  1  0.932439  0.484177  0.669016  1
  Tl  Tl26  1  0.567561  0.484177  0.169016  1
  Tl  Tl27  1  0.432439  0.515823  0.830984  1
  Ir  Ir28  1  0.927790  0.750000  0.991265  1
  Ir  Ir29  1  0.072210  0.250000  0.008735  1
  Ir  Ir30  1  0.427790  0.250000  0.508735  1
  Ir  Ir31  1  0.572210  0.750000  0.491265  1
