# generated using pymatgen
data_Sc4Zn2Si3Ge
_symmetry_space_group_name_H-M   'P 1'
_cell_length_a   6.63975902
_cell_length_b   6.63976008
_cell_length_c   4.01575500
_cell_angle_alpha   90.00000000
_cell_angle_beta   90.00000000
_cell_angle_gamma   90.07452176
_symmetry_Int_Tables_number   1
_chemical_formula_structural   Sc4Zn2Si3Ge
_chemical_formula_sum   'Sc4 Zn2 Si3 Ge1'
_cell_volume   177.04005906
_cell_formula_units_Z   1
loop_
 _symmetry_equiv_pos_site_id
 _symmetry_equiv_pos_as_xyz
  1  'x, y, z'
loop_
 _atom_site_type_symbol
 _atom_site_label
 _atom_site_symmetry_multiplicity
 _atom_site_fract_x
 _atom_site_fract_y
 _atom_site_fract_z
 _atom_site_occupancy
  Sc  Sc0  1  0.827418  0.672582  0.500000  1
  Sc  Sc1  1  0.174795  0.325205  0.500000  1
  Sc  Sc2  1  0.674531  0.178775  0.500000  1
  Sc  Sc3  1  0.321225  0.825469  0.500000  1
  Zn  Zn4  1  0.004392  0.001823  0.000000  1
  Zn  Zn5  1  0.498177  0.495608  0.000000  1
  Si  Si6  1  0.371405  0.128595  0.000000  1
  Si  Si7  1  0.875282  0.374553  0.000000  1
  Si  Si8  1  0.125447  0.624718  0.000000  1
  Ge  Ge9  1  0.627330  0.872670  0.000000  1
