# generated using pymatgen
data_Tb13Dy5(ErSn8)2
_symmetry_space_group_name_H-M   'P 1'
_cell_length_a   8.04780758
_cell_length_b   8.19798028
_cell_length_c   15.50262477
_cell_angle_alpha   90.01148728
_cell_angle_beta   90.03863164
_cell_angle_gamma   90.00511947
_symmetry_Int_Tables_number   1
_chemical_formula_structural   Tb13Dy5(ErSn8)2
_chemical_formula_sum   'Tb13 Dy5 Er2 Sn16'
_cell_volume   1022.79731619
_cell_formula_units_Z   1
loop_
 _symmetry_equiv_pos_site_id
 _symmetry_equiv_pos_as_xyz
  1  'x, y, z'
loop_
 _atom_site_type_symbol
 _atom_site_label
 _atom_site_symmetry_multiplicity
 _atom_site_fract_x
 _atom_site_fract_y
 _atom_site_fract_z
 _atom_site_occupancy
  Tb  Tb0  1  0.134247  0.337258  0.122231  1
  Tb  Tb1  1  0.633925  0.162874  0.122577  1
  Tb  Tb2  1  0.134150  0.337053  0.377602  1
  Tb  Tb3  1  0.365878  0.837118  0.622215  1
  Tb  Tb4  1  0.866105  0.662725  0.877920  1
  Tb  Tb5  1  0.518555  0.320558  0.902925  1
  Tb  Tb6  1  0.018388  0.179444  0.596993  1
  Tb  Tb7  1  0.481574  0.679391  0.403028  1
  Tb  Tb8  1  0.981108  0.820610  0.097247  1
  Tb  Tb9  1  0.481580  0.679497  0.097131  1
  Tb  Tb10  1  0.982164  0.820506  0.403152  1
  Tb  Tb11  1  0.517855  0.320833  0.596759  1
  Tb  Tb12  1  0.018327  0.178901  0.902661  1
  Dy  Dy13  1  0.365509  0.837477  0.877241  1
  Dy  Dy14  1  0.864863  0.662533  0.622385  1
  Dy  Dy15  1  0.634769  0.162479  0.377417  1
  Dy  Dy16  1  0.197211  0.502850  0.750118  1
  Dy  Dy17  1  0.697360  0.997238  0.749759  1
  Er  Er18  1  0.802630  0.497183  0.250529  1
  Er  Er19  1  0.302891  0.002707  0.249942  1
  Sn  Sn20  1  0.294113  0.036794  0.041554  1
  Sn  Sn21  1  0.794095  0.462101  0.458266  1
  Sn  Sn22  1  0.705873  0.961993  0.541239  1
  Sn  Sn23  1  0.206596  0.538054  0.958256  1
  Sn  Sn24  1  0.704571  0.962371  0.958268  1
  Sn  Sn25  1  0.203953  0.538192  0.541680  1
  Sn  Sn26  1  0.295611  0.037656  0.457771  1
  Sn  Sn27  1  0.794074  0.462930  0.042275  1
  Sn  Sn28  1  0.563666  0.618432  0.750022  1
  Sn  Sn29  1  0.063442  0.881633  0.749949  1
  Sn  Sn30  1  0.437000  0.382529  0.250434  1
  Sn  Sn31  1  0.936717  0.117210  0.250217  1
  Sn  Sn32  1  0.328537  0.148120  0.749905  1
  Sn  Sn33  1  0.828463  0.352304  0.749793  1
  Sn  Sn34  1  0.671875  0.851822  0.250684  1
  Sn  Sn35  1  0.172323  0.648624  0.249854  1
