# generated using pymatgen
data_Zr2Ti(AsPd)4
_symmetry_space_group_name_H-M   'P 1'
_cell_length_a   6.55251312
_cell_length_b   3.91825000
_cell_length_c   7.72813970
_cell_angle_alpha   90.00000000
_cell_angle_beta   90.75906085
_cell_angle_gamma   90.00000000
_symmetry_Int_Tables_number   1
_chemical_formula_structural   Zr2Ti(AsPd)4
_chemical_formula_sum   'Zr2 Ti1 As4 Pd4'
_cell_volume   198.39781844
_cell_formula_units_Z   1
loop_
 _symmetry_equiv_pos_site_id
 _symmetry_equiv_pos_as_xyz
  1  'x, y, z'
loop_
 _atom_site_type_symbol
 _atom_site_label
 _atom_site_symmetry_multiplicity
 _atom_site_fract_x
 _atom_site_fract_y
 _atom_site_fract_z
 _atom_site_occupancy
  Zr  Zr0  1  0.459625  0.750000  0.312440  1
  Zr  Zr1  1  0.541528  0.250001  0.689296  1
  Ti  Ti2  1  0.964881  0.750000  0.183402  1
  As  As3  1  0.223684  0.250001  0.117529  1
  As  As4  1  0.756619  0.250001  0.370237  1
  As  As5  1  0.250685  0.750000  0.628759  1
  As  As6  1  0.787646  0.750000  0.886646  1
  Pd  Pd7  1  0.644004  0.250001  0.058782  1
  Pd  Pd8  1  0.148095  0.250001  0.440439  1
  Pd  Pd9  1  0.855934  0.750000  0.568552  1
  Pd  Pd10  1  0.365267  0.750000  0.941177  1
