# generated using pymatgen
data_Ac4HBr5N2
_symmetry_space_group_name_H-M   'P 1'
_cell_length_a   8.81113773
_cell_length_b   8.94961234
_cell_length_c   8.94961200
_cell_angle_alpha   137.03523122
_cell_angle_beta   129.78694379
_cell_angle_gamma   68.43896422
_symmetry_Int_Tables_number   1
_chemical_formula_structural   Ac4HBr5N2
_chemical_formula_sum   'Ac4 H1 Br5 N2'
_cell_volume   362.69805843
_cell_formula_units_Z   1
loop_
 _symmetry_equiv_pos_site_id
 _symmetry_equiv_pos_as_xyz
  1  'x, y, z'
loop_
 _atom_site_type_symbol
 _atom_site_label
 _atom_site_symmetry_multiplicity
 _atom_site_fract_x
 _atom_site_fract_y
 _atom_site_fract_z
 _atom_site_occupancy
  Ac  Ac0  1  0.919314  0.591312  0.328002  1
  Ac  Ac1  1  0.047932  0.402226  0.645705  1
  Ac  Ac2  1  0.730412  0.910407  0.820005  1
  Ac  Ac3  1  0.261297  0.090465  0.170832  1
  H  H4  1  0.680782  0.310969  0.369813  1
  Br  Br5  1  0.491903  0.248868  0.746213  1
  Br  Br6  1  0.491903  0.745691  0.243034  1
  Br  Br7  1  0.980494  0.803154  0.177339  1
  Br  Br8  1  0.017535  0.197657  0.819880  1
  Br  Br9  1  0.391224  0.698331  0.692894  1
  N  N10  1  0.993601  0.249370  0.242052  1
  N  N11  1  0.993601  0.751549  0.744231  1
