# generated using pymatgen
data_Sr20Si3Bi8P
_symmetry_space_group_name_H-M   'P 1'
_cell_length_a   8.67049122
_cell_length_b   10.04473100
_cell_length_c   13.70096443
_cell_angle_alpha   90.00000000
_cell_angle_beta   90.76236743
_cell_angle_gamma   90.00000000
_symmetry_Int_Tables_number   1
_chemical_formula_structural   Sr20Si3Bi8P
_chemical_formula_sum   'Sr20 Si3 Bi8 P1'
_cell_volume   1193.14906841
_cell_formula_units_Z   1
loop_
 _symmetry_equiv_pos_site_id
 _symmetry_equiv_pos_as_xyz
  1  'x, y, z'
loop_
 _atom_site_type_symbol
 _atom_site_label
 _atom_site_symmetry_multiplicity
 _atom_site_fract_x
 _atom_site_fract_y
 _atom_site_fract_z
 _atom_site_occupancy
  Sr  Sr0  1  0.823859  0.527731  0.073184  1
  Sr  Sr1  1  0.675839  0.970384  0.575912  1
  Sr  Sr2  1  0.177115  0.031704  0.925150  1
  Sr  Sr3  1  0.323390  0.469511  0.425421  1
  Sr  Sr4  1  0.177115  0.468296  0.925150  1
  Sr  Sr5  1  0.323390  0.030489  0.425421  1
  Sr  Sr6  1  0.823859  0.972269  0.073184  1
  Sr  Sr7  1  0.675839  0.529616  0.575912  1
  Sr  Sr8  1  0.169267  0.750000  0.214635  1
  Sr  Sr9  1  0.333847  0.750000  0.714713  1
  Sr  Sr10  1  0.832002  0.250000  0.786199  1
  Sr  Sr11  1  0.662152  0.250000  0.289721  1
  Sr  Sr12  1  0.444418  0.750000  0.000492  1
  Sr  Sr13  1  0.055910  0.750000  0.499223  1
  Sr  Sr14  1  0.555927  0.250000  0.999395  1
  Sr  Sr15  1  0.945035  0.250000  0.500240  1
  Sr  Sr16  1  0.640373  0.750000  0.302769  1
  Sr  Sr17  1  0.859972  0.750000  0.803096  1
  Sr  Sr18  1  0.360431  0.250000  0.698311  1
  Sr  Sr19  1  0.137231  0.250000  0.194684  1
  Si  Si20  1  0.437869  0.750000  0.490094  1
  Si  Si21  1  0.061730  0.750000  0.990902  1
  Si  Si22  1  0.562361  0.250000  0.511453  1
  Bi  Bi23  1  0.940857  0.505339  0.327375  1
  Bi  Bi24  1  0.563103  0.992227  0.833118  1
  Bi  Bi25  1  0.059248  0.007792  0.670767  1
  Bi  Bi26  1  0.438755  0.489087  0.166855  1
  Bi  Bi27  1  0.059248  0.492208  0.670767  1
  Bi  Bi28  1  0.438755  0.010913  0.166855  1
  Bi  Bi29  1  0.940857  0.994661  0.327375  1
  Bi  Bi30  1  0.563103  0.507773  0.833118  1
  P  P31  1  0.937142  0.250000  0.008512  1
