# generated using pymatgen
data_Rb5TiSb3
_symmetry_space_group_name_H-M   'P 1'
_cell_length_a   9.17925400
_cell_length_b   9.89062794
_cell_length_c   19.30680975
_cell_angle_alpha   60.02917153
_cell_angle_beta   90.00000000
_cell_angle_gamma   90.00000000
_symmetry_Int_Tables_number   1
_chemical_formula_structural   Rb5TiSb3
_chemical_formula_sum   'Rb20 Ti4 Sb12'
_cell_volume   1518.44822390
_cell_formula_units_Z   4
loop_
 _symmetry_equiv_pos_site_id
 _symmetry_equiv_pos_as_xyz
  1  'x, y, z'
loop_
 _atom_site_type_symbol
 _atom_site_label
 _atom_site_symmetry_multiplicity
 _atom_site_fract_x
 _atom_site_fract_y
 _atom_site_fract_z
 _atom_site_occupancy
  Rb  Rb0  1  0.173690  0.156258  0.260312  1
  Rb  Rb1  1  0.673690  0.843742  0.239688  1
  Rb  Rb2  1  0.826310  0.843742  0.739688  1
  Rb  Rb3  1  0.326310  0.156258  0.760312  1
  Rb  Rb4  1  0.168026  0.839685  0.579345  1
  Rb  Rb5  1  0.668026  0.160315  0.920655  1
  Rb  Rb6  1  0.831974  0.160315  0.420655  1
  Rb  Rb7  1  0.331974  0.839685  0.079345  1
  Rb  Rb8  1  0.003386  0.907995  0.908298  1
  Rb  Rb9  1  0.503386  0.092005  0.591702  1
  Rb  Rb10  1  0.996614  0.092005  0.091702  1
  Rb  Rb11  1  0.496614  0.907995  0.408298  1
  Rb  Rb12  1  0.513141  0.732583  0.922833  1
  Rb  Rb13  1  0.013141  0.267417  0.577167  1
  Rb  Rb14  1  0.486859  0.267417  0.077167  1
  Rb  Rb15  1  0.986859  0.732583  0.422833  1
  Rb  Rb16  1  0.988579  0.458186  0.745632  1
  Rb  Rb17  1  0.488579  0.541814  0.754368  1
  Rb  Rb18  1  0.011421  0.541814  0.254368  1
  Rb  Rb19  1  0.511421  0.458186  0.245632  1
  Ti  Ti20  1  0.370114  0.506346  0.420429  1
  Ti  Ti21  1  0.870114  0.493654  0.079571  1
  Ti  Ti22  1  0.629886  0.493654  0.579571  1
  Ti  Ti23  1  0.129886  0.506346  0.920429  1
  Sb  Sb24  1  0.248965  0.251650  0.922178  1
  Sb  Sb25  1  0.748965  0.748350  0.577822  1
  Sb  Sb26  1  0.751035  0.748350  0.077822  1
  Sb  Sb27  1  0.251035  0.251650  0.422178  1
  Sb  Sb28  1  0.170120  0.512595  0.060984  1
  Sb  Sb29  1  0.670120  0.487405  0.439016  1
  Sb  Sb30  1  0.829880  0.487405  0.939016  1
  Sb  Sb31  1  0.329880  0.512595  0.560984  1
  Sb  Sb32  1  0.288416  0.773462  0.285291  1
  Sb  Sb33  1  0.788416  0.226538  0.214709  1
  Sb  Sb34  1  0.711584  0.226538  0.714709  1
  Sb  Sb35  1  0.211584  0.773462  0.785291  1
