# generated using pymatgen
data_Tb8TmRh6
_symmetry_space_group_name_H-M   'P 1'
_cell_length_a   7.42103188
_cell_length_b   7.42103271
_cell_length_c   7.42103166
_cell_angle_alpha   71.24265773
_cell_angle_beta   71.24265369
_cell_angle_gamma   71.24265482
_symmetry_Int_Tables_number   1
_chemical_formula_structural   Tb8TmRh6
_chemical_formula_sum   'Tb8 Tm1 Rh6'
_cell_volume   355.41740819
_cell_formula_units_Z   1
loop_
 _symmetry_equiv_pos_site_id
 _symmetry_equiv_pos_as_xyz
  1  'x, y, z'
loop_
 _atom_site_type_symbol
 _atom_site_label
 _atom_site_symmetry_multiplicity
 _atom_site_fract_x
 _atom_site_fract_y
 _atom_site_fract_z
 _atom_site_occupancy
  Tb  Tb0  1  0.797407  0.797407  0.797407  1
  Tb  Tb1  1  0.202593  0.202593  0.202593  1
  Tb  Tb2  1  0.159950  0.393360  0.666959  1
  Tb  Tb3  1  0.666959  0.159950  0.393360  1
  Tb  Tb4  1  0.393360  0.666959  0.159950  1
  Tb  Tb5  1  0.840050  0.606640  0.333041  1
  Tb  Tb6  1  0.333041  0.840050  0.606640  1
  Tb  Tb7  1  0.606640  0.333041  0.840050  1
  Tm  Tm8  1  0.000000  0.000000  0.000000  1
  Rh  Rh9  1  0.955889  0.165133  0.593282  1
  Rh  Rh10  1  0.593282  0.955889  0.165133  1
  Rh  Rh11  1  0.165133  0.593282  0.955889  1
  Rh  Rh12  1  0.044111  0.834867  0.406718  1
  Rh  Rh13  1  0.406718  0.044111  0.834867  1
  Rh  Rh14  1  0.834867  0.406718  0.044111  1
