# generated using pymatgen
data_Tb3Co5Cu2(NiB)4
_symmetry_space_group_name_H-M   'P 1'
_cell_length_a   5.06064800
_cell_length_b   5.06982828
_cell_length_c   9.87309000
_cell_angle_alpha   89.99986359
_cell_angle_beta   90.00028464
_cell_angle_gamma   119.94011838
_symmetry_Int_Tables_number   1
_chemical_formula_structural   Tb3Co5Cu2(NiB)4
_chemical_formula_sum   'Tb3 Co5 Cu2 Ni4 B4'
_cell_volume   219.50521745
_cell_formula_units_Z   1
loop_
 _symmetry_equiv_pos_site_id
 _symmetry_equiv_pos_as_xyz
  1  'x, y, z'
loop_
 _atom_site_type_symbol
 _atom_site_label
 _atom_site_symmetry_multiplicity
 _atom_site_fract_x
 _atom_site_fract_y
 _atom_site_fract_z
 _atom_site_occupancy
  Tb  Tb0  1  0.999988  0.000000  0.000005  1
  Tb  Tb1  1  0.999996  0.000000  0.343438  1
  Tb  Tb2  1  0.999999  0.000000  0.656624  1
  Co  Co3  1  0.500000  0.000000  0.500040  1
  Co  Co4  1  0.499999  0.500000  0.500053  1
  Co  Co5  1  0.999999  0.500000  0.500053  1
  Co  Co6  1  0.499993  0.000000  0.211415  1
  Co  Co7  1  0.500000  0.000000  0.788622  1
  Cu  Cu8  1  0.337429  0.674868  0.999877  1
  Cu  Cu9  1  0.662561  0.325132  0.999877  1
  Ni  Ni10  1  0.499971  0.499998  0.207341  1
  Ni  Ni11  1  0.999973  0.500002  0.207341  1
  Ni  Ni12  1  0.499998  0.499990  0.792629  1
  Ni  Ni13  1  0.000008  0.500010  0.792629  1
  B  B14  1  0.335553  0.671118  0.351535  1
  B  B15  1  0.664434  0.328882  0.351535  1
  B  B16  1  0.664415  0.328829  0.648494  1
  B  B17  1  0.335585  0.671171  0.648494  1
