# generated using pymatgen
data_LaPr4Nd(OsI3)2
_symmetry_space_group_name_H-M   'P 1'
_cell_length_a   4.39065000
_cell_length_b   9.48108820
_cell_length_c   12.64756314
_cell_angle_alpha   87.38160857
_cell_angle_beta   90.00000000
_cell_angle_gamma   90.00000000
_symmetry_Int_Tables_number   1
_chemical_formula_structural   LaPr4Nd(OsI3)2
_chemical_formula_sum   'La1 Pr4 Nd1 Os2 I6'
_cell_volume   525.94484471
_cell_formula_units_Z   1
loop_
 _symmetry_equiv_pos_site_id
 _symmetry_equiv_pos_as_xyz
  1  'x, y, z'
loop_
 _atom_site_type_symbol
 _atom_site_label
 _atom_site_symmetry_multiplicity
 _atom_site_fract_x
 _atom_site_fract_y
 _atom_site_fract_z
 _atom_site_occupancy
  La  La0  1  0.250000  0.884376  0.328881  1
  Pr  Pr1  1  0.250000  0.308993  0.881860  1
  Pr  Pr2  1  0.250000  0.903995  0.893222  1
  Pr  Pr3  1  0.750000  0.116749  0.668017  1
  Pr  Pr4  1  0.750000  0.096878  0.106930  1
  Nd  Nd5  1  0.750000  0.688907  0.118251  1
  Os  Os6  1  0.250000  0.886504  0.125757  1
  Os  Os7  1  0.750000  0.110246  0.879219  1
  I  I8  1  0.250000  0.396223  0.133674  1
  I  I9  1  0.750000  0.135488  0.380754  1
  I  I10  1  0.750000  0.604890  0.866880  1
  I  I11  1  0.250000  0.363339  0.623711  1
  I  I12  1  0.750000  0.632289  0.374074  1
  I  I13  1  0.250000  0.871124  0.618770  1
