# generated using pymatgen
data_Sm3Pu(BeSi3)2
_symmetry_space_group_name_H-M   'P 1'
_cell_length_a   7.94029100
_cell_length_b   7.94029149
_cell_length_c   4.21869800
_cell_angle_alpha   90.00000000
_cell_angle_beta   90.00000000
_cell_angle_gamma   120.00000211
_symmetry_Int_Tables_number   1
_chemical_formula_structural   Sm3Pu(BeSi3)2
_chemical_formula_sum   'Sm3 Pu1 Be2 Si6'
_cell_volume   230.34666266
_cell_formula_units_Z   1
loop_
 _symmetry_equiv_pos_site_id
 _symmetry_equiv_pos_as_xyz
  1  'x, y, z'
loop_
 _atom_site_type_symbol
 _atom_site_label
 _atom_site_symmetry_multiplicity
 _atom_site_fract_x
 _atom_site_fract_y
 _atom_site_fract_z
 _atom_site_occupancy
  Sm  Sm0  1  0.500000  0.500000  0.000000  1
  Sm  Sm1  1  0.000000  0.500000  0.000000  1
  Sm  Sm2  1  0.500000  0.000000  0.000000  1
  Pu  Pu3  1  0.000000  0.000000  0.000000  1
  Be  Be4  1  0.333333  0.666667  0.500000  1
  Be  Be5  1  0.666667  0.333333  0.500000  1
  Si  Si6  1  0.829040  0.658078  0.500000  1
  Si  Si7  1  0.170960  0.829040  0.500000  1
  Si  Si8  1  0.658078  0.829040  0.500000  1
  Si  Si9  1  0.170960  0.341922  0.500000  1
  Si  Si10  1  0.829040  0.170960  0.500000  1
  Si  Si11  1  0.341922  0.170960  0.500000  1
