# generated using pymatgen
data_Hf6Ni17P12Ru
_symmetry_space_group_name_H-M   'P 1'
_cell_length_a   3.63718000
_cell_length_b   10.33206400
_cell_length_c   12.08439200
_cell_angle_alpha   90.00060844
_cell_angle_beta   89.99924263
_cell_angle_gamma   90.00010271
_symmetry_Int_Tables_number   1
_chemical_formula_structural   Hf6Ni17P12Ru
_chemical_formula_sum   'Hf6 Ni17 P12 Ru1'
_cell_volume   454.12633406
_cell_formula_units_Z   1
loop_
 _symmetry_equiv_pos_site_id
 _symmetry_equiv_pos_as_xyz
  1  'x, y, z'
loop_
 _atom_site_type_symbol
 _atom_site_label
 _atom_site_symmetry_multiplicity
 _atom_site_fract_x
 _atom_site_fract_y
 _atom_site_fract_z
 _atom_site_occupancy
  Hf  Hf0  1  0.751939  0.000000  0.470735  1
  Hf  Hf1  1  0.251976  0.499999  0.525707  1
  Hf  Hf2  1  0.251877  0.679194  0.794053  1
  Hf  Hf3  1  0.251877  0.320803  0.794050  1
  Hf  Hf4  1  0.751889  0.820720  0.207574  1
  Hf  Hf5  1  0.751889  0.179282  0.207572  1
  Ni  Ni6  1  0.751716  0.999999  0.017357  1
  Ni  Ni7  1  0.251808  0.499998  0.985026  1
  Ni  Ni8  1  0.251806  0.197156  0.567308  1
  Ni  Ni9  1  0.251802  0.802843  0.567308  1
  Ni  Ni10  1  0.751863  0.302489  0.431393  1
  Ni  Ni11  1  0.751861  0.697503  0.431392  1
  Ni  Ni12  1  0.251817  0.624971  0.292871  1
  Ni  Ni13  1  0.251821  0.375024  0.292877  1
  Ni  Ni14  1  0.751768  0.872434  0.705513  1
  Ni  Ni15  1  0.751770  0.127564  0.705508  1
  Ni  Ni16  1  0.251724  0.171169  0.009326  1
  Ni  Ni17  1  0.251726  0.828830  0.009318  1
  Ni  Ni18  1  0.751750  0.332431  0.993915  1
  Ni  Ni19  1  0.751750  0.667568  0.993920  1
  Ni  Ni20  1  0.751586  0.499996  0.164589  1
  Ni  Ni21  1  0.251932  0.000003  0.299586  1
  Ni  Ni22  1  0.752014  0.500003  0.699775  1
  P  P23  1  0.251903  0.183250  0.383179  1
  P  P24  1  0.251904  0.816760  0.383176  1
  P  P25  1  0.751826  0.317745  0.616245  1
  P  P26  1  0.751821  0.682254  0.616242  1
  P  P27  1  0.251762  0.000002  0.123468  1
  P  P28  1  0.751871  0.499996  0.875748  1
  P  P29  1  0.251785  0.654015  0.113195  1
  P  P30  1  0.251785  0.345993  0.113195  1
  P  P31  1  0.751757  0.844962  0.887806  1
  P  P32  1  0.751754  0.155032  0.887807  1
  P  P33  1  0.251884  0.000003  0.644332  1
  P  P34  1  0.751918  0.499994  0.351971  1
  Ru  Ru35  1  0.251679  0.000015  0.836963  1
