# generated using pymatgen
data_SrPrDy2(Si5Pt3)2
_symmetry_space_group_name_H-M   'P 1'
_cell_length_a   8.22894700
_cell_length_b   8.23816901
_cell_length_c   8.23816776
_cell_angle_alpha   136.70395329
_cell_angle_beta   104.99873902
_cell_angle_gamma   90.78423543
_symmetry_Int_Tables_number   1
_chemical_formula_structural   SrPrDy2(Si5Pt3)2
_chemical_formula_sum   'Sr1 Pr1 Dy2 Si10 Pt6'
_cell_volume   352.30945944
_cell_formula_units_Z   1
loop_
 _symmetry_equiv_pos_site_id
 _symmetry_equiv_pos_as_xyz
  1  'x, y, z'
loop_
 _atom_site_type_symbol
 _atom_site_label
 _atom_site_symmetry_multiplicity
 _atom_site_fract_x
 _atom_site_fract_y
 _atom_site_fract_z
 _atom_site_occupancy
  Sr  Sr0  1  0.863127  0.628235  0.234892  1
  Pr  Pr1  1  0.605112  0.872083  0.733030  1
  Dy  Dy2  1  0.139864  0.371995  0.767868  1
  Dy  Dy3  1  0.395722  0.127740  0.267982  1
  Si  Si4  1  0.497996  0.748556  0.247832  1
  Si  Si5  1  0.497996  0.250164  0.749441  1
  Si  Si6  1  0.229307  0.981488  0.750777  1
  Si  Si7  1  0.770841  0.520851  0.749490  1
  Si  Si8  1  0.770841  0.021352  0.249991  1
  Si  Si9  1  0.229307  0.478531  0.247820  1
  Si  Si10  1  0.039573  0.889513  0.150060  1
  Si  Si11  1  0.963879  0.114169  0.849711  1
  Si  Si12  1  0.735283  0.384590  0.350693  1
  Si  Si13  1  0.260711  0.610686  0.650025  1
  Pt  Pt14  1  0.002635  0.750218  0.752703  1
  Pt  Pt15  1  0.002635  0.249934  0.252417  1
  Pt  Pt16  1  0.252053  0.865057  0.386997  1
  Pt  Pt17  1  0.748047  0.137966  0.610080  1
  Pt  Pt18  1  0.473652  0.361968  0.111683  1
  Pt  Pt19  1  0.521414  0.634906  0.886510  1
