# generated using pymatgen
data_YErCo9Tc3As7
_symmetry_space_group_name_H-M   'P 1'
_cell_length_a   3.83371000
_cell_length_b   9.37637393
_cell_length_c   9.37637500
_cell_angle_alpha   120.00000024
_cell_angle_beta   90.00000000
_cell_angle_gamma   90.00000000
_symmetry_Int_Tables_number   1
_chemical_formula_structural   YErCo9Tc3As7
_chemical_formula_sum   'Y1 Er1 Co9 Tc3 As7'
_cell_volume   291.89037556
_cell_formula_units_Z   1
loop_
 _symmetry_equiv_pos_site_id
 _symmetry_equiv_pos_as_xyz
  1  'x, y, z'
loop_
 _atom_site_type_symbol
 _atom_site_label
 _atom_site_symmetry_multiplicity
 _atom_site_fract_x
 _atom_site_fract_y
 _atom_site_fract_z
 _atom_site_occupancy
  Y  Y0  1  0.500000  0.333333  0.666667  1
  Er  Er1  1  0.000000  0.666667  0.333333  1
  Co  Co2  1  0.000000  0.569041  0.941040  1
  Co  Co3  1  0.000000  0.371999  0.430959  1
  Co  Co4  1  0.000000  0.058960  0.628001  1
  Co  Co5  1  0.000000  0.875329  0.157434  1
  Co  Co6  1  0.000000  0.282104  0.124671  1
  Co  Co7  1  0.000000  0.842566  0.717896  1
  Co  Co8  1  0.500000  0.946197  0.380683  1
  Co  Co9  1  0.500000  0.434485  0.053803  1
  Co  Co10  1  0.500000  0.619317  0.565515  1
  Tc  Tc11  1  0.500000  0.782779  0.900457  1
  Tc  Tc12  1  0.500000  0.117678  0.217221  1
  Tc  Tc13  1  0.500000  0.099543  0.882322  1
  As  As14  1  0.000000  0.000000  0.000000  1
  As  As15  1  0.500000  0.706488  0.117091  1
  As  As16  1  0.500000  0.410603  0.293512  1
  As  As17  1  0.500000  0.882909  0.589397  1
  As  As18  1  0.000000  0.587794  0.701711  1
  As  As19  1  0.000000  0.113916  0.412206  1
  As  As20  1  0.000000  0.298289  0.886084  1
