# generated using pymatgen
data_Tb3Pa(NiAs)4
_symmetry_space_group_name_H-M   'P 1'
_cell_length_a   4.09021500
_cell_length_b   4.09021467
_cell_length_c   15.36794400
_cell_angle_alpha   90.00000000
_cell_angle_beta   90.00000000
_cell_angle_gamma   119.99999461
_symmetry_Int_Tables_number   1
_chemical_formula_structural   Tb3Pa(NiAs)4
_chemical_formula_sum   'Tb3 Pa1 Ni4 As4'
_cell_volume   222.65818432
_cell_formula_units_Z   1
loop_
 _symmetry_equiv_pos_site_id
 _symmetry_equiv_pos_as_xyz
  1  'x, y, z'
loop_
 _atom_site_type_symbol
 _atom_site_label
 _atom_site_symmetry_multiplicity
 _atom_site_fract_x
 _atom_site_fract_y
 _atom_site_fract_z
 _atom_site_occupancy
  Tb  Tb0  1  0.000000  0.000000  0.750000  1
  Tb  Tb1  1  0.000000  0.000000  0.997875  1
  Tb  Tb2  1  0.000000  0.000000  0.502125  1
  Pa  Pa3  1  0.000000  0.000000  0.250000  1
  Ni  Ni4  1  0.333333  0.666667  0.152372  1
  Ni  Ni5  1  0.666667  0.333333  0.869743  1
  Ni  Ni6  1  0.666667  0.333333  0.630257  1
  Ni  Ni7  1  0.333333  0.666667  0.347628  1
  As  As8  1  0.333333  0.666667  0.621231  1
  As  As9  1  0.666667  0.333333  0.380957  1
  As  As10  1  0.666667  0.333333  0.119043  1
  As  As11  1  0.333333  0.666667  0.878769  1
