# generated using pymatgen
data_TbNdMo2O7
_symmetry_space_group_name_H-M   'P 1'
_cell_length_a   7.44980125
_cell_length_b   7.55199117
_cell_length_c   7.44980135
_cell_angle_alpha   59.54519682
_cell_angle_beta   59.22595953
_cell_angle_gamma   59.54518626
_symmetry_Int_Tables_number   1
_chemical_formula_structural   TbNdMo2O7
_chemical_formula_sum   'Tb2 Nd2 Mo4 O14'
_cell_volume   292.58078333
_cell_formula_units_Z   2
loop_
 _symmetry_equiv_pos_site_id
 _symmetry_equiv_pos_as_xyz
  1  'x, y, z'
loop_
 _atom_site_type_symbol
 _atom_site_label
 _atom_site_symmetry_multiplicity
 _atom_site_fract_x
 _atom_site_fract_y
 _atom_site_fract_z
 _atom_site_occupancy
  Tb  Tb0  1  0.625000  0.125000  0.125000  1
  Tb  Tb1  1  0.125000  0.125000  0.625000  1
  Nd  Nd2  1  0.125000  0.125000  0.125000  1
  Nd  Nd3  1  0.125000  0.625000  0.125000  1
  Mo  Mo4  1  0.625000  0.625000  0.625000  1
  Mo  Mo5  1  0.125000  0.625000  0.625000  1
  Mo  Mo6  1  0.625000  0.625000  0.125000  1
  Mo  Mo7  1  0.625000  0.125000  0.625000  1
  O  O8  1  0.996954  0.003046  0.996954  1
  O  O9  1  0.253046  0.246954  0.253046  1
  O  O10  1  0.288722  0.289106  0.704218  1
  O  O11  1  0.545782  0.532046  0.961278  1
  O  O12  1  0.715168  0.284832  0.715168  1
  O  O13  1  0.704218  0.289106  0.288722  1
  O  O14  1  0.288722  0.717954  0.704218  1
  O  O15  1  0.290663  0.709337  0.290663  1
  O  O16  1  0.704218  0.717954  0.288722  1
  O  O17  1  0.961278  0.532046  0.545782  1
  O  O18  1  0.545782  0.960894  0.961278  1
  O  O19  1  0.961278  0.960894  0.545782  1
  O  O20  1  0.959337  0.540663  0.959337  1
  O  O21  1  0.534832  0.965168  0.534832  1
