# generated using pymatgen
data_Pr2Be3SiRh6
_symmetry_space_group_name_H-M   'P 1'
_cell_length_a   6.55825136
_cell_length_b   6.53889381
_cell_length_c   6.55825131
_cell_angle_alpha   129.73594453
_cell_angle_beta   116.64157902
_cell_angle_gamma   85.06501532
_symmetry_Int_Tables_number   1
_chemical_formula_structural   Pr2Be3SiRh6
_chemical_formula_sum   'Pr2 Be3 Si1 Rh6'
_cell_volume   184.89535656
_cell_formula_units_Z   1
loop_
 _symmetry_equiv_pos_site_id
 _symmetry_equiv_pos_as_xyz
  1  'x, y, z'
loop_
 _atom_site_type_symbol
 _atom_site_label
 _atom_site_symmetry_multiplicity
 _atom_site_fract_x
 _atom_site_fract_y
 _atom_site_fract_z
 _atom_site_occupancy
  Pr  Pr0  1  0.743969  0.007238  0.263268  1
  Pr  Pr1  1  0.255935  0.996204  0.740268  1
  Be  Be2  1  0.589321  0.358175  0.768854  1
  Be  Be3  1  0.418636  0.649235  0.230598  1
  Be  Be4  1  0.075701  0.305424  0.229721  1
  Si  Si5  1  0.916888  0.685352  0.768464  1
  Rh  Rh6  1  0.244251  0.497794  0.740578  1
  Rh  Rh7  1  0.734798  0.002810  0.736636  1
  Rh  Rh8  1  0.757215  0.497794  0.253542  1
  Rh  Rh9  1  0.266173  0.002810  0.268012  1
  Rh  Rh10  1  0.491073  0.498583  0.492545  1
  Rh  Rh11  1  0.006039  0.498583  0.007511  1
