# generated using pymatgen
data_Hf4Al6FeRe
_symmetry_space_group_name_H-M   'P 1'
_cell_length_a   5.24965900
_cell_length_b   5.24965920
_cell_length_c   8.59513400
_cell_angle_alpha   90.00000000
_cell_angle_beta   90.00000000
_cell_angle_gamma   120.00000503
_symmetry_Int_Tables_number   1
_chemical_formula_structural   Hf4Al6FeRe
_chemical_formula_sum   'Hf4 Al6 Fe1 Re1'
_cell_volume   205.13769263
_cell_formula_units_Z   1
loop_
 _symmetry_equiv_pos_site_id
 _symmetry_equiv_pos_as_xyz
  1  'x, y, z'
loop_
 _atom_site_type_symbol
 _atom_site_label
 _atom_site_symmetry_multiplicity
 _atom_site_fract_x
 _atom_site_fract_y
 _atom_site_fract_z
 _atom_site_occupancy
  Hf  Hf0  1  0.666668  0.333334  0.058278  1
  Hf  Hf1  1  0.666668  0.333334  0.448923  1
  Hf  Hf2  1  0.333333  0.666667  0.551078  1
  Hf  Hf3  1  0.333333  0.666667  0.941722  1
  Al  Al4  1  0.165632  0.331262  0.257152  1
  Al  Al5  1  0.165632  0.834368  0.257152  1
  Al  Al6  1  0.668737  0.834368  0.257152  1
  Al  Al7  1  0.331262  0.165633  0.742848  1
  Al  Al8  1  0.834369  0.165633  0.742848  1
  Al  Al9  1  0.834370  0.668739  0.742848  1
  Fe  Fe10  1  0.000000  0.000000  0.500001  1
  Re  Re11  1  0.000000  0.000000  0.000000  1
