# generated using pymatgen
data_DyHoEr2(Si3Rh)2
_symmetry_space_group_name_H-M   'P 1'
_cell_length_a   8.15130500
_cell_length_b   8.15130576
_cell_length_c   7.85415900
_cell_angle_alpha   90.00000000
_cell_angle_beta   90.00000000
_cell_angle_gamma   119.97703270
_symmetry_Int_Tables_number   1
_chemical_formula_structural   DyHoEr2(Si3Rh)2
_chemical_formula_sum   'Dy2 Ho2 Er4 Si12 Rh4'
_cell_volume   452.04858271
_cell_formula_units_Z   2
loop_
 _symmetry_equiv_pos_site_id
 _symmetry_equiv_pos_as_xyz
  1  'x, y, z'
loop_
 _atom_site_type_symbol
 _atom_site_label
 _atom_site_symmetry_multiplicity
 _atom_site_fract_x
 _atom_site_fract_y
 _atom_site_fract_z
 _atom_site_occupancy
  Dy  Dy0  1  0.000048  0.999952  0.250000  1
  Dy  Dy1  1  0.999962  0.000038  0.750000  1
  Ho  Ho2  1  0.491039  0.981912  0.750000  1
  Ho  Ho3  1  0.018088  0.508961  0.750000  1
  Er  Er4  1  0.509112  0.490888  0.250000  1
  Er  Er5  1  0.509058  0.018117  0.250000  1
  Er  Er6  1  0.981883  0.490942  0.250000  1
  Er  Er7  1  0.491094  0.508906  0.750000  1
  Si  Si8  1  0.167289  0.832711  0.499492  1
  Si  Si9  1  0.167329  0.334495  0.499781  1
  Si  Si10  1  0.665505  0.832671  0.499781  1
  Si  Si11  1  0.832742  0.167258  0.499705  1
  Si  Si12  1  0.832835  0.665713  0.499731  1
  Si  Si13  1  0.334287  0.167165  0.499731  1
  Si  Si14  1  0.832742  0.167258  0.000295  1
  Si  Si15  1  0.832835  0.665713  0.000269  1
  Si  Si16  1  0.334287  0.167165  0.000269  1
  Si  Si17  1  0.167289  0.832711  0.000508  1
  Si  Si18  1  0.167329  0.334495  0.000219  1
  Si  Si19  1  0.665505  0.832671  0.000219  1
  Rh  Rh20  1  0.333447  0.666553  0.463555  1
  Rh  Rh21  1  0.666422  0.333578  0.533506  1
  Rh  Rh22  1  0.666422  0.333578  0.966494  1
  Rh  Rh23  1  0.333447  0.666553  0.036445  1
