# generated using pymatgen
data_Mg4BeSi(B2Rh5)2
_symmetry_space_group_name_H-M   'P 1'
_cell_length_a   9.30058800
_cell_length_b   2.89708600
_cell_length_c   9.30058800
_cell_angle_alpha   90.00000000
_cell_angle_beta   90.00000000
_cell_angle_gamma   90.00000000
_symmetry_Int_Tables_number   1
_chemical_formula_structural   Mg4BeSi(B2Rh5)2
_chemical_formula_sum   'Mg4 Be1 Si1 B4 Rh10'
_cell_volume   250.60065399
_cell_formula_units_Z   1
loop_
 _symmetry_equiv_pos_site_id
 _symmetry_equiv_pos_as_xyz
  1  'x, y, z'
loop_
 _atom_site_type_symbol
 _atom_site_label
 _atom_site_symmetry_multiplicity
 _atom_site_fract_x
 _atom_site_fract_y
 _atom_site_fract_z
 _atom_site_occupancy
  Mg  Mg0  1  0.327170  0.000000  0.177803  1
  Mg  Mg1  1  0.822197  0.000000  0.327170  1
  Mg  Mg2  1  0.177803  0.000000  0.672830  1
  Mg  Mg3  1  0.672830  0.000000  0.822197  1
  Be  Be4  1  0.500000  0.000000  0.500000  1
  Si  Si5  1  0.000000  0.000000  0.000000  1
  B  B6  1  0.622076  0.000000  0.133234  1
  B  B7  1  0.133234  0.000000  0.377924  1
  B  B8  1  0.866767  0.000000  0.622076  1
  B  B9  1  0.377924  0.000000  0.866767  1
  Rh  Rh10  1  0.500000  0.500001  0.000000  1
  Rh  Rh11  1  0.789824  0.500001  0.072101  1
  Rh  Rh12  1  0.072101  0.500001  0.210176  1
  Rh  Rh13  1  0.568834  0.500001  0.293481  1
  Rh  Rh14  1  0.293481  0.500001  0.431166  1
  Rh  Rh15  1  0.000000  0.500001  0.500000  1
  Rh  Rh16  1  0.706518  0.500001  0.568834  1
  Rh  Rh17  1  0.431166  0.500001  0.706518  1
  Rh  Rh18  1  0.927898  0.500001  0.789824  1
  Rh  Rh19  1  0.210176  0.500001  0.927898  1
