# generated using pymatgen
data_Ca9(PdAu2)2
_symmetry_space_group_name_H-M   'P 1'
_cell_length_a   7.86089461
_cell_length_b   7.80413431
_cell_length_c   7.83435048
_cell_angle_alpha   71.01922577
_cell_angle_beta   70.59451471
_cell_angle_gamma   70.76198546
_symmetry_Int_Tables_number   1
_chemical_formula_structural   Ca9(PdAu2)2
_chemical_formula_sum   'Ca9 Pd2 Au4'
_cell_volume   415.24599767
_cell_formula_units_Z   1
loop_
 _symmetry_equiv_pos_site_id
 _symmetry_equiv_pos_as_xyz
  1  'x, y, z'
loop_
 _atom_site_type_symbol
 _atom_site_label
 _atom_site_symmetry_multiplicity
 _atom_site_fract_x
 _atom_site_fract_y
 _atom_site_fract_z
 _atom_site_occupancy
  Ca  Ca0  1  0.003158  0.001645  0.999316  1
  Ca  Ca1  1  0.795313  0.792631  0.799891  1
  Ca  Ca2  1  0.201213  0.198811  0.197970  1
  Ca  Ca3  1  0.334881  0.601893  0.844724  1
  Ca  Ca4  1  0.846974  0.338766  0.605159  1
  Ca  Ca5  1  0.597963  0.842037  0.332827  1
  Ca  Ca6  1  0.664885  0.400001  0.153277  1
  Ca  Ca7  1  0.161917  0.664763  0.394624  1
  Ca  Ca8  1  0.394221  0.159221  0.669407  1
  Pd  Pd9  1  0.411815  0.842093  0.044899  1
  Pd  Pd10  1  0.044691  0.412392  0.844698  1
  Au  Au11  1  0.160669  0.955328  0.589373  1
  Au  Au12  1  0.590199  0.154592  0.954777  1
  Au  Au13  1  0.956820  0.588601  0.156688  1
  Au  Au14  1  0.835279  0.047226  0.412371  1
