# generated using pymatgen
data_La4SmGdTa2O14
_symmetry_space_group_name_H-M   'P 1'
_cell_length_a   6.70670709
_cell_length_b   6.70190131
_cell_length_c   7.78066600
_cell_angle_alpha   90.00000000
_cell_angle_beta   90.00000000
_cell_angle_gamma   109.21028399
_symmetry_Int_Tables_number   1
_chemical_formula_structural   La4SmGdTa2O14
_chemical_formula_sum   'La4 Sm1 Gd1 Ta2 O14'
_cell_volume   330.24944655
_cell_formula_units_Z   1
loop_
 _symmetry_equiv_pos_site_id
 _symmetry_equiv_pos_as_xyz
  1  'x, y, z'
loop_
 _atom_site_type_symbol
 _atom_site_label
 _atom_site_symmetry_multiplicity
 _atom_site_fract_x
 _atom_site_fract_y
 _atom_site_fract_z
 _atom_site_occupancy
  La  La0  1  0.480471  0.480059  0.499788  1
  La  La1  1  0.480471  0.480059  0.000212  1
  La  La2  1  0.529846  0.995694  0.750000  1
  La  La3  1  0.995898  0.530765  0.250000  1
  Sm  Sm4  1  0.997991  0.464568  0.750000  1
  Gd  Gd5  1  0.467380  0.997906  0.250000  1
  Ta  Ta6  1  0.998077  0.998007  0.499512  1
  Ta  Ta7  1  0.998077  0.998007  0.000488  1
  O  O8  1  0.695793  0.945330  0.461023  1
  O  O9  1  0.944261  0.695386  0.537882  1
  O  O10  1  0.695793  0.945330  0.038977  1
  O  O11  1  0.944261  0.695386  0.962118  1
  O  O12  1  0.318844  0.073709  0.519764  1
  O  O13  1  0.074541  0.319475  0.479002  1
  O  O14  1  0.318844  0.073709  0.980236  1
  O  O15  1  0.074541  0.319475  0.020998  1
  O  O16  1  0.945606  0.055963  0.750000  1
  O  O17  1  0.055133  0.945559  0.250000  1
  O  O18  1  0.362512  0.623271  0.750000  1
  O  O19  1  0.622332  0.359669  0.250000  1
  O  O20  1  0.637307  0.361757  0.750000  1
  O  O21  1  0.362024  0.640919  0.250000  1
