# generated using pymatgen
data_Sr15(GeP6)2
_symmetry_space_group_name_H-M   'P 1'
_cell_length_a   9.30933671
_cell_length_b   9.30933641
_cell_length_c   9.30933602
_cell_angle_alpha   88.54762263
_cell_angle_beta   88.54762323
_cell_angle_gamma   88.54761739
_symmetry_Int_Tables_number   1
_chemical_formula_structural   Sr15(GeP6)2
_chemical_formula_sum   'Sr15 Ge2 P12'
_cell_volume   806.01727337
_cell_formula_units_Z   1
loop_
 _symmetry_equiv_pos_site_id
 _symmetry_equiv_pos_as_xyz
  1  'x, y, z'
loop_
 _atom_site_type_symbol
 _atom_site_label
 _atom_site_symmetry_multiplicity
 _atom_site_fract_x
 _atom_site_fract_y
 _atom_site_fract_z
 _atom_site_occupancy
  Sr  Sr0  1  0.407161  0.288757  0.776363  1
  Sr  Sr1  1  0.776363  0.407161  0.288757  1
  Sr  Sr2  1  0.288757  0.776363  0.407161  1
  Sr  Sr3  1  0.020505  0.529184  0.659668  1
  Sr  Sr4  1  0.659668  0.020505  0.529184  1
  Sr  Sr5  1  0.529184  0.659668  0.020505  1
  Sr  Sr6  1  0.166186  0.535248  0.030997  1
  Sr  Sr7  1  0.030997  0.166186  0.535248  1
  Sr  Sr8  1  0.535248  0.030997  0.166186  1
  Sr  Sr9  1  0.776009  0.295105  0.918965  1
  Sr  Sr10  1  0.918965  0.776009  0.295105  1
  Sr  Sr11  1  0.295105  0.918965  0.776009  1
  Sr  Sr12  1  0.165228  0.165228  0.165228  1
  Sr  Sr13  1  0.395894  0.395894  0.395894  1
  Sr  Sr14  1  0.947387  0.947387  0.947387  1
  Ge  Ge15  1  0.758779  0.758779  0.758779  1
  Ge  Ge16  1  0.601534  0.601534  0.601534  1
  P  P17  1  0.699672  0.361185  0.604491  1
  P  P18  1  0.604491  0.699672  0.361185  1
  P  P19  1  0.361185  0.604491  0.699672  1
  P  P20  1  0.621734  0.961063  0.852569  1
  P  P21  1  0.852569  0.621734  0.961063  1
  P  P22  1  0.961063  0.852569  0.621734  1
  P  P23  1  0.473599  0.344110  0.085661  1
  P  P24  1  0.085661  0.473599  0.344110  1
  P  P25  1  0.344110  0.085661  0.473599  1
  P  P26  1  0.093234  0.237783  0.846661  1
  P  P27  1  0.846661  0.093234  0.237783  1
  P  P28  1  0.237783  0.846661  0.093234  1
