# generated using pymatgen
data_Lu2Mn4P7Rh8
_symmetry_space_group_name_H-M   'P 1'
_cell_length_a   9.43576800
_cell_length_b   9.42872650
_cell_length_c   3.78829400
_cell_angle_alpha   90.00000000
_cell_angle_beta   90.00000000
_cell_angle_gamma   120.20617912
_symmetry_Int_Tables_number   1
_chemical_formula_structural   Lu2Mn4P7Rh8
_chemical_formula_sum   'Lu2 Mn4 P7 Rh8'
_cell_volume   291.27187861
_cell_formula_units_Z   1
loop_
 _symmetry_equiv_pos_site_id
 _symmetry_equiv_pos_as_xyz
  1  'x, y, z'
loop_
 _atom_site_type_symbol
 _atom_site_label
 _atom_site_symmetry_multiplicity
 _atom_site_fract_x
 _atom_site_fract_y
 _atom_site_fract_z
 _atom_site_occupancy
  Lu  Lu0  1  0.999130  0.999777  0.000000  1
  Lu  Lu1  1  0.666268  0.333396  0.500000  1
  Mn  Mn2  1  0.219724  0.396112  0.000000  1
  Mn  Mn3  1  0.604044  0.821893  0.000000  1
  Mn  Mn4  1  0.176788  0.778950  0.000000  1
  Mn  Mn5  1  0.106146  0.543497  0.500000  1
  P  P6  1  0.444147  0.371060  0.000000  1
  P  P7  1  0.629290  0.072274  0.000000  1
  P  P8  1  0.927408  0.555270  0.000000  1
  P  P9  1  0.056155  0.270326  0.500000  1
  P  P10  1  0.731193  0.788770  0.500000  1
  P  P11  1  0.210123  0.942199  0.500000  1
  P  P12  1  0.333699  0.667177  0.000000  1
  Rh  Rh13  1  0.702329  0.601241  0.000000  1
  Rh  Rh14  1  0.399461  0.101268  0.000000  1
  Rh  Rh15  1  0.900972  0.300618  0.000000  1
  Rh  Rh16  1  0.272591  0.217956  0.500000  1
  Rh  Rh17  1  0.779093  0.054508  0.500000  1
  Rh  Rh18  1  0.944709  0.723051  0.500000  1
  Rh  Rh19  1  0.463908  0.561729  0.500000  1
  Rh  Rh20  1  0.432817  0.898931  0.500000  1
