# generated using pymatgen
data_Zr4AlIn(B2Ru5)2
_symmetry_space_group_name_H-M   'P 1'
_cell_length_a   9.49838000
_cell_length_b   9.49838000
_cell_length_c   3.09036900
_cell_angle_alpha   90.00000000
_cell_angle_beta   90.00000000
_cell_angle_gamma   90.00000000
_symmetry_Int_Tables_number   1
_chemical_formula_structural   Zr4AlIn(B2Ru5)2
_chemical_formula_sum   'Zr4 Al1 In1 B4 Ru10'
_cell_volume   278.81068880
_cell_formula_units_Z   1
loop_
 _symmetry_equiv_pos_site_id
 _symmetry_equiv_pos_as_xyz
  1  'x, y, z'
loop_
 _atom_site_type_symbol
 _atom_site_label
 _atom_site_symmetry_multiplicity
 _atom_site_fract_x
 _atom_site_fract_y
 _atom_site_fract_z
 _atom_site_occupancy
  Zr  Zr0  1  0.677918  0.172703  0.000000  1
  Zr  Zr1  1  0.322082  0.827297  0.000000  1
  Zr  Zr2  1  0.172703  0.322082  0.000000  1
  Zr  Zr3  1  0.827297  0.677918  0.000000  1
  Al  Al4  1  0.000000  0.000000  0.000000  1
  In  In5  1  0.500000  0.500000  0.000000  1
  B  B6  1  0.119789  0.627134  0.000000  1
  B  B7  1  0.880211  0.372866  0.000000  1
  B  B8  1  0.627134  0.880211  0.000000  1
  B  B9  1  0.372866  0.119789  0.000000  1
  Ru  Ru10  1  0.213892  0.066550  0.500000  1
  Ru  Ru11  1  0.786108  0.933450  0.500000  1
  Ru  Ru12  1  0.066550  0.786108  0.500000  1
  Ru  Ru13  1  0.723764  0.424211  0.500000  1
  Ru  Ru14  1  0.933450  0.213892  0.500000  1
  Ru  Ru15  1  0.276236  0.575789  0.500000  1
  Ru  Ru16  1  0.575789  0.723764  0.500000  1
  Ru  Ru17  1  0.424211  0.276236  0.500000  1
  Ru  Ru18  1  0.500000  0.000000  0.500000  1
  Ru  Ru19  1  0.000000  0.500000  0.500000  1
