# generated using pymatgen
data_Li5P4Rh7
_symmetry_space_group_name_H-M   'P 1'
_cell_length_a   5.27214169
_cell_length_b   5.96857218
_cell_length_c   6.95888189
_cell_angle_alpha   90.20763196
_cell_angle_beta   91.99343074
_cell_angle_gamma   88.86172925
_symmetry_Int_Tables_number   1
_chemical_formula_structural   Li5P4Rh7
_chemical_formula_sum   'Li5 P4 Rh7'
_cell_volume   218.79959021
_cell_formula_units_Z   1
loop_
 _symmetry_equiv_pos_site_id
 _symmetry_equiv_pos_as_xyz
  1  'x, y, z'
loop_
 _atom_site_type_symbol
 _atom_site_label
 _atom_site_symmetry_multiplicity
 _atom_site_fract_x
 _atom_site_fract_y
 _atom_site_fract_z
 _atom_site_occupancy
  Li  Li0  1  0.920550  0.981695  0.249363  1
  Li  Li1  1  0.431656  0.520782  0.748639  1
  Li  Li2  1  0.568836  0.481205  0.256649  1
  Li  Li3  1  0.090502  0.005022  0.747094  1
  Li  Li4  1  0.332908  0.197456  0.037577  1
  P  P5  1  0.442735  0.876771  0.249762  1
  P  P6  1  0.950598  0.615332  0.756367  1
  P  P7  1  0.035147  0.387522  0.257100  1
  P  P8  1  0.577408  0.114880  0.735950  1
  Rh  Rh9  1  0.826776  0.325767  0.957341  1
  Rh  Rh10  1  0.173740  0.669107  0.461965  1
  Rh  Rh11  1  0.676210  0.822211  0.540716  1
  Rh  Rh12  1  0.652300  0.842688  0.959298  1
  Rh  Rh13  1  0.170372  0.659844  0.049296  1
  Rh  Rh14  1  0.829779  0.334261  0.545856  1
  Rh  Rh15  1  0.320484  0.165457  0.447028  1
