# generated using pymatgen
data_RbF5
_symmetry_space_group_name_H-M   'P 1'
_cell_length_a   6.00986376
_cell_length_b   4.69942074
_cell_length_c   6.04231088
_cell_angle_alpha   54.89565438
_cell_angle_beta   87.58346365
_cell_angle_gamma   55.68602471
_symmetry_Int_Tables_number   1
_chemical_formula_structural   RbF5
_chemical_formula_sum   'Rb1 F5'
_cell_volume   104.79057537
_cell_formula_units_Z   1
loop_
 _symmetry_equiv_pos_site_id
 _symmetry_equiv_pos_as_xyz
  1  'x, y, z'
loop_
 _atom_site_type_symbol
 _atom_site_label
 _atom_site_symmetry_multiplicity
 _atom_site_fract_x
 _atom_site_fract_y
 _atom_site_fract_z
 _atom_site_occupancy
  Rb  Rb0  1  0.409322  0.687268  0.255446  1
  F  F1  1  0.382964  0.504896  0.847724  1
  F  F2  1  0.892414  0.659876  0.720883  1
  F  F3  1  0.619836  0.568114  0.795425  1
  F  F4  1  0.000152  0.515103  0.210366  1
  F  F5  1  0.955642  0.574740  0.447442  1
