# generated using pymatgen
data_MnZnGaPt5
_symmetry_space_group_name_H-M   'P 1'
_cell_length_a   5.50466635
_cell_length_b   5.50466619
_cell_length_c   4.00246600
_cell_angle_alpha   90.00000000
_cell_angle_beta   90.00000000
_cell_angle_gamma   95.85885115
_symmetry_Int_Tables_number   1
_chemical_formula_structural   MnZnGaPt5
_chemical_formula_sum   'Mn1 Zn1 Ga1 Pt5'
_cell_volume   120.64660542
_cell_formula_units_Z   1
loop_
 _symmetry_equiv_pos_site_id
 _symmetry_equiv_pos_as_xyz
  1  'x, y, z'
loop_
 _atom_site_type_symbol
 _atom_site_label
 _atom_site_symmetry_multiplicity
 _atom_site_fract_x
 _atom_site_fract_y
 _atom_site_fract_z
 _atom_site_occupancy
  Mn  Mn0  1  0.724532  0.275468  0.500000  1
  Zn  Zn1  1  0.277929  0.722071  0.500000  1
  Ga  Ga2  1  0.996026  0.003974  0.000000  1
  Pt  Pt3  1  0.501470  0.498530  0.000000  1
  Pt  Pt4  1  0.999025  0.500491  0.000000  1
  Pt  Pt5  1  0.499509  0.000975  0.000000  1
  Pt  Pt6  1  0.220208  0.218700  0.500000  1
  Pt  Pt7  1  0.781300  0.779792  0.500000  1
