# generated using pymatgen
data_Er5Tm5(GaSb)4
_symmetry_space_group_name_H-M   'P 1'
_cell_length_a   8.54536550
_cell_length_b   8.54693692
_cell_length_c   7.84139503
_cell_angle_alpha   89.99762402
_cell_angle_beta   89.99342942
_cell_angle_gamma   125.40854320
_symmetry_Int_Tables_number   1
_chemical_formula_structural   Er5Tm5(GaSb)4
_chemical_formula_sum   'Er5 Tm5 Ga4 Sb4'
_cell_volume   466.78204649
_cell_formula_units_Z   1
loop_
 _symmetry_equiv_pos_site_id
 _symmetry_equiv_pos_as_xyz
  1  'x, y, z'
loop_
 _atom_site_type_symbol
 _atom_site_label
 _atom_site_symmetry_multiplicity
 _atom_site_fract_x
 _atom_site_fract_y
 _atom_site_fract_z
 _atom_site_occupancy
  Er  Er0  1  0.538752  0.797684  0.166922  1
  Er  Er1  1  0.297817  0.038759  0.333056  1
  Er  Er2  1  0.202287  0.461229  0.833055  1
  Er  Er3  1  0.961277  0.702257  0.666921  1
  Er  Er4  1  0.702267  0.961312  0.666837  1
  Tm  Tm5  1  0.461167  0.202851  0.833395  1
  Tm  Tm6  1  0.797198  0.538816  0.166646  1
  Tm  Tm7  1  0.038922  0.297230  0.333307  1
  Tm  Tm8  1  0.499934  0.499832  0.499939  1
  Tm  Tm9  1  0.000126  0.000012  0.000108  1
  Ga  Ga10  1  0.627228  0.626992  0.873202  1
  Ga  Ga11  1  0.127362  0.127287  0.626872  1
  Ga  Ga12  1  0.872879  0.872830  0.372958  1
  Ga  Ga13  1  0.372866  0.372729  0.126906  1
  Sb  Sb14  1  0.294172  0.705280  0.499814  1
  Sb  Sb15  1  0.205599  0.794465  0.999952  1
  Sb  Sb16  1  0.705843  0.294481  0.499866  1
  Sb  Sb17  1  0.794305  0.205954  0.000245  1
