# generated using pymatgen
data_Tb2Y8IrRu3
_symmetry_space_group_name_H-M   'P 1'
_cell_length_a   6.42355045
_cell_length_b   7.31661992
_cell_length_c   8.52272356
_cell_angle_alpha   96.60057960
_cell_angle_beta   112.01056088
_cell_angle_gamma   90.08598413
_symmetry_Int_Tables_number   1
_chemical_formula_structural   Tb2Y8IrRu3
_chemical_formula_sum   'Tb2 Y8 Ir1 Ru3'
_cell_volume   368.46809209
_cell_formula_units_Z   1
loop_
 _symmetry_equiv_pos_site_id
 _symmetry_equiv_pos_as_xyz
  1  'x, y, z'
loop_
 _atom_site_type_symbol
 _atom_site_label
 _atom_site_symmetry_multiplicity
 _atom_site_fract_x
 _atom_site_fract_y
 _atom_site_fract_z
 _atom_site_occupancy
  Tb  Tb0  1  0.423544  0.748772  0.999086  1
  Tb  Tb1  1  0.576317  0.249882  0.999759  1
  Y  Y2  1  0.976125  0.914057  0.184284  1
  Y  Y3  1  0.793033  0.584955  0.814560  1
  Y  Y4  1  0.021189  0.085711  0.813755  1
  Y  Y5  1  0.206102  0.417294  0.184443  1
  Y  Y6  1  0.650286  0.815542  0.438031  1
  Y  Y7  1  0.211279  0.683850  0.563608  1
  Y  Y8  1  0.351317  0.182877  0.563824  1
  Y  Y9  1  0.790142  0.316707  0.436918  1
  Ir  Ir10  1  0.396835  0.074831  0.221036  1
  Ru  Ru11  1  0.823015  0.573538  0.218976  1
  Ru  Ru12  1  0.605819  0.926422  0.780480  1
  Ru  Ru13  1  0.174997  0.425562  0.781239  1
