# generated using pymatgen
data_Er2ZnCo(BIr2)2
_symmetry_space_group_name_H-M   'P 1'
_cell_length_a   9.43008300
_cell_length_b   9.43008300
_cell_length_c   3.12597200
_cell_angle_alpha   90.00000000
_cell_angle_beta   90.00000000
_cell_angle_gamma   90.00000000
_symmetry_Int_Tables_number   1
_chemical_formula_structural   Er2ZnCo(BIr2)2
_chemical_formula_sum   'Er4 Zn2 Co2 B4 Ir8'
_cell_volume   277.98164086
_cell_formula_units_Z   2
loop_
 _symmetry_equiv_pos_site_id
 _symmetry_equiv_pos_as_xyz
  1  'x, y, z'
loop_
 _atom_site_type_symbol
 _atom_site_label
 _atom_site_symmetry_multiplicity
 _atom_site_fract_x
 _atom_site_fract_y
 _atom_site_fract_z
 _atom_site_occupancy
  Er  Er0  1  0.324175  0.824175  0.000000  1
  Er  Er1  1  0.675825  0.175825  0.000000  1
  Er  Er2  1  0.175825  0.324175  0.000000  1
  Er  Er3  1  0.824175  0.675825  0.000000  1
  Zn  Zn4  1  0.500000  0.500000  0.000000  1
  Zn  Zn5  1  0.000000  0.000000  0.000000  1
  Co  Co6  1  0.000000  0.500000  0.500000  1
  Co  Co7  1  0.500000  0.000000  0.500000  1
  B  B8  1  0.115264  0.615264  0.000000  1
  B  B9  1  0.884736  0.384736  0.000000  1
  B  B10  1  0.384736  0.115264  0.000000  1
  B  B11  1  0.615264  0.884736  0.000000  1
  Ir  Ir12  1  0.563872  0.724824  0.500000  1
  Ir  Ir13  1  0.436128  0.275176  0.500000  1
  Ir  Ir14  1  0.936128  0.224824  0.500000  1
  Ir  Ir15  1  0.063872  0.775176  0.500000  1
  Ir  Ir16  1  0.775176  0.936128  0.500000  1
  Ir  Ir17  1  0.224824  0.063872  0.500000  1
  Ir  Ir18  1  0.275176  0.563872  0.500000  1
  Ir  Ir19  1  0.724824  0.436128  0.500000  1
