# generated using pymatgen
data_Tm16Sc4(Ir3Rh)3
_symmetry_space_group_name_H-M   'P 1'
_cell_length_a   10.63864600
_cell_length_b   10.63864600
_cell_length_c   6.23068500
_cell_angle_alpha   90.00000000
_cell_angle_beta   90.00000000
_cell_angle_gamma   90.00000000
_symmetry_Int_Tables_number   1
_chemical_formula_structural   Tm16Sc4(Ir3Rh)3
_chemical_formula_sum   'Tm16 Sc4 Ir9 Rh3'
_cell_volume   705.19384252
_cell_formula_units_Z   1
loop_
 _symmetry_equiv_pos_site_id
 _symmetry_equiv_pos_as_xyz
  1  'x, y, z'
loop_
 _atom_site_type_symbol
 _atom_site_label
 _atom_site_symmetry_multiplicity
 _atom_site_fract_x
 _atom_site_fract_y
 _atom_site_fract_z
 _atom_site_occupancy
  Tm  Tm0  1  0.287906  0.086315  0.376859  1
  Tm  Tm1  1  0.287894  0.913622  0.876755  1
  Tm  Tm2  1  0.712106  0.086378  0.876755  1
  Tm  Tm3  1  0.712094  0.913685  0.376859  1
  Tm  Tm4  1  0.586378  0.787894  0.876755  1
  Tm  Tm5  1  0.586315  0.212094  0.376859  1
  Tm  Tm6  1  0.413685  0.787906  0.376859  1
  Tm  Tm7  1  0.413622  0.212106  0.876755  1
  Tm  Tm8  1  0.211580  0.413797  0.622384  1
  Tm  Tm9  1  0.211839  0.586366  0.124051  1
  Tm  Tm10  1  0.788161  0.413634  0.124051  1
  Tm  Tm11  1  0.788420  0.586203  0.622384  1
  Tm  Tm12  1  0.913634  0.711839  0.124051  1
  Tm  Tm13  1  0.913797  0.288420  0.622384  1
  Tm  Tm14  1  0.086203  0.711580  0.622384  1
  Tm  Tm15  1  0.086366  0.288161  0.124051  1
  Sc  Sc16  1  0.000000  0.000000  0.500090  1
  Sc  Sc17  1  0.000000  0.000000  0.999965  1
  Sc  Sc18  1  0.500000  0.500000  0.999965  1
  Sc  Sc19  1  0.500000  0.500000  0.500090  1
  Ir  Ir20  1  0.850247  0.148973  0.249772  1
  Ir  Ir21  1  0.850480  0.850782  0.750002  1
  Ir  Ir22  1  0.149520  0.149218  0.750002  1
  Ir  Ir23  1  0.149753  0.851027  0.249772  1
  Ir  Ir24  1  0.649218  0.350480  0.750002  1
  Ir  Ir25  1  0.648973  0.649753  0.249772  1
  Ir  Ir26  1  0.351027  0.350247  0.249772  1
  Ir  Ir27  1  0.350782  0.649520  0.750002  1
  Ir  Ir28  1  0.000000  0.500000  0.376687  1
  Rh  Rh29  1  0.500000  0.000000  0.123151  1
  Rh  Rh30  1  0.500000  0.000000  0.623309  1
  Rh  Rh31  1  0.000000  0.500000  0.877449  1
