# generated using pymatgen
data_Dy20Ir7Os3Rh2
_symmetry_space_group_name_H-M   'P 1'
_cell_length_a   10.87065693
_cell_length_b   10.87193581
_cell_length_c   6.44043227
_cell_angle_alpha   90.02009646
_cell_angle_beta   90.02655681
_cell_angle_gamma   89.96062798
_symmetry_Int_Tables_number   1
_chemical_formula_structural   Dy20Ir7Os3Rh2
_chemical_formula_sum   'Dy20 Ir7 Os3 Rh2'
_cell_volume   761.16272328
_cell_formula_units_Z   1
loop_
 _symmetry_equiv_pos_site_id
 _symmetry_equiv_pos_as_xyz
  1  'x, y, z'
loop_
 _atom_site_type_symbol
 _atom_site_label
 _atom_site_symmetry_multiplicity
 _atom_site_fract_x
 _atom_site_fract_y
 _atom_site_fract_z
 _atom_site_occupancy
  Dy  Dy0  1  0.293863  0.086493  0.378153  1
  Dy  Dy1  1  0.294050  0.913652  0.877807  1
  Dy  Dy2  1  0.705553  0.085730  0.877053  1
  Dy  Dy3  1  0.705458  0.912082  0.378551  1
  Dy  Dy4  1  0.586465  0.793888  0.878160  1
  Dy  Dy5  1  0.585346  0.206224  0.378478  1
  Dy  Dy6  1  0.413236  0.794092  0.378142  1
  Dy  Dy7  1  0.413569  0.205975  0.877988  1
  Dy  Dy8  1  0.208547  0.412479  0.624638  1
  Dy  Dy9  1  0.207716  0.587741  0.118157  1
  Dy  Dy10  1  0.791992  0.413703  0.117702  1
  Dy  Dy11  1  0.791523  0.587542  0.624838  1
  Dy  Dy12  1  0.912428  0.707983  0.118277  1
  Dy  Dy13  1  0.913046  0.292092  0.625893  1
  Dy  Dy14  1  0.087349  0.708461  0.625009  1
  Dy  Dy15  1  0.088946  0.292822  0.117811  1
  Dy  Dy16  1  0.000266  0.999702  0.499580  1
  Dy  Dy17  1  0.000227  0.999674  0.999746  1
  Dy  Dy18  1  0.500038  0.500127  0.999675  1
  Dy  Dy19  1  0.499867  0.500073  0.499516  1
  Ir  Ir20  1  0.848567  0.847592  0.749599  1
  Ir  Ir21  1  0.150845  0.152948  0.750073  1
  Ir  Ir22  1  0.150964  0.846471  0.250637  1
  Ir  Ir23  1  0.653277  0.348240  0.749797  1
  Ir  Ir24  1  0.653661  0.650883  0.251025  1
  Ir  Ir25  1  0.346518  0.349016  0.250327  1
  Ir  Ir26  1  0.347054  0.651373  0.749736  1
  Os  Os27  1  0.500530  0.000363  0.125068  1
  Os  Os28  1  0.500425  0.000345  0.624172  1
  Os  Os29  1  0.999734  0.499460  0.875700  1
  Rh  Rh30  1  0.849212  0.153284  0.250688  1
  Rh  Rh31  1  0.999729  0.499489  0.378001  1
