# generated using pymatgen
data_LaVP3Rh4
_symmetry_space_group_name_H-M   'P 1'
_cell_length_a   3.95989500
_cell_length_b   7.33499279
_cell_length_c   9.64881729
_cell_angle_alpha   79.24113816
_cell_angle_beta   90.00000000
_cell_angle_gamma   90.00000000
_symmetry_Int_Tables_number   1
_chemical_formula_structural   LaVP3Rh4
_chemical_formula_sum   'La2 V2 P6 Rh8'
_cell_volume   275.33113098
_cell_formula_units_Z   2
loop_
 _symmetry_equiv_pos_site_id
 _symmetry_equiv_pos_as_xyz
  1  'x, y, z'
loop_
 _atom_site_type_symbol
 _atom_site_label
 _atom_site_symmetry_multiplicity
 _atom_site_fract_x
 _atom_site_fract_y
 _atom_site_fract_z
 _atom_site_occupancy
  La  La0  1  0.250000  0.806652  0.785434  1
  La  La1  1  0.750000  0.193330  0.214619  1
  V  V2  1  0.250000  0.312708  0.718984  1
  V  V3  1  0.750000  0.687379  0.280834  1
  P  P4  1  0.250000  0.257920  0.965577  1
  P  P5  1  0.750000  0.742115  0.034281  1
  P  P6  1  0.250000  0.433674  0.338059  1
  P  P7  1  0.750000  0.566195  0.662002  1
  P  P8  1  0.250000  0.895813  0.343493  1
  P  P9  1  0.750000  0.104280  0.656564  1
  Rh  Rh10  1  0.250000  0.533584  0.097667  1
  Rh  Rh11  1  0.750000  0.466452  0.902403  1
  Rh  Rh12  1  0.250000  0.921751  0.098754  1
  Rh  Rh13  1  0.750000  0.078189  0.901290  1
  Rh  Rh14  1  0.250000  0.621720  0.503264  1
  Rh  Rh15  1  0.750000  0.378285  0.496724  1
  Rh  Rh16  1  0.250000  0.131158  0.480030  1
  Rh  Rh17  1  0.750000  0.868792  0.520020  1
