# generated using pymatgen
data_Ba3MnTc2O9
_symmetry_space_group_name_H-M   'P 1'
_cell_length_a   5.91810285
_cell_length_b   5.91810239
_cell_length_c   14.32014443
_cell_angle_alpha   89.85397535
_cell_angle_beta   89.85397611
_cell_angle_gamma   120.00205524
_symmetry_Int_Tables_number   1
_chemical_formula_structural   Ba3MnTc2O9
_chemical_formula_sum   'Ba6 Mn2 Tc4 O18'
_cell_volume   434.33854906
_cell_formula_units_Z   2
loop_
 _symmetry_equiv_pos_site_id
 _symmetry_equiv_pos_as_xyz
  1  'x, y, z'
loop_
 _atom_site_type_symbol
 _atom_site_label
 _atom_site_symmetry_multiplicity
 _atom_site_fract_x
 _atom_site_fract_y
 _atom_site_fract_z
 _atom_site_occupancy
  Ba  Ba0  1  0.334646  0.668889  0.410480  1
  Ba  Ba1  1  0.331111  0.665354  0.089520  1
  Ba  Ba2  1  0.665354  0.331111  0.589520  1
  Ba  Ba3  1  0.668889  0.334646  0.910480  1
  Ba  Ba4  1  0.998635  0.001365  0.250000  1
  Ba  Ba5  1  0.001365  0.998635  0.750000  1
  Mn  Mn6  1  0.000000  0.000000  0.000000  1
  Mn  Mn7  1  0.000000  0.000000  0.500000  1
  Tc  Tc8  1  0.670858  0.338681  0.339716  1
  Tc  Tc9  1  0.661319  0.329142  0.160284  1
  Tc  Tc10  1  0.338681  0.670858  0.839716  1
  Tc  Tc11  1  0.329142  0.661319  0.660284  1
  O  O12  1  0.835573  0.661491  0.409123  1
  O  O13  1  0.338509  0.164427  0.090877  1
  O  O14  1  0.164427  0.338509  0.590877  1
  O  O15  1  0.661491  0.835573  0.909123  1
  O  O16  1  0.359409  0.185735  0.416892  1
  O  O17  1  0.814265  0.640591  0.083108  1
  O  O18  1  0.640591  0.814265  0.583108  1
  O  O19  1  0.185735  0.359409  0.916892  1
  O  O20  1  0.836339  0.186458  0.412919  1
  O  O21  1  0.813542  0.163661  0.087081  1
  O  O22  1  0.163661  0.813542  0.587081  1
  O  O23  1  0.186458  0.836339  0.912919  1
  O  O24  1  0.489870  0.510130  0.750000  1
  O  O25  1  0.510130  0.489870  0.250000  1
  O  O26  1  0.021922  0.510052  0.753529  1
  O  O27  1  0.489948  0.978078  0.746471  1
  O  O28  1  0.978078  0.489948  0.246471  1
  O  O29  1  0.510052  0.021922  0.253529  1
