# generated using pymatgen
data_HoTh3PdPt11
_symmetry_space_group_name_H-M   'P 1'
_cell_length_a   5.93840253
_cell_length_b   5.93840094
_cell_length_c   9.76382600
_cell_angle_alpha   90.00000000
_cell_angle_beta   90.00000000
_cell_angle_gamma   120.08226661
_symmetry_Int_Tables_number   1
_chemical_formula_structural   HoTh3PdPt11
_chemical_formula_sum   'Ho1 Th3 Pd1 Pt11'
_cell_volume   297.94026269
_cell_formula_units_Z   1
loop_
 _symmetry_equiv_pos_site_id
 _symmetry_equiv_pos_as_xyz
  1  'x, y, z'
loop_
 _atom_site_type_symbol
 _atom_site_label
 _atom_site_symmetry_multiplicity
 _atom_site_fract_x
 _atom_site_fract_y
 _atom_site_fract_z
 _atom_site_occupancy
  Ho  Ho0  1  0.333291  0.666709  0.250000  1
  Th  Th1  1  0.999907  0.000093  0.495657  1
  Th  Th2  1  0.999907  0.000093  0.004343  1
  Th  Th3  1  0.667041  0.332959  0.750000  1
  Pd  Pd4  1  0.174225  0.825775  0.750000  1
  Pt  Pt5  1  0.499293  0.500707  0.498746  1
  Pt  Pt6  1  0.499265  0.998674  0.498550  1
  Pt  Pt7  1  0.001326  0.500735  0.498550  1
  Pt  Pt8  1  0.499293  0.500707  0.001254  1
  Pt  Pt9  1  0.499265  0.998674  0.001450  1
  Pt  Pt10  1  0.001326  0.500735  0.001450  1
  Pt  Pt11  1  0.824373  0.648783  0.250000  1
  Pt  Pt12  1  0.351217  0.175627  0.250000  1
  Pt  Pt13  1  0.825090  0.174910  0.250000  1
  Pt  Pt14  1  0.174668  0.349489  0.750000  1
  Pt  Pt15  1  0.650511  0.825332  0.750000  1
