# generated using pymatgen
data_Li3Y4AlAu4
_symmetry_space_group_name_H-M   'P 1'
_cell_length_a   4.42352700
_cell_length_b   7.04165461
_cell_length_c   8.23258683
_cell_angle_alpha   88.44446082
_cell_angle_beta   90.00000000
_cell_angle_gamma   90.00000000
_symmetry_Int_Tables_number   1
_chemical_formula_structural   Li3Y4AlAu4
_chemical_formula_sum   'Li3 Y4 Al1 Au4'
_cell_volume   256.34192815
_cell_formula_units_Z   1
loop_
 _symmetry_equiv_pos_site_id
 _symmetry_equiv_pos_as_xyz
  1  'x, y, z'
loop_
 _atom_site_type_symbol
 _atom_site_label
 _atom_site_symmetry_multiplicity
 _atom_site_fract_x
 _atom_site_fract_y
 _atom_site_fract_z
 _atom_site_occupancy
  Li  Li0  1  0.250000  0.142043  0.935489  1
  Li  Li1  1  0.250000  0.638465  0.561396  1
  Li  Li2  1  0.750000  0.862070  0.060562  1
  Y  Y3  1  0.250000  0.033602  0.317345  1
  Y  Y4  1  0.250000  0.532971  0.189297  1
  Y  Y5  1  0.750000  0.974995  0.682699  1
  Y  Y6  1  0.750000  0.462358  0.812829  1
  Al  Al7  1  0.750000  0.357600  0.439712  1
  Au  Au8  1  0.250000  0.265559  0.611192  1
  Au  Au9  1  0.250000  0.755748  0.879207  1
  Au  Au10  1  0.750000  0.734223  0.387360  1
  Au  Au11  1  0.750000  0.240366  0.122912  1
