# generated using pymatgen
data_Ce3Tm2OsPb3
_symmetry_space_group_name_H-M   'P 1'
_cell_length_a   9.59840205
_cell_length_b   9.49194928
_cell_length_c   6.33290100
_cell_angle_alpha   90.00000000
_cell_angle_beta   90.00000000
_cell_angle_gamma   119.63380113
_symmetry_Int_Tables_number   1
_chemical_formula_structural   Ce3Tm2OsPb3
_chemical_formula_sum   'Ce6 Tm4 Os2 Pb6'
_cell_volume   501.50867801
_cell_formula_units_Z   2
loop_
 _symmetry_equiv_pos_site_id
 _symmetry_equiv_pos_as_xyz
  1  'x, y, z'
loop_
 _atom_site_type_symbol
 _atom_site_label
 _atom_site_symmetry_multiplicity
 _atom_site_fract_x
 _atom_site_fract_y
 _atom_site_fract_z
 _atom_site_occupancy
  Ce  Ce0  1  0.327228  0.663615  0.500000  1
  Ce  Ce1  1  0.672772  0.336385  0.500000  1
  Ce  Ce2  1  0.000000  0.227324  0.250000  1
  Ce  Ce3  1  0.000000  0.772676  0.750000  1
  Ce  Ce4  1  0.327228  0.663615  0.000000  1
  Ce  Ce5  1  0.672772  0.336385  0.000000  1
  Tm  Tm6  1  0.244811  0.241409  0.750000  1
  Tm  Tm7  1  0.755189  0.758591  0.250000  1
  Tm  Tm8  1  0.244811  0.003402  0.250000  1
  Tm  Tm9  1  0.755189  0.996598  0.750000  1
  Os  Os10  1  0.000000  0.000000  0.000000  1
  Os  Os11  1  0.000000  0.000000  0.500000  1
  Pb  Pb12  1  0.400548  0.396728  0.250000  1
  Pb  Pb13  1  0.599452  0.603272  0.750000  1
  Pb  Pb14  1  0.000000  0.390787  0.750000  1
  Pb  Pb15  1  0.599452  0.996180  0.250000  1
  Pb  Pb16  1  0.400548  0.003820  0.750000  1
  Pb  Pb17  1  0.000000  0.609213  0.250000  1
