# generated using pymatgen
data_Er20NiIr7Os4
_symmetry_space_group_name_H-M   'P 1'
_cell_length_a   10.75910617
_cell_length_b   10.75910617
_cell_length_c   6.37062285
_cell_angle_alpha   90.11881228
_cell_angle_beta   90.11881228
_cell_angle_gamma   89.90896062
_symmetry_Int_Tables_number   1
_chemical_formula_structural   Er20NiIr7Os4
_chemical_formula_sum   'Er20 Ni1 Ir7 Os4'
_cell_volume   737.44879094
_cell_formula_units_Z   1
loop_
 _symmetry_equiv_pos_site_id
 _symmetry_equiv_pos_as_xyz
  1  'x, y, z'
loop_
 _atom_site_type_symbol
 _atom_site_label
 _atom_site_symmetry_multiplicity
 _atom_site_fract_x
 _atom_site_fract_y
 _atom_site_fract_z
 _atom_site_occupancy
  Er  Er0  1  0.293008  0.085764  0.376301  1
  Er  Er1  1  0.293196  0.914396  0.875776  1
  Er  Er2  1  0.705771  0.085514  0.875113  1
  Er  Er3  1  0.705910  0.911875  0.377405  1
  Er  Er4  1  0.586137  0.793621  0.876242  1
  Er  Er5  1  0.584675  0.206208  0.376102  1
  Er  Er6  1  0.413770  0.793461  0.376599  1
  Er  Er7  1  0.413952  0.206470  0.876445  1
  Er  Er8  1  0.206379  0.413863  0.623758  1
  Er  Er9  1  0.206539  0.586230  0.123401  1
  Er  Er10  1  0.793792  0.415325  0.123898  1
  Er  Er11  1  0.793530  0.586048  0.623555  1
  Er  Er12  1  0.914236  0.706992  0.123699  1
  Er  Er13  1  0.914486  0.294229  0.624887  1
  Er  Er14  1  0.085604  0.706804  0.624224  1
  Er  Er15  1  0.088125  0.294090  0.122595  1
  Er  Er16  1  0.999038  0.000415  0.499241  1
  Er  Er17  1  0.999585  0.000962  0.000759  1
  Er  Er18  1  0.500146  0.499994  0.999818  1
  Er  Er19  1  0.500006  0.499854  0.500182  1
  Ni  Ni20  1  0.848852  0.151148  0.250000  1
  Ir  Ir21  1  0.848161  0.849249  0.750376  1
  Ir  Ir22  1  0.150751  0.151839  0.749624  1
  Ir  Ir23  1  0.151654  0.848346  0.250000  1
  Ir  Ir24  1  0.653449  0.346551  0.750000  1
  Ir  Ir25  1  0.652290  0.652022  0.250286  1
  Ir  Ir26  1  0.347978  0.347710  0.249714  1
  Ir  Ir27  1  0.347785  0.652215  0.750000  1
  Os  Os28  1  0.500815  0.000223  0.124433  1
  Os  Os29  1  0.500719  0.000116  0.623675  1
  Os  Os30  1  0.999884  0.499281  0.876325  1
  Os  Os31  1  0.999777  0.499185  0.375567  1
