# generated using pymatgen
data_TmNb8CrSe16
_symmetry_space_group_name_H-M   'P 1'
_cell_length_a   6.99881000
_cell_length_b   6.99881064
_cell_length_c   13.49550400
_cell_angle_alpha   90.00000000
_cell_angle_beta   90.00000000
_cell_angle_gamma   119.99999696
_symmetry_Int_Tables_number   1
_chemical_formula_structural   TmNb8CrSe16
_chemical_formula_sum   'Tm1 Nb8 Cr1 Se16'
_cell_volume   572.49038964
_cell_formula_units_Z   1
loop_
 _symmetry_equiv_pos_site_id
 _symmetry_equiv_pos_as_xyz
  1  'x, y, z'
loop_
 _atom_site_type_symbol
 _atom_site_label
 _atom_site_symmetry_multiplicity
 _atom_site_fract_x
 _atom_site_fract_y
 _atom_site_fract_z
 _atom_site_occupancy
  Tm  Tm0  1  0.000000  0.000000  0.500000  1
  Nb  Nb1  1  0.000000  0.000000  0.237118  1
  Nb  Nb2  1  0.000000  0.000000  0.762882  1
  Nb  Nb3  1  0.507536  0.015073  0.235830  1
  Nb  Nb4  1  0.984927  0.492464  0.235830  1
  Nb  Nb5  1  0.507536  0.492464  0.235830  1
  Nb  Nb6  1  0.492464  0.984927  0.764170  1
  Nb  Nb7  1  0.015073  0.507536  0.764170  1
  Nb  Nb8  1  0.492464  0.507536  0.764170  1
  Cr  Cr9  1  0.000000  0.000000  0.000000  1
  Se  Se10  1  0.333333  0.666667  0.892157  1
  Se  Se11  1  0.666667  0.333333  0.107843  1
  Se  Se12  1  0.666667  0.333333  0.365590  1
  Se  Se13  1  0.333333  0.666667  0.634410  1
  Se  Se14  1  0.169926  0.830074  0.360350  1
  Se  Se15  1  0.169926  0.339853  0.360350  1
  Se  Se16  1  0.660147  0.830074  0.360350  1
  Se  Se17  1  0.830074  0.169926  0.639650  1
  Se  Se18  1  0.830074  0.660147  0.639650  1
  Se  Se19  1  0.339853  0.169926  0.639650  1
  Se  Se20  1  0.832623  0.167377  0.886689  1
  Se  Se21  1  0.832623  0.665248  0.886689  1
  Se  Se22  1  0.334752  0.167377  0.886689  1
  Se  Se23  1  0.167377  0.832623  0.113311  1
  Se  Se24  1  0.167377  0.334752  0.113311  1
  Se  Se25  1  0.665248  0.832623  0.113311  1
