# generated using pymatgen
data_Cs2CuNi(PS4)2
_symmetry_space_group_name_H-M   'P 1'
_cell_length_a   8.58174567
_cell_length_b   8.58174492
_cell_length_c   8.66875614
_cell_angle_alpha   119.08193554
_cell_angle_beta   119.08192835
_cell_angle_gamma   91.03275294
_symmetry_Int_Tables_number   1
_chemical_formula_structural   Cs2CuNi(PS4)2
_chemical_formula_sum   'Cs2 Cu1 Ni1 P2 S8'
_cell_volume   459.77502469
_cell_formula_units_Z   1
loop_
 _symmetry_equiv_pos_site_id
 _symmetry_equiv_pos_as_xyz
  1  'x, y, z'
loop_
 _atom_site_type_symbol
 _atom_site_label
 _atom_site_symmetry_multiplicity
 _atom_site_fract_x
 _atom_site_fract_y
 _atom_site_fract_z
 _atom_site_occupancy
  Cs  Cs0  1  0.250000  0.250000  0.000000  1
  Cs  Cs1  1  0.750000  0.750000  0.000000  1
  Cu  Cu2  1  0.500001  0.000000  0.500001  1
  Ni  Ni3  1  0.000000  0.500001  0.500001  1
  P  P4  1  0.750720  0.250720  0.500001  1
  P  P5  1  0.249280  0.749280  0.500001  1
  S  S6  1  0.515501  0.015501  0.247110  1
  S  S7  1  0.231609  0.731610  0.247110  1
  S  S8  1  0.990713  0.242242  0.499999  1
  S  S9  1  0.742243  0.490713  0.500001  1
  S  S10  1  0.257758  0.509287  0.500001  1
  S  S11  1  0.009287  0.757757  0.499999  1
  S  S12  1  0.768390  0.268391  0.752890  1
  S  S13  1  0.484499  0.984499  0.752890  1
