# generated using pymatgen
data_Li6AlGa5Pt12
_symmetry_space_group_name_H-M   'P 1'
_cell_length_a   4.06863707
_cell_length_b   6.66185522
_cell_length_c   12.20205300
_cell_angle_alpha   89.99986239
_cell_angle_beta   90.01064622
_cell_angle_gamma   90.01461240
_symmetry_Int_Tables_number   1
_chemical_formula_structural   Li6AlGa5Pt12
_chemical_formula_sum   'Li6 Al1 Ga5 Pt12'
_cell_volume   330.73261673
_cell_formula_units_Z   1
loop_
 _symmetry_equiv_pos_site_id
 _symmetry_equiv_pos_as_xyz
  1  'x, y, z'
loop_
 _atom_site_type_symbol
 _atom_site_label
 _atom_site_symmetry_multiplicity
 _atom_site_fract_x
 _atom_site_fract_y
 _atom_site_fract_z
 _atom_site_occupancy
  Li  Li0  1  0.999999  0.000004  0.000001  1
  Li  Li1  1  0.499889  0.500000  0.167269  1
  Li  Li2  1  0.999860  0.000001  0.333661  1
  Li  Li3  1  0.499997  0.499994  0.500000  1
  Li  Li4  1  0.000133  0.000009  0.666342  1
  Li  Li5  1  0.500118  0.499994  0.832726  1
  Al  Al6  1  0.999999  0.500000  0.999997  1
  Ga  Ga7  1  0.499912  0.000000  0.166877  1
  Ga  Ga8  1  0.999907  0.500001  0.333844  1
  Ga  Ga9  1  0.500000  0.999999  0.499999  1
  Ga  Ga10  1  0.000092  0.500002  0.666157  1
  Ga  Ga11  1  0.500089  0.000000  0.833125  1
  Pt  Pt12  1  0.499995  0.253670  0.000001  1
  Pt  Pt13  1  0.500005  0.746333  0.000000  1
  Pt  Pt14  1  0.999937  0.252139  0.165835  1
  Pt  Pt15  1  0.999924  0.747863  0.165834  1
  Pt  Pt16  1  0.499912  0.250044  0.333199  1
  Pt  Pt17  1  0.499936  0.749958  0.333200  1
  Pt  Pt18  1  0.000006  0.249776  0.500001  1
  Pt  Pt19  1  0.999995  0.750223  0.500001  1
  Pt  Pt20  1  0.500069  0.250039  0.666800  1
  Pt  Pt21  1  0.500084  0.749961  0.666800  1
  Pt  Pt22  1  0.000080  0.252134  0.834164  1
  Pt  Pt23  1  0.000062  0.747866  0.834164  1
