# generated using pymatgen
data_Ta2Be2SiRu5
_symmetry_space_group_name_H-M   'P 1'
_cell_length_a   9.28761300
_cell_length_b   9.28761300
_cell_length_c   3.05144800
_cell_angle_alpha   90.00000000
_cell_angle_beta   90.00000000
_cell_angle_gamma   90.00000000
_symmetry_Int_Tables_number   1
_chemical_formula_structural   Ta2Be2SiRu5
_chemical_formula_sum   'Ta4 Be4 Si2 Ru10'
_cell_volume   263.21715760
_cell_formula_units_Z   2
loop_
 _symmetry_equiv_pos_site_id
 _symmetry_equiv_pos_as_xyz
  1  'x, y, z'
loop_
 _atom_site_type_symbol
 _atom_site_label
 _atom_site_symmetry_multiplicity
 _atom_site_fract_x
 _atom_site_fract_y
 _atom_site_fract_z
 _atom_site_occupancy
  Ta  Ta0  1  0.827089  0.672911  0.000000  1
  Ta  Ta1  1  0.172911  0.327089  0.000000  1
  Ta  Ta2  1  0.327089  0.827089  0.000000  1
  Ta  Ta3  1  0.672911  0.172911  0.000000  1
  Be  Be4  1  0.625120  0.874880  0.000000  1
  Be  Be5  1  0.374880  0.125120  0.000000  1
  Be  Be6  1  0.125120  0.625120  0.000000  1
  Be  Be7  1  0.874880  0.374880  0.000000  1
  Si  Si8  1  0.500000  0.500000  0.000000  1
  Si  Si9  1  0.000000  0.000000  0.000000  1
  Ru  Ru10  1  0.566843  0.704270  0.500000  1
  Ru  Ru11  1  0.433157  0.295730  0.500000  1
  Ru  Ru12  1  0.066843  0.795730  0.500000  1
  Ru  Ru13  1  0.933157  0.204270  0.500000  1
  Ru  Ru14  1  0.295730  0.566843  0.500000  1
  Ru  Ru15  1  0.704270  0.433157  0.500000  1
  Ru  Ru16  1  0.204270  0.066843  0.500000  1
  Ru  Ru17  1  0.795730  0.933157  0.500000  1
  Ru  Ru18  1  0.500000  0.000000  0.500000  1
  Ru  Ru19  1  0.000000  0.500000  0.500000  1
