# generated using pymatgen
data_Pa2Co3Si5
_symmetry_space_group_name_H-M   'P 1'
_cell_length_a   7.85346024
_cell_length_b   7.85346063
_cell_length_c   7.85346063
_cell_angle_alpha   137.86345155
_cell_angle_beta   104.94864227
_cell_angle_gamma   90.02858419
_symmetry_Int_Tables_number   1
_chemical_formula_structural   Pa2Co3Si5
_chemical_formula_sum   'Pa4 Co6 Si10'
_cell_volume   299.91309116
_cell_formula_units_Z   2
loop_
 _symmetry_equiv_pos_site_id
 _symmetry_equiv_pos_as_xyz
  1  'x, y, z'
loop_
 _atom_site_type_symbol
 _atom_site_label
 _atom_site_symmetry_multiplicity
 _atom_site_fract_x
 _atom_site_fract_y
 _atom_site_fract_z
 _atom_site_occupancy
  Pa  Pa0  1  0.867247  0.633928  0.233319  1
  Pa  Pa1  1  0.132753  0.366072  0.766681  1
  Pa  Pa2  1  0.599391  0.866072  0.733319  1
  Pa  Pa3  1  0.400609  0.133928  0.266681  1
  Co  Co4  1  0.000000  0.250000  0.250000  1
  Co  Co5  1  0.754297  0.139398  0.614900  1
  Co  Co6  1  0.524498  0.639398  0.885100  1
  Co  Co7  1  0.475502  0.360602  0.114900  1
  Co  Co8  1  0.000000  0.750000  0.750000  1
  Co  Co9  1  0.245703  0.860602  0.385100  1
  Si  Si10  1  0.046993  0.895510  0.151483  1
  Si  Si11  1  0.953007  0.104490  0.848517  1
  Si  Si12  1  0.255973  0.604490  0.651483  1
  Si  Si13  1  0.744027  0.395510  0.348517  1
  Si  Si14  1  0.229494  0.979494  0.750000  1
  Si  Si15  1  0.770506  0.520506  0.750000  1
  Si  Si16  1  0.770506  0.020506  0.250000  1
  Si  Si17  1  0.500000  0.250000  0.750000  1
  Si  Si18  1  0.500000  0.750000  0.250000  1
  Si  Si19  1  0.229494  0.479494  0.250000  1
