# generated using pymatgen
data_Co6Si2TcMo3
_symmetry_space_group_name_H-M   'P 1'
_cell_length_a   4.75798700
_cell_length_b   4.75798572
_cell_length_c   7.38533500
_cell_angle_alpha   90.00000000
_cell_angle_beta   90.00000000
_cell_angle_gamma   119.99998805
_symmetry_Int_Tables_number   1
_chemical_formula_structural   Co6Si2TcMo3
_chemical_formula_sum   'Co6 Si2 Tc1 Mo3'
_cell_volume   144.79290085
_cell_formula_units_Z   1
loop_
 _symmetry_equiv_pos_site_id
 _symmetry_equiv_pos_as_xyz
  1  'x, y, z'
loop_
 _atom_site_type_symbol
 _atom_site_label
 _atom_site_symmetry_multiplicity
 _atom_site_fract_x
 _atom_site_fract_y
 _atom_site_fract_z
 _atom_site_occupancy
  Co  Co0  1  0.829081  0.170919  0.249067  1
  Co  Co1  1  0.829081  0.658163  0.249067  1
  Co  Co2  1  0.341837  0.170919  0.249067  1
  Co  Co3  1  0.171814  0.828186  0.750232  1
  Co  Co4  1  0.171814  0.343627  0.750232  1
  Co  Co5  1  0.656373  0.828186  0.750232  1
  Si  Si6  1  0.000000  0.000000  0.499918  1
  Si  Si7  1  0.000000  0.000000  0.998613  1
  Tc  Tc8  1  0.333333  0.666667  0.435064  1
  Mo  Mo9  1  0.666667  0.333333  0.565511  1
  Mo  Mo10  1  0.666667  0.333333  0.930404  1
  Mo  Mo11  1  0.333333  0.666667  0.072592  1
