# generated using pymatgen
data_CsMnNb3Cl11
_symmetry_space_group_name_H-M   'P 1'
_cell_length_a   6.95418700
_cell_length_b   13.69658300
_cell_length_c   17.33412300
_cell_angle_alpha   90.00000000
_cell_angle_beta   90.00000000
_cell_angle_gamma   90.00000000
_symmetry_Int_Tables_number   1
_chemical_formula_structural   CsMnNb3Cl11
_chemical_formula_sum   'Cs4 Mn4 Nb12 Cl44'
_cell_volume   1651.05093832
_cell_formula_units_Z   4
loop_
 _symmetry_equiv_pos_site_id
 _symmetry_equiv_pos_as_xyz
  1  'x, y, z'
loop_
 _atom_site_type_symbol
 _atom_site_label
 _atom_site_symmetry_multiplicity
 _atom_site_fract_x
 _atom_site_fract_y
 _atom_site_fract_z
 _atom_site_occupancy
  Cs  Cs0  1  0.250000  0.997425  0.259338  1
  Cs  Cs1  1  0.750000  0.002575  0.740662  1
  Cs  Cs2  1  0.750000  0.502575  0.759338  1
  Cs  Cs3  1  0.250000  0.497425  0.240662  1
  Mn  Mn4  1  0.250000  0.678863  0.837722  1
  Mn  Mn5  1  0.750000  0.321137  0.162278  1
  Mn  Mn6  1  0.750000  0.821137  0.337722  1
  Mn  Mn7  1  0.250000  0.178863  0.662278  1
  Nb  Nb8  1  0.044123  0.747492  0.512739  1
  Nb  Nb9  1  0.955877  0.252508  0.487261  1
  Nb  Nb10  1  0.955877  0.752508  0.012739  1
  Nb  Nb11  1  0.544123  0.252508  0.487261  1
  Nb  Nb12  1  0.044123  0.247492  0.987261  1
  Nb  Nb13  1  0.455877  0.747492  0.512739  1
  Nb  Nb14  1  0.455877  0.247492  0.987261  1
  Nb  Nb15  1  0.544123  0.752508  0.012739  1
  Nb  Nb16  1  0.250000  0.690712  0.646240  1
  Nb  Nb17  1  0.750000  0.309288  0.353760  1
  Nb  Nb18  1  0.750000  0.809288  0.146240  1
  Nb  Nb19  1  0.250000  0.190712  0.853760  1
  Cl  Cl20  1  0.250000  0.824047  0.930595  1
  Cl  Cl21  1  0.750000  0.175953  0.069405  1
  Cl  Cl22  1  0.750000  0.675953  0.430595  1
  Cl  Cl23  1  0.250000  0.324047  0.569405  1
  Cl  Cl24  1  0.250000  0.856031  0.589970  1
  Cl  Cl25  1  0.750000  0.143969  0.410030  1
  Cl  Cl26  1  0.750000  0.643969  0.089970  1
  Cl  Cl27  1  0.250000  0.356031  0.910030  1
  Cl  Cl28  1  0.010518  0.755063  0.743679  1
  Cl  Cl29  1  0.989482  0.244937  0.256321  1
  Cl  Cl30  1  0.989482  0.744937  0.243679  1
  Cl  Cl31  1  0.510518  0.244937  0.256321  1
  Cl  Cl32  1  0.010518  0.255063  0.756321  1
  Cl  Cl33  1  0.489482  0.755063  0.743679  1
  Cl  Cl34  1  0.489482  0.255063  0.756321  1
  Cl  Cl35  1  0.510518  0.744937  0.243679  1
  Cl  Cl36  1  0.506286  0.609620  0.922362  1
  Cl  Cl37  1  0.493714  0.390380  0.077638  1
  Cl  Cl38  1  0.493714  0.890380  0.422362  1
  Cl  Cl39  1  0.006286  0.390380  0.077638  1
  Cl  Cl40  1  0.506286  0.109620  0.577638  1
  Cl  Cl41  1  0.993714  0.609620  0.922362  1
  Cl  Cl42  1  0.993714  0.109620  0.577638  1
  Cl  Cl43  1  0.006286  0.890380  0.422362  1
  Cl  Cl44  1  0.250000  0.541815  0.742637  1
  Cl  Cl45  1  0.750000  0.458185  0.257363  1
  Cl  Cl46  1  0.750000  0.958185  0.242637  1
  Cl  Cl47  1  0.250000  0.041815  0.757363  1
  Cl  Cl48  1  0.005772  0.591174  0.580761  1
  Cl  Cl49  1  0.994228  0.408826  0.419239  1
  Cl  Cl50  1  0.994228  0.908826  0.080761  1
  Cl  Cl51  1  0.505772  0.408826  0.419239  1
  Cl  Cl52  1  0.005772  0.091174  0.919239  1
  Cl  Cl53  1  0.494228  0.591174  0.580761  1
  Cl  Cl54  1  0.494228  0.091174  0.919239  1
  Cl  Cl55  1  0.505772  0.908826  0.080761  1
  Cl  Cl56  1  0.250000  0.160752  0.080120  1
  Cl  Cl57  1  0.750000  0.839248  0.919880  1
  Cl  Cl58  1  0.750000  0.339248  0.580120  1
  Cl  Cl59  1  0.250000  0.660752  0.419880  1
  Cl  Cl60  1  0.250000  0.680484  0.083522  1
  Cl  Cl61  1  0.750000  0.319516  0.916478  1
  Cl  Cl62  1  0.750000  0.819516  0.583522  1
  Cl  Cl63  1  0.250000  0.180484  0.416478  1
