# generated using pymatgen
data_Dy9Er3Co4OsPb
_symmetry_space_group_name_H-M   'P 1'
_cell_length_a   8.30516726
_cell_length_b   8.30785453
_cell_length_c   8.30785438
_cell_angle_alpha   111.39833291
_cell_angle_beta   110.62623851
_cell_angle_gamma   106.44444241
_symmetry_Int_Tables_number   1
_chemical_formula_structural   Dy9Er3Co4OsPb
_chemical_formula_sum   'Dy9 Er3 Co4 Os1 Pb1'
_cell_volume   440.26076307
_cell_formula_units_Z   1
loop_
 _symmetry_equiv_pos_site_id
 _symmetry_equiv_pos_as_xyz
  1  'x, y, z'
loop_
 _atom_site_type_symbol
 _atom_site_label
 _atom_site_symmetry_multiplicity
 _atom_site_fract_x
 _atom_site_fract_y
 _atom_site_fract_z
 _atom_site_occupancy
  Dy  Dy0  1  0.976530  0.782562  0.193969  1
  Dy  Dy1  1  0.181440  0.281571  0.462552  1
  Dy  Dy2  1  0.818890  0.719263  0.538450  1
  Dy  Dy3  1  0.181440  0.718887  0.899870  1
  Dy  Dy4  1  0.818890  0.280441  0.099626  1
  Dy  Dy5  1  0.314126  0.621567  0.308375  1
  Dy  Dy6  1  0.685802  0.377839  0.691289  1
  Dy  Dy7  1  0.314126  0.005751  0.692559  1
  Dy  Dy8  1  0.685802  0.994514  0.307963  1
  Er  Er9  1  0.411129  0.217181  0.193949  1
  Er  Er10  1  0.588381  0.782981  0.805399  1
  Er  Er11  1  0.022851  0.217056  0.805794  1
  Co  Co12  1  0.377453  0.000361  0.377091  1
  Co  Co13  1  0.623297  0.999864  0.623432  1
  Co  Co14  1  0.111577  0.610956  0.500621  1
  Co  Co15  1  0.889053  0.388945  0.500108  1
  Os  Os16  1  0.999928  0.000609  0.999319  1
  Pb  Pb17  1  0.499281  0.499651  0.999631  1
