# generated using pymatgen
data_Na4Ni3IrO8
_symmetry_space_group_name_H-M   'P 1'
_cell_length_a   6.35755604
_cell_length_b   6.35755651
_cell_length_c   6.35755611
_cell_angle_alpha   58.14515446
_cell_angle_beta   58.14514942
_cell_angle_gamma   58.14515306
_symmetry_Int_Tables_number   1
_chemical_formula_structural   Na4Ni3IrO8
_chemical_formula_sum   'Na4 Ni3 Ir1 O8'
_cell_volume   173.97537522
_cell_formula_units_Z   1
loop_
 _symmetry_equiv_pos_site_id
 _symmetry_equiv_pos_as_xyz
  1  'x, y, z'
loop_
 _atom_site_type_symbol
 _atom_site_label
 _atom_site_symmetry_multiplicity
 _atom_site_fract_x
 _atom_site_fract_y
 _atom_site_fract_z
 _atom_site_occupancy
  Na  Na0  1  0.500000  0.500000  0.000000  1
  Na  Na1  1  0.000000  0.500000  0.500000  1
  Na  Na2  1  0.000000  0.000000  0.000000  1
  Na  Na3  1  0.500000  0.000000  0.500000  1
  Ni  Ni4  1  0.000000  0.000000  0.500000  1
  Ni  Ni5  1  0.500000  0.000000  0.000000  1
  Ni  Ni6  1  0.000000  0.500000  0.000000  1
  Ir  Ir7  1  0.500000  0.500000  0.500000  1
  O  O8  1  0.275344  0.275344  0.745145  1
  O  O9  1  0.724656  0.724656  0.254855  1
  O  O10  1  0.745145  0.275344  0.275344  1
  O  O11  1  0.254855  0.724656  0.724656  1
  O  O12  1  0.229256  0.229256  0.229256  1
  O  O13  1  0.770744  0.770744  0.770744  1
  O  O14  1  0.275344  0.745145  0.275344  1
  O  O15  1  0.724656  0.254855  0.724656  1
