# generated using pymatgen
data_K4Sr2HfSb4
_symmetry_space_group_name_H-M   'P 1'
_cell_length_a   11.04389635
_cell_length_b   11.04389772
_cell_length_c   8.34568323
_cell_angle_alpha   88.08139187
_cell_angle_beta   88.08138374
_cell_angle_gamma   119.60465981
_symmetry_Int_Tables_number   1
_chemical_formula_structural   K4Sr2HfSb4
_chemical_formula_sum   'K8 Sr4 Hf2 Sb8'
_cell_volume   883.05827143
_cell_formula_units_Z   2
loop_
 _symmetry_equiv_pos_site_id
 _symmetry_equiv_pos_as_xyz
  1  'x, y, z'
loop_
 _atom_site_type_symbol
 _atom_site_label
 _atom_site_symmetry_multiplicity
 _atom_site_fract_x
 _atom_site_fract_y
 _atom_site_fract_z
 _atom_site_occupancy
  K  K0  1  0.475401  0.943582  0.383086  1
  K  K1  1  0.943582  0.475401  0.883086  1
  K  K2  1  0.864604  0.719882  0.171293  1
  K  K3  1  0.269764  0.127682  0.235946  1
  K  K4  1  0.854781  0.139469  0.199348  1
  K  K5  1  0.127682  0.269764  0.735946  1
  K  K6  1  0.719882  0.864604  0.671293  1
  K  K7  1  0.139469  0.854781  0.699348  1
  Sr  Sr8  1  0.066479  0.530832  0.391201  1
  Sr  Sr9  1  0.476773  0.528412  0.376158  1
  Sr  Sr10  1  0.530832  0.066479  0.891201  1
  Sr  Sr11  1  0.528412  0.476773  0.876158  1
  Hf  Hf12  1  0.664858  0.335475  0.490996  1
  Hf  Hf13  1  0.335475  0.664858  0.990996  1
  Sb  Sb14  1  0.643657  0.330249  0.154894  1
  Sb  Sb15  1  0.330249  0.643657  0.654894  1
  Sb  Sb16  1  0.205665  0.392572  0.132161  1
  Sb  Sb17  1  0.613464  0.802066  0.077961  1
  Sb  Sb18  1  0.204836  0.809613  0.100987  1
  Sb  Sb19  1  0.802066  0.613464  0.577961  1
  Sb  Sb20  1  0.392572  0.205665  0.632161  1
  Sb  Sb21  1  0.809613  0.204836  0.600987  1
