# generated using pymatgen
data_ThGa2Ir3
_symmetry_space_group_name_H-M   'P 1'
_cell_length_a   5.60693500
_cell_length_b   5.60693376
_cell_length_c   3.92096400
_cell_angle_alpha   90.00000000
_cell_angle_beta   90.00000000
_cell_angle_gamma   120.00000144
_symmetry_Int_Tables_number   1
_chemical_formula_structural   ThGa2Ir3
_chemical_formula_sum   'Th1 Ga2 Ir3'
_cell_volume   106.75160832
_cell_formula_units_Z   1
loop_
 _symmetry_equiv_pos_site_id
 _symmetry_equiv_pos_as_xyz
  1  'x, y, z'
loop_
 _atom_site_type_symbol
 _atom_site_label
 _atom_site_symmetry_multiplicity
 _atom_site_fract_x
 _atom_site_fract_y
 _atom_site_fract_z
 _atom_site_occupancy
  Th  Th0  1  0.000000  0.000000  0.000000  1
  Ga  Ga1  1  0.666666  0.333334  0.000000  1
  Ga  Ga2  1  0.333333  0.666666  0.000000  1
  Ir  Ir3  1  0.499999  0.000000  0.499999  1
  Ir  Ir4  1  0.000000  0.500000  0.499999  1
  Ir  Ir5  1  0.500000  0.500000  0.499999  1
