# generated using pymatgen
data_TmLu9(Ir2Os)2
_symmetry_space_group_name_H-M   'P 1'
_cell_length_a   10.63845200
_cell_length_b   10.63971000
_cell_length_c   6.30284600
_cell_angle_alpha   90.00001448
_cell_angle_beta   89.99776164
_cell_angle_gamma   90.00023696
_symmetry_Int_Tables_number   1
_chemical_formula_structural   TmLu9(Ir2Os)2
_chemical_formula_sum   'Tm2 Lu18 Ir8 Os4'
_cell_volume   713.41941660
_cell_formula_units_Z   2
loop_
 _symmetry_equiv_pos_site_id
 _symmetry_equiv_pos_as_xyz
  1  'x, y, z'
loop_
 _atom_site_type_symbol
 _atom_site_label
 _atom_site_symmetry_multiplicity
 _atom_site_fract_x
 _atom_site_fract_y
 _atom_site_fract_z
 _atom_site_occupancy
  Tm  Tm0  1  0.086214  0.706525  0.623974  1
  Tm  Tm1  1  0.086213  0.293475  0.123972  1
  Lu  Lu2  1  0.293785  0.086078  0.376372  1
  Lu  Lu3  1  0.293785  0.913921  0.876373  1
  Lu  Lu4  1  0.706259  0.086147  0.876251  1
  Lu  Lu5  1  0.706258  0.913853  0.376250  1
  Lu  Lu6  1  0.586143  0.793744  0.876252  1
  Lu  Lu7  1  0.586143  0.206256  0.376252  1
  Lu  Lu8  1  0.413893  0.793738  0.376239  1
  Lu  Lu9  1  0.413893  0.206261  0.876241  1
  Lu  Lu10  1  0.206398  0.413787  0.623737  1
  Lu  Lu11  1  0.206399  0.586213  0.123736  1
  Lu  Lu12  1  0.793573  0.413895  0.123744  1
  Lu  Lu13  1  0.793574  0.586105  0.623744  1
  Lu  Lu14  1  0.913758  0.706328  0.123752  1
  Lu  Lu15  1  0.913758  0.293674  0.623753  1
  Lu  Lu16  1  0.999925  0.000112  0.499987  1
  Lu  Lu17  1  0.999924  0.999888  0.999988  1
  Lu  Lu18  1  0.500016  0.500016  0.000007  1
  Lu  Lu19  1  0.500015  0.499983  0.500006  1
  Ir  Ir20  1  0.847323  0.152362  0.250117  1
  Ir  Ir21  1  0.847320  0.847639  0.750122  1
  Ir  Ir22  1  0.152590  0.152300  0.749405  1
  Ir  Ir23  1  0.152591  0.847703  0.249399  1
  Ir  Ir24  1  0.652492  0.347527  0.749979  1
  Ir  Ir25  1  0.652490  0.652473  0.249976  1
  Ir  Ir26  1  0.347811  0.347584  0.250168  1
  Ir  Ir27  1  0.347812  0.652419  0.750168  1
  Os  Os28  1  0.499998  0.000000  0.123129  1
  Os  Os29  1  0.499997  0.999998  0.623134  1
  Os  Os30  1  0.999825  0.500069  0.876885  1
  Os  Os31  1  0.999824  0.499928  0.376890  1
