# generated using pymatgen
data_Nd3YIn2Ir3
_symmetry_space_group_name_H-M   'P 1'
_cell_length_a   7.58610300
_cell_length_b   7.68825627
_cell_length_c   4.20643600
_cell_angle_alpha   90.00000000
_cell_angle_beta   90.00000000
_cell_angle_gamma   119.56144118
_symmetry_Int_Tables_number   1
_chemical_formula_structural   Nd3YIn2Ir3
_chemical_formula_sum   'Nd3 Y1 In2 Ir3'
_cell_volume   213.39971169
_cell_formula_units_Z   1
loop_
 _symmetry_equiv_pos_site_id
 _symmetry_equiv_pos_as_xyz
  1  'x, y, z'
loop_
 _atom_site_type_symbol
 _atom_site_label
 _atom_site_symmetry_multiplicity
 _atom_site_fract_x
 _atom_site_fract_y
 _atom_site_fract_z
 _atom_site_occupancy
  Nd  Nd0  1  0.612164  0.000000  0.500000  1
  Nd  Nd1  1  0.415711  0.435832  0.500000  1
  Nd  Nd2  1  0.979879  0.564168  0.500000  1
  Y  Y3  1  0.243108  0.000000  0.000000  1
  In  In4  1  0.752496  0.745838  0.000000  1
  In  In5  1  0.006657  0.254162  0.000000  1
  Ir  Ir6  1  0.994843  0.000000  0.500000  1
  Ir  Ir7  1  0.332582  0.670024  0.000000  1
  Ir  Ir8  1  0.662560  0.329976  0.000000  1
