# generated using pymatgen
data_PrNd7(Hf3Sn4)4
_symmetry_space_group_name_H-M   'P 1'
_cell_length_a   7.88729704
_cell_length_b   7.93418909
_cell_length_c   14.90398700
_cell_angle_alpha   89.99237422
_cell_angle_beta   89.99404326
_cell_angle_gamma   89.99568082
_symmetry_Int_Tables_number   1
_chemical_formula_structural   PrNd7(Hf3Sn4)4
_chemical_formula_sum   'Pr1 Nd7 Hf12 Sn16'
_cell_volume   932.68114964
_cell_formula_units_Z   1
loop_
 _symmetry_equiv_pos_site_id
 _symmetry_equiv_pos_as_xyz
  1  'x, y, z'
loop_
 _atom_site_type_symbol
 _atom_site_label
 _atom_site_symmetry_multiplicity
 _atom_site_fract_x
 _atom_site_fract_y
 _atom_site_fract_z
 _atom_site_occupancy
  Pr  Pr0  1  0.009091  0.174022  0.906931  1
  Nd  Nd1  1  0.509248  0.325844  0.906721  1
  Nd  Nd2  1  0.009239  0.174225  0.593269  1
  Nd  Nd3  1  0.490769  0.674198  0.406653  1
  Nd  Nd4  1  0.990825  0.825766  0.093434  1
  Nd  Nd5  1  0.490766  0.674143  0.093440  1
  Nd  Nd6  1  0.990759  0.825793  0.406660  1
  Nd  Nd7  1  0.509202  0.325807  0.593154  1
  Hf  Hf8  1  0.344504  0.837041  0.870347  1
  Hf  Hf9  1  0.844352  0.662875  0.629466  1
  Hf  Hf10  1  0.655617  0.162872  0.370383  1
  Hf  Hf11  1  0.155762  0.337277  0.129707  1
  Hf  Hf12  1  0.655670  0.162879  0.129658  1
  Hf  Hf13  1  0.155640  0.337137  0.370391  1
  Hf  Hf14  1  0.344477  0.837060  0.629522  1
  Hf  Hf15  1  0.844349  0.662728  0.870390  1
  Hf  Hf16  1  0.166953  0.510636  0.749924  1
  Hf  Hf17  1  0.666866  0.989354  0.749934  1
  Hf  Hf18  1  0.833081  0.489488  0.250040  1
  Hf  Hf19  1  0.333094  0.010564  0.250057  1
  Sn  Sn20  1  0.319545  0.043164  0.044632  1
  Sn  Sn21  1  0.819026  0.456660  0.455586  1
  Sn  Sn22  1  0.680998  0.956704  0.544279  1
  Sn  Sn23  1  0.181232  0.543793  0.955719  1
  Sn  Sn24  1  0.680179  0.956204  0.955763  1
  Sn  Sn25  1  0.180981  0.543265  0.544314  1
  Sn  Sn26  1  0.319044  0.043356  0.455617  1
  Sn  Sn27  1  0.818822  0.457040  0.044597  1
  Sn  Sn28  1  0.539911  0.623983  0.749948  1
  Sn  Sn29  1  0.039995  0.875686  0.749813  1
  Sn  Sn30  1  0.460064  0.375958  0.250063  1
  Sn  Sn31  1  0.960062  0.124086  0.250052  1
  Sn  Sn32  1  0.313743  0.148519  0.749811  1
  Sn  Sn33  1  0.812974  0.351886  0.749656  1
  Sn  Sn34  1  0.686585  0.851487  0.250028  1
  Sn  Sn35  1  0.186576  0.648498  0.250037  1
