# generated using pymatgen
data_Tb2DyCd3Pd2
_symmetry_space_group_name_H-M   'P 1'
_cell_length_a   7.62334300
_cell_length_b   7.64999281
_cell_length_c   3.70730200
_cell_angle_alpha   90.00000000
_cell_angle_beta   90.00000000
_cell_angle_gamma   120.11570918
_symmetry_Int_Tables_number   1
_chemical_formula_structural   Tb2DyCd3Pd2
_chemical_formula_sum   'Tb2 Dy1 Cd3 Pd2'
_cell_volume   187.01977566
_cell_formula_units_Z   1
loop_
 _symmetry_equiv_pos_site_id
 _symmetry_equiv_pos_as_xyz
  1  'x, y, z'
loop_
 _atom_site_type_symbol
 _atom_site_label
 _atom_site_symmetry_multiplicity
 _atom_site_fract_x
 _atom_site_fract_y
 _atom_site_fract_z
 _atom_site_occupancy
  Tb  Tb0  1  0.580973  0.999686  0.500000  1
  Tb  Tb1  1  0.419026  0.418713  0.500000  1
  Dy  Dy2  1  0.000000  0.580791  0.500000  1
  Cd  Cd3  1  0.228864  0.999411  0.000000  1
  Cd  Cd4  1  0.000000  0.230780  0.000000  1
  Cd  Cd5  1  0.771136  0.770546  0.000000  1
  Pd  Pd6  1  0.667260  0.333666  0.000000  1
  Pd  Pd7  1  0.332740  0.666406  0.000000  1
