# generated using pymatgen
data_Zr3FeSi3
_symmetry_space_group_name_H-M   'P 1'
_cell_length_a   5.34236031
_cell_length_b   5.34236104
_cell_length_c   12.90591494
_cell_angle_alpha   70.94187494
_cell_angle_beta   70.94187281
_cell_angle_gamma   42.51652052
_symmetry_Int_Tables_number   1
_chemical_formula_structural   Zr3FeSi3
_chemical_formula_sum   'Zr6 Fe2 Si6'
_cell_volume   233.14976696
_cell_formula_units_Z   2
loop_
 _symmetry_equiv_pos_site_id
 _symmetry_equiv_pos_as_xyz
  1  'x, y, z'
loop_
 _atom_site_type_symbol
 _atom_site_label
 _atom_site_symmetry_multiplicity
 _atom_site_fract_x
 _atom_site_fract_y
 _atom_site_fract_z
 _atom_site_occupancy
  Zr  Zr0  1  0.746379  0.746379  0.773739  1
  Zr  Zr1  1  0.253621  0.253621  0.226261  1
  Zr  Zr2  1  0.524455  0.524455  0.619711  1
  Zr  Zr3  1  0.475545  0.475545  0.380289  1
  Zr  Zr4  1  0.396072  0.396072  0.918553  1
  Zr  Zr5  1  0.603928  0.603928  0.081447  1
  Fe  Fe6  1  0.760764  0.760764  0.413332  1
  Fe  Fe7  1  0.239236  0.239236  0.586668  1
  Si  Si8  1  0.136561  0.136561  0.450722  1
  Si  Si9  1  0.863439  0.863439  0.549278  1
  Si  Si10  1  0.115683  0.115683  0.925579  1
  Si  Si11  1  0.884317  0.884317  0.074421  1
  Si  Si12  1  0.043697  0.043697  0.760621  1
  Si  Si13  1  0.956303  0.956303  0.239379  1
