# generated using pymatgen
data_Cd21AgPd4
_symmetry_space_group_name_H-M   'P 1'
_cell_length_a   8.82789406
_cell_length_b   8.83066572
_cell_length_c   8.83066417
_cell_angle_alpha   109.47757621
_cell_angle_beta   109.46486209
_cell_angle_gamma   109.46486689
_symmetry_Int_Tables_number   1
_chemical_formula_structural   Cd21AgPd4
_chemical_formula_sum   'Cd21 Ag1 Pd4'
_cell_volume   529.97587036
_cell_formula_units_Z   1
loop_
 _symmetry_equiv_pos_site_id
 _symmetry_equiv_pos_as_xyz
  1  'x, y, z'
loop_
 _atom_site_type_symbol
 _atom_site_label
 _atom_site_symmetry_multiplicity
 _atom_site_fract_x
 _atom_site_fract_y
 _atom_site_fract_z
 _atom_site_occupancy
  Cd  Cd0  1  0.650009  0.254590  0.000000  1
  Cd  Cd1  1  0.359791  0.357479  0.000000  1
  Cd  Cd2  1  0.643938  0.649486  0.000000  1
  Cd  Cd3  1  0.260578  0.649774  0.000000  1
  Cd  Cd4  1  0.995952  0.792577  0.000000  1
  Cd  Cd5  1  0.203375  0.207423  0.207423  1
  Cd  Cd6  1  0.650009  0.000000  0.254590  1
  Cd  Cd7  1  0.998966  0.647288  0.260262  1
  Cd  Cd8  1  0.610803  0.350226  0.350226  1
  Cd  Cd9  1  0.351679  0.612974  0.352712  1
  Cd  Cd10  1  0.359791  0.000000  0.357479  1
  Cd  Cd11  1  0.994451  0.350514  0.350514  1
  Cd  Cd12  1  0.738704  0.739738  0.387026  1
  Cd  Cd13  1  0.351679  0.352712  0.612974  1
  Cd  Cd14  1  0.643938  0.000000  0.649486  1
  Cd  Cd15  1  0.002313  0.642521  0.642521  1
  Cd  Cd16  1  0.260578  0.000000  0.649774  1
  Cd  Cd17  1  0.998966  0.260262  0.647288  1
  Cd  Cd18  1  0.395418  0.745410  0.745410  1
  Cd  Cd19  1  0.738704  0.387026  0.739738  1
  Cd  Cd20  1  0.995952  0.000000  0.792577  1
  Ag  Ag21  1  0.789837  0.000000  0.000000  1
  Pd  Pd22  1  0.339709  0.000000  0.000000  1
  Pd  Pd23  1  0.004458  0.348514  0.000000  1
  Pd  Pd24  1  0.004458  0.000000  0.348514  1
  Pd  Pd25  1  0.655945  0.651486  0.651486  1
