# generated using pymatgen
data_Nd2DyY(B6Ru)2
_symmetry_space_group_name_H-M   'P 1'
_cell_length_a   3.72481100
_cell_length_b   9.24553600
_cell_length_c   11.66221100
_cell_angle_alpha   89.99917702
_cell_angle_beta   90.00000000
_cell_angle_gamma   90.00000000
_symmetry_Int_Tables_number   1
_chemical_formula_structural   Nd2DyY(B6Ru)2
_chemical_formula_sum   'Nd4 Dy2 Y2 B24 Ru4'
_cell_volume   401.62175522
_cell_formula_units_Z   2
loop_
 _symmetry_equiv_pos_site_id
 _symmetry_equiv_pos_as_xyz
  1  'x, y, z'
loop_
 _atom_site_type_symbol
 _atom_site_label
 _atom_site_symmetry_multiplicity
 _atom_site_fract_x
 _atom_site_fract_y
 _atom_site_fract_z
 _atom_site_occupancy
  Nd  Nd0  1  0.000000  0.323375  0.414171  1
  Nd  Nd1  1  0.000000  0.676625  0.585829  1
  Nd  Nd2  1  0.000000  0.823235  0.085759  1
  Nd  Nd3  1  0.000000  0.176765  0.914241  1
  Dy  Dy4  1  0.000000  0.444061  0.128396  1
  Dy  Dy5  1  0.000000  0.555939  0.871604  1
  Y  Y6  1  0.000000  0.944125  0.371789  1
  Y  Y7  1  0.000000  0.055875  0.628211  1
  B  B8  1  0.500000  0.556361  0.430484  1
  B  B9  1  0.500000  0.443639  0.569516  1
  B  B10  1  0.500000  0.056346  0.069499  1
  B  B11  1  0.500000  0.943654  0.930501  1
  B  B12  1  0.500000  0.749136  0.417533  1
  B  B13  1  0.500000  0.250864  0.582467  1
  B  B14  1  0.500000  0.249309  0.082463  1
  B  B15  1  0.500000  0.750691  0.917537  1
  B  B16  1  0.500000  0.790184  0.266776  1
  B  B17  1  0.500000  0.209816  0.733224  1
  B  B18  1  0.500000  0.290261  0.233117  1
  B  B19  1  0.500000  0.709739  0.766883  1
  B  B20  1  0.500000  0.631108  0.185249  1
  B  B21  1  0.500000  0.368892  0.814751  1
  B  B22  1  0.500000  0.131268  0.314627  1
  B  B23  1  0.500000  0.868732  0.685373  1
  B  B24  1  0.500000  0.986283  0.213635  1
  B  B25  1  0.500000  0.013717  0.786365  1
  B  B26  1  0.500000  0.486270  0.286232  1
  B  B27  1  0.500000  0.513730  0.713768  1
  B  B28  1  0.500000  0.604208  0.028494  1
  B  B29  1  0.500000  0.395792  0.971506  1
  B  B30  1  0.500000  0.104473  0.471452  1
  B  B31  1  0.500000  0.895527  0.528548  1
  Ru  Ru32  1  0.000000  0.639420  0.319682  1
  Ru  Ru33  1  0.000000  0.360580  0.680318  1
  Ru  Ru34  1  0.000000  0.139646  0.180231  1
  Ru  Ru35  1  0.000000  0.860354  0.819769  1
