# generated using pymatgen
data_OsRhBr18
_symmetry_space_group_name_H-M   'P 1'
_cell_length_a   9.05919454
_cell_length_b   9.08063785
_cell_length_c   9.02928263
_cell_angle_alpha   92.32005992
_cell_angle_beta   92.40432647
_cell_angle_gamma   92.25036390
_symmetry_Int_Tables_number   1
_chemical_formula_structural   OsRhBr18
_chemical_formula_sum   'Os1 Rh1 Br18'
_cell_volume   740.89149663
_cell_formula_units_Z   1
loop_
 _symmetry_equiv_pos_site_id
 _symmetry_equiv_pos_as_xyz
  1  'x, y, z'
loop_
 _atom_site_type_symbol
 _atom_site_label
 _atom_site_symmetry_multiplicity
 _atom_site_fract_x
 _atom_site_fract_y
 _atom_site_fract_z
 _atom_site_occupancy
  Os  Os0  1  0.500000  0.500000  0.500000  1
  Rh  Rh1  1  0.000000  0.000000  0.000000  1
  Br  Br2  1  0.774705  0.488770  0.523977  1
  Br  Br3  1  0.522885  0.774032  0.487510  1
  Br  Br4  1  0.488663  0.523745  0.775593  1
  Br  Br5  1  0.225295  0.511230  0.476023  1
  Br  Br6  1  0.477115  0.225968  0.512490  1
  Br  Br7  1  0.511337  0.476255  0.224407  1
  Br  Br8  1  0.885841  0.368909  0.759063  1
  Br  Br9  1  0.757624  0.884632  0.368679  1
  Br  Br10  1  0.369039  0.758136  0.886080  1
  Br  Br11  1  0.114159  0.631091  0.240937  1
  Br  Br12  1  0.242376  0.115368  0.631321  1
  Br  Br13  1  0.630961  0.241864  0.113920  1
  Br  Br14  1  0.014893  0.969159  0.724260  1
  Br  Br15  1  0.724890  0.014969  0.967644  1
  Br  Br16  1  0.967396  0.725597  0.013231  1
  Br  Br17  1  0.985107  0.030841  0.275740  1
  Br  Br18  1  0.275110  0.985031  0.032356  1
  Br  Br19  1  0.032604  0.274403  0.986769  1
