# generated using pymatgen
data_Eu(CrSe2)2
_symmetry_space_group_name_H-M   'P 1'
_cell_length_a   3.84740700
_cell_length_b   11.62417500
_cell_length_c   13.62056300
_cell_angle_alpha   90.00000000
_cell_angle_beta   90.00000000
_cell_angle_gamma   90.00000000
_symmetry_Int_Tables_number   1
_chemical_formula_structural   Eu(CrSe2)2
_chemical_formula_sum   'Eu4 Cr8 Se16'
_cell_volume   609.15151645
_cell_formula_units_Z   4
loop_
 _symmetry_equiv_pos_site_id
 _symmetry_equiv_pos_as_xyz
  1  'x, y, z'
loop_
 _atom_site_type_symbol
 _atom_site_label
 _atom_site_symmetry_multiplicity
 _atom_site_fract_x
 _atom_site_fract_y
 _atom_site_fract_z
 _atom_site_occupancy
  Eu  Eu0  1  0.250000  0.239053  0.330085  1
  Eu  Eu1  1  0.750000  0.760947  0.669915  1
  Eu  Eu2  1  0.750000  0.260947  0.830085  1
  Eu  Eu3  1  0.250000  0.739053  0.169915  1
  Cr  Cr4  1  0.250000  0.056471  0.113203  1
  Cr  Cr5  1  0.750000  0.943529  0.886797  1
  Cr  Cr6  1  0.750000  0.443529  0.613203  1
  Cr  Cr7  1  0.250000  0.556471  0.386797  1
  Cr  Cr8  1  0.250000  0.084074  0.595579  1
  Cr  Cr9  1  0.750000  0.915926  0.404421  1
  Cr  Cr10  1  0.750000  0.415926  0.095579  1
  Cr  Cr11  1  0.250000  0.584074  0.904421  1
  Se  Se12  1  0.750000  0.031869  0.711811  1
  Se  Se13  1  0.250000  0.968131  0.288189  1
  Se  Se14  1  0.250000  0.468131  0.211811  1
  Se  Se15  1  0.750000  0.531869  0.788189  1
  Se  Se16  1  0.250000  0.083703  0.927639  1
  Se  Se17  1  0.750000  0.916297  0.072361  1
  Se  Se18  1  0.750000  0.416297  0.427639  1
  Se  Se19  1  0.250000  0.583703  0.572361  1
  Se  Se20  1  0.750000  0.117763  0.473453  1
  Se  Se21  1  0.250000  0.882237  0.526547  1
  Se  Se22  1  0.250000  0.382237  0.973453  1
  Se  Se23  1  0.750000  0.617763  0.026547  1
  Se  Se24  1  0.750000  0.200690  0.155544  1
  Se  Se25  1  0.250000  0.799310  0.844456  1
  Se  Se26  1  0.250000  0.299310  0.655544  1
  Se  Se27  1  0.750000  0.700690  0.344456  1
