# generated using pymatgen
data_TbY19(CoBi2)4
_symmetry_space_group_name_H-M   'P 1'
_cell_length_a   8.05090913
_cell_length_b   8.91491634
_cell_length_c   12.46461550
_cell_angle_alpha   89.97130520
_cell_angle_beta   90.01500788
_cell_angle_gamma   90.01372132
_symmetry_Int_Tables_number   1
_chemical_formula_structural   TbY19(CoBi2)4
_chemical_formula_sum   'Tb1 Y19 Co4 Bi8'
_cell_volume   894.62494010
_cell_formula_units_Z   1
loop_
 _symmetry_equiv_pos_site_id
 _symmetry_equiv_pos_as_xyz
  1  'x, y, z'
loop_
 _atom_site_type_symbol
 _atom_site_label
 _atom_site_symmetry_multiplicity
 _atom_site_fract_x
 _atom_site_fract_y
 _atom_site_fract_z
 _atom_site_occupancy
  Tb  Tb0  1  0.176554  0.533646  0.937059  1
  Y  Y1  1  0.847668  0.749852  0.801399  1
  Y  Y2  1  0.152254  0.249951  0.198827  1
  Y  Y3  1  0.347865  0.250027  0.698553  1
  Y  Y4  1  0.652164  0.749951  0.301458  1
  Y  Y5  1  0.379539  0.749836  0.690140  1
  Y  Y6  1  0.620566  0.250020  0.309855  1
  Y  Y7  1  0.879121  0.250024  0.809546  1
  Y  Y8  1  0.120452  0.750192  0.190317  1
  Y  Y9  1  0.954889  0.750021  0.502277  1
  Y  Y10  1  0.045038  0.249994  0.497704  1
  Y  Y11  1  0.454770  0.250362  0.997572  1
  Y  Y12  1  0.544791  0.749707  0.002149  1
  Y  Y13  1  0.676746  0.033881  0.563587  1
  Y  Y14  1  0.323289  0.965990  0.436407  1
  Y  Y15  1  0.176907  0.965943  0.936437  1
  Y  Y16  1  0.323280  0.534014  0.436466  1
  Y  Y17  1  0.823345  0.034153  0.063565  1
  Y  Y18  1  0.676793  0.466118  0.563614  1
  Y  Y19  1  0.822901  0.466072  0.063646  1
  Co  Co20  1  0.558903  0.749983  0.507989  1
  Co  Co21  1  0.441094  0.250008  0.491994  1
  Co  Co22  1  0.059133  0.250857  0.991773  1
  Co  Co23  1  0.941320  0.749760  0.008000  1
  Bi  Bi24  1  0.571019  0.492308  0.825769  1
  Bi  Bi25  1  0.429618  0.507518  0.174076  1
  Bi  Bi26  1  0.070333  0.507481  0.673823  1
  Bi  Bi27  1  0.429680  0.992462  0.173901  1
  Bi  Bi28  1  0.929654  0.492367  0.326008  1
  Bi  Bi29  1  0.570341  0.007520  0.826050  1
  Bi  Bi30  1  0.929667  0.007570  0.326034  1
  Bi  Bi31  1  0.070307  0.992413  0.674005  1
