# generated using pymatgen
data_Pr8Ho8Sc4Si15Ge
_symmetry_space_group_name_H-M   'P 1'
_cell_length_a   7.38970755
_cell_length_b   7.76003925
_cell_length_c   14.72161912
_cell_angle_alpha   90.02124077
_cell_angle_beta   89.88938026
_cell_angle_gamma   90.01999460
_symmetry_Int_Tables_number   1
_chemical_formula_structural   Pr8Ho8Sc4Si15Ge
_chemical_formula_sum   'Pr8 Ho8 Sc4 Si15 Ge1'
_cell_volume   844.20103692
_cell_formula_units_Z   1
loop_
 _symmetry_equiv_pos_site_id
 _symmetry_equiv_pos_as_xyz
  1  'x, y, z'
loop_
 _atom_site_type_symbol
 _atom_site_label
 _atom_site_symmetry_multiplicity
 _atom_site_fract_x
 _atom_site_fract_y
 _atom_site_fract_z
 _atom_site_occupancy
  Pr  Pr0  1  0.016653  0.178040  0.400707  1
  Pr  Pr1  1  0.517730  0.320720  0.400710  1
  Pr  Pr2  1  0.482665  0.678817  0.901077  1
  Pr  Pr3  1  0.484390  0.679699  0.599191  1
  Pr  Pr4  1  0.981935  0.822256  0.598974  1
  Pr  Pr5  1  0.982573  0.821364  0.901132  1
  Pr  Pr6  1  0.517412  0.321285  0.098891  1
  Pr  Pr7  1  0.017487  0.178740  0.098846  1
  Ho  Ho8  1  0.324971  0.175842  0.625570  1
  Ho  Ho9  1  0.675957  0.822773  0.374906  1
  Ho  Ho10  1  0.175430  0.678334  0.374849  1
  Ho  Ho11  1  0.823487  0.322324  0.875140  1
  Ho  Ho12  1  0.822766  0.322351  0.624821  1
  Ho  Ho13  1  0.323550  0.177489  0.875174  1
  Ho  Ho14  1  0.176421  0.677686  0.124797  1
  Ho  Ho15  1  0.676331  0.822294  0.124723  1
  Sc  Sc16  1  0.656418  0.990159  0.750194  1
  Sc  Sc17  1  0.843470  0.490180  0.250035  1
  Sc  Sc18  1  0.343574  0.009859  0.249889  1
  Sc  Sc19  1  0.156496  0.509981  0.751063  1
  Si  Si20  1  0.281216  0.874407  0.750107  1
  Si  Si21  1  0.475037  0.608117  0.249941  1
  Si  Si22  1  0.024574  0.108431  0.749998  1
  Si  Si23  1  0.524437  0.391914  0.750092  1
  Si  Si24  1  0.975169  0.892051  0.249780  1
  Si  Si25  1  0.718796  0.125120  0.249857  1
  Si  Si26  1  0.851872  0.532406  0.039333  1
  Si  Si27  1  0.351875  0.967531  0.039414  1
  Si  Si28  1  0.148144  0.467606  0.960599  1
  Si  Si29  1  0.648471  0.032707  0.539298  1
  Si  Si30  1  0.351411  0.967463  0.460683  1
  Si  Si31  1  0.847314  0.533210  0.459650  1
  Si  Si32  1  0.781709  0.625228  0.749949  1
  Si  Si33  1  0.218726  0.374934  0.250028  1
  Si  Si34  1  0.648143  0.032486  0.960583  1
  Ge  Ge35  1  0.153391  0.466197  0.540000  1
