# generated using pymatgen
data_Sc12Rh2PbI16
_symmetry_space_group_name_H-M   'P 1'
_cell_length_a   9.20703026
_cell_length_b   12.23993288
_cell_length_c   12.88598000
_cell_angle_alpha   116.97239406
_cell_angle_beta   101.05797307
_cell_angle_gamma   100.46698003
_symmetry_Int_Tables_number   1
_chemical_formula_structural   Sc12Rh2PbI16
_chemical_formula_sum   'Sc12 Rh2 Pb1 I16'
_cell_volume   1208.77604708
_cell_formula_units_Z   1
loop_
 _symmetry_equiv_pos_site_id
 _symmetry_equiv_pos_as_xyz
  1  'x, y, z'
loop_
 _atom_site_type_symbol
 _atom_site_label
 _atom_site_symmetry_multiplicity
 _atom_site_fract_x
 _atom_site_fract_y
 _atom_site_fract_z
 _atom_site_occupancy
  Sc  Sc0  1  0.102682  0.268760  0.358348  1
  Sc  Sc1  1  0.897318  0.731240  0.641652  1
  Sc  Sc2  1  0.766010  0.536427  0.327861  1
  Sc  Sc3  1  0.233990  0.463573  0.672139  1
  Sc  Sc4  1  0.290501  0.731482  0.641406  1
  Sc  Sc5  1  0.709499  0.268518  0.358594  1
  Sc  Sc6  1  0.159215  0.536631  0.327720  1
  Sc  Sc7  1  0.840785  0.463369  0.672280  1
  Sc  Sc8  1  0.410589  0.367241  0.286054  1
  Sc  Sc9  1  0.589411  0.632759  0.713946  1
  Sc  Sc10  1  0.461289  0.317556  0.520953  1
  Sc  Sc11  1  0.538711  0.682444  0.479047  1
  Rh  Rh12  1  0.343226  0.500136  0.499915  1
  Rh  Rh13  1  0.656775  0.499864  0.500085  1
  Pb  Pb14  1  0.000000  0.500000  0.500000  1
  I  I15  1  0.393714  0.733541  0.876030  1
  I  I16  1  0.606286  0.266459  0.123970  1
  I  I17  1  0.181722  0.948513  0.774140  1
  I  I18  1  0.818278  0.051487  0.225860  1
  I  I19  1  0.339974  0.105034  0.258615  1
  I  I20  1  0.660026  0.894966  0.741385  1
  I  I21  1  0.563067  0.437158  0.793824  1
  I  I22  1  0.436933  0.562842  0.206176  1
  I  I23  1  0.304425  0.821107  0.462841  1
  I  I24  1  0.695575  0.178893  0.537159  1
  I  I25  1  0.168513  0.179354  0.536782  1
  I  I26  1  0.831487  0.820646  0.463218  1
  I  I27  1  0.927422  0.571740  0.167111  1
  I  I28  1  0.072578  0.428260  0.832889  1
  I  I29  1  0.920559  0.733165  0.876150  1
  I  I30  1  0.079441  0.266835  0.123850  1
