# generated using pymatgen
data_AgMo2(PO4)3
_symmetry_space_group_name_H-M   'P 1'
_cell_length_a   8.79122386
_cell_length_b   8.79122427
_cell_length_c   9.11222793
_cell_angle_alpha   61.64805927
_cell_angle_beta   61.64805777
_cell_angle_gamma   60.18486609
_symmetry_Int_Tables_number   1
_chemical_formula_structural   AgMo2(PO4)3
_chemical_formula_sum   'Ag2 Mo4 P6 O24'
_cell_volume   510.76430326
_cell_formula_units_Z   2
loop_
 _symmetry_equiv_pos_site_id
 _symmetry_equiv_pos_as_xyz
  1  'x, y, z'
loop_
 _atom_site_type_symbol
 _atom_site_label
 _atom_site_symmetry_multiplicity
 _atom_site_fract_x
 _atom_site_fract_y
 _atom_site_fract_z
 _atom_site_occupancy
  Ag  Ag0  1  0.037405  0.458718  0.751092  1
  Ag  Ag1  1  0.541282  0.962595  0.248908  1
  Mo  Mo2  1  0.646775  0.144423  0.811724  1
  Mo  Mo3  1  0.855577  0.353225  0.188276  1
  Mo  Mo4  1  0.147683  0.643656  0.311915  1
  Mo  Mo5  1  0.356344  0.852317  0.688085  1
  P  P6  1  0.254027  0.459142  0.998662  1
  P  P7  1  0.464812  0.243900  0.499337  1
  P  P8  1  0.038845  0.961155  0.500000  1
  P  P9  1  0.963150  0.036850  0.000000  1
  P  P10  1  0.540858  0.745973  0.001338  1
  P  P11  1  0.756100  0.535188  0.500663  1
  O  O12  1  0.012163  0.127893  0.333711  1
  O  O13  1  0.793417  0.505683  0.330586  1
  O  O14  1  0.423972  0.280723  0.979616  1
  O  O15  1  0.289916  0.623599  0.833492  1
  O  O16  1  0.216041  0.932971  0.521559  1
  O  O17  1  0.628509  0.272101  0.335480  1
  O  O18  1  0.494317  0.206583  0.669414  1
  O  O19  1  0.084079  0.439402  0.009592  1
  O  O20  1  0.439058  0.072657  0.516121  1
  O  O21  1  0.286099  0.413829  0.487483  1
  O  O22  1  0.872107  0.987837  0.666289  1
  O  O23  1  0.067029  0.783959  0.478441  1
  O  O24  1  0.935934  0.216057  0.019876  1
  O  O25  1  0.126528  0.012400  0.834086  1
  O  O26  1  0.560598  0.915921  0.990408  1
  O  O27  1  0.719277  0.576028  0.020384  1
  O  O28  1  0.927343  0.560942  0.483879  1
  O  O29  1  0.516680  0.774660  0.832024  1
  O  O30  1  0.376401  0.710084  0.166508  1
  O  O31  1  0.783943  0.064066  0.980124  1
  O  O32  1  0.727899  0.371491  0.664520  1
  O  O33  1  0.586171  0.713901  0.512517  1
  O  O34  1  0.225340  0.483320  0.167976  1
  O  O35  1  0.987600  0.873472  0.165914  1
