# generated using pymatgen
data_Sm4Dy2NiI10
_symmetry_space_group_name_H-M   'P 1'
_cell_length_a   7.78577653
_cell_length_b   9.83147634
_cell_length_c   9.83179632
_cell_angle_alpha   107.33460810
_cell_angle_beta   96.67006381
_cell_angle_gamma   104.64887896
_symmetry_Int_Tables_number   1
_chemical_formula_structural   Sm4Dy2NiI10
_chemical_formula_sum   'Sm4 Dy2 Ni1 I10'
_cell_volume   679.94133752
_cell_formula_units_Z   1
loop_
 _symmetry_equiv_pos_site_id
 _symmetry_equiv_pos_as_xyz
  1  'x, y, z'
loop_
 _atom_site_type_symbol
 _atom_site_label
 _atom_site_symmetry_multiplicity
 _atom_site_fract_x
 _atom_site_fract_y
 _atom_site_fract_z
 _atom_site_occupancy
  Sm  Sm0  1  0.885478  0.959645  0.239094  1
  Sm  Sm1  1  0.114522  0.040355  0.760906  1
  Sm  Sm2  1  0.031466  0.717398  0.914483  1
  Sm  Sm3  1  0.968534  0.282602  0.085517  1
  Dy  Dy4  1  0.661757  0.880188  0.839877  1
  Dy  Dy5  1  0.338243  0.119812  0.160123  1
  Ni  Ni6  1  0.000000  0.000000  0.000000  1
  I  I7  1  0.644034  0.552993  0.729022  1
  I  I8  1  0.355966  0.447007  0.270978  1
  I  I9  1  0.737432  0.911780  0.541441  1
  I  I10  1  0.262568  0.088220  0.458559  1
  I  I11  1  0.085363  0.371112  0.817839  1
  I  I12  1  0.914637  0.628888  0.182161  1
  I  I13  1  0.454297  0.818281  0.090975  1
  I  I14  1  0.545703  0.181719  0.909025  1
  I  I15  1  0.232249  0.744969  0.655576  1
  I  I16  1  0.767751  0.255031  0.344424  1
