# generated using pymatgen
data_Zr8Fe9Ni7As12
_symmetry_space_group_name_H-M   'P 1'
_cell_length_a   12.54166500
_cell_length_b   12.54166519
_cell_length_c   3.83838100
_cell_angle_alpha   90.00000000
_cell_angle_beta   90.00000000
_cell_angle_gamma   119.99999687
_symmetry_Int_Tables_number   1
_chemical_formula_structural   Zr8Fe9Ni7As12
_chemical_formula_sum   'Zr8 Fe9 Ni7 As12'
_cell_volume   522.86446238
_cell_formula_units_Z   1
loop_
 _symmetry_equiv_pos_site_id
 _symmetry_equiv_pos_as_xyz
  1  'x, y, z'
loop_
 _atom_site_type_symbol
 _atom_site_label
 _atom_site_symmetry_multiplicity
 _atom_site_fract_x
 _atom_site_fract_y
 _atom_site_fract_z
 _atom_site_occupancy
  Zr  Zr0  1  0.000000  0.173261  0.500000  1
  Zr  Zr1  1  0.826739  0.826739  0.500000  1
  Zr  Zr2  1  0.173261  0.000000  0.500000  1
  Zr  Zr3  1  0.666667  0.333333  0.000000  1
  Zr  Zr4  1  0.333333  0.666667  0.000000  1
  Zr  Zr5  1  0.000000  0.557851  0.000000  1
  Zr  Zr6  1  0.442149  0.442149  0.000000  1
  Zr  Zr7  1  0.557851  0.000000  0.000000  1
  Fe  Fe8  1  0.000000  0.717614  0.500000  1
  Fe  Fe9  1  0.282386  0.282386  0.500000  1
  Fe  Fe10  1  0.717614  0.000000  0.500000  1
  Fe  Fe11  1  0.802433  0.181087  0.000000  1
  Fe  Fe12  1  0.818913  0.621347  0.000000  1
  Fe  Fe13  1  0.378653  0.197567  0.000000  1
  Fe  Fe14  1  0.181087  0.802433  0.000000  1
  Fe  Fe15  1  0.621347  0.818913  0.000000  1
  Fe  Fe16  1  0.197567  0.378653  0.000000  1
  Ni  Ni17  1  0.878422  0.356757  0.500000  1
  Ni  Ni18  1  0.643243  0.521663  0.500000  1
  Ni  Ni19  1  0.478337  0.121578  0.500000  1
  Ni  Ni20  1  0.356757  0.878422  0.500000  1
  Ni  Ni21  1  0.521663  0.643243  0.500000  1
  Ni  Ni22  1  0.121578  0.478337  0.500000  1
  Ni  Ni23  1  0.000000  0.000000  0.000000  1
  As  As24  1  0.000000  0.820080  0.000000  1
  As  As25  1  0.179920  0.179920  0.000000  1
  As  As26  1  0.820080  0.000000  0.000000  1
  As  As27  1  0.692037  0.173577  0.500000  1
  As  As28  1  0.826423  0.518460  0.500000  1
  As  As29  1  0.481540  0.307963  0.500000  1
  As  As30  1  0.173577  0.692037  0.500000  1
  As  As31  1  0.518460  0.826423  0.500000  1
  As  As32  1  0.307963  0.481540  0.500000  1
  As  As33  1  0.000000  0.341426  0.000000  1
  As  As34  1  0.658574  0.658574  0.000000  1
  As  As35  1  0.341426  0.000000  0.000000  1
