# generated using pymatgen
data_K6LuTlF12
_symmetry_space_group_name_H-M   'P 1'
_cell_length_a   6.59430703
_cell_length_b   6.37295296
_cell_length_c   11.09065900
_cell_angle_alpha   55.32253064
_cell_angle_beta   90.00515238
_cell_angle_gamma   89.94089730
_symmetry_Int_Tables_number   1
_chemical_formula_structural   K6LuTlF12
_chemical_formula_sum   'K6 Lu1 Tl1 F12'
_cell_volume   383.29483549
_cell_formula_units_Z   1
loop_
 _symmetry_equiv_pos_site_id
 _symmetry_equiv_pos_as_xyz
  1  'x, y, z'
loop_
 _atom_site_type_symbol
 _atom_site_label
 _atom_site_symmetry_multiplicity
 _atom_site_fract_x
 _atom_site_fract_y
 _atom_site_fract_z
 _atom_site_occupancy
  K  K0  1  0.500000  0.500000  0.000000  1
  K  K1  1  0.000000  0.500000  0.500000  1
  K  K2  1  0.050269  0.732092  0.755782  1
  K  K3  1  0.949731  0.267908  0.244218  1
  K  K4  1  0.550978  0.266466  0.747979  1
  K  K5  1  0.449022  0.733534  0.252021  1
  Lu  Lu6  1  0.000000  0.000000  0.000000  1
  Tl  Tl7  1  0.500000  0.000000  0.500000  1
  F  F8  1  0.776424  0.762573  0.567822  1
  F  F9  1  0.223576  0.237427  0.432178  1
  F  F10  1  0.267199  0.229882  0.935132  1
  F  F11  1  0.732801  0.770118  0.064868  1
  F  F12  1  0.445796  0.883239  0.726700  1
  F  F13  1  0.554204  0.116761  0.273300  1
  F  F14  1  0.948432  0.113340  0.780606  1
  F  F15  1  0.051568  0.886660  0.219394  1
  F  F16  1  0.323683  0.667192  0.550130  1
  F  F17  1  0.676317  0.332808  0.449870  1
  F  F18  1  0.826590  0.320970  0.952463  1
  F  F19  1  0.173410  0.679030  0.047537  1
