# generated using pymatgen
data_Ba4Cu3Sb4Pt
_symmetry_space_group_name_H-M   'P 1'
_cell_length_a   9.78392415
_cell_length_b   4.60503000
_cell_length_c   8.00586514
_cell_angle_alpha   90.00000000
_cell_angle_beta   89.97920345
_cell_angle_gamma   90.00000000
_symmetry_Int_Tables_number   1
_chemical_formula_structural   Ba4Cu3Sb4Pt
_chemical_formula_sum   'Ba4 Cu3 Sb4 Pt1'
_cell_volume   360.70634555
_cell_formula_units_Z   1
loop_
 _symmetry_equiv_pos_site_id
 _symmetry_equiv_pos_as_xyz
  1  'x, y, z'
loop_
 _atom_site_type_symbol
 _atom_site_label
 _atom_site_symmetry_multiplicity
 _atom_site_fract_x
 _atom_site_fract_y
 _atom_site_fract_z
 _atom_site_occupancy
  Ba  Ba0  1  0.998167  0.750001  0.243997  1
  Ba  Ba1  1  0.503319  0.750001  0.249106  1
  Ba  Ba2  1  0.496089  0.250000  0.750995  1
  Ba  Ba3  1  0.001962  0.250000  0.756881  1
  Cu  Cu4  1  0.247484  0.250000  0.417692  1
  Cu  Cu5  1  0.752437  0.750001  0.580930  1
  Cu  Cu6  1  0.252574  0.750001  0.917862  1
  Sb  Sb7  1  0.252806  0.250000  0.085195  1
  Sb  Sb8  1  0.753035  0.250000  0.420893  1
  Sb  Sb9  1  0.246800  0.750001  0.583290  1
  Sb  Sb10  1  0.746699  0.750001  0.910039  1
  Pt  Pt11  1  0.748631  0.250000  0.083122  1
