# generated using pymatgen
data_HfAl3V2Ga
_symmetry_space_group_name_H-M   'P 1'
_cell_length_a   5.30070705
_cell_length_b   5.30070762
_cell_length_c   5.27941553
_cell_angle_alpha   103.59316726
_cell_angle_beta   103.59317146
_cell_angle_gamma   122.12955932
_symmetry_Int_Tables_number   1
_chemical_formula_structural   HfAl3V2Ga
_chemical_formula_sum   'Hf1 Al3 V2 Ga1'
_cell_volume   109.80265521
_cell_formula_units_Z   1
loop_
 _symmetry_equiv_pos_site_id
 _symmetry_equiv_pos_as_xyz
  1  'x, y, z'
loop_
 _atom_site_type_symbol
 _atom_site_label
 _atom_site_symmetry_multiplicity
 _atom_site_fract_x
 _atom_site_fract_y
 _atom_site_fract_z
 _atom_site_occupancy
  Hf  Hf0  1  0.005368  0.994632  0.000000  1
  Al  Al1  1  0.303969  0.305706  0.609675  1
  Al  Al2  1  0.694294  0.696031  0.390325  1
  Al  Al3  1  0.699117  0.300883  0.000000  1
  V  V4  1  0.247009  0.752991  0.500000  1
  V  V5  1  0.747009  0.252991  0.500000  1
  Ga  Ga6  1  0.303233  0.696767  0.000000  1
