# generated using pymatgen
data_Er2Tm4MnSb2
_symmetry_space_group_name_H-M   'P 1'
_cell_length_a   8.06449500
_cell_length_b   8.06728305
_cell_length_c   4.20474700
_cell_angle_alpha   90.00000000
_cell_angle_beta   90.00000000
_cell_angle_gamma   119.98856423
_symmetry_Int_Tables_number   1
_chemical_formula_structural   Er2Tm4MnSb2
_chemical_formula_sum   'Er2 Tm4 Mn1 Sb2'
_cell_volume   236.93270185
_cell_formula_units_Z   1
loop_
 _symmetry_equiv_pos_site_id
 _symmetry_equiv_pos_as_xyz
  1  'x, y, z'
loop_
 _atom_site_type_symbol
 _atom_site_label
 _atom_site_symmetry_multiplicity
 _atom_site_fract_x
 _atom_site_fract_y
 _atom_site_fract_z
 _atom_site_occupancy
  Er  Er0  1  0.000032  0.604649  0.000000  1
  Er  Er1  1  0.395383  0.395351  0.000000  1
  Tm  Tm2  1  0.235605  0.000000  0.500000  1
  Tm  Tm3  1  0.999834  0.235726  0.500000  1
  Tm  Tm4  1  0.764108  0.764274  0.500000  1
  Tm  Tm5  1  0.605817  0.000000  0.000000  1
  Mn  Mn6  1  0.999046  0.000000  0.000000  1
  Sb  Sb7  1  0.333681  0.667189  0.500000  1
  Sb  Sb8  1  0.666494  0.332811  0.500000  1
