# generated using pymatgen
data_Er5Lu3Re2(B12Os)2
_symmetry_space_group_name_H-M   'P 1'
_cell_length_a   3.62853700
_cell_length_b   9.08580187
_cell_length_c   11.46503701
_cell_angle_alpha   90.13350808
_cell_angle_beta   90.00000000
_cell_angle_gamma   90.00000000
_symmetry_Int_Tables_number   1
_chemical_formula_structural   Er5Lu3Re2(B12Os)2
_chemical_formula_sum   'Er5 Lu3 Re2 B24 Os2'
_cell_volume   377.98024288
_cell_formula_units_Z   1
loop_
 _symmetry_equiv_pos_site_id
 _symmetry_equiv_pos_as_xyz
  1  'x, y, z'
loop_
 _atom_site_type_symbol
 _atom_site_label
 _atom_site_symmetry_multiplicity
 _atom_site_fract_x
 _atom_site_fract_y
 _atom_site_fract_z
 _atom_site_occupancy
  Er  Er0  1  0.000000  0.320416  0.412460  1
  Er  Er1  1  0.000000  0.679626  0.587829  1
  Er  Er2  1  0.000000  0.823938  0.084529  1
  Er  Er3  1  0.000000  0.176103  0.915147  1
  Er  Er4  1  0.000000  0.943603  0.371078  1
  Lu  Lu5  1  0.000000  0.056574  0.629565  1
  Lu  Lu6  1  0.000000  0.442847  0.128217  1
  Lu  Lu7  1  0.000000  0.557224  0.871558  1
  Re  Re8  1  0.000000  0.139513  0.179573  1
  Re  Re9  1  0.000000  0.861080  0.819949  1
  B  B10  1  0.500000  0.553285  0.433321  1
  B  B11  1  0.500000  0.446128  0.566896  1
  B  B12  1  0.500000  0.053381  0.066522  1
  B  B13  1  0.500000  0.946835  0.933092  1
  B  B14  1  0.500000  0.748942  0.419057  1
  B  B15  1  0.500000  0.250152  0.581206  1
  B  B16  1  0.500000  0.250391  0.080586  1
  B  B17  1  0.500000  0.749870  0.919230  1
  B  B18  1  0.500000  0.790846  0.265355  1
  B  B19  1  0.500000  0.208352  0.734481  1
  B  B20  1  0.500000  0.293178  0.234661  1
  B  B21  1  0.500000  0.707198  0.765208  1
  B  B22  1  0.500000  0.629866  0.184916  1
  B  B23  1  0.500000  0.369878  0.814928  1
  B  B24  1  0.500000  0.131469  0.315283  1
  B  B25  1  0.500000  0.869346  0.684523  1
  B  B26  1  0.500000  0.982181  0.212358  1
  B  B27  1  0.500000  0.018354  0.787042  1
  B  B28  1  0.500000  0.481790  0.287360  1
  B  B29  1  0.500000  0.517936  0.712529  1
  B  B30  1  0.500000  0.601114  0.028183  1
  B  B31  1  0.500000  0.398914  0.971630  1
  B  B32  1  0.500000  0.102722  0.472715  1
  B  B33  1  0.500000  0.898018  0.528836  1
  Os  Os34  1  0.000000  0.636869  0.321044  1
  Os  Os35  1  0.000000  0.362063  0.679133  1
