# generated using pymatgen
data_Th7P12Pd17
_symmetry_space_group_name_H-M   'P 1'
_cell_length_a   12.36329203
_cell_length_b   12.36329196
_cell_length_c   13.68779953
_cell_angle_alpha   68.63914756
_cell_angle_beta   68.63914847
_cell_angle_gamma   19.13176475
_symmetry_Int_Tables_number   1
_chemical_formula_structural   Th7P12Pd17
_chemical_formula_sum   'Th7 P12 Pd17'
_cell_volume   637.20636897
_cell_formula_units_Z   1
loop_
 _symmetry_equiv_pos_site_id
 _symmetry_equiv_pos_as_xyz
  1  'x, y, z'
loop_
 _atom_site_type_symbol
 _atom_site_label
 _atom_site_symmetry_multiplicity
 _atom_site_fract_x
 _atom_site_fract_y
 _atom_site_fract_z
 _atom_site_occupancy
  Th  Th0  1  0.500000  0.500000  0.500000  1
  Th  Th1  1  0.363690  0.363690  0.002526  1
  Th  Th2  1  0.636310  0.636310  0.997474  1
  Th  Th3  1  0.235177  0.235177  0.312584  1
  Th  Th4  1  0.764823  0.764823  0.687416  1
  Th  Th5  1  0.415701  0.415701  0.263645  1
  Th  Th6  1  0.584299  0.584299  0.736355  1
  P  P7  1  0.061891  0.061891  0.924447  1
  P  P8  1  0.938109  0.938109  0.075553  1
  P  P9  1  0.885692  0.885692  0.830532  1
  P  P10  1  0.114308  0.114308  0.169468  1
  P  P11  1  0.189641  0.189641  0.619137  1
  P  P12  1  0.810359  0.810359  0.380863  1
  P  P13  1  0.367080  0.367080  0.578001  1
  P  P14  1  0.632920  0.632920  0.421999  1
  P  P15  1  0.010392  0.010392  0.666631  1
  P  P16  1  0.989608  0.989608  0.333369  1
  P  P17  1  0.233202  0.233202  0.884669  1
  P  P18  1  0.766798  0.766798  0.115331  1
  Pd  Pd19  1  0.839158  0.839158  0.194144  1
  Pd  Pd20  1  0.160842  0.160842  0.805856  1
  Pd  Pd21  1  0.025273  0.025273  0.125651  1
  Pd  Pd22  1  0.974727  0.974727  0.874349  1
  Pd  Pd23  1  0.890680  0.890680  0.456026  1
  Pd  Pd24  1  0.109320  0.109320  0.543974  1
  Pd  Pd25  1  0.500000  0.500000  0.000000  1
  Pd  Pd26  1  0.544721  0.544721  0.252475  1
  Pd  Pd27  1  0.455279  0.455279  0.747525  1
  Pd  Pd28  1  0.297570  0.297570  0.486465  1
  Pd  Pd29  1  0.702430  0.702430  0.513535  1
  Pd  Pd30  1  0.664925  0.664925  0.226995  1
  Pd  Pd31  1  0.335075  0.335075  0.773005  1
  Pd  Pd32  1  0.906566  0.906566  0.644828  1
  Pd  Pd33  1  0.093434  0.093434  0.355172  1
  Pd  Pd34  1  0.219072  0.219072  0.075967  1
  Pd  Pd35  1  0.780928  0.780928  0.924033  1
