# generated using pymatgen
data_Tb4SiTc7
_symmetry_space_group_name_H-M   'P 1'
_cell_length_a   5.33489800
_cell_length_b   5.33489820
_cell_length_c   8.94896900
_cell_angle_alpha   90.00000000
_cell_angle_beta   90.00000000
_cell_angle_gamma   119.99998637
_symmetry_Int_Tables_number   1
_chemical_formula_structural   Tb4SiTc7
_chemical_formula_sum   'Tb4 Si1 Tc7'
_cell_volume   220.57482932
_cell_formula_units_Z   1
loop_
 _symmetry_equiv_pos_site_id
 _symmetry_equiv_pos_as_xyz
  1  'x, y, z'
loop_
 _atom_site_type_symbol
 _atom_site_label
 _atom_site_symmetry_multiplicity
 _atom_site_fract_x
 _atom_site_fract_y
 _atom_site_fract_z
 _atom_site_occupancy
  Tb  Tb0  1  0.333333  0.666667  0.435513  1
  Tb  Tb1  1  0.666667  0.333333  0.564487  1
  Tb  Tb2  1  0.666667  0.333333  0.934695  1
  Tb  Tb3  1  0.333333  0.666667  0.065305  1
  Si  Si4  1  0.000000  0.000000  0.500000  1
  Tc  Tc5  1  0.000000  0.000000  0.000000  1
  Tc  Tc6  1  0.830282  0.169718  0.253924  1
  Tc  Tc7  1  0.830282  0.660565  0.253924  1
  Tc  Tc8  1  0.339435  0.169718  0.253924  1
  Tc  Tc9  1  0.169718  0.830282  0.746076  1
  Tc  Tc10  1  0.169718  0.339435  0.746076  1
  Tc  Tc11  1  0.660565  0.830282  0.746076  1
