# generated using pymatgen
data_CeMn4TcP3
_symmetry_space_group_name_H-M   'P 1'
_cell_length_a   3.75430000
_cell_length_b   10.69440600
_cell_length_c   12.11950000
_cell_angle_alpha   90.00000000
_cell_angle_beta   90.00000000
_cell_angle_gamma   90.00000000
_symmetry_Int_Tables_number   1
_chemical_formula_structural   CeMn4TcP3
_chemical_formula_sum   'Ce4 Mn16 Tc4 P12'
_cell_volume   486.59802736
_cell_formula_units_Z   4
loop_
 _symmetry_equiv_pos_site_id
 _symmetry_equiv_pos_as_xyz
  1  'x, y, z'
loop_
 _atom_site_type_symbol
 _atom_site_label
 _atom_site_symmetry_multiplicity
 _atom_site_fract_x
 _atom_site_fract_y
 _atom_site_fract_z
 _atom_site_occupancy
  Ce  Ce0  1  0.250000  0.586452  0.706572  1
  Ce  Ce1  1  0.250000  0.913548  0.206572  1
  Ce  Ce2  1  0.750000  0.413548  0.293428  1
  Ce  Ce3  1  0.750000  0.086452  0.793428  1
  Mn  Mn4  1  0.250000  0.411546  0.493829  1
  Mn  Mn5  1  0.250000  0.088454  0.993829  1
  Mn  Mn6  1  0.750000  0.588454  0.506171  1
  Mn  Mn7  1  0.750000  0.911546  0.006171  1
  Mn  Mn8  1  0.250000  0.211649  0.182009  1
  Mn  Mn9  1  0.250000  0.288351  0.682009  1
  Mn  Mn10  1  0.750000  0.788351  0.817991  1
  Mn  Mn11  1  0.750000  0.711649  0.317991  1
  Mn  Mn12  1  0.250000  0.883690  0.693911  1
  Mn  Mn13  1  0.250000  0.616310  0.193911  1
  Mn  Mn14  1  0.750000  0.116310  0.306089  1
  Mn  Mn15  1  0.750000  0.383690  0.806089  1
  Mn  Mn16  1  0.250000  0.466559  0.933984  1
  Mn  Mn17  1  0.250000  0.033441  0.433984  1
  Mn  Mn18  1  0.750000  0.533441  0.066016  1
  Mn  Mn19  1  0.750000  0.966559  0.566016  1
  Tc  Tc20  1  0.250000  0.709242  0.984152  1
  Tc  Tc21  1  0.250000  0.790758  0.484152  1
  Tc  Tc22  1  0.750000  0.290758  0.015848  1
  Tc  Tc23  1  0.750000  0.209242  0.515848  1
  P  P24  1  0.250000  0.413973  0.112793  1
  P  P25  1  0.250000  0.086027  0.612793  1
  P  P26  1  0.750000  0.586027  0.887207  1
  P  P27  1  0.750000  0.913973  0.387207  1
  P  P28  1  0.250000  0.266709  0.875498  1
  P  P29  1  0.250000  0.233291  0.375498  1
  P  P30  1  0.750000  0.733291  0.124502  1
  P  P31  1  0.750000  0.766709  0.624502  1
  P  P32  1  0.250000  0.595893  0.386882  1
  P  P33  1  0.250000  0.904107  0.886882  1
  P  P34  1  0.750000  0.404107  0.613118  1
  P  P35  1  0.750000  0.095893  0.113118  1
