# generated using pymatgen
data_Zn8CrPd3O16
_symmetry_space_group_name_H-M   'P 1'
_cell_length_a   6.09575300
_cell_length_b   6.09792993
_cell_length_c   8.55654660
_cell_angle_alpha   89.56330905
_cell_angle_beta   90.00000000
_cell_angle_gamma   90.00000000
_symmetry_Int_Tables_number   1
_chemical_formula_structural   Zn8CrPd3O16
_chemical_formula_sum   'Zn8 Cr1 Pd3 O16'
_cell_volume   318.05021712
_cell_formula_units_Z   1
loop_
 _symmetry_equiv_pos_site_id
 _symmetry_equiv_pos_as_xyz
  1  'x, y, z'
loop_
 _atom_site_type_symbol
 _atom_site_label
 _atom_site_symmetry_multiplicity
 _atom_site_fract_x
 _atom_site_fract_y
 _atom_site_fract_z
 _atom_site_occupancy
  Zn  Zn0  1  0.997437  0.239321  0.000046  1
  Zn  Zn1  1  0.997437  0.760679  0.499954  1
  Zn  Zn2  1  0.256639  0.246098  0.626335  1
  Zn  Zn3  1  0.256639  0.753902  0.873665  1
  Zn  Zn4  1  0.235821  0.000000  0.250000  1
  Zn  Zn5  1  0.757442  0.000000  0.750000  1
  Zn  Zn6  1  0.747538  0.254560  0.376353  1
  Zn  Zn7  1  0.747538  0.745440  0.123647  1
  Cr  Cr8  1  0.764870  0.500000  0.750000  1
  Pd  Pd9  1  0.246835  0.500000  0.250000  1
  Pd  Pd10  1  0.500873  0.746748  0.501901  1
  Pd  Pd11  1  0.500873  0.253252  0.998099  1
  O  O12  1  0.525102  0.729532  0.738883  1
  O  O13  1  0.525102  0.270468  0.761117  1
  O  O14  1  0.739107  0.979704  0.508251  1
  O  O15  1  0.739107  0.020296  0.991749  1
  O  O16  1  0.744577  0.514717  0.517595  1
  O  O17  1  0.744577  0.485283  0.982405  1
  O  O18  1  0.974974  0.728790  0.753013  1
  O  O19  1  0.974974  0.271210  0.746987  1
  O  O20  1  0.016744  0.740059  0.254332  1
  O  O21  1  0.016744  0.259941  0.245668  1
  O  O22  1  0.254686  0.518367  0.487796  1
  O  O23  1  0.254686  0.481633  0.012204  1
  O  O24  1  0.260354  0.977306  0.497669  1
  O  O25  1  0.260354  0.022694  0.002331  1
  O  O26  1  0.479485  0.744265  0.263201  1
  O  O27  1  0.479485  0.255735  0.236799  1
