# generated using pymatgen
data_CeNd3(Br3N)2
_symmetry_space_group_name_H-M   'P 1'
_cell_length_a   9.46669147
_cell_length_b   9.46669096
_cell_length_c   11.80695217
_cell_angle_alpha   123.01869509
_cell_angle_beta   123.01869310
_cell_angle_gamma   24.90035951
_symmetry_Int_Tables_number   1
_chemical_formula_structural   CeNd3(Br3N)2
_chemical_formula_sum   'Ce1 Nd3 Br6 N2'
_cell_volume   369.69323680
_cell_formula_units_Z   1
loop_
 _symmetry_equiv_pos_site_id
 _symmetry_equiv_pos_as_xyz
  1  'x, y, z'
loop_
 _atom_site_type_symbol
 _atom_site_label
 _atom_site_symmetry_multiplicity
 _atom_site_fract_x
 _atom_site_fract_y
 _atom_site_fract_z
 _atom_site_occupancy
  Ce  Ce0  1  0.425917  0.425917  0.039898  1
  Nd  Nd1  1  0.134753  0.134753  0.284541  1
  Nd  Nd2  1  0.863916  0.863916  0.715954  1
  Nd  Nd3  1  0.578556  0.578556  0.957387  1
  Br  Br4  1  0.218917  0.218917  0.122389  1
  Br  Br5  1  0.962157  0.962157  0.255558  1
  Br  Br6  1  0.332643  0.332643  0.493010  1
  Br  Br7  1  0.666933  0.666933  0.507777  1
  Br  Br8  1  0.037599  0.037599  0.743756  1
  Br  Br9  1  0.781186  0.781186  0.878254  1
  N  N10  1  0.570803  0.570803  0.149666  1
  N  N11  1  0.426616  0.426616  0.851812  1
