# generated using pymatgen
data_Tb4Mn2AlOs5
_symmetry_space_group_name_H-M   'P 1'
_cell_length_a   5.36703062
_cell_length_b   5.36703204
_cell_length_c   8.69101900
_cell_angle_alpha   90.00000000
_cell_angle_beta   90.00000000
_cell_angle_gamma   119.88673969
_symmetry_Int_Tables_number   1
_chemical_formula_structural   Tb4Mn2AlOs5
_chemical_formula_sum   'Tb4 Mn2 Al1 Os5'
_cell_volume   217.05216192
_cell_formula_units_Z   1
loop_
 _symmetry_equiv_pos_site_id
 _symmetry_equiv_pos_as_xyz
  1  'x, y, z'
loop_
 _atom_site_type_symbol
 _atom_site_label
 _atom_site_symmetry_multiplicity
 _atom_site_fract_x
 _atom_site_fract_y
 _atom_site_fract_z
 _atom_site_occupancy
  Tb  Tb0  1  0.331252  0.668748  0.436709  1
  Tb  Tb1  1  0.663949  0.336051  0.567362  1
  Tb  Tb2  1  0.663949  0.336051  0.932638  1
  Tb  Tb3  1  0.331252  0.668748  0.063291  1
  Mn  Mn4  1  0.003819  0.996181  0.504185  1
  Mn  Mn5  1  0.003819  0.996181  0.995815  1
  Al  Al6  1  0.836402  0.163598  0.250000  1
  Os  Os7  1  0.822089  0.657146  0.250000  1
  Os  Os8  1  0.342854  0.177911  0.250000  1
  Os  Os9  1  0.170938  0.829062  0.750000  1
  Os  Os10  1  0.168529  0.338852  0.750000  1
  Os  Os11  1  0.661148  0.831471  0.750000  1
