# generated using pymatgen
data_Dy2Sc4SiBi2
_symmetry_space_group_name_H-M   'P 1'
_cell_length_a   4.15865000
_cell_length_b   7.87829463
_cell_length_c   7.87830410
_cell_angle_alpha   119.57288086
_cell_angle_beta   90.00000000
_cell_angle_gamma   90.00000000
_symmetry_Int_Tables_number   1
_chemical_formula_structural   Dy2Sc4SiBi2
_chemical_formula_sum   'Dy2 Sc4 Si1 Bi2'
_cell_volume   224.49211588
_cell_formula_units_Z   1
loop_
 _symmetry_equiv_pos_site_id
 _symmetry_equiv_pos_as_xyz
  1  'x, y, z'
loop_
 _atom_site_type_symbol
 _atom_site_label
 _atom_site_symmetry_multiplicity
 _atom_site_fract_x
 _atom_site_fract_y
 _atom_site_fract_z
 _atom_site_occupancy
  Dy  Dy0  1  0.000000  0.999000  0.608044  1
  Dy  Dy1  1  0.000000  0.608043  0.999003  1
  Sc  Sc2  1  0.500000  0.772318  0.772320  1
  Sc  Sc3  1  0.500000  0.999754  0.236683  1
  Sc  Sc4  1  0.500000  0.236686  0.999754  1
  Sc  Sc5  1  0.000000  0.382694  0.382694  1
  Si  Si6  1  0.000000  0.008269  0.008268  1
  Bi  Bi7  1  0.500000  0.657375  0.335859  1
  Bi  Bi8  1  0.500000  0.335861  0.657377  1
