# generated using pymatgen
data_Y4Ho4Si8PdPt7
_symmetry_space_group_name_H-M   'P 1'
_cell_length_a   4.27238000
_cell_length_b   7.49547186
_cell_length_c   14.05031449
_cell_angle_alpha   89.94452670
_cell_angle_beta   90.00000000
_cell_angle_gamma   90.00000000
_symmetry_Int_Tables_number   1
_chemical_formula_structural   Y4Ho4Si8PdPt7
_chemical_formula_sum   'Y4 Ho4 Si8 Pd1 Pt7'
_cell_volume   449.94009224
_cell_formula_units_Z   1
loop_
 _symmetry_equiv_pos_site_id
 _symmetry_equiv_pos_as_xyz
  1  'x, y, z'
loop_
 _atom_site_type_symbol
 _atom_site_label
 _atom_site_symmetry_multiplicity
 _atom_site_fract_x
 _atom_site_fract_y
 _atom_site_fract_z
 _atom_site_occupancy
  Y  Y0  1  0.500000  0.705068  0.000341  1
  Y  Y1  1  0.000000  0.294149  0.500116  1
  Y  Y2  1  0.500000  0.700104  0.499865  1
  Y  Y3  1  0.000000  0.300314  0.999806  1
  Ho  Ho4  1  0.500000  0.795255  0.749788  1
  Ho  Ho5  1  0.000000  0.203349  0.750463  1
  Ho  Ho6  1  0.500000  0.795758  0.250592  1
  Ho  Ho7  1  0.000000  0.204004  0.249194  1
  Si  Si8  1  0.500000  0.403548  0.647203  1
  Si  Si9  1  0.000000  0.593688  0.854910  1
  Si  Si10  1  0.500000  0.406655  0.350436  1
  Si  Si11  1  0.000000  0.593208  0.148169  1
  Si  Si12  1  0.500000  0.092892  0.092505  1
  Si  Si13  1  0.000000  0.907553  0.407431  1
  Si  Si14  1  0.500000  0.093402  0.906981  1
  Si  Si15  1  0.000000  0.908756  0.591797  1
  Pd  Pd16  1  0.000000  0.581121  0.656539  1
  Pt  Pt17  1  0.500000  0.074967  0.608751  1
  Pt  Pt18  1  0.000000  0.923951  0.890863  1
  Pt  Pt19  1  0.500000  0.076321  0.391126  1
  Pt  Pt20  1  0.000000  0.923784  0.108882  1
  Pt  Pt21  1  0.500000  0.419991  0.155614  1
  Pt  Pt22  1  0.000000  0.580215  0.346468  1
  Pt  Pt23  1  0.500000  0.421945  0.842158  1
