# generated using pymatgen
data_Tb6EuFeCl12
_symmetry_space_group_name_H-M   'P 1'
_cell_length_a   8.89817162
_cell_length_b   8.89817179
_cell_length_c   8.89817383
_cell_angle_alpha   106.27056534
_cell_angle_beta   106.27056622
_cell_angle_gamma   106.27056154
_symmetry_Int_Tables_number   1
_chemical_formula_structural   Tb6EuFeCl12
_chemical_formula_sum   'Tb6 Eu1 Fe1 Cl12'
_cell_volume   598.03452279
_cell_formula_units_Z   1
loop_
 _symmetry_equiv_pos_site_id
 _symmetry_equiv_pos_as_xyz
  1  'x, y, z'
loop_
 _atom_site_type_symbol
 _atom_site_label
 _atom_site_symmetry_multiplicity
 _atom_site_fract_x
 _atom_site_fract_y
 _atom_site_fract_z
 _atom_site_occupancy
  Tb  Tb0  1  0.101337  0.017556  0.309823  1
  Tb  Tb1  1  0.309823  0.101337  0.017556  1
  Tb  Tb2  1  0.017556  0.309823  0.101337  1
  Tb  Tb3  1  0.898663  0.982444  0.690177  1
  Tb  Tb4  1  0.690177  0.898663  0.982444  1
  Tb  Tb5  1  0.982444  0.690177  0.898663  1
  Eu  Eu6  1  0.500000  0.500000  0.500000  1
  Fe  Fe7  1  0.000000  0.000000  0.000000  1
  Cl  Cl8  1  0.072452  0.679998  0.217069  1
  Cl  Cl9  1  0.217069  0.072452  0.679998  1
  Cl  Cl10  1  0.679998  0.217069  0.072452  1
  Cl  Cl11  1  0.927548  0.320002  0.782931  1
  Cl  Cl12  1  0.782931  0.927548  0.320002  1
  Cl  Cl13  1  0.320002  0.782931  0.927548  1
  Cl  Cl14  1  0.442860  0.147003  0.362890  1
  Cl  Cl15  1  0.362890  0.442860  0.147003  1
  Cl  Cl16  1  0.147003  0.362890  0.442860  1
  Cl  Cl17  1  0.557140  0.852997  0.637110  1
  Cl  Cl18  1  0.637110  0.557140  0.852997  1
  Cl  Cl19  1  0.852997  0.637110  0.557140  1
