# generated using pymatgen
data_La5Th5(Pb3Br)2
_symmetry_space_group_name_H-M   'P 1'
_cell_length_a   9.67151000
_cell_length_b   9.67468666
_cell_length_c   6.76178600
_cell_angle_alpha   90.00000000
_cell_angle_beta   90.00000000
_cell_angle_gamma   120.01086457
_symmetry_Int_Tables_number   1
_chemical_formula_structural   La5Th5(Pb3Br)2
_chemical_formula_sum   'La5 Th5 Pb6 Br2'
_cell_volume   547.86769183
_cell_formula_units_Z   1
loop_
 _symmetry_equiv_pos_site_id
 _symmetry_equiv_pos_as_xyz
  1  'x, y, z'
loop_
 _atom_site_type_symbol
 _atom_site_label
 _atom_site_symmetry_multiplicity
 _atom_site_fract_x
 _atom_site_fract_y
 _atom_site_fract_z
 _atom_site_occupancy
  La  La0  1  0.728060  0.728614  0.250000  1
  La  La1  1  0.271940  0.000555  0.250000  1
  La  La2  1  0.000000  0.271569  0.250000  1
  La  La3  1  0.271862  0.271437  0.750000  1
  La  La4  1  0.728138  0.999574  0.750000  1
  Th  Th5  1  0.669219  0.336376  0.505229  1
  Th  Th6  1  0.330781  0.667159  0.505229  1
  Th  Th7  1  0.330781  0.667159  0.994771  1
  Th  Th8  1  0.669219  0.336376  0.994771  1
  Th  Th9  1  0.000000  0.724199  0.750000  1
  Pb  Pb10  1  0.384043  0.384996  0.250000  1
  Pb  Pb11  1  0.615957  0.000952  0.250000  1
  Pb  Pb12  1  0.000000  0.616746  0.250000  1
  Pb  Pb13  1  0.617454  0.617801  0.750000  1
  Pb  Pb14  1  0.382546  0.000348  0.750000  1
  Pb  Pb15  1  0.000000  0.381891  0.750000  1
  Br  Br16  1  0.000000  0.997123  0.501404  1
  Br  Br17  1  0.000000  0.997123  0.998596  1
