# generated using pymatgen
data_Mg2InPd5
_symmetry_space_group_name_H-M   'P 1'
_cell_length_a   4.18583000
_cell_length_b   5.63310500
_cell_length_c   11.10828300
_cell_angle_alpha   90.00000000
_cell_angle_beta   90.00000000
_cell_angle_gamma   90.00000000
_symmetry_Int_Tables_number   1
_chemical_formula_structural   Mg2InPd5
_chemical_formula_sum   'Mg4 In2 Pd10'
_cell_volume   261.92464759
_cell_formula_units_Z   2
loop_
 _symmetry_equiv_pos_site_id
 _symmetry_equiv_pos_as_xyz
  1  'x, y, z'
loop_
 _atom_site_type_symbol
 _atom_site_label
 _atom_site_symmetry_multiplicity
 _atom_site_fract_x
 _atom_site_fract_y
 _atom_site_fract_z
 _atom_site_occupancy
  Mg  Mg0  1  0.500000  0.315273  0.859573  1
  Mg  Mg1  1  0.500000  0.815273  0.640427  1
  Mg  Mg2  1  0.500000  0.684727  0.140427  1
  Mg  Mg3  1  0.500000  0.184727  0.359573  1
  In  In4  1  0.000000  0.500000  0.500000  1
  In  In5  1  0.000000  0.000000  0.000000  1
  Pd  Pd6  1  0.500000  0.706740  0.384900  1
  Pd  Pd7  1  0.500000  0.293260  0.615100  1
  Pd  Pd8  1  0.000000  0.062523  0.753840  1
  Pd  Pd9  1  0.500000  0.793260  0.884900  1
  Pd  Pd10  1  0.000000  0.437477  0.253840  1
  Pd  Pd11  1  0.000000  0.937477  0.246160  1
  Pd  Pd12  1  0.000000  0.562523  0.746160  1
  Pd  Pd13  1  0.000000  0.500000  0.000000  1
  Pd  Pd14  1  0.000000  0.000000  0.500000  1
  Pd  Pd15  1  0.500000  0.206740  0.115100  1
