# generated using pymatgen
data_Cs4Na2CrH12Ir
_symmetry_space_group_name_H-M   'P 1'
_cell_length_a   10.69165338
_cell_length_b   10.69165404
_cell_length_c   10.69165387
_cell_angle_alpha   34.20192940
_cell_angle_beta   34.20192538
_cell_angle_gamma   34.20192895
_symmetry_Int_Tables_number   1
_chemical_formula_structural   Cs4Na2CrH12Ir
_chemical_formula_sum   'Cs4 Na2 Cr1 H12 Ir1'
_cell_volume   344.33922080
_cell_formula_units_Z   1
loop_
 _symmetry_equiv_pos_site_id
 _symmetry_equiv_pos_as_xyz
  1  'x, y, z'
loop_
 _atom_site_type_symbol
 _atom_site_label
 _atom_site_symmetry_multiplicity
 _atom_site_fract_x
 _atom_site_fract_y
 _atom_site_fract_z
 _atom_site_occupancy
  Cs  Cs0  1  0.128403  0.128403  0.128403  1
  Cs  Cs1  1  0.871597  0.871597  0.871597  1
  Cs  Cs2  1  0.282040  0.282040  0.282040  1
  Cs  Cs3  1  0.717960  0.717960  0.717960  1
  Na  Na4  1  0.403888  0.403888  0.403888  1
  Na  Na5  1  0.596112  0.596112  0.596112  1
  Cr  Cr6  1  0.000000  0.000000  0.000000  1
  H  H7  1  0.168636  0.168636  0.761127  1
  H  H8  1  0.761127  0.168636  0.168636  1
  H  H9  1  0.168636  0.761127  0.168636  1
  H  H10  1  0.831364  0.238873  0.831364  1
  H  H11  1  0.831364  0.831364  0.238873  1
  H  H12  1  0.238873  0.831364  0.831364  1
  H  H13  1  0.404140  0.404140  0.788282  1
  H  H14  1  0.788282  0.404140  0.404140  1
  H  H15  1  0.211718  0.595860  0.595860  1
  H  H16  1  0.595860  0.595860  0.211718  1
  H  H17  1  0.595860  0.211718  0.595860  1
  H  H18  1  0.404140  0.788282  0.404140  1
  Ir  Ir19  1  0.500000  0.500000  0.500000  1
