# generated using pymatgen
data_Tm6Ti6Al10Os7
_symmetry_space_group_name_H-M   'P 1'
_cell_length_a   9.04043089
_cell_length_b   8.98341782
_cell_length_c   8.98199987
_cell_angle_alpha   59.66135066
_cell_angle_beta   59.78474929
_cell_angle_gamma   59.78995220
_symmetry_Int_Tables_number   1
_chemical_formula_structural   Tm6Ti6Al10Os7
_chemical_formula_sum   'Tm6 Ti6 Al10 Os7'
_cell_volume   512.82439343
_cell_formula_units_Z   1
loop_
 _symmetry_equiv_pos_site_id
 _symmetry_equiv_pos_as_xyz
  1  'x, y, z'
loop_
 _atom_site_type_symbol
 _atom_site_label
 _atom_site_symmetry_multiplicity
 _atom_site_fract_x
 _atom_site_fract_y
 _atom_site_fract_z
 _atom_site_occupancy
  Tm  Tm0  1  0.703197  0.710179  0.293179  1
  Tm  Tm1  1  0.293445  0.710179  0.293179  1
  Tm  Tm2  1  0.707705  0.292223  0.292367  1
  Tm  Tm3  1  0.293665  0.293087  0.710074  1
  Tm  Tm4  1  0.703174  0.293088  0.710074  1
  Tm  Tm5  1  0.293618  0.706442  0.706321  1
  Ti  Ti6  1  0.880227  0.880723  0.358822  1
  Ti  Ti7  1  0.880357  0.358718  0.880567  1
  Ti  Ti8  1  0.364307  0.879356  0.879265  1
  Ti  Ti9  1  0.877069  0.879357  0.879266  1
  Ti  Ti10  1  0.122089  0.122901  0.632921  1
  Ti  Ti11  1  0.121952  0.633178  0.122918  1
  Al  Al12  1  0.646364  0.118316  0.118612  1
  Al  Al13  1  0.116707  0.118316  0.118612  1
  Al  Al14  1  0.669341  0.669421  0.991898  1
  Al  Al15  1  0.669489  0.991763  0.669258  1
  Al  Al16  1  0.991850  0.669390  0.669065  1
  Al  Al17  1  0.669695  0.669390  0.669064  1
  Al  Al18  1  0.330720  0.328749  0.009810  1
  Al  Al19  1  0.330642  0.009819  0.328897  1
  Al  Al20  1  0.003963  0.330867  0.331059  1
  Al  Al21  1  0.334110  0.330867  0.331060  1
  Os  Os22  1  0.007605  0.992304  0.992487  1
  Os  Os23  1  0.999391  0.999953  0.504813  1
  Os  Os24  1  0.495843  0.999954  0.504812  1
  Os  Os25  1  0.999111  0.500932  0.500846  1
  Os  Os26  1  0.495776  0.504846  0.999952  1
  Os  Os27  1  0.999426  0.504847  0.999952  1
  Os  Os28  1  0.499158  0.000836  0.000849  1
