# generated using pymatgen
data_Tb8Ho2In8Ni3Ag
_symmetry_space_group_name_H-M   'P 1'
_cell_length_a   8.14670444
_cell_length_b   18.26851354
_cell_length_c   3.60114800
_cell_angle_alpha   90.00000000
_cell_angle_beta   90.00000000
_cell_angle_gamma   89.96556573
_symmetry_Int_Tables_number   1
_chemical_formula_structural   Tb8Ho2In8Ni3Ag
_chemical_formula_sum   'Tb8 Ho2 In8 Ni3 Ag1'
_cell_volume   535.95220733
_cell_formula_units_Z   1
loop_
 _symmetry_equiv_pos_site_id
 _symmetry_equiv_pos_as_xyz
  1  'x, y, z'
loop_
 _atom_site_type_symbol
 _atom_site_label
 _atom_site_symmetry_multiplicity
 _atom_site_fract_x
 _atom_site_fract_y
 _atom_site_fract_z
 _atom_site_occupancy
  Tb  Tb0  1  0.498167  0.502176  0.000000  1
  Tb  Tb1  1  0.000820  0.997592  0.000000  1
  Tb  Tb2  1  0.767300  0.287501  0.000000  1
  Tb  Tb3  1  0.251349  0.719707  0.000000  1
  Tb  Tb4  1  0.752568  0.777258  0.000000  1
  Tb  Tb5  1  0.223081  0.223195  0.000000  1
  Tb  Tb6  1  0.625164  0.075214  0.000000  1
  Tb  Tb7  1  0.381082  0.908784  0.000000  1
  Ho  Ho8  1  0.880908  0.590300  0.000000  1
  Ho  Ho9  1  0.121087  0.415210  0.000000  1
  In  In10  1  0.706056  0.926087  0.500000  1
  In  In11  1  0.294199  0.066722  0.500000  1
  In  In12  1  0.799816  0.437713  0.500000  1
  In  In13  1  0.200228  0.569609  0.500000  1
  In  In14  1  0.571128  0.652091  0.500000  1
  In  In15  1  0.425321  0.351293  0.500000  1
  In  In16  1  0.920807  0.150609  0.500000  1
  In  In17  1  0.069750  0.845787  0.500000  1
  Ni  Ni18  1  0.474271  0.801832  0.500000  1
  Ni  Ni19  1  0.974274  0.695776  0.500000  1
  Ni  Ni20  1  0.031005  0.306743  0.500000  1
  Ag  Ag21  1  0.531618  0.198802  0.500000  1
