# generated using pymatgen
data_Ho8Lu12Si15Hg
_symmetry_space_group_name_H-M   'P 1'
_cell_length_a   7.30207778
_cell_length_b   7.59355316
_cell_length_c   14.42173439
_cell_angle_alpha   89.87763578
_cell_angle_beta   89.32026703
_cell_angle_gamma   89.99124733
_symmetry_Int_Tables_number   1
_chemical_formula_structural   Ho8Lu12Si15Hg
_chemical_formula_sum   'Ho8 Lu12 Si15 Hg1'
_cell_volume   799.60854874
_cell_formula_units_Z   1
loop_
 _symmetry_equiv_pos_site_id
 _symmetry_equiv_pos_as_xyz
  1  'x, y, z'
loop_
 _atom_site_type_symbol
 _atom_site_label
 _atom_site_symmetry_multiplicity
 _atom_site_fract_x
 _atom_site_fract_y
 _atom_site_fract_z
 _atom_site_occupancy
  Ho  Ho0  1  0.015444  0.177910  0.098043  1
  Ho  Ho1  1  0.983765  0.822833  0.904264  1
  Ho  Ho2  1  0.483861  0.679508  0.903857  1
  Ho  Ho3  1  0.987450  0.829760  0.598625  1
  Ho  Ho4  1  0.514981  0.320320  0.097100  1
  Ho  Ho5  1  0.009447  0.172490  0.398212  1
  Ho  Ho6  1  0.513035  0.318537  0.398909  1
  Ho  Ho7  1  0.493553  0.685933  0.599950  1
  Lu  Lu8  1  0.163343  0.508136  0.752728  1
  Lu  Lu9  1  0.836451  0.491751  0.250593  1
  Lu  Lu10  1  0.336080  0.007038  0.249449  1
  Lu  Lu11  1  0.666298  0.990387  0.751031  1
  Lu  Lu12  1  0.340325  0.169257  0.626300  1
  Lu  Lu13  1  0.664075  0.823881  0.375494  1
  Lu  Lu14  1  0.167055  0.678363  0.372153  1
  Lu  Lu15  1  0.670373  0.822021  0.122899  1
  Lu  Lu16  1  0.828274  0.325439  0.624341  1
  Lu  Lu17  1  0.328707  0.177345  0.877766  1
  Lu  Lu18  1  0.827785  0.321058  0.877894  1
  Lu  Lu19  1  0.170186  0.678256  0.123551  1
  Si  Si20  1  0.036835  0.113485  0.752545  1
  Si  Si21  1  0.963044  0.890852  0.247800  1
  Si  Si22  1  0.466039  0.607893  0.247889  1
  Si  Si23  1  0.534170  0.392381  0.751823  1
  Si  Si24  1  0.282028  0.872010  0.752487  1
  Si  Si25  1  0.715832  0.128880  0.247506  1
  Si  Si26  1  0.216743  0.368498  0.247577  1
  Si  Si27  1  0.784704  0.629883  0.753263  1
  Si  Si28  1  0.832072  0.533090  0.458470  1
  Si  Si29  1  0.331914  0.965517  0.459339  1
  Si  Si30  1  0.843741  0.532290  0.038692  1
  Si  Si31  1  0.667038  0.035201  0.538327  1
  Si  Si32  1  0.155071  0.467151  0.962188  1
  Si  Si33  1  0.655956  0.030992  0.960558  1
  Si  Si34  1  0.342825  0.968535  0.040049  1
  Hg  Hg35  1  0.171504  0.463115  0.538331  1
