# generated using pymatgen
data_Tb3(AlCu2)5
_symmetry_space_group_name_H-M   'P 1'
_cell_length_a   8.92711500
_cell_length_b   8.92711517
_cell_length_c   4.13872900
_cell_angle_alpha   90.00000000
_cell_angle_beta   90.00000000
_cell_angle_gamma   120.16571979
_symmetry_Int_Tables_number   1
_chemical_formula_structural   Tb3(AlCu2)5
_chemical_formula_sum   'Tb3 Al5 Cu10'
_cell_volume   285.16238254
_cell_formula_units_Z   1
loop_
 _symmetry_equiv_pos_site_id
 _symmetry_equiv_pos_as_xyz
  1  'x, y, z'
loop_
 _atom_site_type_symbol
 _atom_site_label
 _atom_site_symmetry_multiplicity
 _atom_site_fract_x
 _atom_site_fract_y
 _atom_site_fract_z
 _atom_site_occupancy
  Tb  Tb0  1  0.333922  0.666078  0.000000  1
  Tb  Tb1  1  0.666078  0.333922  0.000000  1
  Tb  Tb2  1  0.000000  0.000000  0.000000  1
  Al  Al3  1  0.500000  0.000000  0.500000  1
  Al  Al4  1  0.000000  0.500000  0.500000  1
  Al  Al5  1  0.500000  0.500000  0.500000  1
  Al  Al6  1  0.158906  0.841094  0.500000  1
  Al  Al7  1  0.841094  0.158906  0.500000  1
  Cu  Cu8  1  0.334097  0.999813  0.000000  1
  Cu  Cu9  1  0.665903  0.000187  0.000000  1
  Cu  Cu10  1  0.999813  0.334097  0.000000  1
  Cu  Cu11  1  0.000187  0.665903  0.000000  1
  Cu  Cu12  1  0.668856  0.668856  0.000000  1
  Cu  Cu13  1  0.331144  0.331144  0.000000  1
  Cu  Cu14  1  0.171054  0.338462  0.500000  1
  Cu  Cu15  1  0.828946  0.661538  0.500000  1
  Cu  Cu16  1  0.661538  0.828946  0.500000  1
  Cu  Cu17  1  0.338462  0.171054  0.500000  1
