# generated using pymatgen
data_Y(HoPt2)9
_symmetry_space_group_name_H-M   'P 1'
_cell_length_a   9.76365524
_cell_length_b   9.75555724
_cell_length_c   5.76685600
_cell_angle_alpha   90.00000000
_cell_angle_beta   90.00000000
_cell_angle_gamma   90.02520882
_symmetry_Int_Tables_number   1
_chemical_formula_structural   Y(HoPt2)9
_chemical_formula_sum   'Y1 Ho9 Pt18'
_cell_volume   549.29238968
_cell_formula_units_Z   1
loop_
 _symmetry_equiv_pos_site_id
 _symmetry_equiv_pos_as_xyz
  1  'x, y, z'
loop_
 _atom_site_type_symbol
 _atom_site_label
 _atom_site_symmetry_multiplicity
 _atom_site_fract_x
 _atom_site_fract_y
 _atom_site_fract_z
 _atom_site_occupancy
  Y  Y0  1  0.452315  0.809492  0.000000  1
  Ho  Ho1  1  0.547697  0.190695  0.000000  1
  Ho  Ho2  1  0.190528  0.547637  0.000000  1
  Ho  Ho3  1  0.809321  0.452328  0.000000  1
  Ho  Ho4  1  0.500024  0.499974  0.500000  1
  Ho  Ho5  1  0.309311  0.047735  0.500000  1
  Ho  Ho6  1  0.690685  0.952274  0.500000  1
  Ho  Ho7  1  0.952315  0.690612  0.500000  1
  Ho  Ho8  1  0.047708  0.309373  0.500000  1
  Ho  Ho9  1  0.000078  0.999999  0.000000  1
  Pt  Pt10  1  0.191034  0.808546  0.251093  1
  Pt  Pt11  1  0.808521  0.191512  0.749264  1
  Pt  Pt12  1  0.808521  0.191512  0.250736  1
  Pt  Pt13  1  0.191034  0.808546  0.748907  1
  Pt  Pt14  1  0.440201  0.781481  0.500000  1
  Pt  Pt15  1  0.559718  0.218404  0.500000  1
  Pt  Pt16  1  0.218424  0.559698  0.500000  1
  Pt  Pt17  1  0.781624  0.440274  0.500000  1
  Pt  Pt18  1  0.308497  0.308533  0.249270  1
  Pt  Pt19  1  0.691840  0.691309  0.750448  1
  Pt  Pt20  1  0.691840  0.691309  0.249552  1
  Pt  Pt21  1  0.308497  0.308533  0.750730  1
  Pt  Pt22  1  0.281263  0.060147  0.000000  1
  Pt  Pt23  1  0.718969  0.940520  0.000000  1
  Pt  Pt24  1  0.940301  0.718374  0.000000  1
  Pt  Pt25  1  0.059689  0.281608  0.000000  1
  Pt  Pt26  1  0.999950  0.000005  0.500000  1
  Pt  Pt27  1  0.500095  0.499569  0.000000  1
