# generated using pymatgen
data_Y4Th2Fe15(CoP4)3
_symmetry_space_group_name_H-M   'P 1'
_cell_length_a   3.74996700
_cell_length_b   10.62063611
_cell_length_c   12.22494731
_cell_angle_alpha   89.94723194
_cell_angle_beta   90.00000000
_cell_angle_gamma   90.00000000
_symmetry_Int_Tables_number   1
_chemical_formula_structural   Y4Th2Fe15(CoP4)3
_chemical_formula_sum   'Y4 Th2 Fe15 Co3 P12'
_cell_volume   486.88319725
_cell_formula_units_Z   1
loop_
 _symmetry_equiv_pos_site_id
 _symmetry_equiv_pos_as_xyz
  1  'x, y, z'
loop_
 _atom_site_type_symbol
 _atom_site_label
 _atom_site_symmetry_multiplicity
 _atom_site_fract_x
 _atom_site_fract_y
 _atom_site_fract_z
 _atom_site_occupancy
  Y  Y0  1  0.500000  0.818935  0.205575  1
  Y  Y1  1  0.500000  0.182038  0.203152  1
  Y  Y2  1  0.000000  0.681467  0.794458  1
  Y  Y3  1  0.000000  0.317923  0.797061  1
  Th  Th4  1  0.000000  0.498636  0.526061  1
  Th  Th5  1  0.500000  0.000806  0.473649  1
  Fe  Fe6  1  0.500000  0.501589  0.151411  1
  Fe  Fe7  1  0.000000  0.996804  0.849766  1
  Fe  Fe8  1  0.000000  0.503318  0.988537  1
  Fe  Fe9  1  0.500000  0.996696  0.011925  1
  Fe  Fe10  1  0.500000  0.332923  0.996058  1
  Fe  Fe11  1  0.500000  0.673189  0.996914  1
  Fe  Fe12  1  0.000000  0.166750  0.003954  1
  Fe  Fe13  1  0.000000  0.826337  0.003703  1
  Fe  Fe14  1  0.500000  0.301364  0.427266  1
  Fe  Fe15  1  0.500000  0.699958  0.428892  1
  Fe  Fe16  1  0.000000  0.199324  0.571382  1
  Fe  Fe17  1  0.000000  0.801099  0.571331  1
  Fe  Fe18  1  0.500000  0.883863  0.711230  1
  Fe  Fe19  1  0.500000  0.116904  0.714201  1
  Fe  Fe20  1  0.000000  0.616324  0.289010  1
  Co  Co21  1  0.500000  0.500675  0.699896  1
  Co  Co22  1  0.000000  0.999812  0.300193  1
  Co  Co23  1  0.000000  0.382035  0.284050  1
  P  P24  1  0.500000  0.500316  0.885688  1
  P  P25  1  0.000000  0.999660  0.114303  1
  P  P26  1  0.500000  0.501970  0.336711  1
  P  P27  1  0.000000  0.000921  0.664715  1
  P  P28  1  0.500000  0.300437  0.616356  1
  P  P29  1  0.500000  0.699283  0.615327  1
  P  P30  1  0.000000  0.199005  0.383910  1
  P  P31  1  0.000000  0.800733  0.384589  1
  P  P32  1  0.500000  0.850487  0.889820  1
  P  P33  1  0.500000  0.152947  0.896848  1
  P  P34  1  0.000000  0.649564  0.110534  1
  P  P35  1  0.000000  0.345908  0.101527  1
