# generated using pymatgen
data_Rb4Hf7ZrSe16
_symmetry_space_group_name_H-M   'P 1'
_cell_length_a   6.54782590
_cell_length_b   7.56474700
_cell_length_c   17.19149234
_cell_angle_alpha   90.00000000
_cell_angle_beta   90.05992183
_cell_angle_gamma   90.00000000
_symmetry_Int_Tables_number   1
_chemical_formula_structural   Rb4Hf7ZrSe16
_chemical_formula_sum   'Rb4 Hf7 Zr1 Se16'
_cell_volume   851.53964423
_cell_formula_units_Z   1
loop_
 _symmetry_equiv_pos_site_id
 _symmetry_equiv_pos_as_xyz
  1  'x, y, z'
loop_
 _atom_site_type_symbol
 _atom_site_label
 _atom_site_symmetry_multiplicity
 _atom_site_fract_x
 _atom_site_fract_y
 _atom_site_fract_z
 _atom_site_occupancy
  Rb  Rb0  1  0.350363  0.000000  0.999834  1
  Rb  Rb1  1  0.651721  0.500000  0.500212  1
  Rb  Rb2  1  0.029542  0.000000  0.500264  1
  Rb  Rb3  1  0.971076  0.500000  0.999425  1
  Hf  Hf4  1  0.001778  0.000000  0.249199  1
  Hf  Hf5  1  0.001595  0.000000  0.750840  1
  Hf  Hf6  1  0.998298  0.500000  0.250796  1
  Hf  Hf7  1  0.500023  0.250038  0.250006  1
  Hf  Hf8  1  0.500137  0.748177  0.750028  1
  Hf  Hf9  1  0.500023  0.749962  0.250006  1
  Hf  Hf10  1  0.500137  0.251823  0.750028  1
  Zr  Zr11  1  0.997966  0.500000  0.749189  1
  Se  Se12  1  0.833815  0.248491  0.343091  1
  Se  Se13  1  0.831247  0.754795  0.656031  1
  Se  Se14  1  0.166229  0.748494  0.156913  1
  Se  Se15  1  0.168148  0.248421  0.843864  1
  Se  Se16  1  0.166229  0.251506  0.156913  1
  Se  Se17  1  0.168148  0.751579  0.843864  1
  Se  Se18  1  0.833815  0.751509  0.343091  1
  Se  Se19  1  0.831247  0.245205  0.656031  1
  Se  Se20  1  0.669516  0.000000  0.157827  1
  Se  Se21  1  0.669856  0.000000  0.841683  1
  Se  Se22  1  0.330550  0.500000  0.342247  1
  Se  Se23  1  0.334710  0.500000  0.656631  1
  Se  Se24  1  0.336510  0.000000  0.341718  1
  Se  Se25  1  0.335425  0.000000  0.658991  1
  Se  Se26  1  0.663614  0.500000  0.158264  1
  Se  Se27  1  0.658281  0.500000  0.843018  1
