# generated using pymatgen
data_Tb12CoIrPd2
_symmetry_space_group_name_H-M   'P 1'
_cell_length_a   6.41343613
_cell_length_b   7.11330714
_cell_length_c   9.57982400
_cell_angle_alpha   90.00000000
_cell_angle_beta   90.00000000
_cell_angle_gamma   89.76589273
_symmetry_Int_Tables_number   1
_chemical_formula_structural   Tb12CoIrPd2
_chemical_formula_sum   'Tb12 Co1 Ir1 Pd2'
_cell_volume   437.03502174
_cell_formula_units_Z   1
loop_
 _symmetry_equiv_pos_site_id
 _symmetry_equiv_pos_as_xyz
  1  'x, y, z'
loop_
 _atom_site_type_symbol
 _atom_site_label
 _atom_site_symmetry_multiplicity
 _atom_site_fract_x
 _atom_site_fract_y
 _atom_site_fract_z
 _atom_site_occupancy
  Tb  Tb0  1  0.320828  0.689216  0.062236  1
  Tb  Tb1  1  0.167828  0.166597  0.432577  1
  Tb  Tb2  1  0.668749  0.325209  0.559616  1
  Tb  Tb3  1  0.822903  0.816665  0.939599  1
  Tb  Tb4  1  0.668749  0.325209  0.940384  1
  Tb  Tb5  1  0.822903  0.816665  0.560401  1
  Tb  Tb6  1  0.320828  0.689216  0.437764  1
  Tb  Tb7  1  0.167828  0.166597  0.067423  1
  Tb  Tb8  1  0.880330  0.543411  0.250000  1
  Tb  Tb9  1  0.646461  0.021514  0.250000  1
  Tb  Tb10  1  0.136491  0.473601  0.750000  1
  Tb  Tb11  1  0.374277  0.966897  0.750000  1
  Co  Co12  1  0.056901  0.882844  0.250000  1
  Ir  Ir13  1  0.557577  0.613003  0.750000  1
  Pd  Pd14  1  0.443296  0.391597  0.250000  1
  Pd  Pd15  1  0.944049  0.111759  0.750000  1
