# generated using pymatgen
data_Th7Re2Pt
_symmetry_space_group_name_H-M   'P 1'
_cell_length_a   10.08459400
_cell_length_b   10.12007128
_cell_length_c   6.31426440
_cell_angle_alpha   89.63160608
_cell_angle_beta   90.00000000
_cell_angle_gamma   119.88410211
_symmetry_Int_Tables_number   1
_chemical_formula_structural   Th7Re2Pt
_chemical_formula_sum   'Th14 Re4 Pt2'
_cell_volume   558.71387493
_cell_formula_units_Z   2
loop_
 _symmetry_equiv_pos_site_id
 _symmetry_equiv_pos_as_xyz
  1  'x, y, z'
loop_
 _atom_site_type_symbol
 _atom_site_label
 _atom_site_symmetry_multiplicity
 _atom_site_fract_x
 _atom_site_fract_y
 _atom_site_fract_z
 _atom_site_occupancy
  Th  Th0  1  0.668096  0.336192  0.550892  1
  Th  Th1  1  0.332595  0.665191  0.033485  1
  Th  Th2  1  0.875961  0.751922  0.751276  1
  Th  Th3  1  0.248074  0.125482  0.756260  1
  Th  Th4  1  0.877408  0.125482  0.756260  1
  Th  Th5  1  0.132534  0.265069  0.252605  1
  Th  Th6  1  0.746790  0.867753  0.252293  1
  Th  Th7  1  0.120962  0.867753  0.252293  1
  Th  Th8  1  0.457605  0.915210  0.544906  1
  Th  Th9  1  0.081156  0.545086  0.548557  1
  Th  Th10  1  0.463930  0.545086  0.548557  1
  Th  Th11  1  0.534383  0.068765  0.035151  1
  Th  Th12  1  0.921385  0.464171  0.042613  1
  Th  Th13  1  0.542787  0.464171  0.042613  1
  Re  Re14  1  0.185240  0.370479  0.799110  1
  Re  Re15  1  0.629678  0.818526  0.804214  1
  Re  Re16  1  0.188849  0.818526  0.804214  1
  Re  Re17  1  0.808682  0.617365  0.307354  1
  Pt  Pt18  1  0.376448  0.183886  0.302722  1
  Pt  Pt19  1  0.807437  0.183886  0.302722  1
