# generated using pymatgen
data_TbNbB2Ru5W
_symmetry_space_group_name_H-M   'P 1'
_cell_length_a   9.56581515
_cell_length_b   9.56581559
_cell_length_c   3.04872000
_cell_angle_alpha   90.00000000
_cell_angle_beta   90.00000000
_cell_angle_gamma   90.63325671
_symmetry_Int_Tables_number   1
_chemical_formula_structural   TbNbB2Ru5W
_chemical_formula_sum   'Tb2 Nb2 B4 Ru10 W2'
_cell_volume   278.95554739
_cell_formula_units_Z   2
loop_
 _symmetry_equiv_pos_site_id
 _symmetry_equiv_pos_as_xyz
  1  'x, y, z'
loop_
 _atom_site_type_symbol
 _atom_site_label
 _atom_site_symmetry_multiplicity
 _atom_site_fract_x
 _atom_site_fract_y
 _atom_site_fract_z
 _atom_site_occupancy
  Tb  Tb0  1  0.823623  0.676377  0.000000  1
  Tb  Tb1  1  0.176377  0.323623  0.000000  1
  Nb  Nb2  1  0.324381  0.824381  0.000000  1
  Nb  Nb3  1  0.675619  0.175619  0.000000  1
  B  B4  1  0.619389  0.880611  0.000000  1
  B  B5  1  0.380611  0.119389  0.000000  1
  B  B6  1  0.121586  0.621586  0.000000  1
  B  B7  1  0.878414  0.378414  0.000000  1
  Ru  Ru8  1  0.561220  0.720887  0.500000  1
  Ru  Ru9  1  0.438780  0.279113  0.500000  1
  Ru  Ru10  1  0.079461  0.786969  0.500000  1
  Ru  Ru11  1  0.920539  0.213031  0.500000  1
  Ru  Ru12  1  0.286969  0.579461  0.500000  1
  Ru  Ru13  1  0.713031  0.420539  0.500000  1
  Ru  Ru14  1  0.220887  0.061220  0.500000  1
  Ru  Ru15  1  0.779113  0.938780  0.500000  1
  Ru  Ru16  1  0.500000  0.000000  0.500000  1
  Ru  Ru17  1  0.000000  0.500000  0.500000  1
  W  W18  1  0.500000  0.500000  0.000000  1
  W  W19  1  0.000000  0.000000  0.000000  1
