# generated using pymatgen
data_Ho5U2O12
_symmetry_space_group_name_H-M   'P 1'
_cell_length_a   6.57416636
_cell_length_b   6.60335964
_cell_length_c   6.53678425
_cell_angle_alpha   99.40865415
_cell_angle_beta   98.76830648
_cell_angle_gamma   99.24559650
_symmetry_Int_Tables_number   1
_chemical_formula_structural   Ho5U2O12
_chemical_formula_sum   'Ho5 U2 O12'
_cell_volume   271.62448835
_cell_formula_units_Z   1
loop_
 _symmetry_equiv_pos_site_id
 _symmetry_equiv_pos_as_xyz
  1  'x, y, z'
loop_
 _atom_site_type_symbol
 _atom_site_label
 _atom_site_symmetry_multiplicity
 _atom_site_fract_x
 _atom_site_fract_y
 _atom_site_fract_z
 _atom_site_occupancy
  Ho  Ho0  1  0.860795  0.693249  0.395121  1
  Ho  Ho1  1  0.389430  0.855416  0.683245  1
  Ho  Ho2  1  0.310426  0.611986  0.144852  1
  Ho  Ho3  1  0.143892  0.313765  0.606622  1
  Ho  Ho4  1  0.606167  0.133694  0.312277  1
  U  U5  1  0.689532  0.396375  0.861546  1
  U  U6  1  0.003493  0.003800  0.001066  1
  O  O7  1  0.427923  0.176647  0.584259  1
  O  O8  1  0.586752  0.424379  0.168367  1
  O  O9  1  0.174768  0.582408  0.431673  1
  O  O10  1  0.568214  0.818232  0.412205  1
  O  O11  1  0.421190  0.570634  0.822169  1
  O  O12  1  0.813667  0.415849  0.574432  1
  O  O13  1  0.076274  0.319867  0.942385  1
  O  O14  1  0.685397  0.056365  0.921711  1
  O  O15  1  0.055685  0.923600  0.685182  1
  O  O16  1  0.926821  0.684110  0.059550  1
  O  O17  1  0.316615  0.943622  0.075917  1
  O  O18  1  0.942957  0.076001  0.317420  1
