# generated using pymatgen
data_ZrAl4GaFe6Ge
_symmetry_space_group_name_H-M   'P 1'
_cell_length_a   6.48785428
_cell_length_b   6.47579177
_cell_length_c   6.47579216
_cell_angle_alpha   135.06809314
_cell_angle_beta   99.61392625
_cell_angle_gamma   97.15197980
_symmetry_Int_Tables_number   1
_chemical_formula_structural   ZrAl4GaFe6Ge
_chemical_formula_sum   'Zr1 Al4 Ga1 Fe6 Ge1'
_cell_volume   177.57457397
_cell_formula_units_Z   1
loop_
 _symmetry_equiv_pos_site_id
 _symmetry_equiv_pos_as_xyz
  1  'x, y, z'
loop_
 _atom_site_type_symbol
 _atom_site_label
 _atom_site_symmetry_multiplicity
 _atom_site_fract_x
 _atom_site_fract_y
 _atom_site_fract_z
 _atom_site_occupancy
  Zr  Zr0  1  0.000912  0.000290  0.000621  1
  Al  Al1  1  0.652496  0.998438  0.654058  1
  Al  Al2  1  0.658380  0.656180  0.002200  1
  Al  Al3  1  0.344346  0.342095  0.002250  1
  Al  Al4  1  0.185360  0.684611  0.500750  1
  Ga  Ga5  1  0.825289  0.324526  0.500763  1
  Fe  Fe6  1  0.758697  0.500687  0.258010  1
  Fe  Fe7  1  0.243426  0.500731  0.742694  1
  Fe  Fe8  1  0.998065  0.000026  0.502135  1
  Fe  Fe9  1  0.998065  0.495930  0.998038  1
  Fe  Fe10  1  0.500367  0.998456  0.999626  1
  Fe  Fe11  1  0.500367  0.500740  0.501911  1
  Ge  Ge12  1  0.334232  0.997288  0.336944  1
