# generated using pymatgen
data_Hf18MnRe2Mo6P
_symmetry_space_group_name_H-M   'P 1'
_cell_length_a   8.62241927
_cell_length_b   8.62241977
_cell_length_c   8.58542800
_cell_angle_alpha   90.00000000
_cell_angle_beta   90.00000000
_cell_angle_gamma   120.02860432
_symmetry_Int_Tables_number   1
_chemical_formula_structural   Hf18MnRe2Mo6P
_chemical_formula_sum   'Hf18 Mn1 Re2 Mo6 P1'
_cell_volume   552.61876659
_cell_formula_units_Z   1
loop_
 _symmetry_equiv_pos_site_id
 _symmetry_equiv_pos_as_xyz
  1  'x, y, z'
loop_
 _atom_site_type_symbol
 _atom_site_label
 _atom_site_symmetry_multiplicity
 _atom_site_fract_x
 _atom_site_fract_y
 _atom_site_fract_z
 _atom_site_occupancy
  Hf  Hf0  1  0.202117  0.797883  0.441240  1
  Hf  Hf1  1  0.202559  0.404721  0.442469  1
  Hf  Hf2  1  0.595279  0.797441  0.442469  1
  Hf  Hf3  1  0.802971  0.197029  0.547563  1
  Hf  Hf4  1  0.803225  0.606948  0.547161  1
  Hf  Hf5  1  0.393052  0.196775  0.547161  1
  Hf  Hf6  1  0.802971  0.197029  0.952437  1
  Hf  Hf7  1  0.803225  0.606948  0.952839  1
  Hf  Hf8  1  0.393052  0.196775  0.952839  1
  Hf  Hf9  1  0.202117  0.797883  0.058760  1
  Hf  Hf10  1  0.202559  0.404721  0.057531  1
  Hf  Hf11  1  0.595279  0.797441  0.057531  1
  Hf  Hf12  1  0.540187  0.459813  0.250000  1
  Hf  Hf13  1  0.539474  0.080777  0.250000  1
  Hf  Hf14  1  0.919223  0.460526  0.250000  1
  Hf  Hf15  1  0.461958  0.538042  0.750000  1
  Hf  Hf16  1  0.461740  0.923987  0.750000  1
  Hf  Hf17  1  0.076013  0.538260  0.750000  1
  Mn  Mn18  1  0.333613  0.666387  0.250000  1
  Re  Re19  1  0.888607  0.775441  0.250000  1
  Re  Re20  1  0.224559  0.111393  0.250000  1
  Mo  Mo21  1  0.889746  0.110254  0.250000  1
  Mo  Mo22  1  0.110817  0.889183  0.750000  1
  Mo  Mo23  1  0.111800  0.222939  0.750000  1
  Mo  Mo24  1  0.777061  0.888200  0.750000  1
  Mo  Mo25  1  0.000226  0.999774  0.498689  1
  Mo  Mo26  1  0.000226  0.999774  0.001311  1
  P  P27  1  0.666348  0.333652  0.750000  1
