# generated using pymatgen
data_Mn2Be(Fe2Si)3
_symmetry_space_group_name_H-M   'P 1'
_cell_length_a   3.90609300
_cell_length_b   5.50121900
_cell_length_c   11.70545100
_cell_angle_alpha   90.00000000
_cell_angle_beta   90.00000000
_cell_angle_gamma   90.00000000
_symmetry_Int_Tables_number   1
_chemical_formula_structural   Mn2Be(Fe2Si)3
_chemical_formula_sum   'Mn4 Be2 Fe12 Si6'
_cell_volume   251.52992700
_cell_formula_units_Z   2
loop_
 _symmetry_equiv_pos_site_id
 _symmetry_equiv_pos_as_xyz
  1  'x, y, z'
loop_
 _atom_site_type_symbol
 _atom_site_label
 _atom_site_symmetry_multiplicity
 _atom_site_fract_x
 _atom_site_fract_y
 _atom_site_fract_z
 _atom_site_occupancy
  Mn  Mn0  1  0.000025  0.000000  0.994219  1
  Mn  Mn1  1  0.499716  0.500001  0.164551  1
  Mn  Mn2  1  0.999715  0.000000  0.335448  1
  Mn  Mn3  1  0.500024  0.500001  0.505781  1
  Be  Be4  1  0.000302  0.000000  0.668320  1
  Be  Be5  1  0.500301  0.500001  0.831680  1
  Fe  Fe6  1  0.500022  0.251328  0.997974  1
  Fe  Fe7  1  0.500022  0.748672  0.997974  1
  Fe  Fe8  1  0.999721  0.251518  0.166426  1
  Fe  Fe9  1  0.999721  0.748481  0.166426  1
  Fe  Fe10  1  0.499722  0.248483  0.333574  1
  Fe  Fe11  1  0.499722  0.751519  0.333574  1
  Fe  Fe12  1  0.000023  0.248671  0.502026  1
  Fe  Fe13  1  0.000023  0.751328  0.502026  1
  Fe  Fe14  1  0.500253  0.249638  0.668952  1
  Fe  Fe15  1  0.500253  0.750364  0.668952  1
  Fe  Fe16  1  0.000254  0.250363  0.831048  1
  Fe  Fe17  1  0.000254  0.749636  0.831048  1
  Si  Si18  1  0.000001  0.500001  0.993396  1
  Si  Si19  1  0.499718  0.000000  0.163525  1
  Si  Si20  1  0.999717  0.500001  0.336475  1
  Si  Si21  1  0.500000  0.000000  0.506604  1
  Si  Si22  1  0.000246  0.500001  0.668744  1
  Si  Si23  1  0.500245  0.000000  0.831256  1
