# generated using pymatgen
data_Li3HoVNi9P7
_symmetry_space_group_name_H-M   'P 1'
_cell_length_a   9.11512080
_cell_length_b   9.05006388
_cell_length_c   3.64650600
_cell_angle_alpha   90.00000000
_cell_angle_beta   90.00000000
_cell_angle_gamma   119.70268952
_symmetry_Int_Tables_number   1
_chemical_formula_structural   Li3HoVNi9P7
_chemical_formula_sum   'Li3 Ho1 V1 Ni9 P7'
_cell_volume   261.28528919
_cell_formula_units_Z   1
loop_
 _symmetry_equiv_pos_site_id
 _symmetry_equiv_pos_as_xyz
  1  'x, y, z'
loop_
 _atom_site_type_symbol
 _atom_site_label
 _atom_site_symmetry_multiplicity
 _atom_site_fract_x
 _atom_site_fract_y
 _atom_site_fract_z
 _atom_site_occupancy
  Li  Li0  1  0.894401  0.115075  0.500000  1
  Li  Li1  1  0.216863  0.104441  0.500000  1
  Li  Li2  1  0.665198  0.332918  0.500000  1
  Ho  Ho3  1  0.333666  0.665191  0.000000  1
  V  V4  1  0.881858  0.783668  0.500000  1
  Ni  Ni5  1  0.716725  0.882231  0.000000  1
  Ni  Ni6  1  0.163238  0.280525  0.000000  1
  Ni  Ni7  1  0.124363  0.837372  0.000000  1
  Ni  Ni8  1  0.631042  0.569300  0.000000  1
  Ni  Ni9  1  0.938034  0.368534  0.000000  1
  Ni  Ni10  1  0.429822  0.059749  0.000000  1
  Ni  Ni11  1  0.565588  0.956536  0.500000  1
  Ni  Ni12  1  0.391555  0.434811  0.500000  1
  Ni  Ni13  1  0.046390  0.610586  0.500000  1
  P  P14  1  0.597213  0.713185  0.500000  1
  P  P15  1  0.120078  0.407327  0.500000  1
  P  P16  1  0.287952  0.879805  0.500000  1
  P  P17  1  0.997565  0.993884  0.000000  1
  P  P18  1  0.880759  0.581163  0.000000  1
  P  P19  1  0.695970  0.121790  0.000000  1
  P  P20  1  0.421719  0.301912  0.000000  1
