# generated using pymatgen
data_Hf9TaRe3Ge
_symmetry_space_group_name_H-M   'P 1'
_cell_length_a   8.68493500
_cell_length_b   8.68493496
_cell_length_c   8.64790700
_cell_angle_alpha   90.00000000
_cell_angle_beta   90.00000000
_cell_angle_gamma   120.00000398
_symmetry_Int_Tables_number   1
_chemical_formula_structural   Hf9TaRe3Ge
_chemical_formula_sum   'Hf18 Ta2 Re6 Ge2'
_cell_volume   564.90415291
_cell_formula_units_Z   2
loop_
 _symmetry_equiv_pos_site_id
 _symmetry_equiv_pos_as_xyz
  1  'x, y, z'
loop_
 _atom_site_type_symbol
 _atom_site_label
 _atom_site_symmetry_multiplicity
 _atom_site_fract_x
 _atom_site_fract_y
 _atom_site_fract_z
 _atom_site_occupancy
  Hf  Hf0  1  0.195735  0.804265  0.454025  1
  Hf  Hf1  1  0.195735  0.391469  0.454025  1
  Hf  Hf2  1  0.608531  0.804265  0.454025  1
  Hf  Hf3  1  0.804265  0.195735  0.545975  1
  Hf  Hf4  1  0.804265  0.608531  0.545975  1
  Hf  Hf5  1  0.391469  0.195735  0.545975  1
  Hf  Hf6  1  0.804265  0.195735  0.954025  1
  Hf  Hf7  1  0.804265  0.608531  0.954025  1
  Hf  Hf8  1  0.391469  0.195735  0.954025  1
  Hf  Hf9  1  0.195735  0.804265  0.045975  1
  Hf  Hf10  1  0.195735  0.391469  0.045975  1
  Hf  Hf11  1  0.608531  0.804265  0.045975  1
  Hf  Hf12  1  0.540426  0.459574  0.250000  1
  Hf  Hf13  1  0.540426  0.080851  0.250000  1
  Hf  Hf14  1  0.919149  0.459574  0.250000  1
  Hf  Hf15  1  0.459574  0.540426  0.750000  1
  Hf  Hf16  1  0.459574  0.919149  0.750000  1
  Hf  Hf17  1  0.080851  0.540426  0.750000  1
  Ta  Ta18  1  0.000000  0.000000  0.500000  1
  Ta  Ta19  1  0.000000  0.000000  0.000000  1
  Re  Re20  1  0.887776  0.112224  0.250000  1
  Re  Re21  1  0.887776  0.775554  0.250000  1
  Re  Re22  1  0.224446  0.112224  0.250000  1
  Re  Re23  1  0.112224  0.887776  0.750000  1
  Re  Re24  1  0.112224  0.224446  0.750000  1
  Re  Re25  1  0.775554  0.887776  0.750000  1
  Ge  Ge26  1  0.333333  0.666667  0.250000  1
  Ge  Ge27  1  0.666667  0.333333  0.750000  1
