# generated using pymatgen
data_Dy3HoSi4(IrRh)2
_symmetry_space_group_name_H-M   'P 1'
_cell_length_a   4.24707100
_cell_length_b   6.88090999
_cell_length_c   7.43352008
_cell_angle_alpha   90.06168635
_cell_angle_beta   90.00000000
_cell_angle_gamma   90.00000000
_symmetry_Int_Tables_number   1
_chemical_formula_structural   Dy3HoSi4(IrRh)2
_chemical_formula_sum   'Dy3 Ho1 Si4 Ir2 Rh2'
_cell_volume   217.23493365
_cell_formula_units_Z   1
loop_
 _symmetry_equiv_pos_site_id
 _symmetry_equiv_pos_as_xyz
  1  'x, y, z'
loop_
 _atom_site_type_symbol
 _atom_site_label
 _atom_site_symmetry_multiplicity
 _atom_site_fract_x
 _atom_site_fract_y
 _atom_site_fract_z
 _atom_site_occupancy
  Dy  Dy0  1  0.750000  0.500128  0.811154  1
  Dy  Dy1  1  0.250000  0.001048  0.311380  1
  Dy  Dy2  1  0.750000  0.000100  0.689121  1
  Ho  Ho3  1  0.250000  0.501050  0.188928  1
  Si  Si4  1  0.250000  0.797236  0.895993  1
  Si  Si5  1  0.250000  0.297657  0.604249  1
  Si  Si6  1  0.750000  0.203330  0.109149  1
  Si  Si7  1  0.750000  0.702587  0.390473  1
  Ir  Ir8  1  0.750000  0.843085  0.068321  1
  Ir  Ir9  1  0.750000  0.343631  0.431341  1
  Rh  Rh10  1  0.250000  0.654944  0.568007  1
  Rh  Rh11  1  0.250000  0.155204  0.931884  1
