# generated using pymatgen
data_SrDy6CoBr12
_symmetry_space_group_name_H-M   'P 1'
_cell_length_a   9.23483642
_cell_length_b   9.23483638
_cell_length_c   9.23483669
_cell_angle_alpha   106.24321709
_cell_angle_beta   106.24321890
_cell_angle_gamma   106.24321851
_symmetry_Int_Tables_number   1
_chemical_formula_structural   SrDy6CoBr12
_chemical_formula_sum   'Sr1 Dy6 Co1 Br12'
_cell_volume   668.97226094
_cell_formula_units_Z   1
loop_
 _symmetry_equiv_pos_site_id
 _symmetry_equiv_pos_as_xyz
  1  'x, y, z'
loop_
 _atom_site_type_symbol
 _atom_site_label
 _atom_site_symmetry_multiplicity
 _atom_site_fract_x
 _atom_site_fract_y
 _atom_site_fract_z
 _atom_site_occupancy
  Sr  Sr0  1  0.500000  0.500000  0.500000  1
  Dy  Dy1  1  0.300142  0.094716  0.016181  1
  Dy  Dy2  1  0.094716  0.016181  0.300142  1
  Dy  Dy3  1  0.016181  0.300142  0.094716  1
  Dy  Dy4  1  0.699858  0.905284  0.983819  1
  Dy  Dy5  1  0.905284  0.983819  0.699858  1
  Dy  Dy6  1  0.983819  0.699858  0.905284  1
  Co  Co7  1  0.000000  0.000000  0.000000  1
  Br  Br8  1  0.219566  0.073055  0.676086  1
  Br  Br9  1  0.073055  0.676086  0.219566  1
  Br  Br10  1  0.676086  0.219566  0.073055  1
  Br  Br11  1  0.780434  0.926945  0.323914  1
  Br  Br12  1  0.926945  0.323914  0.780434  1
  Br  Br13  1  0.323914  0.780434  0.926945  1
  Br  Br14  1  0.362999  0.442790  0.137955  1
  Br  Br15  1  0.442790  0.137955  0.362999  1
  Br  Br16  1  0.137955  0.362999  0.442790  1
  Br  Br17  1  0.637001  0.557210  0.862045  1
  Br  Br18  1  0.557210  0.862045  0.637001  1
  Br  Br19  1  0.862045  0.637001  0.557210  1
