# generated using pymatgen
data_Nd8Tm12ZnSn15
_symmetry_space_group_name_H-M   'P 1'
_cell_length_a   8.23592286
_cell_length_b   8.23562486
_cell_length_c   14.96710100
_cell_angle_alpha   89.74261555
_cell_angle_beta   90.05548060
_cell_angle_gamma   90.22921371
_symmetry_Int_Tables_number   1
_chemical_formula_structural   Nd8Tm12ZnSn15
_chemical_formula_sum   'Nd8 Tm12 Zn1 Sn15'
_cell_volume   1015.16926790
_cell_formula_units_Z   1
loop_
 _symmetry_equiv_pos_site_id
 _symmetry_equiv_pos_as_xyz
  1  'x, y, z'
loop_
 _atom_site_type_symbol
 _atom_site_label
 _atom_site_symmetry_multiplicity
 _atom_site_fract_x
 _atom_site_fract_y
 _atom_site_fract_z
 _atom_site_occupancy
  Nd  Nd0  1  0.655414  0.006349  0.468645  1
  Nd  Nd1  1  0.342290  0.002460  0.964215  1
  Nd  Nd2  1  0.005323  0.653529  0.533385  1
  Nd  Nd3  1  0.504627  0.846929  0.217231  1
  Nd  Nd4  1  0.496249  0.152184  0.718809  1
  Nd  Nd5  1  0.843664  0.504446  0.781729  1
  Nd  Nd6  1  0.153451  0.494938  0.282487  1
  Nd  Nd7  1  0.995046  0.346534  0.032687  1
  Tm  Tm8  1  0.496624  0.336104  0.119182  1
  Tm  Tm9  1  0.998635  0.165093  0.633982  1
  Tm  Tm10  1  0.846367  0.007754  0.868478  1
  Tm  Tm11  1  0.164884  0.000906  0.369827  1
  Tm  Tm12  1  0.499689  0.663408  0.620866  1
  Tm  Tm13  1  0.333212  0.493361  0.881279  1
  Tm  Tm14  1  0.665948  0.498710  0.379712  1
  Tm  Tm15  1  0.997296  0.837290  0.129409  1
  Tm  Tm16  1  0.331431  0.328360  0.500397  1
  Tm  Tm17  1  0.170606  0.830739  0.750403  1
  Tm  Tm18  1  0.831040  0.168838  0.250138  1
  Tm  Tm19  1  0.666468  0.670475  0.999788  1
  Zn  Zn20  1  0.136761  0.202756  0.820453  1
  Sn  Sn21  1  0.290016  0.963053  0.567715  1
  Sn  Sn22  1  0.706028  0.034699  0.066808  1
  Sn  Sn23  1  0.967319  0.290599  0.433445  1
  Sn  Sn24  1  0.468315  0.208595  0.318036  1
  Sn  Sn25  1  0.535909  0.790934  0.818426  1
  Sn  Sn26  1  0.208195  0.458747  0.686467  1
  Sn  Sn27  1  0.791313  0.532266  0.181062  1
  Sn  Sn28  1  0.034024  0.710984  0.932053  1
  Sn  Sn29  1  0.800996  0.864814  0.672279  1
  Sn  Sn30  1  0.197778  0.131560  0.171167  1
  Sn  Sn31  1  0.867505  0.801193  0.329119  1
  Sn  Sn32  1  0.369389  0.699278  0.421697  1
  Sn  Sn33  1  0.632086  0.301005  0.921423  1
  Sn  Sn34  1  0.698493  0.367749  0.579155  1
  Sn  Sn35  1  0.297612  0.633365  0.078046  1
