# generated using pymatgen
data_Tb17Er2InIr12
_symmetry_space_group_name_H-M   'P 1'
_cell_length_a   10.93024200
_cell_length_b   10.93024200
_cell_length_c   6.34674900
_cell_angle_alpha   90.00000000
_cell_angle_beta   90.00000000
_cell_angle_gamma   90.00000000
_symmetry_Int_Tables_number   1
_chemical_formula_structural   Tb17Er2InIr12
_chemical_formula_sum   'Tb17 Er2 In1 Ir12'
_cell_volume   758.24731005
_cell_formula_units_Z   1
loop_
 _symmetry_equiv_pos_site_id
 _symmetry_equiv_pos_as_xyz
  1  'x, y, z'
loop_
 _atom_site_type_symbol
 _atom_site_label
 _atom_site_symmetry_multiplicity
 _atom_site_fract_x
 _atom_site_fract_y
 _atom_site_fract_z
 _atom_site_occupancy
  Tb  Tb0  1  0.283462  0.085235  0.380869  1
  Tb  Tb1  1  0.290739  0.911416  0.880812  1
  Tb  Tb2  1  0.709261  0.088584  0.880812  1
  Tb  Tb3  1  0.716538  0.914765  0.380869  1
  Tb  Tb4  1  0.588539  0.791103  0.882245  1
  Tb  Tb5  1  0.588146  0.208522  0.378417  1
  Tb  Tb6  1  0.411854  0.791478  0.378417  1
  Tb  Tb7  1  0.411461  0.208897  0.882245  1
  Tb  Tb8  1  0.208522  0.411854  0.621583  1
  Tb  Tb9  1  0.208897  0.588539  0.117755  1
  Tb  Tb10  1  0.791103  0.411461  0.117755  1
  Tb  Tb11  1  0.791478  0.588146  0.621583  1
  Tb  Tb12  1  0.911416  0.709261  0.119188  1
  Tb  Tb13  1  0.914765  0.283462  0.619131  1
  Tb  Tb14  1  0.085235  0.716538  0.619131  1
  Tb  Tb15  1  0.088584  0.290739  0.119188  1
  Tb  Tb16  1  0.000000  0.000000  0.000000  1
  Er  Er17  1  0.500000  0.500000  0.000000  1
  Er  Er18  1  0.500000  0.500000  0.500000  1
  In  In19  1  0.000000  0.000000  0.500000  1
  Ir  Ir20  1  0.845914  0.155541  0.245855  1
  Ir  Ir21  1  0.844459  0.845914  0.754145  1
  Ir  Ir22  1  0.155541  0.154086  0.754145  1
  Ir  Ir23  1  0.154086  0.844459  0.245855  1
  Ir  Ir24  1  0.653620  0.347266  0.747054  1
  Ir  Ir25  1  0.652734  0.653620  0.252946  1
  Ir  Ir26  1  0.347266  0.346380  0.252946  1
  Ir  Ir27  1  0.346380  0.652734  0.747054  1
  Ir  Ir28  1  0.500000  0.000000  0.125391  1
  Ir  Ir29  1  0.500000  0.000000  0.620983  1
  Ir  Ir30  1  0.000000  0.500000  0.874609  1
  Ir  Ir31  1  0.000000  0.500000  0.379017  1
