# generated using pymatgen
data_DyBi7(Os2O11)2
_symmetry_space_group_name_H-M   'P 1'
_cell_length_a   6.61152552
_cell_length_b   7.57427537
_cell_length_c   9.87456759
_cell_angle_alpha   101.10321889
_cell_angle_beta   92.05983227
_cell_angle_gamma   90.09849370
_symmetry_Int_Tables_number   1
_chemical_formula_structural   DyBi7(Os2O11)2
_chemical_formula_sum   'Dy1 Bi7 Os4 O22'
_cell_volume   484.90542705
_cell_formula_units_Z   1
loop_
 _symmetry_equiv_pos_site_id
 _symmetry_equiv_pos_as_xyz
  1  'x, y, z'
loop_
 _atom_site_type_symbol
 _atom_site_label
 _atom_site_symmetry_multiplicity
 _atom_site_fract_x
 _atom_site_fract_y
 _atom_site_fract_z
 _atom_site_occupancy
  Dy  Dy0  1  0.749239  0.366920  0.475674  1
  Bi  Bi1  1  0.248535  0.626407  0.519126  1
  Bi  Bi2  1  0.752926  0.872310  0.482322  1
  Bi  Bi3  1  0.249892  0.128694  0.517927  1
  Bi  Bi4  1  0.478742  0.955253  0.821364  1
  Bi  Bi5  1  0.520718  0.046412  0.179225  1
  Bi  Bi6  1  0.409637  0.455556  0.825958  1
  Bi  Bi7  1  0.594376  0.543551  0.173174  1
  Os  Os8  1  0.937090  0.702226  0.810385  1
  Os  Os9  1  0.060071  0.296269  0.188701  1
  Os  Os10  1  0.935783  0.205518  0.812432  1
  Os  Os11  1  0.063156  0.795399  0.186398  1
  O  O12  1  0.231260  0.722467  0.764201  1
  O  O13  1  0.764233  0.278028  0.235223  1
  O  O14  1  0.640671  0.678004  0.831461  1
  O  O15  1  0.356434  0.325010  0.174951  1
  O  O16  1  0.641014  0.241366  0.842951  1
  O  O17  1  0.357249  0.758466  0.160432  1
  O  O18  1  0.888176  0.184466  0.611105  1
  O  O19  1  0.107021  0.829847  0.388734  1
  O  O20  1  0.229472  0.160529  0.762786  1
  O  O21  1  0.769096  0.840465  0.235528  1
  O  O22  1  0.902486  0.625451  0.606325  1
  O  O23  1  0.085644  0.360292  0.394717  1
  O  O24  1  0.998263  0.544296  0.179740  1
  O  O25  1  0.000692  0.456912  0.824404  1
  O  O26  1  0.996858  0.771893  0.999410  1
  O  O27  1  0.002257  0.228300  0.999799  1
  O  O28  1  0.585111  0.601459  0.396258  1
  O  O29  1  0.439938  0.393804  0.602944  1
  O  O30  1  0.145603  0.051252  0.208690  1
  O  O31  1  0.852536  0.948080  0.786784  1
  O  O32  1  0.549826  0.100783  0.401586  1
  O  O33  1  0.455993  0.904314  0.599286  1
