# generated using pymatgen
data_Zr2Sc2Si6Ir7
_symmetry_space_group_name_H-M   'P 1'
_cell_length_a   6.99757398
_cell_length_b   7.01962517
_cell_length_c   6.99757355
_cell_angle_alpha   109.45632463
_cell_angle_beta   109.37347996
_cell_angle_gamma   109.45631561
_symmetry_Int_Tables_number   1
_chemical_formula_structural   Zr2Sc2Si6Ir7
_chemical_formula_sum   'Zr2 Sc2 Si6 Ir7'
_cell_volume   265.01380155
_cell_formula_units_Z   1
loop_
 _symmetry_equiv_pos_site_id
 _symmetry_equiv_pos_as_xyz
  1  'x, y, z'
loop_
 _atom_site_type_symbol
 _atom_site_label
 _atom_site_symmetry_multiplicity
 _atom_site_fract_x
 _atom_site_fract_y
 _atom_site_fract_z
 _atom_site_occupancy
  Zr  Zr0  1  0.000000  0.000000  0.500000  1
  Zr  Zr1  1  0.500000  0.000000  0.000000  1
  Sc  Sc2  1  0.000000  0.500000  0.000000  1
  Sc  Sc3  1  0.500000  0.500000  0.500000  1
  Si  Si4  1  0.681167  0.677768  0.996601  1
  Si  Si5  1  0.318842  0.000000  0.318842  1
  Si  Si6  1  0.003399  0.322232  0.318833  1
  Si  Si7  1  0.318833  0.322232  0.003399  1
  Si  Si8  1  0.681158  0.000000  0.681158  1
  Si  Si9  1  0.996601  0.677768  0.681167  1
  Ir  Ir10  1  0.749942  0.250110  0.500168  1
  Ir  Ir11  1  0.750000  0.500000  0.250000  1
  Ir  Ir12  1  0.500168  0.250110  0.749942  1
  Ir  Ir13  1  0.250000  0.500000  0.750000  1
  Ir  Ir14  1  0.250058  0.749890  0.499832  1
  Ir  Ir15  1  0.499832  0.749890  0.250058  1
  Ir  Ir16  1  0.000000  0.000000  0.000000  1
