# generated using pymatgen
data_TlTc12I25
_symmetry_space_group_name_H-M   'P 1'
_cell_length_a   10.72605526
_cell_length_b   11.76339241
_cell_length_c   12.77584793
_cell_angle_alpha   84.03050369
_cell_angle_beta   73.94092890
_cell_angle_gamma   86.79262598
_symmetry_Int_Tables_number   1
_chemical_formula_structural   TlTc12I25
_chemical_formula_sum   'Tl1 Tc12 I25'
_cell_volume   1540.06212411
_cell_formula_units_Z   1
loop_
 _symmetry_equiv_pos_site_id
 _symmetry_equiv_pos_as_xyz
  1  'x, y, z'
loop_
 _atom_site_type_symbol
 _atom_site_label
 _atom_site_symmetry_multiplicity
 _atom_site_fract_x
 _atom_site_fract_y
 _atom_site_fract_z
 _atom_site_occupancy
  Tl  Tl0  1  0.500000  0.000000  0.000000  1
  Tc  Tc1  1  0.833389  0.256038  0.134034  1
  Tc  Tc2  1  0.166611  0.743962  0.865966  1
  Tc  Tc3  1  0.768311  0.131045  0.278274  1
  Tc  Tc4  1  0.231689  0.868955  0.721726  1
  Tc  Tc5  1  0.057893  0.277928  0.190618  1
  Tc  Tc6  1  0.942107  0.722072  0.809382  1
  Tc  Tc7  1  0.849155  0.419575  0.265212  1
  Tc  Tc8  1  0.150845  0.580425  0.734788  1
  Tc  Tc9  1  0.780922  0.295783  0.410942  1
  Tc  Tc10  1  0.219078  0.704217  0.589058  1
  Tc  Tc11  1  0.991208  0.155304  0.336817  1
  Tc  Tc12  1  0.008792  0.844696  0.663183  1
  I  I13  1  0.946686  0.963454  0.263167  1
  I  I14  1  0.053314  0.036546  0.736833  1
  I  I15  1  0.969351  0.271216  0.508677  1
  I  I16  1  0.030649  0.728784  0.491323  1
  I  I17  1  0.653371  0.425022  0.171614  1
  I  I18  1  0.346629  0.574978  0.828386  1
  I  I19  1  0.086169  0.469695  0.274963  1
  I  I20  1  0.913831  0.530305  0.725037  1
  I  I21  1  0.000000  0.500000  0.000000  1
  I  I22  1  0.613211  0.969013  0.239476  1
  I  I23  1  0.386789  0.030987  0.760524  1
  I  I24  1  0.204507  0.045859  0.384364  1
  I  I25  1  0.795493  0.954141  0.615636  1
  I  I26  1  0.554559  0.218120  0.406944  1
  I  I27  1  0.445441  0.781880  0.593056  1
  I  I28  1  0.057444  0.163473  0.021777  1
  I  I29  1  0.942556  0.836527  0.978223  1
  I  I30  1  0.774990  0.638296  0.316509  1
  I  I31  1  0.225010  0.361704  0.683491  1
  I  I32  1  0.736681  0.213350  0.961365  1
  I  I33  1  0.263319  0.786650  0.038635  1
  I  I34  1  0.325223  0.263543  0.115202  1
  I  I35  1  0.674777  0.736457  0.884798  1
  I  I36  1  0.646339  0.409936  0.584773  1
  I  I37  1  0.353661  0.590064  0.415227  1
