# generated using pymatgen
data_Sr3BiPb4
_symmetry_space_group_name_H-M   'P 1'
_cell_length_a   9.25664064
_cell_length_b   9.25663967
_cell_length_c   9.25664007
_cell_angle_alpha   119.98290607
_cell_angle_beta   119.98290859
_cell_angle_gamma   90.02960461
_symmetry_Int_Tables_number   1
_chemical_formula_structural   Sr3BiPb4
_chemical_formula_sum   'Sr6 Bi2 Pb8'
_cell_volume   560.99279019
_cell_formula_units_Z   2
loop_
 _symmetry_equiv_pos_site_id
 _symmetry_equiv_pos_as_xyz
  1  'x, y, z'
loop_
 _atom_site_type_symbol
 _atom_site_label
 _atom_site_symmetry_multiplicity
 _atom_site_fract_x
 _atom_site_fract_y
 _atom_site_fract_z
 _atom_site_occupancy
  Sr  Sr0  1  0.250000  0.250000  0.000000  1
  Sr  Sr1  1  0.750000  0.750000  0.000000  1
  Sr  Sr2  1  0.164053  0.664053  0.828106  1
  Sr  Sr3  1  0.835947  0.335947  0.171894  1
  Sr  Sr4  1  0.664053  0.835947  0.500000  1
  Sr  Sr5  1  0.335947  0.164053  0.500000  1
  Bi  Bi6  1  0.000000  0.000000  0.000000  1
  Bi  Bi7  1  0.500000  0.500000  0.000000  1
  Pb  Pb8  1  0.827774  0.327774  0.787362  1
  Pb  Pb9  1  0.172226  0.672226  0.212638  1
  Pb  Pb10  1  0.540412  0.040412  0.212638  1
  Pb  Pb11  1  0.327774  0.540412  0.500000  1
  Pb  Pb12  1  0.959588  0.172226  0.500000  1
  Pb  Pb13  1  0.459588  0.959588  0.787362  1
  Pb  Pb14  1  0.672226  0.459588  0.500000  1
  Pb  Pb15  1  0.040412  0.827774  0.500000  1
