# generated using pymatgen
data_Ce8Si12Ni3Pt
_symmetry_space_group_name_H-M   'P 1'
_cell_length_a   8.09162900
_cell_length_b   8.09162801
_cell_length_c   8.38287000
_cell_angle_alpha   90.00000000
_cell_angle_beta   90.00000000
_cell_angle_gamma   119.99999176
_symmetry_Int_Tables_number   1
_chemical_formula_structural   Ce8Si12Ni3Pt
_chemical_formula_sum   'Ce8 Si12 Ni3 Pt1'
_cell_volume   475.33004956
_cell_formula_units_Z   1
loop_
 _symmetry_equiv_pos_site_id
 _symmetry_equiv_pos_as_xyz
  1  'x, y, z'
loop_
 _atom_site_type_symbol
 _atom_site_label
 _atom_site_symmetry_multiplicity
 _atom_site_fract_x
 _atom_site_fract_y
 _atom_site_fract_z
 _atom_site_occupancy
  Ce  Ce0  1  0.500776  0.001556  0.248400  1
  Ce  Ce1  1  0.500826  0.001651  0.751615  1
  Ce  Ce2  1  0.998444  0.499224  0.248400  1
  Ce  Ce3  1  0.998349  0.499174  0.751615  1
  Ce  Ce4  1  0.500776  0.499224  0.248400  1
  Ce  Ce5  1  0.500826  0.499174  0.751615  1
  Ce  Ce6  1  0.000000  0.000000  0.248661  1
  Ce  Ce7  1  0.000000  0.000000  0.751370  1
  Si  Si8  1  0.170152  0.340303  0.000110  1
  Si  Si9  1  0.830476  0.660951  0.000203  1
  Si  Si10  1  0.659697  0.829848  0.000110  1
  Si  Si11  1  0.828833  0.657667  0.499789  1
  Si  Si12  1  0.339049  0.169524  0.000203  1
  Si  Si13  1  0.163169  0.326336  0.499882  1
  Si  Si14  1  0.170152  0.829848  0.000110  1
  Si  Si15  1  0.342333  0.171167  0.499789  1
  Si  Si16  1  0.830476  0.169524  0.000203  1
  Si  Si17  1  0.673664  0.836831  0.499882  1
  Si  Si18  1  0.828833  0.171167  0.499789  1
  Si  Si19  1  0.163169  0.836831  0.499882  1
  Ni  Ni20  1  0.333333  0.666667  0.000305  1
  Ni  Ni21  1  0.666667  0.333333  0.000450  1
  Ni  Ni22  1  0.666667  0.333333  0.499253  1
  Pt  Pt23  1  0.333333  0.666667  0.499969  1
