# generated using pymatgen
data_CaSi2RuRh
_symmetry_space_group_name_H-M   'P 1'
_cell_length_a   5.72890237
_cell_length_b   5.72890204
_cell_length_c   5.72890160
_cell_angle_alpha   137.37602595
_cell_angle_beta   137.37601962
_cell_angle_gamma   61.86000444
_symmetry_Int_Tables_number   1
_chemical_formula_structural   CaSi2RuRh
_chemical_formula_sum   'Ca1 Si2 Ru1 Rh1'
_cell_volume   85.21937007
_cell_formula_units_Z   1
loop_
 _symmetry_equiv_pos_site_id
 _symmetry_equiv_pos_as_xyz
  1  'x, y, z'
loop_
 _atom_site_type_symbol
 _atom_site_label
 _atom_site_symmetry_multiplicity
 _atom_site_fract_x
 _atom_site_fract_y
 _atom_site_fract_z
 _atom_site_occupancy
  Ca  Ca0  1  0.000000  0.000000  0.000000  1
  Si  Si1  1  0.630842  0.630842  0.000000  1
  Si  Si2  1  0.369158  0.369158  0.000000  1
  Ru  Ru3  1  0.750000  0.250000  0.500000  1
  Rh  Rh4  1  0.250000  0.750000  0.500000  1
