# generated using pymatgen
data_La14Pr6Ir11Ru
_symmetry_space_group_name_H-M   'P 1'
_cell_length_a   11.42255896
_cell_length_b   11.44868601
_cell_length_c   6.63299157
_cell_angle_alpha   90.00483475
_cell_angle_beta   89.95300206
_cell_angle_gamma   90.00131869
_symmetry_Int_Tables_number   1
_chemical_formula_structural   La14Pr6Ir11Ru
_chemical_formula_sum   'La14 Pr6 Ir11 Ru1'
_cell_volume   867.41784078
_cell_formula_units_Z   1
loop_
 _symmetry_equiv_pos_site_id
 _symmetry_equiv_pos_as_xyz
  1  'x, y, z'
loop_
 _atom_site_type_symbol
 _atom_site_label
 _atom_site_symmetry_multiplicity
 _atom_site_fract_x
 _atom_site_fract_y
 _atom_site_fract_z
 _atom_site_occupancy
  La  La0  1  0.291582  0.090419  0.385640  1
  La  La1  1  0.291910  0.909480  0.889334  1
  La  La2  1  0.707708  0.090268  0.890959  1
  La  La3  1  0.707984  0.909876  0.387185  1
  La  La4  1  0.590626  0.792230  0.889720  1
  La  La5  1  0.590494  0.208019  0.385909  1
  La  La6  1  0.408753  0.791918  0.386955  1
  La  La7  1  0.408733  0.207706  0.890738  1
  La  La8  1  0.207196  0.408768  0.613602  1
  La  La9  1  0.207074  0.590526  0.112838  1
  La  La10  1  0.792208  0.408667  0.112862  1
  La  La11  1  0.792050  0.592067  0.613515  1
  La  La12  1  0.910195  0.708431  0.113286  1
  La  La13  1  0.909427  0.291277  0.613834  1
  Pr  Pr14  1  0.091102  0.709979  0.616622  1
  Pr  Pr15  1  0.090423  0.290185  0.116100  1
  Pr  Pr16  1  0.000475  0.999318  0.497900  1
  Pr  Pr17  1  0.000485  0.000716  0.997602  1
  Pr  Pr18  1  0.500191  0.499560  0.998684  1
  Pr  Pr19  1  0.500100  0.500351  0.499076  1
  Ir  Ir20  1  0.845624  0.155451  0.249077  1
  Ir  Ir21  1  0.845496  0.845035  0.748848  1
  Ir  Ir22  1  0.155173  0.153767  0.746628  1
  Ir  Ir23  1  0.155050  0.845813  0.246822  1
  Ir  Ir24  1  0.655184  0.345450  0.748893  1
  Ir  Ir25  1  0.655551  0.654505  0.249166  1
  Ir  Ir26  1  0.344700  0.345917  0.250275  1
  Ir  Ir27  1  0.345185  0.654200  0.750080  1
  Ir  Ir28  1  0.500013  0.999917  0.617807  1
  Ir  Ir29  1  0.999689  0.498901  0.882926  1
  Ir  Ir30  1  0.999668  0.501107  0.383441  1
  Ru  Ru31  1  0.499951  0.000176  0.113682  1
