# generated using pymatgen
data_Dy16CdIn(HgRh2)2
_symmetry_space_group_name_H-M   'P 1'
_cell_length_a   9.62395413
_cell_length_b   9.62395436
_cell_length_c   9.62889804
_cell_angle_alpha   59.91707509
_cell_angle_beta   59.91707538
_cell_angle_gamma   59.88353229
_symmetry_Int_Tables_number   1
_chemical_formula_structural   Dy16CdIn(HgRh2)2
_chemical_formula_sum   'Dy16 Cd1 In1 Hg2 Rh4'
_cell_volume   629.27493826
_cell_formula_units_Z   1
loop_
 _symmetry_equiv_pos_site_id
 _symmetry_equiv_pos_as_xyz
  1  'x, y, z'
loop_
 _atom_site_type_symbol
 _atom_site_label
 _atom_site_symmetry_multiplicity
 _atom_site_fract_x
 _atom_site_fract_y
 _atom_site_fract_z
 _atom_site_occupancy
  Dy  Dy0  1  0.689560  0.310849  0.311758  1
  Dy  Dy1  1  0.689471  0.689471  0.311330  1
  Dy  Dy2  1  0.310849  0.689560  0.311758  1
  Dy  Dy3  1  0.935529  0.935529  0.562911  1
  Dy  Dy4  1  0.147943  0.147943  0.552932  1
  Dy  Dy5  1  0.561639  0.936845  0.563850  1
  Dy  Dy6  1  0.150472  0.150472  0.150141  1
  Dy  Dy7  1  0.310639  0.310639  0.690085  1
  Dy  Dy8  1  0.936845  0.561639  0.563850  1
  Dy  Dy9  1  0.562413  0.562413  0.937427  1
  Dy  Dy10  1  0.560687  0.935718  0.936368  1
  Dy  Dy11  1  0.935718  0.560687  0.936368  1
  Dy  Dy12  1  0.148703  0.551334  0.147962  1
  Dy  Dy13  1  0.310537  0.689921  0.690069  1
  Dy  Dy14  1  0.689921  0.310537  0.690069  1
  Dy  Dy15  1  0.551334  0.148703  0.147962  1
  Cd  Cd16  1  0.919043  0.919043  0.244664  1
  In  In17  1  0.920021  0.920021  0.919047  1
  Hg  Hg18  1  0.255914  0.914352  0.916094  1
  Hg  Hg19  1  0.914352  0.255914  0.916094  1
  Rh  Rh20  1  0.357046  0.357046  0.357632  1
  Rh  Rh21  1  0.927967  0.356628  0.356964  1
  Rh  Rh22  1  0.356770  0.356770  0.927702  1
  Rh  Rh23  1  0.356628  0.927967  0.356964  1
