# generated using pymatgen
data_Cu3RuSe8
_symmetry_space_group_name_H-M   'P 1'
_cell_length_a   6.13954626
_cell_length_b   6.13954626
_cell_length_c   6.13954626
_cell_angle_alpha   89.29457222
_cell_angle_beta   89.29457222
_cell_angle_gamma   89.29457222
_symmetry_Int_Tables_number   1
_chemical_formula_structural   Cu3RuSe8
_chemical_formula_sum   'Cu3 Ru1 Se8'
_cell_volume   231.37203749
_cell_formula_units_Z   1
loop_
 _symmetry_equiv_pos_site_id
 _symmetry_equiv_pos_as_xyz
  1  'x, y, z'
loop_
 _atom_site_type_symbol
 _atom_site_label
 _atom_site_symmetry_multiplicity
 _atom_site_fract_x
 _atom_site_fract_y
 _atom_site_fract_z
 _atom_site_occupancy
  Cu  Cu0  1  0.000000  0.500000  0.500000  1
  Cu  Cu1  1  0.500000  0.500000  0.000000  1
  Cu  Cu2  1  0.500000  0.000000  0.500000  1
  Ru  Ru3  1  0.000000  0.000000  0.000000  1
  Se  Se4  1  0.377501  0.111783  0.891009  1
  Se  Se5  1  0.111783  0.891009  0.377501  1
  Se  Se6  1  0.891009  0.377501  0.111783  1
  Se  Se7  1  0.610003  0.610003  0.610003  1
  Se  Se8  1  0.389997  0.389997  0.389997  1
  Se  Se9  1  0.108991  0.622499  0.888217  1
  Se  Se10  1  0.888217  0.108991  0.622499  1
  Se  Se11  1  0.622499  0.888217  0.108991  1
