# generated using pymatgen
data_DyYEr2Ni2C5
_symmetry_space_group_name_H-M   'P 1'
_cell_length_a   3.61531700
_cell_length_b   3.69030200
_cell_length_c   11.59247000
_cell_angle_alpha   90.00000000
_cell_angle_beta   90.00000000
_cell_angle_gamma   90.00000000
_symmetry_Int_Tables_number   1
_chemical_formula_structural   DyYEr2Ni2C5
_chemical_formula_sum   'Dy1 Y1 Er2 Ni2 C5'
_cell_volume   154.66223171
_cell_formula_units_Z   1
loop_
 _symmetry_equiv_pos_site_id
 _symmetry_equiv_pos_as_xyz
  1  'x, y, z'
loop_
 _atom_site_type_symbol
 _atom_site_label
 _atom_site_symmetry_multiplicity
 _atom_site_fract_x
 _atom_site_fract_y
 _atom_site_fract_z
 _atom_site_occupancy
  Dy  Dy0  1  0.500000  0.207278  0.500000  1
  Y  Y1  1  0.000000  0.998259  0.000000  1
  Er  Er2  1  0.500000  0.501535  0.203134  1
  Er  Er3  1  0.500000  0.501535  0.796866  1
  Ni  Ni4  1  0.000000  0.699850  0.382269  1
  Ni  Ni5  1  0.000000  0.699850  0.617731  1
  C  C6  1  0.000000  0.999461  0.229296  1
  C  C7  1  0.000000  0.999461  0.770704  1
  C  C8  1  0.000000  0.199716  0.331485  1
  C  C9  1  0.000000  0.199716  0.668515  1
  C  C10  1  0.500000  0.494837  0.000000  1
