# generated using pymatgen
data_Dy6Si4Ir5Rh
_symmetry_space_group_name_H-M   'P 1'
_cell_length_a   5.52553815
_cell_length_b   7.54879521
_cell_length_c   14.86328800
_cell_angle_alpha   90.00000000
_cell_angle_beta   90.00000000
_cell_angle_gamma   90.02697517
_symmetry_Int_Tables_number   1
_chemical_formula_structural   Dy6Si4Ir5Rh
_chemical_formula_sum   'Dy12 Si8 Ir10 Rh2'
_cell_volume   619.96485481
_cell_formula_units_Z   2
loop_
 _symmetry_equiv_pos_site_id
 _symmetry_equiv_pos_as_xyz
  1  'x, y, z'
loop_
 _atom_site_type_symbol
 _atom_site_label
 _atom_site_symmetry_multiplicity
 _atom_site_fract_x
 _atom_site_fract_y
 _atom_site_fract_z
 _atom_site_occupancy
  Dy  Dy0  1  0.898401  0.829709  0.750000  1
  Dy  Dy1  1  0.868591  0.524158  0.392199  1
  Dy  Dy2  1  0.368776  0.974402  0.608550  1
  Dy  Dy3  1  0.131794  0.474344  0.891367  1
  Dy  Dy4  1  0.631940  0.027128  0.108384  1
  Dy  Dy5  1  0.101726  0.170217  0.250000  1
  Dy  Dy6  1  0.131794  0.474344  0.608633  1
  Dy  Dy7  1  0.631940  0.027128  0.391616  1
  Dy  Dy8  1  0.397538  0.670639  0.250000  1
  Dy  Dy9  1  0.368776  0.974402  0.891450  1
  Dy  Dy10  1  0.601612  0.329118  0.750000  1
  Dy  Dy11  1  0.868591  0.524158  0.107801  1
  Si  Si12  1  0.623109  0.624166  0.896546  1
  Si  Si13  1  0.877972  0.125044  0.603309  1
  Si  Si14  1  0.120522  0.874472  0.103697  1
  Si  Si15  1  0.120522  0.874472  0.396303  1
  Si  Si16  1  0.623109  0.624166  0.603454  1
  Si  Si17  1  0.877972  0.125044  0.896691  1
  Si  Si18  1  0.378010  0.376081  0.103357  1
  Si  Si19  1  0.378010  0.376081  0.396643  1
  Ir  Ir20  1  0.599160  0.332362  0.960830  1
  Ir  Ir21  1  0.101310  0.167708  0.460922  1
  Ir  Ir22  1  0.101310  0.167708  0.039078  1
  Ir  Ir23  1  0.412896  0.680088  0.750000  1
  Ir  Ir24  1  0.900306  0.831692  0.960807  1
  Ir  Ir25  1  0.588986  0.320409  0.250000  1
  Ir  Ir26  1  0.900306  0.831692  0.539193  1
  Ir  Ir27  1  0.908166  0.819053  0.250000  1
  Ir  Ir28  1  0.599160  0.332362  0.539170  1
  Ir  Ir29  1  0.088617  0.180057  0.750000  1
  Rh  Rh30  1  0.399539  0.668799  0.461340  1
  Rh  Rh31  1  0.399539  0.668799  0.038660  1
