# generated using pymatgen
data_Y2Er2(Al8Ni3)3
_symmetry_space_group_name_H-M   'P 1'
_cell_length_a   7.30089300
_cell_length_b   7.31370560
_cell_length_c   12.74989818
_cell_angle_alpha   84.59499836
_cell_angle_beta   100.90082003
_cell_angle_gamma   119.75825989
_symmetry_Int_Tables_number   1
_chemical_formula_structural   Y2Er2(Al8Ni3)3
_chemical_formula_sum   'Y2 Er2 Al24 Ni9'
_cell_volume   580.35745979
_cell_formula_units_Z   1
loop_
 _symmetry_equiv_pos_site_id
 _symmetry_equiv_pos_as_xyz
  1  'x, y, z'
loop_
 _atom_site_type_symbol
 _atom_site_label
 _atom_site_symmetry_multiplicity
 _atom_site_fract_x
 _atom_site_fract_y
 _atom_site_fract_z
 _atom_site_occupancy
  Y  Y0  1  0.732298  0.997268  0.194684  1
  Y  Y1  1  0.267702  0.002732  0.805316  1
  Er  Er2  1  0.062639  0.668365  0.195149  1
  Er  Er3  1  0.937361  0.331635  0.804851  1
  Al  Al4  1  0.811737  0.874202  0.814137  1
  Al  Al5  1  0.188263  0.125798  0.185863  1
  Al  Al6  1  0.986064  0.666119  0.947810  1
  Al  Al7  1  0.013936  0.333881  0.052190  1
  Al  Al8  1  0.393123  0.663913  0.815540  1
  Al  Al9  1  0.606877  0.336087  0.184460  1
  Al  Al10  1  0.880999  0.665609  0.663760  1
  Al  Al11  1  0.119001  0.334391  0.336240  1
  Al  Al12  1  0.603448  0.454783  0.815121  1
  Al  Al13  1  0.396552  0.545217  0.184879  1
  Al  Al14  1  0.229670  0.341604  0.662266  1
  Al  Al15  1  0.770330  0.658396  0.337734  1
  Al  Al16  1  0.853182  0.333750  0.557379  1
  Al  Al17  1  0.186594  0.000118  0.557238  1
  Al  Al18  1  0.813406  0.999882  0.442762  1
  Al  Al19  1  0.350298  0.996259  0.052212  1
  Al  Al20  1  0.649702  0.003741  0.947788  1
  Al  Al21  1  0.555705  0.994360  0.663627  1
  Al  Al22  1  0.444295  0.005640  0.336373  1
  Al  Al23  1  0.521578  0.667203  0.560043  1
  Al  Al24  1  0.478422  0.332797  0.439957  1
  Al  Al25  1  0.682986  0.669351  0.039393  1
  Al  Al26  1  0.317014  0.330649  0.960607  1
  Al  Al27  1  0.146818  0.666250  0.442621  1
  Ni  Ni28  1  0.329524  0.670320  0.000289  1
  Ni  Ni29  1  0.548427  0.326616  0.637404  1
  Ni  Ni30  1  0.451573  0.673384  0.362596  1
  Ni  Ni31  1  0.888320  0.008199  0.637667  1
  Ni  Ni32  1  0.111680  0.991801  0.362333  1
  Ni  Ni33  1  0.670476  0.329680  0.999711  1
  Ni  Ni34  1  0.205899  0.667388  0.637700  1
  Ni  Ni35  1  0.794101  0.332612  0.362300  1
  Ni  Ni36  1  0.000000  0.000000  0.000000  1
