# generated using pymatgen
data_Li2Pr2InBi
_symmetry_space_group_name_H-M   'P 1'
_cell_length_a   9.72889084
_cell_length_b   9.72889022
_cell_length_c   7.77037247
_cell_angle_alpha   90.12752917
_cell_angle_beta   89.87247019
_cell_angle_gamma   119.97125364
_symmetry_Int_Tables_number   1
_chemical_formula_structural   Li2Pr2InBi
_chemical_formula_sum   'Li8 Pr8 In4 Bi4'
_cell_volume   637.12316472
_cell_formula_units_Z   4
loop_
 _symmetry_equiv_pos_site_id
 _symmetry_equiv_pos_as_xyz
  1  'x, y, z'
loop_
 _atom_site_type_symbol
 _atom_site_label
 _atom_site_symmetry_multiplicity
 _atom_site_fract_x
 _atom_site_fract_y
 _atom_site_fract_z
 _atom_site_occupancy
  Li  Li0  1  0.832849  0.167151  0.722251  1
  Li  Li1  1  0.830419  0.664444  0.718392  1
  Li  Li2  1  0.335556  0.169581  0.718392  1
  Li  Li3  1  0.167940  0.832060  0.217536  1
  Li  Li4  1  0.168730  0.337007  0.213539  1
  Li  Li5  1  0.662993  0.831270  0.213539  1
  Li  Li6  1  0.666636  0.333364  0.330963  1
  Li  Li7  1  0.334662  0.665338  0.826855  1
  Pr  Pr8  1  0.486469  0.513531  0.509671  1
  Pr  Pr9  1  0.490607  0.974366  0.508264  1
  Pr  Pr10  1  0.025634  0.509393  0.508264  1
  Pr  Pr11  1  0.510842  0.489158  0.998303  1
  Pr  Pr12  1  0.514268  0.022329  0.001204  1
  Pr  Pr13  1  0.977671  0.485732  0.001204  1
  Pr  Pr14  1  0.997584  0.002416  0.506832  1
  Pr  Pr15  1  0.997508  0.002492  0.992194  1
  In  In16  1  0.166495  0.334257  0.770079  1
  In  In17  1  0.665743  0.833505  0.770079  1
  In  In18  1  0.667216  0.332784  0.732760  1
  In  In19  1  0.333154  0.666846  0.229038  1
  Bi  Bi20  1  0.833743  0.166257  0.266748  1
  Bi  Bi21  1  0.833700  0.667425  0.268042  1
  Bi  Bi22  1  0.332575  0.166300  0.268042  1
  Bi  Bi23  1  0.167007  0.832993  0.765818  1
