# generated using pymatgen
data_PrEuGa6Tc
_symmetry_space_group_name_H-M   'P 1'
_cell_length_a   6.33765901
_cell_length_b   6.33765814
_cell_length_c   6.33765800
_cell_angle_alpha   60.00000072
_cell_angle_beta   60.00000530
_cell_angle_gamma   59.99999594
_symmetry_Int_Tables_number   1
_chemical_formula_structural   PrEuGa6Tc
_chemical_formula_sum   'Pr1 Eu1 Ga6 Tc1'
_cell_volume   179.99957772
_cell_formula_units_Z   1
loop_
 _symmetry_equiv_pos_site_id
 _symmetry_equiv_pos_as_xyz
  1  'x, y, z'
loop_
 _atom_site_type_symbol
 _atom_site_label
 _atom_site_symmetry_multiplicity
 _atom_site_fract_x
 _atom_site_fract_y
 _atom_site_fract_z
 _atom_site_occupancy
  Pr  Pr0  1  0.750000  0.750000  0.750000  1
  Eu  Eu1  1  0.250000  0.250000  0.250000  1
  Ga  Ga2  1  0.783582  0.216417  0.216417  1
  Ga  Ga3  1  0.216417  0.783582  0.216417  1
  Ga  Ga4  1  0.783582  0.783582  0.216417  1
  Ga  Ga5  1  0.216417  0.216417  0.783582  1
  Ga  Ga6  1  0.783582  0.216417  0.783582  1
  Ga  Ga7  1  0.216417  0.783582  0.783582  1
  Tc  Tc8  1  0.499999  0.499999  0.499999  1
