# generated using pymatgen
data_Y4CrGe3F28
_symmetry_space_group_name_H-M   'P 1'
_cell_length_a   5.44889772
_cell_length_b   8.74859913
_cell_length_c   11.71086021
_cell_angle_alpha   62.52008279
_cell_angle_beta   90.05596702
_cell_angle_gamma   90.00852193
_symmetry_Int_Tables_number   1
_chemical_formula_structural   Y4CrGe3F28
_chemical_formula_sum   'Y4 Cr1 Ge3 F28'
_cell_volume   495.27210853
_cell_formula_units_Z   1
loop_
 _symmetry_equiv_pos_site_id
 _symmetry_equiv_pos_as_xyz
  1  'x, y, z'
loop_
 _atom_site_type_symbol
 _atom_site_label
 _atom_site_symmetry_multiplicity
 _atom_site_fract_x
 _atom_site_fract_y
 _atom_site_fract_z
 _atom_site_occupancy
  Y  Y0  1  0.262481  0.810265  0.264230  1
  Y  Y1  1  0.738978  0.188204  0.736166  1
  Y  Y2  1  0.760198  0.192102  0.233788  1
  Y  Y3  1  0.238029  0.809269  0.765144  1
  Cr  Cr4  1  0.743015  0.726202  0.543128  1
  Ge  Ge5  1  0.757467  0.726318  0.042983  1
  Ge  Ge6  1  0.242689  0.273623  0.956886  1
  Ge  Ge7  1  0.257312  0.273733  0.457138  1
  F  F8  1  0.933501  0.707304  0.420710  1
  F  F9  1  0.066789  0.294034  0.577458  1
  F  F10  1  0.432468  0.293683  0.077591  1
  F  F11  1  0.567643  0.706076  0.922755  1
  F  F12  1  0.482720  0.728077  0.132351  1
  F  F13  1  0.517479  0.271881  0.867506  1
  F  F14  1  0.982470  0.271380  0.367521  1
  F  F15  1  0.026198  0.728481  0.634249  1
  F  F16  1  0.945120  0.741237  0.168410  1
  F  F17  1  0.054456  0.258495  0.831590  1
  F  F18  1  0.445740  0.258311  0.331574  1
  F  F19  1  0.553734  0.742181  0.670085  1
  F  F20  1  0.771102  0.491784  0.136439  1
  F  F21  1  0.229379  0.507590  0.864189  1
  F  F22  1  0.270324  0.507698  0.363234  1
  F  F23  1  0.728821  0.489126  0.637674  1
  F  F24  1  0.959054  0.281851  0.039686  1
  F  F25  1  0.040876  0.717956  0.960515  1
  F  F26  1  0.451888  0.719340  0.457113  1
  F  F27  1  0.541062  0.281738  0.539918  1
  F  F28  1  0.741124  0.961511  0.453559  1
  F  F29  1  0.260669  0.039995  0.546025  1
  F  F30  1  0.240098  0.039889  0.046203  1
  F  F31  1  0.760072  0.960377  0.953823  1
  F  F32  1  0.594770  0.970043  0.227606  1
  F  F33  1  0.405562  0.031172  0.772225  1
  F  F34  1  0.091133  0.030210  0.272959  1
  F  F35  1  0.905576  0.968865  0.727568  1
