# generated using pymatgen
data_Dy18Th2Si15Pt
_symmetry_space_group_name_H-M   'P 1'
_cell_length_a   7.43760806
_cell_length_b   7.75283858
_cell_length_c   14.68257600
_cell_angle_alpha   89.67699797
_cell_angle_beta   89.89681126
_cell_angle_gamma   89.89293899
_symmetry_Int_Tables_number   1
_chemical_formula_structural   Dy18Th2Si15Pt
_chemical_formula_sum   'Dy18 Th2 Si15 Pt1'
_cell_volume   846.61884778
_cell_formula_units_Z   1
loop_
 _symmetry_equiv_pos_site_id
 _symmetry_equiv_pos_as_xyz
  1  'x, y, z'
loop_
 _atom_site_type_symbol
 _atom_site_label
 _atom_site_symmetry_multiplicity
 _atom_site_fract_x
 _atom_site_fract_y
 _atom_site_fract_z
 _atom_site_occupancy
  Dy  Dy0  1  0.811818  0.575154  0.874613  1
  Dy  Dy1  1  0.319697  0.426537  0.125660  1
  Dy  Dy2  1  0.182830  0.928379  0.373618  1
  Dy  Dy3  1  0.682760  0.069168  0.627185  1
  Dy  Dy4  1  0.181718  0.928136  0.627671  1
  Dy  Dy5  1  0.681371  0.071341  0.371941  1
  Dy  Dy6  1  0.814209  0.572494  0.126220  1
  Dy  Dy7  1  0.321251  0.430021  0.873274  1
  Dy  Dy8  1  0.643198  0.233913  0.998802  1
  Dy  Dy9  1  0.155816  0.759869  0.000848  1
  Dy  Dy10  1  0.351575  0.260588  0.499924  1
  Dy  Dy11  1  0.850809  0.738369  0.500350  1
  Dy  Dy12  1  0.475495  0.932133  0.845794  1
  Dy  Dy13  1  0.972844  0.066224  0.152798  1
  Dy  Dy14  1  0.476374  0.931175  0.155012  1
  Dy  Dy15  1  0.974865  0.069818  0.846287  1
  Dy  Dy16  1  0.526595  0.564573  0.651343  1
  Dy  Dy17  1  0.026729  0.434137  0.348301  1
  Th  Th18  1  0.523974  0.568674  0.345077  1
  Th  Th19  1  0.023864  0.428523  0.654428  1
  Si  Si20  1  0.019738  0.350969  0.000677  1
  Si  Si21  1  0.478064  0.854661  0.500082  1
  Si  Si22  1  0.977693  0.144742  0.499957  1
  Si  Si23  1  0.653102  0.277446  0.789494  1
  Si  Si24  1  0.151482  0.720614  0.210676  1
  Si  Si25  1  0.351528  0.221056  0.290016  1
  Si  Si26  1  0.852330  0.778841  0.710998  1
  Si  Si27  1  0.356620  0.221472  0.709571  1
  Si  Si28  1  0.857422  0.779130  0.289238  1
  Si  Si29  1  0.646306  0.272839  0.207885  1
  Si  Si30  1  0.145577  0.725082  0.791761  1
  Si  Si31  1  0.771590  0.881792  0.001005  1
  Si  Si32  1  0.258667  0.125556  0.999431  1
  Si  Si33  1  0.232132  0.622327  0.502001  1
  Si  Si34  1  0.731969  0.378249  0.498416  1
  Pt  Pt35  1  0.517990  0.656000  0.999648  1
