# generated using pymatgen
data_BeNb12Au7N4
_symmetry_space_group_name_H-M   'P 1'
_cell_length_a   7.13150606
_cell_length_b   7.13150710
_cell_length_c   7.13150703
_cell_angle_alpha   90.04954995
_cell_angle_beta   90.04954657
_cell_angle_gamma   90.04954595
_symmetry_Int_Tables_number   1
_chemical_formula_structural   BeNb12Au7N4
_chemical_formula_sum   'Be1 Nb12 Au7 N4'
_cell_volume   362.69653105
_cell_formula_units_Z   1
loop_
 _symmetry_equiv_pos_site_id
 _symmetry_equiv_pos_as_xyz
  1  'x, y, z'
loop_
 _atom_site_type_symbol
 _atom_site_label
 _atom_site_symmetry_multiplicity
 _atom_site_fract_x
 _atom_site_fract_y
 _atom_site_fract_z
 _atom_site_occupancy
  Be  Be0  1  0.070261  0.070261  0.070261  1
  Nb  Nb1  1  0.788899  0.955693  0.375269  1
  Nb  Nb2  1  0.711723  0.041973  0.879365  1
  Nb  Nb3  1  0.207419  0.457149  0.127579  1
  Nb  Nb4  1  0.293384  0.540198  0.627358  1
  Nb  Nb5  1  0.955693  0.375269  0.788899  1
  Nb  Nb6  1  0.041973  0.879365  0.711723  1
  Nb  Nb7  1  0.457149  0.127579  0.207419  1
  Nb  Nb8  1  0.540198  0.627358  0.293384  1
  Nb  Nb9  1  0.375269  0.788899  0.955693  1
  Nb  Nb10  1  0.879365  0.711723  0.041973  1
  Nb  Nb11  1  0.127579  0.207419  0.457149  1
  Nb  Nb12  1  0.627358  0.293384  0.540198  1
  Au  Au13  1  0.174497  0.837188  0.294395  1
  Au  Au14  1  0.294395  0.174497  0.837188  1
  Au  Au15  1  0.837188  0.294395  0.174497  1
  Au  Au16  1  0.684866  0.684866  0.684866  1
  Au  Au17  1  0.565967  0.429463  0.938002  1
  Au  Au18  1  0.429463  0.938002  0.565967  1
  Au  Au19  1  0.938002  0.565967  0.429463  1
  N  N20  1  0.873819  0.125789  0.622973  1
  N  N21  1  0.622973  0.873819  0.125789  1
  N  N22  1  0.125789  0.622973  0.873819  1
  N  N23  1  0.376773  0.376773  0.376773  1
