# generated using pymatgen
data_Ho4GeMoRu6
_symmetry_space_group_name_H-M   'P 1'
_cell_length_a   5.55758129
_cell_length_b   5.15454519
_cell_length_c   8.97205500
_cell_angle_alpha   90.00000000
_cell_angle_beta   90.00000000
_cell_angle_gamma   122.63115127
_symmetry_Int_Tables_number   1
_chemical_formula_structural   Ho4GeMoRu6
_chemical_formula_sum   'Ho4 Ge1 Mo1 Ru6'
_cell_volume   216.45238493
_cell_formula_units_Z   1
loop_
 _symmetry_equiv_pos_site_id
 _symmetry_equiv_pos_as_xyz
  1  'x, y, z'
loop_
 _atom_site_type_symbol
 _atom_site_label
 _atom_site_symmetry_multiplicity
 _atom_site_fract_x
 _atom_site_fract_y
 _atom_site_fract_z
 _atom_site_occupancy
  Ho  Ho0  1  0.674232  0.348839  0.564721  1
  Ho  Ho1  1  0.332604  0.665104  0.431924  1
  Ho  Ho2  1  0.332604  0.665104  0.068076  1
  Ho  Ho3  1  0.674232  0.348839  0.935279  1
  Ge  Ge4  1  0.829403  0.658008  0.250000  1
  Mo  Mo5  1  0.154184  0.308416  0.750000  1
  Ru  Ru6  1  0.010210  0.020233  0.498383  1
  Ru  Ru7  1  0.010210  0.020233  0.001617  1
  Ru  Ru8  1  0.174998  0.818769  0.750000  1
  Ru  Ru9  1  0.643451  0.819086  0.750000  1
  Ru  Ru10  1  0.824356  0.164045  0.250000  1
  Ru  Ru11  1  0.339515  0.163324  0.250000  1
