# generated using pymatgen
data_LaTbB2Pt7Au
_symmetry_space_group_name_H-M   'P 1'
_cell_length_a   5.51543100
_cell_length_b   5.51543181
_cell_length_c   7.74539700
_cell_angle_alpha   90.00000000
_cell_angle_beta   90.00000000
_cell_angle_gamma   120.00000117
_symmetry_Int_Tables_number   1
_chemical_formula_structural   LaTbB2Pt7Au
_chemical_formula_sum   'La1 Tb1 B2 Pt7 Au1'
_cell_volume   204.04844267
_cell_formula_units_Z   1
loop_
 _symmetry_equiv_pos_site_id
 _symmetry_equiv_pos_as_xyz
  1  'x, y, z'
loop_
 _atom_site_type_symbol
 _atom_site_label
 _atom_site_symmetry_multiplicity
 _atom_site_fract_x
 _atom_site_fract_y
 _atom_site_fract_z
 _atom_site_occupancy
  La  La0  1  0.000000  0.000000  0.500000  1
  Tb  Tb1  1  0.000000  0.000000  0.000000  1
  B  B2  1  0.333333  0.666667  0.000000  1
  B  B3  1  0.666667  0.333333  0.000000  1
  Pt  Pt4  1  0.666667  0.333333  0.500000  1
  Pt  Pt5  1  0.500668  0.001336  0.194925  1
  Pt  Pt6  1  0.500668  0.001336  0.805075  1
  Pt  Pt7  1  0.998664  0.499332  0.194925  1
  Pt  Pt8  1  0.998664  0.499332  0.805075  1
  Pt  Pt9  1  0.500668  0.499332  0.194925  1
  Pt  Pt10  1  0.500668  0.499332  0.805075  1
  Au  Au11  1  0.333333  0.666667  0.500000  1
