# generated using pymatgen
data_Nd10Sb9Se
_symmetry_space_group_name_H-M   'P 1'
_cell_length_a   7.78409753
_cell_length_b   9.04952369
_cell_length_c   10.05295770
_cell_angle_alpha   102.98188552
_cell_angle_beta   97.31194591
_cell_angle_gamma   106.97743620
_symmetry_Int_Tables_number   1
_chemical_formula_structural   Nd10Sb9Se
_chemical_formula_sum   'Nd10 Sb9 Se1'
_cell_volume   645.69520976
_cell_formula_units_Z   1
loop_
 _symmetry_equiv_pos_site_id
 _symmetry_equiv_pos_as_xyz
  1  'x, y, z'
loop_
 _atom_site_type_symbol
 _atom_site_label
 _atom_site_symmetry_multiplicity
 _atom_site_fract_x
 _atom_site_fract_y
 _atom_site_fract_z
 _atom_site_occupancy
  Nd  Nd0  1  0.900355  0.550983  0.799581  1
  Nd  Nd1  1  0.702103  0.147773  0.400396  1
  Nd  Nd2  1  0.500821  0.750902  0.000214  1
  Nd  Nd3  1  0.703300  0.654177  0.401659  1
  Nd  Nd4  1  0.296700  0.345823  0.598341  1
  Nd  Nd5  1  0.098689  0.951374  0.203881  1
  Nd  Nd6  1  0.499179  0.249098  0.999786  1
  Nd  Nd7  1  0.297897  0.852227  0.599604  1
  Nd  Nd8  1  0.099645  0.449017  0.200419  1
  Nd  Nd9  1  0.901311  0.048626  0.796119  1
  Sb  Sb10  1  0.800222  0.600910  0.101348  1
  Sb  Sb11  1  0.599604  0.199001  0.699480  1
  Sb  Sb12  1  0.400396  0.800999  0.300520  1
  Sb  Sb13  1  0.801692  0.099476  0.099003  1
  Sb  Sb14  1  0.199778  0.399090  0.898652  1
  Sb  Sb15  1  0.595929  0.699317  0.697623  1
  Sb  Sb16  1  0.404071  0.300683  0.302377  1
  Sb  Sb17  1  0.198308  0.900524  0.900997  1
  Sb  Sb18  1  0.000000  0.500000  0.500000  1
  Se  Se19  1  0.000000  0.000000  0.500000  1
