# generated using pymatgen
data_HoEr5SbRuO14
_symmetry_space_group_name_H-M   'P 1'
_cell_length_a   6.41258242
_cell_length_b   6.41258203
_cell_length_c   7.41841089
_cell_angle_alpha   90.25982866
_cell_angle_beta   89.74017159
_cell_angle_gamma   109.22451016
_symmetry_Int_Tables_number   1
_chemical_formula_structural   HoEr5SbRuO14
_chemical_formula_sum   'Ho1 Er5 Sb1 Ru1 O14'
_cell_volume   288.03842639
_cell_formula_units_Z   1
loop_
 _symmetry_equiv_pos_site_id
 _symmetry_equiv_pos_as_xyz
  1  'x, y, z'
loop_
 _atom_site_type_symbol
 _atom_site_label
 _atom_site_symmetry_multiplicity
 _atom_site_fract_x
 _atom_site_fract_y
 _atom_site_fract_z
 _atom_site_occupancy
  Ho  Ho0  1  0.490098  0.490098  0.000000  1
  Er  Er1  1  0.000099  0.466462  0.745934  1
  Er  Er2  1  0.000101  0.534433  0.249100  1
  Er  Er3  1  0.534433  0.000101  0.750900  1
  Er  Er4  1  0.466462  0.000099  0.254066  1
  Er  Er5  1  0.517848  0.517848  0.500000  1
  Sb  Sb6  1  0.000191  0.000191  0.000000  1
  Ru  Ru7  1  0.000610  0.000610  0.500000  1
  O  O8  1  0.637527  0.361916  0.747103  1
  O  O9  1  0.361916  0.637527  0.252897  1
  O  O10  1  0.927202  0.073020  0.748500  1
  O  O11  1  0.073020  0.927202  0.251500  1
  O  O12  1  0.920716  0.674909  0.528298  1
  O  O13  1  0.077148  0.326973  0.028185  1
  O  O14  1  0.326973  0.077148  0.971815  1
  O  O15  1  0.674909  0.920716  0.471702  1
  O  O16  1  0.369140  0.630750  0.748904  1
  O  O17  1  0.630750  0.369140  0.251096  1
  O  O18  1  0.931274  0.676872  0.967952  1
  O  O19  1  0.066549  0.316165  0.465726  1
  O  O20  1  0.316165  0.066549  0.534274  1
  O  O21  1  0.676872  0.931274  0.032048  1
