# generated using pymatgen
data_Er6Ga2Si4IrRh11
_symmetry_space_group_name_H-M   'P 1'
_cell_length_a   5.55531400
_cell_length_b   5.56332895
_cell_length_c   15.22110885
_cell_angle_alpha   89.96676042
_cell_angle_beta   90.00000000
_cell_angle_gamma   119.95234240
_symmetry_Int_Tables_number   1
_chemical_formula_structural   Er6Ga2Si4IrRh11
_chemical_formula_sum   'Er6 Ga2 Si4 Ir1 Rh11'
_cell_volume   407.59470915
_cell_formula_units_Z   1
loop_
 _symmetry_equiv_pos_site_id
 _symmetry_equiv_pos_as_xyz
  1  'x, y, z'
loop_
 _atom_site_type_symbol
 _atom_site_label
 _atom_site_symmetry_multiplicity
 _atom_site_fract_x
 _atom_site_fract_y
 _atom_site_fract_z
 _atom_site_occupancy
  Er  Er0  1  0.333199  0.666399  0.537815  1
  Er  Er1  1  0.666725  0.333448  0.462254  1
  Er  Er2  1  0.666663  0.333326  0.038266  1
  Er  Er3  1  0.332362  0.664726  0.962471  1
  Er  Er4  1  0.333285  0.666571  0.749939  1
  Er  Er5  1  0.666587  0.333173  0.249529  1
  Ga  Ga6  1  0.000431  0.000862  0.999597  1
  Ga  Ga7  1  0.000081  0.000161  0.500074  1
  Si  Si8  1  0.000144  0.000288  0.250143  1
  Si  Si9  1  0.999959  0.999918  0.749902  1
  Si  Si10  1  0.333326  0.666652  0.250476  1
  Si  Si11  1  0.666889  0.333778  0.749974  1
  Ir  Ir12  1  0.168195  0.336391  0.132775  1
  Rh  Rh13  1  0.832293  0.664587  0.866897  1
  Rh  Rh14  1  0.664287  0.832066  0.132951  1
  Rh  Rh15  1  0.832225  0.664450  0.633087  1
  Rh  Rh16  1  0.335862  0.167788  0.866569  1
  Rh  Rh17  1  0.167817  0.335635  0.367587  1
  Rh  Rh18  1  0.167779  0.832066  0.132951  1
  Rh  Rh19  1  0.335765  0.167796  0.633133  1
  Rh  Rh20  1  0.831925  0.167788  0.866569  1
  Rh  Rh21  1  0.664418  0.832168  0.366953  1
  Rh  Rh22  1  0.832031  0.167796  0.633133  1
  Rh  Rh23  1  0.167750  0.832168  0.366953  1
