# generated using pymatgen
data_TbY2Pa(VB4)4
_symmetry_space_group_name_H-M   'P 1'
_cell_length_a   3.48876300
_cell_length_b   6.00317031
_cell_length_c   11.61820816
_cell_angle_alpha   89.90100676
_cell_angle_beta   90.00000000
_cell_angle_gamma   90.00000000
_symmetry_Int_Tables_number   1
_chemical_formula_structural   TbY2Pa(VB4)4
_chemical_formula_sum   'Tb1 Y2 Pa1 V4 B16'
_cell_volume   243.32718799
_cell_formula_units_Z   1
loop_
 _symmetry_equiv_pos_site_id
 _symmetry_equiv_pos_as_xyz
  1  'x, y, z'
loop_
 _atom_site_type_symbol
 _atom_site_label
 _atom_site_symmetry_multiplicity
 _atom_site_fract_x
 _atom_site_fract_y
 _atom_site_fract_z
 _atom_site_occupancy
  Tb  Tb0  1  0.000000  0.374403  0.651923  1
  Y  Y1  1  0.000000  0.123452  0.149557  1
  Y  Y2  1  0.000000  0.875440  0.849273  1
  Pa  Pa3  1  0.000000  0.625851  0.348791  1
  V  V4  1  0.000000  0.626039  0.084254  1
  V  V5  1  0.000000  0.372897  0.917799  1
  V  V6  1  0.000000  0.127633  0.416253  1
  V  V7  1  0.000000  0.872142  0.581442  1
  B  B8  1  0.500000  0.784605  0.185353  1
  B  B9  1  0.500000  0.214239  0.814387  1
  B  B10  1  0.500000  0.285398  0.315227  1
  B  B11  1  0.500000  0.715882  0.686049  1
  B  B12  1  0.500000  0.864718  0.032356  1
  B  B13  1  0.500000  0.135576  0.967402  1
  B  B14  1  0.500000  0.364693  0.467132  1
  B  B15  1  0.500000  0.637051  0.532400  1
  B  B16  1  0.500000  0.887544  0.453298  1
  B  B17  1  0.500000  0.114030  0.547290  1
  B  B18  1  0.500000  0.385974  0.046526  1
  B  B19  1  0.500000  0.614431  0.952738  1
  B  B20  1  0.500000  0.974798  0.308616  1
  B  B21  1  0.500000  0.022639  0.692643  1
  B  B22  1  0.500000  0.477221  0.191460  1
  B  B23  1  0.500000  0.523342  0.807832  1
