# generated using pymatgen
data_Yb3PrLu4(B6Os)4
_symmetry_space_group_name_H-M   'P 1'
_cell_length_a   3.62686600
_cell_length_b   9.11295879
_cell_length_c   11.52679701
_cell_angle_alpha   89.95219111
_cell_angle_beta   90.00000000
_cell_angle_gamma   90.00000000
_symmetry_Int_Tables_number   1
_chemical_formula_structural   Yb3PrLu4(B6Os)4
_chemical_formula_sum   'Yb3 Pr1 Lu4 B24 Os4'
_cell_volume   380.97757267
_cell_formula_units_Z   1
loop_
 _symmetry_equiv_pos_site_id
 _symmetry_equiv_pos_as_xyz
  1  'x, y, z'
loop_
 _atom_site_type_symbol
 _atom_site_label
 _atom_site_symmetry_multiplicity
 _atom_site_fract_x
 _atom_site_fract_y
 _atom_site_fract_z
 _atom_site_occupancy
  Yb  Yb0  1  0.000000  0.325311  0.414534  1
  Yb  Yb1  1  0.000000  0.675404  0.584191  1
  Yb  Yb2  1  0.000000  0.823092  0.086611  1
  Pr  Pr3  1  0.000000  0.176398  0.915138  1
  Lu  Lu4  1  0.000000  0.941739  0.368607  1
  Lu  Lu5  1  0.000000  0.056792  0.629844  1
  Lu  Lu6  1  0.000000  0.444520  0.133136  1
  Lu  Lu7  1  0.000000  0.558023  0.868181  1
  B  B8  1  0.500000  0.554339  0.432459  1
  B  B9  1  0.500000  0.446209  0.566885  1
  B  B10  1  0.500000  0.053231  0.070494  1
  B  B11  1  0.500000  0.942186  0.932285  1
  B  B12  1  0.500000  0.749804  0.417304  1
  B  B13  1  0.500000  0.250140  0.581379  1
  B  B14  1  0.500000  0.250712  0.086131  1
  B  B15  1  0.500000  0.748940  0.917369  1
  B  B16  1  0.500000  0.792244  0.264634  1
  B  B17  1  0.500000  0.208767  0.732903  1
  B  B18  1  0.500000  0.292804  0.237121  1
  B  B19  1  0.500000  0.707624  0.763811  1
  B  B20  1  0.500000  0.631323  0.185467  1
  B  B21  1  0.500000  0.371124  0.813087  1
  B  B22  1  0.500000  0.130879  0.315794  1
  B  B23  1  0.500000  0.868097  0.683494  1
  B  B24  1  0.500000  0.982647  0.213080  1
  B  B25  1  0.500000  0.013627  0.786001  1
  B  B26  1  0.500000  0.484143  0.288839  1
  B  B27  1  0.500000  0.517217  0.711001  1
  B  B28  1  0.500000  0.597785  0.026803  1
  B  B29  1  0.500000  0.405845  0.974574  1
  B  B30  1  0.500000  0.096127  0.473281  1
  B  B31  1  0.500000  0.903133  0.525728  1
  Os  Os32  1  0.000000  0.640272  0.319326  1
  Os  Os33  1  0.000000  0.360351  0.679842  1
  Os  Os34  1  0.000000  0.139868  0.182445  1
  Os  Os35  1  0.000000  0.859283  0.818222  1
