# generated using pymatgen
data_Gd2Sc2MnB12Ir
_symmetry_space_group_name_H-M   'P 1'
_cell_length_a   3.52634300
_cell_length_b   8.97400450
_cell_length_c   11.36728300
_cell_angle_alpha   90.01914148
_cell_angle_beta   90.00000000
_cell_angle_gamma   90.00000000
_symmetry_Int_Tables_number   1
_chemical_formula_structural   Gd2Sc2MnB12Ir
_chemical_formula_sum   'Gd4 Sc4 Mn2 B24 Ir2'
_cell_volume   359.72240151
_cell_formula_units_Z   2
loop_
 _symmetry_equiv_pos_site_id
 _symmetry_equiv_pos_as_xyz
  1  'x, y, z'
loop_
 _atom_site_type_symbol
 _atom_site_label
 _atom_site_symmetry_multiplicity
 _atom_site_fract_x
 _atom_site_fract_y
 _atom_site_fract_z
 _atom_site_occupancy
  Gd  Gd0  1  0.500000  0.316167  0.410718  1
  Gd  Gd1  1  0.500000  0.683833  0.589282  1
  Gd  Gd2  1  0.500000  0.174506  0.917207  1
  Gd  Gd3  1  0.500000  0.825494  0.082793  1
  Sc  Sc4  1  0.500000  0.439193  0.125157  1
  Sc  Sc5  1  0.500000  0.560807  0.874843  1
  Sc  Sc6  1  0.500000  0.050139  0.628688  1
  Sc  Sc7  1  0.500000  0.949861  0.371312  1
  Mn  Mn8  1  0.500000  0.141143  0.182767  1
  Mn  Mn9  1  0.500000  0.858857  0.817233  1
  B  B10  1  0.000000  0.099115  0.473277  1
  B  B11  1  0.000000  0.900885  0.526723  1
  B  B12  1  0.000000  0.400720  0.973058  1
  B  B13  1  0.000000  0.599280  0.026942  1
  B  B14  1  0.000000  0.129184  0.314869  1
  B  B15  1  0.000000  0.870816  0.685131  1
  B  B16  1  0.000000  0.371173  0.818763  1
  B  B17  1  0.000000  0.628827  0.181237  1
  B  B18  1  0.000000  0.055646  0.069429  1
  B  B19  1  0.000000  0.944354  0.930571  1
  B  B20  1  0.000000  0.444888  0.567205  1
  B  B21  1  0.000000  0.555112  0.432795  1
  B  B22  1  0.000000  0.480738  0.284571  1
  B  B23  1  0.000000  0.519262  0.715429  1
  B  B24  1  0.000000  0.015503  0.786410  1
  B  B25  1  0.000000  0.984497  0.213590  1
  B  B26  1  0.000000  0.250321  0.082808  1
  B  B27  1  0.000000  0.749679  0.917192  1
  B  B28  1  0.000000  0.244928  0.580628  1
  B  B29  1  0.000000  0.755072  0.419372  1
  B  B30  1  0.000000  0.291597  0.233205  1
  B  B31  1  0.000000  0.708403  0.766795  1
  B  B32  1  0.000000  0.205356  0.735295  1
  B  B33  1  0.000000  0.794644  0.264705  1
  Ir  Ir34  1  0.500000  0.359882  0.681184  1
  Ir  Ir35  1  0.500000  0.640118  0.318816  1
