# generated using pymatgen
data_La8Dy2Ru3Rh
_symmetry_space_group_name_H-M   'P 1'
_cell_length_a   9.10398655
_cell_length_b   9.13266617
_cell_length_c   7.26506111
_cell_angle_alpha   85.33494917
_cell_angle_beta   85.34031667
_cell_angle_gamma   42.83174425
_symmetry_Int_Tables_number   1
_chemical_formula_structural   La8Dy2Ru3Rh
_chemical_formula_sum   'La8 Dy2 Ru3 Rh1'
_cell_volume   409.08951461
_cell_formula_units_Z   1
loop_
 _symmetry_equiv_pos_site_id
 _symmetry_equiv_pos_as_xyz
  1  'x, y, z'
loop_
 _atom_site_type_symbol
 _atom_site_label
 _atom_site_symmetry_multiplicity
 _atom_site_fract_x
 _atom_site_fract_y
 _atom_site_fract_z
 _atom_site_occupancy
  La  La0  1  0.201327  0.981623  0.592576  1
  La  La1  1  0.016704  0.803264  0.913461  1
  La  La2  1  0.210072  0.360798  0.312944  1
  La  La3  1  0.638142  0.787635  0.185790  1
  La  La4  1  0.785215  0.636535  0.684762  1
  La  La5  1  0.365866  0.207607  0.817079  1
  La  La6  1  0.980395  0.201911  0.092524  1
  La  La7  1  0.794737  0.024701  0.407102  1
  Dy  Dy8  1  0.569856  0.430529  0.750702  1
  Dy  Dy9  1  0.431577  0.570208  0.247690  1
  Ru  Ru10  1  0.397007  0.820786  0.919252  1
  Ru  Ru11  1  0.821286  0.397360  0.421386  1
  Ru  Ru12  1  0.602119  0.178647  0.078840  1
  Rh  Rh13  1  0.185699  0.598396  0.575891  1
