# generated using pymatgen
data_La7Pr(NdIr3)2
_symmetry_space_group_name_H-M   'P 1'
_cell_length_a   11.39291332
_cell_length_b   11.38062133
_cell_length_c   6.64706100
_cell_angle_alpha   90.00000000
_cell_angle_beta   90.00000000
_cell_angle_gamma   90.16162610
_symmetry_Int_Tables_number   1
_chemical_formula_structural   La7Pr(NdIr3)2
_chemical_formula_sum   'La14 Pr2 Nd4 Ir12'
_cell_volume   861.84408005
_cell_formula_units_Z   2
loop_
 _symmetry_equiv_pos_site_id
 _symmetry_equiv_pos_as_xyz
  1  'x, y, z'
loop_
 _atom_site_type_symbol
 _atom_site_label
 _atom_site_symmetry_multiplicity
 _atom_site_fract_x
 _atom_site_fract_y
 _atom_site_fract_z
 _atom_site_occupancy
  La  La0  1  0.091063  0.291356  0.114687  1
  La  La1  1  0.791118  0.410100  0.114964  1
  La  La2  1  0.208882  0.589900  0.114964  1
  La  La3  1  0.908937  0.708644  0.114687  1
  La  La4  1  0.409724  0.791125  0.385356  1
  La  La5  1  0.590276  0.208875  0.385356  1
  La  La6  1  0.290894  0.090883  0.385534  1
  La  La7  1  0.709106  0.909117  0.385534  1
  La  La8  1  0.409388  0.209246  0.885106  1
  La  La9  1  0.709001  0.090390  0.885071  1
  La  La10  1  0.290999  0.909610  0.885071  1
  La  La11  1  0.590612  0.790754  0.885106  1
  La  La12  1  0.089854  0.707951  0.614436  1
  La  La13  1  0.910146  0.292049  0.614436  1
  Pr  Pr14  1  0.209095  0.409935  0.615637  1
  Pr  Pr15  1  0.790905  0.590065  0.615637  1
  Nd  Nd16  1  0.000000  0.000000  0.000261  1
  Nd  Nd17  1  0.500000  0.500000  0.999187  1
  Nd  Nd18  1  0.500000  0.500000  0.500237  1
  Nd  Nd19  1  0.000000  0.000000  0.500204  1
  Ir  Ir20  1  0.153139  0.846723  0.249985  1
  Ir  Ir21  1  0.347607  0.346527  0.249068  1
  Ir  Ir22  1  0.652393  0.653473  0.249068  1
  Ir  Ir23  1  0.846861  0.153277  0.249985  1
  Ir  Ir24  1  0.346835  0.653197  0.749728  1
  Ir  Ir25  1  0.153141  0.152891  0.750057  1
  Ir  Ir26  1  0.846859  0.847109  0.750057  1
  Ir  Ir27  1  0.653165  0.346803  0.749728  1
  Ir  Ir28  1  0.000000  0.500000  0.379258  1
  Ir  Ir29  1  0.500000  0.000000  0.120433  1
  Ir  Ir30  1  0.500000  0.000000  0.620133  1
  Ir  Ir31  1  0.000000  0.500000  0.881033  1
