# generated using pymatgen
data_Li3Pr2Co6P6Rh
_symmetry_space_group_name_H-M   'P 1'
_cell_length_a   3.75606900
_cell_length_b   10.49570300
_cell_length_c   12.44272000
_cell_angle_alpha   90.00000000
_cell_angle_beta   90.00000000
_cell_angle_gamma   90.00000000
_symmetry_Int_Tables_number   1
_chemical_formula_structural   Li3Pr2Co6P6Rh
_chemical_formula_sum   'Li6 Pr4 Co12 P12 Rh2'
_cell_volume   490.52418274
_cell_formula_units_Z   2
loop_
 _symmetry_equiv_pos_site_id
 _symmetry_equiv_pos_as_xyz
  1  'x, y, z'
loop_
 _atom_site_type_symbol
 _atom_site_label
 _atom_site_symmetry_multiplicity
 _atom_site_fract_x
 _atom_site_fract_y
 _atom_site_fract_z
 _atom_site_occupancy
  Li  Li0  1  0.250000  0.703931  0.992640  1
  Li  Li1  1  0.250000  0.796069  0.492640  1
  Li  Li2  1  0.750000  0.299003  0.010954  1
  Li  Li3  1  0.750000  0.200997  0.510954  1
  Li  Li4  1  0.250000  0.407024  0.493983  1
  Li  Li5  1  0.250000  0.092976  0.993983  1
  Pr  Pr6  1  0.250000  0.584010  0.709519  1
  Pr  Pr7  1  0.250000  0.915990  0.209519  1
  Pr  Pr8  1  0.750000  0.416631  0.292520  1
  Pr  Pr9  1  0.750000  0.083369  0.792520  1
  Co  Co10  1  0.250000  0.214209  0.173964  1
  Co  Co11  1  0.250000  0.285791  0.673964  1
  Co  Co12  1  0.750000  0.778856  0.820893  1
  Co  Co13  1  0.750000  0.721144  0.320893  1
  Co  Co14  1  0.250000  0.882597  0.693543  1
  Co  Co15  1  0.250000  0.617403  0.193543  1
  Co  Co16  1  0.750000  0.116816  0.306247  1
  Co  Co17  1  0.750000  0.383184  0.806247  1
  Co  Co18  1  0.250000  0.468082  0.935916  1
  Co  Co19  1  0.250000  0.031918  0.435916  1
  Co  Co20  1  0.750000  0.529799  0.066130  1
  Co  Co21  1  0.750000  0.970201  0.566130  1
  P  P22  1  0.250000  0.419150  0.110820  1
  P  P23  1  0.250000  0.080850  0.610820  1
  P  P24  1  0.750000  0.578275  0.891066  1
  P  P25  1  0.750000  0.921725  0.391066  1
  P  P26  1  0.250000  0.284330  0.852556  1
  P  P27  1  0.250000  0.215670  0.352556  1
  P  P28  1  0.750000  0.718216  0.140252  1
  P  P29  1  0.750000  0.781784  0.640252  1
  P  P30  1  0.250000  0.615346  0.376534  1
  P  P31  1  0.250000  0.884654  0.876534  1
  P  P32  1  0.750000  0.391274  0.622727  1
  P  P33  1  0.750000  0.108726  0.122727  1
  Rh  Rh34  1  0.750000  0.590004  0.509735  1
  Rh  Rh35  1  0.750000  0.909996  0.009735  1
