# generated using pymatgen
data_HfSc3Co12(Ni2P3)4
_symmetry_space_group_name_H-M   'P 1'
_cell_length_a   3.59836400
_cell_length_b   10.11864648
_cell_length_c   11.74916856
_cell_angle_alpha   90.22974086
_cell_angle_beta   90.00000000
_cell_angle_gamma   90.00000000
_symmetry_Int_Tables_number   1
_chemical_formula_structural   HfSc3Co12(Ni2P3)4
_chemical_formula_sum   'Hf1 Sc3 Co12 Ni8 P12'
_cell_volume   427.79052327
_cell_formula_units_Z   1
loop_
 _symmetry_equiv_pos_site_id
 _symmetry_equiv_pos_as_xyz
  1  'x, y, z'
loop_
 _atom_site_type_symbol
 _atom_site_label
 _atom_site_symmetry_multiplicity
 _atom_site_fract_x
 _atom_site_fract_y
 _atom_site_fract_z
 _atom_site_occupancy
  Hf  Hf0  1  0.250000  0.578762  0.706441  1
  Sc  Sc1  1  0.250000  0.921044  0.205576  1
  Sc  Sc2  1  0.750000  0.419814  0.294035  1
  Sc  Sc3  1  0.750000  0.079335  0.793950  1
  Co  Co4  1  0.250000  0.222076  0.176600  1
  Co  Co5  1  0.250000  0.278046  0.676765  1
  Co  Co6  1  0.750000  0.776444  0.822765  1
  Co  Co7  1  0.750000  0.721992  0.323816  1
  Co  Co8  1  0.250000  0.879177  0.698954  1
  Co  Co9  1  0.250000  0.619988  0.198719  1
  Co  Co10  1  0.750000  0.120064  0.301386  1
  Co  Co11  1  0.750000  0.381277  0.800169  1
  Co  Co12  1  0.250000  0.465551  0.931108  1
  Co  Co13  1  0.250000  0.035153  0.432006  1
  Co  Co14  1  0.750000  0.535085  0.067760  1
  Co  Co15  1  0.750000  0.964787  0.568015  1
  Ni  Ni16  1  0.250000  0.716146  0.991455  1
  Ni  Ni17  1  0.250000  0.784371  0.490137  1
  Ni  Ni18  1  0.750000  0.284884  0.009409  1
  Ni  Ni19  1  0.750000  0.215534  0.509053  1
  Ni  Ni20  1  0.250000  0.410434  0.482575  1
  Ni  Ni21  1  0.250000  0.090874  0.981708  1
  Ni  Ni22  1  0.750000  0.590447  0.519786  1
  Ni  Ni23  1  0.750000  0.909019  0.018063  1
  P  P24  1  0.250000  0.420777  0.115352  1
  P  P25  1  0.250000  0.078871  0.615583  1
  P  P26  1  0.750000  0.579176  0.884615  1
  P  P27  1  0.750000  0.921074  0.384497  1
  P  P28  1  0.250000  0.265731  0.864474  1
  P  P29  1  0.250000  0.234283  0.364586  1
  P  P30  1  0.750000  0.734325  0.135793  1
  P  P31  1  0.750000  0.765954  0.635237  1
  P  P32  1  0.250000  0.601724  0.385521  1
  P  P33  1  0.250000  0.898114  0.886080  1
  P  P34  1  0.750000  0.397653  0.613867  1
  P  P35  1  0.750000  0.102014  0.114142  1
