# generated using pymatgen
data_Na5La8MgAu20
_symmetry_space_group_name_H-M   'P 1'
_cell_length_a   8.90396096
_cell_length_b   8.90396105
_cell_length_c   10.52473078
_cell_angle_alpha   89.90342489
_cell_angle_beta   89.90342463
_cell_angle_gamma   108.12228906
_symmetry_Int_Tables_number   1
_chemical_formula_structural   Na5La8MgAu20
_chemical_formula_sum   'Na5 La8 Mg1 Au20'
_cell_volume   793.01199236
_cell_formula_units_Z   1
loop_
 _symmetry_equiv_pos_site_id
 _symmetry_equiv_pos_as_xyz
  1  'x, y, z'
loop_
 _atom_site_type_symbol
 _atom_site_label
 _atom_site_symmetry_multiplicity
 _atom_site_fract_x
 _atom_site_fract_y
 _atom_site_fract_z
 _atom_site_occupancy
  Na  Na0  1  0.013702  0.513859  0.251051  1
  Na  Na1  1  0.986298  0.486141  0.748949  1
  Na  Na2  1  0.486141  0.986298  0.748949  1
  Na  Na3  1  0.513859  0.013702  0.251051  1
  Na  Na4  1  0.000000  0.000000  0.000000  1
  La  La5  1  0.701526  0.298474  0.000000  1
  La  La6  1  0.298474  0.701526  0.000000  1
  La  La7  1  0.796645  0.203355  0.500000  1
  La  La8  1  0.203355  0.796645  0.500000  1
  La  La9  1  0.299747  0.299747  0.201866  1
  La  La10  1  0.700253  0.700253  0.798134  1
  La  La11  1  0.199965  0.199965  0.701922  1
  La  La12  1  0.800035  0.800035  0.298078  1
  Mg  Mg13  1  0.500000  0.500000  0.500000  1
  Au  Au14  1  0.094473  0.094473  0.404963  1
  Au  Au15  1  0.905527  0.905527  0.595037  1
  Au  Au16  1  0.403336  0.403336  0.905931  1
  Au  Au17  1  0.596664  0.596664  0.094069  1
  Au  Au18  1  0.880922  0.161788  0.209920  1
  Au  Au19  1  0.119078  0.838212  0.790080  1
  Au  Au20  1  0.612958  0.343463  0.705275  1
  Au  Au21  1  0.656537  0.387042  0.294725  1
  Au  Au22  1  0.387042  0.656537  0.294725  1
  Au  Au23  1  0.343463  0.612958  0.705275  1
  Au  Au24  1  0.838212  0.119078  0.790080  1
  Au  Au25  1  0.161788  0.880922  0.209920  1
  Au  Au26  1  0.928957  0.653012  0.013773  1
  Au  Au27  1  0.071043  0.346988  0.986227  1
  Au  Au28  1  0.571327  0.837491  0.516405  1
  Au  Au29  1  0.162509  0.428673  0.483595  1
  Au  Au30  1  0.428673  0.162509  0.483595  1
  Au  Au31  1  0.837491  0.571327  0.516405  1
  Au  Au32  1  0.346988  0.071043  0.986227  1
  Au  Au33  1  0.653012  0.928957  0.013773  1
