# generated using pymatgen
data_Zr2HgN
_symmetry_space_group_name_H-M   'P 1'
_cell_length_a   3.33555400
_cell_length_b   3.33555307
_cell_length_c   14.67232400
_cell_angle_alpha   90.00000000
_cell_angle_beta   90.00000000
_cell_angle_gamma   119.99998942
_symmetry_Int_Tables_number   1
_chemical_formula_structural   Zr2HgN
_chemical_formula_sum   'Zr4 Hg2 N2'
_cell_volume   141.37265596
_cell_formula_units_Z   2
loop_
 _symmetry_equiv_pos_site_id
 _symmetry_equiv_pos_as_xyz
  1  'x, y, z'
loop_
 _atom_site_type_symbol
 _atom_site_label
 _atom_site_symmetry_multiplicity
 _atom_site_fract_x
 _atom_site_fract_y
 _atom_site_fract_z
 _atom_site_occupancy
  Zr  Zr0  1  0.333333  0.666667  0.082720  1
  Zr  Zr1  1  0.666667  0.333333  0.582720  1
  Zr  Zr2  1  0.666667  0.333333  0.917280  1
  Zr  Zr3  1  0.333333  0.666667  0.417280  1
  Hg  Hg4  1  0.333333  0.666667  0.750000  1
  Hg  Hg5  1  0.666667  0.333333  0.250000  1
  N  N6  1  0.000000  0.000000  0.000000  1
  N  N7  1  0.000000  0.000000  0.500000  1
