# generated using pymatgen
data_FeCo2(PO4)2
_symmetry_space_group_name_H-M   'P 1'
_cell_length_a   8.48766900
_cell_length_b   5.13105115
_cell_length_c   8.98571048
_cell_angle_alpha   59.00562078
_cell_angle_beta   90.00000000
_cell_angle_gamma   90.00000000
_symmetry_Int_Tables_number   1
_chemical_formula_structural   FeCo2(PO4)2
_chemical_formula_sum   'Fe2 Co4 P4 O16'
_cell_volume   335.45818462
_cell_formula_units_Z   2
loop_
 _symmetry_equiv_pos_site_id
 _symmetry_equiv_pos_as_xyz
  1  'x, y, z'
loop_
 _atom_site_type_symbol
 _atom_site_label
 _atom_site_symmetry_multiplicity
 _atom_site_fract_x
 _atom_site_fract_y
 _atom_site_fract_z
 _atom_site_occupancy
  Fe  Fe0  1  0.000000  0.000000  0.000000  1
  Fe  Fe1  1  0.500000  0.000000  0.500000  1
  Co  Co2  1  0.859220  0.017642  0.388485  1
  Co  Co3  1  0.640780  0.017642  0.888485  1
  Co  Co4  1  0.359220  0.982358  0.111515  1
  Co  Co5  1  0.140780  0.982358  0.611515  1
  P  P6  1  0.193780  0.337116  0.198417  1
  P  P7  1  0.306220  0.337116  0.698417  1
  P  P8  1  0.806220  0.662884  0.801583  1
  P  P9  1  0.693780  0.662884  0.301583  1
  O  O10  1  0.578717  0.815531  0.143335  1
  O  O11  1  0.921283  0.815531  0.643335  1
  O  O12  1  0.356861  0.276659  0.553865  1
  O  O13  1  0.304553  0.683450  0.629667  1
  O  O14  1  0.856861  0.723341  0.946135  1
  O  O15  1  0.360330  0.186635  0.255662  1
  O  O16  1  0.639670  0.813365  0.744338  1
  O  O17  1  0.143139  0.276659  0.053865  1
  O  O18  1  0.695447  0.316550  0.370333  1
  O  O19  1  0.421283  0.184469  0.856665  1
  O  O20  1  0.078717  0.184469  0.356665  1
  O  O21  1  0.139670  0.186635  0.755662  1
  O  O22  1  0.643139  0.723341  0.446135  1
  O  O23  1  0.804553  0.316550  0.870333  1
  O  O24  1  0.195447  0.683450  0.129667  1
  O  O25  1  0.860330  0.813365  0.244338  1
