# generated using pymatgen
data_Li3Gd3Si2Ag
_symmetry_space_group_name_H-M   'P 1'
_cell_length_a   7.04336500
_cell_length_b   7.04336473
_cell_length_c   4.25191500
_cell_angle_alpha   90.00000000
_cell_angle_beta   90.00000000
_cell_angle_gamma   119.99999655
_symmetry_Int_Tables_number   1
_chemical_formula_structural   Li3Gd3Si2Ag
_chemical_formula_sum   'Li3 Gd3 Si2 Ag1'
_cell_volume   182.67351863
_cell_formula_units_Z   1
loop_
 _symmetry_equiv_pos_site_id
 _symmetry_equiv_pos_as_xyz
  1  'x, y, z'
loop_
 _atom_site_type_symbol
 _atom_site_label
 _atom_site_symmetry_multiplicity
 _atom_site_fract_x
 _atom_site_fract_y
 _atom_site_fract_z
 _atom_site_occupancy
  Li  Li0  1  0.767907  0.000000  0.500001  1
  Li  Li1  1  0.232093  0.232092  0.500001  1
  Li  Li2  1  0.000000  0.767907  0.500001  1
  Gd  Gd3  1  0.424879  0.000000  0.000000  1
  Gd  Gd4  1  0.000000  0.424879  0.000000  1
  Gd  Gd5  1  0.575120  0.575120  0.000000  1
  Si  Si6  1  0.666666  0.333333  0.500001  1
  Si  Si7  1  0.333333  0.666667  0.500001  1
  Ag  Ag8  1  0.000000  0.000000  0.000000  1
