# generated using pymatgen
data_HfZrTaRe2W
_symmetry_space_group_name_H-M   'P 1'
_cell_length_a   5.36567606
_cell_length_b   5.36567586
_cell_length_c   5.46048463
_cell_angle_alpha   59.91233723
_cell_angle_beta   59.91234448
_cell_angle_gamma   59.86150897
_symmetry_Int_Tables_number   1
_chemical_formula_structural   HfZrTaRe2W
_chemical_formula_sum   'Hf1 Zr1 Ta1 Re2 W1'
_cell_volume   110.90036253
_cell_formula_units_Z   1
loop_
 _symmetry_equiv_pos_site_id
 _symmetry_equiv_pos_as_xyz
  1  'x, y, z'
loop_
 _atom_site_type_symbol
 _atom_site_label
 _atom_site_symmetry_multiplicity
 _atom_site_fract_x
 _atom_site_fract_y
 _atom_site_fract_z
 _atom_site_occupancy
  Hf  Hf0  1  0.248508  0.248508  0.253387  1
  Zr  Zr1  1  0.001447  0.001447  0.996882  1
  Ta  Ta2  1  0.625006  0.625006  0.124901  1
  Re  Re3  1  0.624980  0.125126  0.624905  1
  Re  Re4  1  0.125126  0.624980  0.624905  1
  W  W5  1  0.624933  0.624933  0.625021  1
