# generated using pymatgen
data_Ti3CrB2MoP
_symmetry_space_group_name_H-M   'P 1'
_cell_length_a   5.88319078
_cell_length_b   5.88319137
_cell_length_c   6.97753266
_cell_angle_alpha   114.97334156
_cell_angle_beta   114.97333371
_cell_angle_gamma   89.91636349
_symmetry_Int_Tables_number   1
_chemical_formula_structural   Ti3CrB2MoP
_chemical_formula_sum   'Ti6 Cr2 B4 Mo2 P2'
_cell_volume   193.81035274
_cell_formula_units_Z   2
loop_
 _symmetry_equiv_pos_site_id
 _symmetry_equiv_pos_as_xyz
  1  'x, y, z'
loop_
 _atom_site_type_symbol
 _atom_site_label
 _atom_site_symmetry_multiplicity
 _atom_site_fract_x
 _atom_site_fract_y
 _atom_site_fract_z
 _atom_site_occupancy
  Ti  Ti0  1  0.038335  0.538335  0.729759  1
  Ti  Ti1  1  0.691424  0.191424  0.729759  1
  Ti  Ti2  1  0.190336  0.032522  0.722857  1
  Ti  Ti3  1  0.532522  0.690336  0.722857  1
  Ti  Ti4  1  0.963209  0.463209  0.273202  1
  Ti  Ti5  1  0.309992  0.809992  0.273202  1
  Cr  Cr6  1  0.501894  0.501894  0.003788  1
  Cr  Cr7  1  0.001894  0.001894  0.003788  1
  B  B8  1  0.384362  0.884362  0.997902  1
  B  B9  1  0.613540  0.113540  0.997902  1
  B  B10  1  0.116389  0.384496  0.000885  1
  B  B11  1  0.884496  0.616389  0.000885  1
  Mo  Mo12  1  0.808856  0.961804  0.270661  1
  Mo  Mo13  1  0.461804  0.308856  0.270661  1
  P  P14  1  0.250473  0.250473  0.500946  1
  P  P15  1  0.750473  0.750473  0.500946  1
