# generated using pymatgen
data_Zr2Co2P3Ru
_symmetry_space_group_name_H-M   'P 1'
_cell_length_a   3.68323300
_cell_length_b   10.04845900
_cell_length_c   12.44277500
_cell_angle_alpha   90.00000000
_cell_angle_beta   90.00000000
_cell_angle_gamma   90.00000000
_symmetry_Int_Tables_number   1
_chemical_formula_structural   Zr2Co2P3Ru
_chemical_formula_sum   'Zr8 Co8 P12 Ru4'
_cell_volume   460.51725342
_cell_formula_units_Z   4
loop_
 _symmetry_equiv_pos_site_id
 _symmetry_equiv_pos_as_xyz
  1  'x, y, z'
loop_
 _atom_site_type_symbol
 _atom_site_label
 _atom_site_symmetry_multiplicity
 _atom_site_fract_x
 _atom_site_fract_y
 _atom_site_fract_z
 _atom_site_occupancy
  Zr  Zr0  1  0.250000  0.343599  0.995159  1
  Zr  Zr1  1  0.250000  0.156401  0.495159  1
  Zr  Zr2  1  0.750000  0.656401  0.004841  1
  Zr  Zr3  1  0.750000  0.843599  0.504841  1
  Zr  Zr4  1  0.250000  0.427726  0.709010  1
  Zr  Zr5  1  0.250000  0.072274  0.209010  1
  Zr  Zr6  1  0.750000  0.572274  0.290990  1
  Zr  Zr7  1  0.750000  0.927726  0.790990  1
  Co  Co8  1  0.250000  0.133844  0.716109  1
  Co  Co9  1  0.250000  0.366156  0.216109  1
  Co  Co10  1  0.750000  0.866156  0.283891  1
  Co  Co11  1  0.750000  0.633844  0.783891  1
  Co  Co12  1  0.250000  0.767885  0.168784  1
  Co  Co13  1  0.250000  0.732115  0.668784  1
  Co  Co14  1  0.750000  0.232115  0.831216  1
  Co  Co15  1  0.750000  0.267885  0.331216  1
  P  P16  1  0.250000  0.107818  0.892557  1
  P  P17  1  0.250000  0.392182  0.392557  1
  P  P18  1  0.750000  0.892182  0.107443  1
  P  P19  1  0.750000  0.607818  0.607443  1
  P  P20  1  0.250000  0.730420  0.848502  1
  P  P21  1  0.250000  0.769580  0.348502  1
  P  P22  1  0.750000  0.269580  0.151498  1
  P  P23  1  0.750000  0.230420  0.651498  1
  P  P24  1  0.250000  0.553115  0.129528  1
  P  P25  1  0.250000  0.946885  0.629528  1
  P  P26  1  0.750000  0.446885  0.870472  1
  P  P27  1  0.750000  0.053115  0.370472  1
  Ru  Ru28  1  0.250000  0.897757  0.980763  1
  Ru  Ru29  1  0.250000  0.602243  0.480763  1
  Ru  Ru30  1  0.750000  0.102243  0.019237  1
  Ru  Ru31  1  0.750000  0.397757  0.519237  1
