# generated using pymatgen
data_Li2YbLuSi4
_symmetry_space_group_name_H-M   'P 1'
_cell_length_a   3.75915600
_cell_length_b   7.73646594
_cell_length_c   10.29416365
_cell_angle_alpha   89.33164238
_cell_angle_beta   90.00000000
_cell_angle_gamma   90.00000000
_symmetry_Int_Tables_number   1
_chemical_formula_structural   Li2YbLuSi4
_chemical_formula_sum   'Li4 Yb2 Lu2 Si8'
_cell_volume   299.36049360
_cell_formula_units_Z   2
loop_
 _symmetry_equiv_pos_site_id
 _symmetry_equiv_pos_as_xyz
  1  'x, y, z'
loop_
 _atom_site_type_symbol
 _atom_site_label
 _atom_site_symmetry_multiplicity
 _atom_site_fract_x
 _atom_site_fract_y
 _atom_site_fract_z
 _atom_site_occupancy
  Li  Li0  1  0.250000  0.998596  0.390386  1
  Li  Li1  1  0.750000  0.001404  0.609614  1
  Li  Li2  1  0.250000  0.488597  0.108288  1
  Li  Li3  1  0.750000  0.511403  0.891712  1
  Yb  Yb4  1  0.250000  0.637240  0.634926  1
  Yb  Yb5  1  0.750000  0.362760  0.365074  1
  Lu  Lu6  1  0.250000  0.128496  0.864946  1
  Lu  Lu7  1  0.750000  0.871504  0.135054  1
  Si  Si8  1  0.750000  0.258448  0.059131  1
  Si  Si9  1  0.250000  0.741552  0.940869  1
  Si  Si10  1  0.750000  0.771743  0.425811  1
  Si  Si11  1  0.250000  0.228257  0.574189  1
  Si  Si12  1  0.750000  0.846579  0.826172  1
  Si  Si13  1  0.250000  0.153421  0.173828  1
  Si  Si14  1  0.750000  0.335029  0.685935  1
  Si  Si15  1  0.250000  0.664971  0.314065  1
