# generated using pymatgen
data_Lu3Si2Ag3Hg
_symmetry_space_group_name_H-M   'P 1'
_cell_length_a   7.12854200
_cell_length_b   7.12854160
_cell_length_c   4.16277300
_cell_angle_alpha   90.00000000
_cell_angle_beta   90.00000000
_cell_angle_gamma   120.00000186
_symmetry_Int_Tables_number   1
_chemical_formula_structural   Lu3Si2Ag3Hg
_chemical_formula_sum   'Lu3 Si2 Ag3 Hg1'
_cell_volume   183.19547978
_cell_formula_units_Z   1
loop_
 _symmetry_equiv_pos_site_id
 _symmetry_equiv_pos_as_xyz
  1  'x, y, z'
loop_
 _atom_site_type_symbol
 _atom_site_label
 _atom_site_symmetry_multiplicity
 _atom_site_fract_x
 _atom_site_fract_y
 _atom_site_fract_z
 _atom_site_occupancy
  Lu  Lu0  1  0.421702  0.421702  0.500000  1
  Lu  Lu1  1  0.578298  0.000000  0.500000  1
  Lu  Lu2  1  0.000000  0.578298  0.500000  1
  Si  Si3  1  0.666667  0.333333  0.000000  1
  Si  Si4  1  0.333333  0.666667  0.000000  1
  Ag  Ag5  1  0.728352  0.728352  0.000000  1
  Ag  Ag6  1  0.271648  0.000000  0.000000  1
  Ag  Ag7  1  0.000000  0.271648  0.000000  1
  Hg  Hg8  1  0.000000  0.000000  0.500000  1
