# generated using pymatgen
data_Ho12Fe3CoBiPd
_symmetry_space_group_name_H-M   'P 1'
_cell_length_a   8.30119958
_cell_length_b   8.30147185
_cell_length_c   8.30119900
_cell_angle_alpha   111.26828377
_cell_angle_beta   111.21406121
_cell_angle_gamma   105.98526690
_symmetry_Int_Tables_number   1
_chemical_formula_structural   Ho12Fe3CoBiPd
_chemical_formula_sum   'Ho12 Fe3 Co1 Bi1 Pd1'
_cell_volume   439.16125382
_cell_formula_units_Z   1
loop_
 _symmetry_equiv_pos_site_id
 _symmetry_equiv_pos_as_xyz
  1  'x, y, z'
loop_
 _atom_site_type_symbol
 _atom_site_label
 _atom_site_symmetry_multiplicity
 _atom_site_fract_x
 _atom_site_fract_y
 _atom_site_fract_z
 _atom_site_occupancy
  Ho  Ho0  1  0.813851  0.711378  0.523151  1
  Ho  Ho1  1  0.188229  0.290646  0.476812  1
  Ho  Ho2  1  0.188229  0.711378  0.897527  1
  Ho  Ho3  1  0.813833  0.290646  0.102418  1
  Ho  Ho4  1  0.689867  0.382372  0.692506  1
  Ho  Ho5  1  0.309016  0.616633  0.307616  1
  Ho  Ho6  1  0.689837  0.997340  0.307505  1
  Ho  Ho7  1  0.308965  0.001348  0.692382  1
  Ho  Ho8  1  0.585830  0.788555  0.797241  1
  Ho  Ho9  1  0.413208  0.211270  0.201923  1
  Ho  Ho10  1  0.991315  0.788555  0.202725  1
  Ho  Ho11  1  0.009346  0.211270  0.798062  1
  Fe  Fe12  1  0.616118  0.000633  0.615657  1
  Fe  Fe13  1  0.384975  0.000633  0.384515  1
  Fe  Fe14  1  0.106963  0.606917  0.499955  1
  Co  Co15  1  0.889200  0.389184  0.499983  1
  Bi  Bi16  1  0.500776  0.500768  0.999992  1
  Pd  Pd17  1  0.000442  0.000474  0.000032  1
