# generated using pymatgen
data_K8MnCo3S4(O4F3)4
_symmetry_space_group_name_H-M   'P 1'
_cell_length_a   7.45957000
_cell_length_b   8.53063300
_cell_length_c   10.98786500
_cell_angle_alpha   90.00000000
_cell_angle_beta   90.00000000
_cell_angle_gamma   90.00000000
_symmetry_Int_Tables_number   1
_chemical_formula_structural   K8MnCo3S4(O4F3)4
_chemical_formula_sum   'K8 Mn1 Co3 S4 O16 F12'
_cell_volume   699.21118513
_cell_formula_units_Z   1
loop_
 _symmetry_equiv_pos_site_id
 _symmetry_equiv_pos_as_xyz
  1  'x, y, z'
loop_
 _atom_site_type_symbol
 _atom_site_label
 _atom_site_symmetry_multiplicity
 _atom_site_fract_x
 _atom_site_fract_y
 _atom_site_fract_z
 _atom_site_occupancy
  K  K0  1  0.810484  0.668376  0.192131  1
  K  K1  1  0.811031  0.173690  0.309371  1
  K  K2  1  0.311013  0.825904  0.309366  1
  K  K3  1  0.685124  0.667630  0.807991  1
  K  K4  1  0.688987  0.174096  0.690634  1
  K  K5  1  0.314876  0.332370  0.192009  1
  K  K6  1  0.189516  0.331624  0.807869  1
  K  K7  1  0.188969  0.826310  0.690629  1
  Mn  Mn8  1  0.000000  0.000000  0.000000  1
  Co  Co9  1  0.500000  0.500000  0.500000  1
  Co  Co10  1  0.500000  0.000000  0.000000  1
  Co  Co11  1  0.000000  0.500000  0.500000  1
  S  S12  1  0.250224  0.201972  0.500297  1
  S  S13  1  0.752706  0.306789  0.999129  1
  S  S14  1  0.749776  0.798028  0.499703  1
  S  S15  1  0.247294  0.693211  0.000871  1
  O  O16  1  0.328699  0.107614  0.598412  1
  O  O17  1  0.836660  0.402163  0.903702  1
  O  O18  1  0.174845  0.107647  0.401037  1
  O  O19  1  0.673149  0.399398  0.097926  1
  O  O20  1  0.671301  0.892386  0.401588  1
  O  O21  1  0.163340  0.597837  0.096298  1
  O  O22  1  0.825155  0.892353  0.598963  1
  O  O23  1  0.326851  0.600602  0.902074  1
  O  O24  1  0.391316  0.307097  0.440876  1
  O  O25  1  0.893390  0.200858  0.058874  1
  O  O26  1  0.106952  0.304049  0.559931  1
  O  O27  1  0.612259  0.204826  0.939594  1
  O  O28  1  0.106610  0.799142  0.941126  1
  O  O29  1  0.893048  0.695951  0.440069  1
  O  O30  1  0.608684  0.692903  0.559124  1
  O  O31  1  0.387741  0.795174  0.060406  1
  F  F32  1  0.476713  0.940926  0.837728  1
  F  F33  1  0.976512  0.558319  0.660467  1
  F  F34  1  0.022252  0.941135  0.163513  1
  F  F35  1  0.524497  0.558241  0.338950  1
  F  F36  1  0.737290  0.888305  0.000991  1
  F  F37  1  0.249030  0.612277  0.499218  1
  F  F38  1  0.262710  0.111695  0.999009  1
  F  F39  1  0.750970  0.387723  0.500782  1
  F  F40  1  0.977748  0.058865  0.836487  1
  F  F41  1  0.523287  0.059074  0.162272  1
  F  F42  1  0.023488  0.441681  0.339533  1
  F  F43  1  0.475503  0.441759  0.661050  1
