# generated using pymatgen
data_LuMgGa3Os
_symmetry_space_group_name_H-M   'P 1'
_cell_length_a   5.27929200
_cell_length_b   5.27929201
_cell_length_c   8.65721300
_cell_angle_alpha   90.00000000
_cell_angle_beta   90.00000000
_cell_angle_gamma   119.99999992
_symmetry_Int_Tables_number   1
_chemical_formula_structural   LuMgGa3Os
_chemical_formula_sum   'Lu2 Mg2 Ga6 Os2'
_cell_volume   208.95852949
_cell_formula_units_Z   2
loop_
 _symmetry_equiv_pos_site_id
 _symmetry_equiv_pos_as_xyz
  1  'x, y, z'
loop_
 _atom_site_type_symbol
 _atom_site_label
 _atom_site_symmetry_multiplicity
 _atom_site_fract_x
 _atom_site_fract_y
 _atom_site_fract_z
 _atom_site_occupancy
  Lu  Lu0  1  0.333333  0.666666  0.551594  1
  Lu  Lu1  1  0.333333  0.666666  0.948406  1
  Mg  Mg2  1  0.666666  0.333334  0.050150  1
  Mg  Mg3  1  0.666666  0.333334  0.449851  1
  Ga  Ga4  1  0.165573  0.331146  0.250000  1
  Ga  Ga5  1  0.165573  0.834428  0.250000  1
  Ga  Ga6  1  0.668855  0.834428  0.250000  1
  Ga  Ga7  1  0.333055  0.166528  0.749999  1
  Ga  Ga8  1  0.833474  0.166528  0.749999  1
  Ga  Ga9  1  0.833472  0.666946  0.749999  1
  Os  Os10  1  0.000000  0.000000  0.006269  1
  Os  Os11  1  0.000000  0.000000  0.493731  1
