# generated using pymatgen
data_Tb3YSn5SbRh7
_symmetry_space_group_name_H-M   'P 1'
_cell_length_a   7.62159734
_cell_length_b   7.62295539
_cell_length_c   7.62591252
_cell_angle_alpha   109.41683628
_cell_angle_beta   109.40962318
_cell_angle_gamma   109.56797428
_symmetry_Int_Tables_number   1
_chemical_formula_structural   Tb3YSn5SbRh7
_chemical_formula_sum   'Tb3 Y1 Sn5 Sb1 Rh7'
_cell_volume   341.14697872
_cell_formula_units_Z   1
loop_
 _symmetry_equiv_pos_site_id
 _symmetry_equiv_pos_as_xyz
  1  'x, y, z'
loop_
 _atom_site_type_symbol
 _atom_site_label
 _atom_site_symmetry_multiplicity
 _atom_site_fract_x
 _atom_site_fract_y
 _atom_site_fract_z
 _atom_site_occupancy
  Tb  Tb0  1  0.998677  0.495899  0.000000  1
  Tb  Tb1  1  0.998746  0.998770  0.502811  1
  Tb  Tb2  1  0.495934  0.495958  0.497189  1
  Y  Y3  1  0.495944  0.998717  0.000000  1
  Sn  Sn4  1  0.996736  0.313719  0.316787  1
  Sn  Sn5  1  0.679949  0.996933  0.683213  1
  Sn  Sn6  1  0.690624  0.691043  0.000000  1
  Sn  Sn7  1  0.997324  0.680299  0.683201  1
  Sn  Sn8  1  0.314123  0.997098  0.316799  1
  Sb  Sb9  1  0.321752  0.321368  0.000000  1
  Rh  Rh10  1  0.008282  0.008227  0.000000  1
  Rh  Rh11  1  0.501588  0.750499  0.248784  1
  Rh  Rh12  1  0.750284  0.501348  0.248728  1
  Rh  Rh13  1  0.247939  0.747994  0.500200  1
  Rh  Rh14  1  0.252805  0.501714  0.751216  1
  Rh  Rh15  1  0.501555  0.252620  0.751272  1
  Rh  Rh16  1  0.747740  0.247794  0.499800  1
