# generated using pymatgen
data_TbZr2Al7Cu2
_symmetry_space_group_name_H-M   'P 1'
_cell_length_a   8.90976600
_cell_length_b   8.90976619
_cell_length_c   8.90976603
_cell_angle_alpha   34.83306151
_cell_angle_beta   34.83305875
_cell_angle_gamma   34.83305618
_symmetry_Int_Tables_number   1
_chemical_formula_structural   TbZr2Al7Cu2
_chemical_formula_sum   'Tb1 Zr2 Al7 Cu2'
_cell_volume   205.98033125
_cell_formula_units_Z   1
loop_
 _symmetry_equiv_pos_site_id
 _symmetry_equiv_pos_as_xyz
  1  'x, y, z'
loop_
 _atom_site_type_symbol
 _atom_site_label
 _atom_site_symmetry_multiplicity
 _atom_site_fract_x
 _atom_site_fract_y
 _atom_site_fract_z
 _atom_site_occupancy
  Tb  Tb0  1  0.000000  0.000000  0.000000  1
  Zr  Zr1  1  0.855770  0.855770  0.855770  1
  Zr  Zr2  1  0.144230  0.144230  0.144230  1
  Al  Al3  1  0.415211  0.415211  0.924372  1
  Al  Al4  1  0.924372  0.415211  0.415211  1
  Al  Al5  1  0.415211  0.924372  0.415211  1
  Al  Al6  1  0.500000  0.500000  0.500000  1
  Al  Al7  1  0.584789  0.075628  0.584789  1
  Al  Al8  1  0.075628  0.584789  0.584789  1
  Al  Al9  1  0.584789  0.584789  0.075628  1
  Cu  Cu10  1  0.665492  0.665492  0.665492  1
  Cu  Cu11  1  0.334508  0.334508  0.334508  1
