# generated using pymatgen
data_Er3Mg(GaPt)4
_symmetry_space_group_name_H-M   'P 1'
_cell_length_a   4.32031100
_cell_length_b   6.82709541
_cell_length_c   7.73873965
_cell_angle_alpha   93.84678993
_cell_angle_beta   90.00000000
_cell_angle_gamma   90.00000000
_symmetry_Int_Tables_number   1
_chemical_formula_structural   Er3Mg(GaPt)4
_chemical_formula_sum   'Er3 Mg1 Ga4 Pt4'
_cell_volume   227.74122697
_cell_formula_units_Z   1
loop_
 _symmetry_equiv_pos_site_id
 _symmetry_equiv_pos_as_xyz
  1  'x, y, z'
loop_
 _atom_site_type_symbol
 _atom_site_label
 _atom_site_symmetry_multiplicity
 _atom_site_fract_x
 _atom_site_fract_y
 _atom_site_fract_z
 _atom_site_occupancy
  Er  Er0  1  0.250000  0.476907  0.190340  1
  Er  Er1  1  0.750000  0.020611  0.679055  1
  Er  Er2  1  0.750000  0.527821  0.811661  1
  Mg  Mg3  1  0.250000  0.976968  0.321023  1
  Ga  Ga4  1  0.250000  0.334714  0.563495  1
  Ga  Ga5  1  0.250000  0.850799  0.941134  1
  Ga  Ga6  1  0.750000  0.654497  0.429930  1
  Ga  Ga7  1  0.750000  0.154859  0.065182  1
  Pt  Pt8  1  0.250000  0.230967  0.878690  1
  Pt  Pt9  1  0.250000  0.726946  0.610698  1
  Pt  Pt10  1  0.750000  0.780768  0.122946  1
  Pt  Pt11  1  0.750000  0.264143  0.385847  1
