# generated using pymatgen
data_Cs4Rb2YInAs4
_symmetry_space_group_name_H-M   'P 1'
_cell_length_a   9.99967284
_cell_length_b   9.99967118
_cell_length_c   9.99967256
_cell_angle_alpha   130.91505662
_cell_angle_beta   138.16887930
_cell_angle_gamma   66.41849142
_symmetry_Int_Tables_number   1
_chemical_formula_structural   Cs4Rb2YInAs4
_chemical_formula_sum   'Cs4 Rb2 Y1 In1 As4'
_cell_volume   496.20981992
_cell_formula_units_Z   1
loop_
 _symmetry_equiv_pos_site_id
 _symmetry_equiv_pos_as_xyz
  1  'x, y, z'
loop_
 _atom_site_type_symbol
 _atom_site_label
 _atom_site_symmetry_multiplicity
 _atom_site_fract_x
 _atom_site_fract_y
 _atom_site_fract_z
 _atom_site_occupancy
  Cs  Cs0  1  0.695560  0.466478  0.794288  1
  Cs  Cs1  1  0.804440  0.098728  0.270919  1
  Cs  Cs2  1  0.172191  0.901272  0.705712  1
  Cs  Cs3  1  0.327809  0.533522  0.229081  1
  Rb  Rb4  1  0.750000  0.000000  0.750000  1
  Rb  Rb5  1  0.250000  0.000000  0.250000  1
  Y  Y6  1  0.250000  0.500000  0.750000  1
  In  In7  1  0.750000  0.500000  0.250000  1
  As  As8  1  0.412065  0.219594  0.818897  1
  As  As9  1  0.599303  0.780406  0.192471  1
  As  As10  1  0.087935  0.406832  0.307529  1
  As  As11  1  0.900697  0.593168  0.681103  1
