# generated using pymatgen
data_Er7Tm3(In2Co)4
_symmetry_space_group_name_H-M   'P 1'
_cell_length_a   3.53580800
_cell_length_b   7.88504012
_cell_length_c   17.87236243
_cell_angle_alpha   89.99016853
_cell_angle_beta   90.00000000
_cell_angle_gamma   90.00000000
_symmetry_Int_Tables_number   1
_chemical_formula_structural   Er7Tm3(In2Co)4
_chemical_formula_sum   'Er7 Tm3 In8 Co4'
_cell_volume   498.28124142
_cell_formula_units_Z   1
loop_
 _symmetry_equiv_pos_site_id
 _symmetry_equiv_pos_as_xyz
  1  'x, y, z'
loop_
 _atom_site_type_symbol
 _atom_site_label
 _atom_site_symmetry_multiplicity
 _atom_site_fract_x
 _atom_site_fract_y
 _atom_site_fract_z
 _atom_site_occupancy
  Er  Er0  1  0.500000  0.754824  0.721287  1
  Er  Er1  1  0.500000  0.254833  0.779422  1
  Er  Er2  1  0.500000  0.500188  0.999816  1
  Er  Er3  1  0.500000  0.745612  0.220501  1
  Er  Er4  1  0.500000  0.246031  0.278652  1
  Er  Er5  1  0.500000  0.999098  0.500291  1
  Er  Er6  1  0.500000  0.615865  0.409607  1
  Tm  Tm7  1  0.500000  0.383531  0.590726  1
  Tm  Tm8  1  0.500000  0.884000  0.909488  1
  Tm  Tm9  1  0.500000  0.116291  0.090308  1
  In  In10  1  0.000000  0.797103  0.067575  1
  In  In11  1  0.000000  0.928461  0.347309  1
  In  In12  1  0.000000  0.072845  0.652672  1
  In  In13  1  0.000000  0.572931  0.847736  1
  In  In14  1  0.000000  0.703159  0.568664  1
  In  In15  1  0.000000  0.203089  0.932254  1
  In  In16  1  0.000000  0.294935  0.432052  1
  In  In17  1  0.000000  0.427235  0.151915  1
  Co  Co18  1  0.000000  0.977794  0.804406  1
  Co  Co19  1  0.000000  0.522289  0.303755  1
  Co  Co20  1  0.000000  0.476921  0.696054  1
  Co  Co21  1  0.000000  0.022967  0.195506  1
