# generated using pymatgen
data_Y16Al4RuRh3
_symmetry_space_group_name_H-M   'P 1'
_cell_length_a   9.59900972
_cell_length_b   9.59816635
_cell_length_c   9.59826744
_cell_angle_alpha   59.76007111
_cell_angle_beta   59.80302214
_cell_angle_gamma   59.80159359
_symmetry_Int_Tables_number   1
_chemical_formula_structural   Y16Al4RuRh3
_chemical_formula_sum   'Y16 Al4 Ru1 Rh3'
_cell_volume   622.29940521
_cell_formula_units_Z   1
loop_
 _symmetry_equiv_pos_site_id
 _symmetry_equiv_pos_as_xyz
  1  'x, y, z'
loop_
 _atom_site_type_symbol
 _atom_site_label
 _atom_site_symmetry_multiplicity
 _atom_site_fract_x
 _atom_site_fract_y
 _atom_site_fract_z
 _atom_site_occupancy
  Y  Y0  1  0.601110  0.601412  0.601429  1
  Y  Y1  1  0.602620  0.602485  0.193859  1
  Y  Y2  1  0.602610  0.193915  0.602478  1
  Y  Y3  1  0.193757  0.602698  0.602714  1
  Y  Y4  1  0.057354  0.443293  0.443302  1
  Y  Y5  1  0.442447  0.055881  0.055888  1
  Y  Y6  1  0.443015  0.057722  0.443014  1
  Y  Y7  1  0.056391  0.442126  0.056300  1
  Y  Y8  1  0.443015  0.443002  0.057740  1
  Y  Y9  1  0.056393  0.056296  0.442146  1
  Y  Y10  1  0.185833  0.813949  0.813926  1
  Y  Y11  1  0.810156  0.188920  0.188925  1
  Y  Y12  1  0.813545  0.185999  0.813968  1
  Y  Y13  1  0.188799  0.810161  0.188932  1
  Y  Y14  1  0.813525  0.813957  0.186003  1
  Y  Y15  1  0.188809  0.188938  0.810144  1
  Al  Al16  1  0.828160  0.827346  0.827353  1
  Al  Al17  1  0.826781  0.826583  0.517661  1
  Al  Al18  1  0.826784  0.517674  0.826571  1
  Al  Al19  1  0.517363  0.826678  0.826661  1
  Ru  Ru20  1  0.392207  0.392184  0.392171  1
  Rh  Rh21  1  0.392299  0.391831  0.824907  1
  Rh  Rh22  1  0.392311  0.824870  0.391883  1
  Rh  Rh23  1  0.824715  0.392082  0.392025  1
