# generated using pymatgen
data_Nd2Ni5C3
_symmetry_space_group_name_H-M   'P 1'
_cell_length_a   8.27633300
_cell_length_b   8.27633300
_cell_length_c   3.94994300
_cell_angle_alpha   90.00000000
_cell_angle_beta   90.00000000
_cell_angle_gamma   90.00000000
_symmetry_Int_Tables_number   1
_chemical_formula_structural   Nd2Ni5C3
_chemical_formula_sum   'Nd4 Ni10 C6'
_cell_volume   270.56196294
_cell_formula_units_Z   2
loop_
 _symmetry_equiv_pos_site_id
 _symmetry_equiv_pos_as_xyz
  1  'x, y, z'
loop_
 _atom_site_type_symbol
 _atom_site_label
 _atom_site_symmetry_multiplicity
 _atom_site_fract_x
 _atom_site_fract_y
 _atom_site_fract_z
 _atom_site_occupancy
  Nd  Nd0  1  0.340630  0.159370  0.000000  1
  Nd  Nd1  1  0.659370  0.840630  0.000000  1
  Nd  Nd2  1  0.159370  0.659370  0.000000  1
  Nd  Nd3  1  0.840630  0.340630  0.000000  1
  Ni  Ni4  1  0.924124  0.787373  0.500000  1
  Ni  Ni5  1  0.712627  0.575876  0.500000  1
  Ni  Ni6  1  0.424124  0.712627  0.500000  1
  Ni  Ni7  1  0.287373  0.424124  0.500000  1
  Ni  Ni8  1  0.575876  0.287373  0.500000  1
  Ni  Ni9  1  0.787373  0.075876  0.500000  1
  Ni  Ni10  1  0.075876  0.212627  0.500000  1
  Ni  Ni11  1  0.212627  0.924124  0.500000  1
  Ni  Ni12  1  0.500000  0.500000  0.000000  1
  Ni  Ni13  1  0.000000  0.000000  0.000000  1
  C  C14  1  0.441609  0.941609  0.500000  1
  C  C15  1  0.058391  0.441609  0.500000  1
  C  C16  1  0.941609  0.558391  0.500000  1
  C  C17  1  0.500000  0.500000  0.500000  1
  C  C18  1  0.558391  0.058391  0.500000  1
  C  C19  1  0.000000  0.000000  0.500000  1
