# generated using pymatgen
data_TbPr3(WN3)4
_symmetry_space_group_name_H-M   'P 1'
_cell_length_a   7.39905779
_cell_length_b   7.39905863
_cell_length_c   6.33905642
_cell_angle_alpha   75.63298711
_cell_angle_beta   75.63298210
_cell_angle_gamma   83.82366607
_symmetry_Int_Tables_number   1
_chemical_formula_structural   TbPr3(WN3)4
_chemical_formula_sum   'Tb1 Pr3 W4 N12'
_cell_volume   325.27954385
_cell_formula_units_Z   1
loop_
 _symmetry_equiv_pos_site_id
 _symmetry_equiv_pos_as_xyz
  1  'x, y, z'
loop_
 _atom_site_type_symbol
 _atom_site_label
 _atom_site_symmetry_multiplicity
 _atom_site_fract_x
 _atom_site_fract_y
 _atom_site_fract_z
 _atom_site_occupancy
  Tb  Tb0  1  0.907841  0.092159  0.250000  1
  Pr  Pr1  1  0.695680  0.304320  0.750000  1
  Pr  Pr2  1  0.089236  0.910764  0.750000  1
  Pr  Pr3  1  0.305521  0.694479  0.250000  1
  W  W4  1  0.380612  0.200504  0.244295  1
  W  W5  1  0.621182  0.799263  0.750714  1
  W  W6  1  0.799496  0.619388  0.255705  1
  W  W7  1  0.200737  0.378818  0.749286  1
  N  N8  1  0.618063  0.112121  0.159381  1
  N  N9  1  0.361154  0.336668  0.477040  1
  N  N10  1  0.001027  0.222243  0.858787  1
  N  N11  1  0.386408  0.886897  0.847378  1
  N  N12  1  0.777757  0.998973  0.641213  1
  N  N13  1  0.113103  0.613592  0.652622  1
  N  N14  1  0.887879  0.381937  0.340619  1
  N  N15  1  0.631874  0.653163  0.528541  1
  N  N16  1  0.663332  0.638846  0.022960  1
  N  N17  1  0.346837  0.368126  0.971459  1
  N  N18  1  0.993995  0.781735  0.159632  1
  N  N19  1  0.218265  0.006005  0.340368  1
