# generated using pymatgen
data_CaSb12Ir2OsRu
_symmetry_space_group_name_H-M   'P 1'
_cell_length_a   8.13977424
_cell_length_b   8.15896473
_cell_length_c   8.15822086
_cell_angle_alpha   109.54267304
_cell_angle_beta   109.46029142
_cell_angle_gamma   109.46542939
_symmetry_Int_Tables_number   1
_chemical_formula_structural   CaSb12Ir2OsRu
_chemical_formula_sum   'Ca1 Sb12 Ir2 Os1 Ru1'
_cell_volume   416.79938936
_cell_formula_units_Z   1
loop_
 _symmetry_equiv_pos_site_id
 _symmetry_equiv_pos_as_xyz
  1  'x, y, z'
loop_
 _atom_site_type_symbol
 _atom_site_label
 _atom_site_symmetry_multiplicity
 _atom_site_fract_x
 _atom_site_fract_y
 _atom_site_fract_z
 _atom_site_occupancy
  Ca  Ca0  1  0.000000  0.000000  0.000000  1
  Sb  Sb1  1  0.842305  0.658628  0.504063  1
  Sb  Sb2  1  0.157695  0.341372  0.495937  1
  Sb  Sb3  1  0.156432  0.660525  0.815384  1
  Sb  Sb4  1  0.843568  0.339475  0.184616  1
  Sb  Sb5  1  0.658008  0.504082  0.841707  1
  Sb  Sb6  1  0.341992  0.495918  0.158293  1
  Sb  Sb7  1  0.658316  0.815429  0.154316  1
  Sb  Sb8  1  0.341684  0.184571  0.845684  1
  Sb  Sb9  1  0.504410  0.841930  0.661102  1
  Sb  Sb10  1  0.495590  0.158070  0.338898  1
  Sb  Sb11  1  0.187022  0.845480  0.341495  1
  Sb  Sb12  1  0.812978  0.154520  0.658505  1
  Ir  Ir13  1  0.000000  0.500000  0.000000  1
  Ir  Ir14  1  0.000000  0.000000  0.500000  1
  Os  Os15  1  0.500000  0.000000  0.000000  1
  Ru  Ru16  1  0.500000  0.500000  0.500000  1
