# generated using pymatgen
data_DyHoSi2(Os2C)2
_symmetry_space_group_name_H-M   'P 1'
_cell_length_a   5.88916480
_cell_length_b   5.88916386
_cell_length_c   7.13369100
_cell_angle_alpha   90.00000000
_cell_angle_beta   90.00000000
_cell_angle_gamma   141.65921867
_symmetry_Int_Tables_number   1
_chemical_formula_structural   DyHoSi2(Os2C)2
_chemical_formula_sum   'Dy1 Ho1 Si2 Os4 C2'
_cell_volume   153.47924098
_cell_formula_units_Z   1
loop_
 _symmetry_equiv_pos_site_id
 _symmetry_equiv_pos_as_xyz
  1  'x, y, z'
loop_
 _atom_site_type_symbol
 _atom_site_label
 _atom_site_symmetry_multiplicity
 _atom_site_fract_x
 _atom_site_fract_y
 _atom_site_fract_z
 _atom_site_occupancy
  Dy  Dy0  1  0.547683  0.452317  0.250000  1
  Ho  Ho1  1  0.452313  0.547687  0.750000  1
  Si  Si2  1  0.268913  0.731087  0.250000  1
  Si  Si3  1  0.731226  0.268774  0.750000  1
  Os  Os4  1  0.834826  0.165174  0.057610  1
  Os  Os5  1  0.165176  0.834824  0.941888  1
  Os  Os6  1  0.165176  0.834824  0.558112  1
  Os  Os7  1  0.834826  0.165174  0.442390  1
  C  C8  1  0.999930  0.000070  0.999305  1
  C  C9  1  0.999930  0.000070  0.500695  1
