# generated using pymatgen
data_LiYbEuPd3
_symmetry_space_group_name_H-M   'P 1'
_cell_length_a   5.27513901
_cell_length_b   5.66272874
_cell_length_c   5.66272800
_cell_angle_alpha   60.00000435
_cell_angle_beta   57.53819062
_cell_angle_gamma   57.53818180
_symmetry_Int_Tables_number   1
_chemical_formula_structural   LiYbEuPd3
_chemical_formula_sum   'Li1 Yb1 Eu1 Pd3'
_cell_volume   114.96495202
_cell_formula_units_Z   1
loop_
 _symmetry_equiv_pos_site_id
 _symmetry_equiv_pos_as_xyz
  1  'x, y, z'
loop_
 _atom_site_type_symbol
 _atom_site_label
 _atom_site_symmetry_multiplicity
 _atom_site_fract_x
 _atom_site_fract_y
 _atom_site_fract_z
 _atom_site_occupancy
  Li  Li0  1  0.625915  0.124695  0.124695  1
  Yb  Yb1  1  0.741819  0.752727  0.752727  1
  Eu  Eu2  1  0.498617  0.500461  0.500461  1
  Pd  Pd3  1  0.127883  0.123163  0.625791  1
  Pd  Pd4  1  0.127883  0.625791  0.123163  1
  Pd  Pd5  1  0.127883  0.123163  0.123163  1
