# generated using pymatgen
data_Mg2Nb3Ni9P7
_symmetry_space_group_name_H-M   'P 1'
_cell_length_a   3.62831800
_cell_length_b   9.29165984
_cell_length_c   9.29166000
_cell_angle_alpha   119.99999344
_cell_angle_beta   90.00000000
_cell_angle_gamma   90.00000000
_symmetry_Int_Tables_number   1
_chemical_formula_structural   Mg2Nb3Ni9P7
_chemical_formula_sum   'Mg2 Nb3 Ni9 P7'
_cell_volume   271.28302276
_cell_formula_units_Z   1
loop_
 _symmetry_equiv_pos_site_id
 _symmetry_equiv_pos_as_xyz
  1  'x, y, z'
loop_
 _atom_site_type_symbol
 _atom_site_label
 _atom_site_symmetry_multiplicity
 _atom_site_fract_x
 _atom_site_fract_y
 _atom_site_fract_z
 _atom_site_occupancy
  Mg  Mg0  1  0.000000  0.666667  0.333333  1
  Mg  Mg1  1  0.500000  0.333333  0.666667  1
  Nb  Nb2  1  0.500000  0.773778  0.896154  1
  Nb  Nb3  1  0.500000  0.122376  0.226222  1
  Nb  Nb4  1  0.500000  0.103846  0.877624  1
  Ni  Ni5  1  0.000000  0.559366  0.929700  1
  Ni  Ni6  1  0.000000  0.370334  0.440634  1
  Ni  Ni7  1  0.000000  0.070300  0.629666  1
  Ni  Ni8  1  0.500000  0.936562  0.386339  1
  Ni  Ni9  1  0.500000  0.449776  0.063438  1
  Ni  Ni10  1  0.500000  0.613661  0.550224  1
  Ni  Ni11  1  0.000000  0.870148  0.161953  1
  Ni  Ni12  1  0.000000  0.291805  0.129852  1
  Ni  Ni13  1  0.000000  0.838047  0.708195  1
  P  P14  1  0.500000  0.709055  0.125146  1
  P  P15  1  0.500000  0.416091  0.290945  1
  P  P16  1  0.500000  0.874854  0.583909  1
  P  P17  1  0.000000  0.000000  0.000000  1
  P  P18  1  0.000000  0.581416  0.696685  1
  P  P19  1  0.000000  0.115269  0.418584  1
  P  P20  1  0.000000  0.303315  0.884731  1
