# generated using pymatgen
data_La4Ga9Cu6Ge
_symmetry_space_group_name_H-M   'P 1'
_cell_length_a   8.49063994
_cell_length_b   8.49196213
_cell_length_c   8.49196200
_cell_angle_alpha   138.38391482
_cell_angle_beta   103.25499855
_cell_angle_gamma   91.32608101
_symmetry_Int_Tables_number   1
_chemical_formula_structural   La4Ga9Cu6Ge
_chemical_formula_sum   'La4 Ga9 Cu6 Ge1'
_cell_volume   377.45796326
_cell_formula_units_Z   1
loop_
 _symmetry_equiv_pos_site_id
 _symmetry_equiv_pos_as_xyz
  1  'x, y, z'
loop_
 _atom_site_type_symbol
 _atom_site_label
 _atom_site_symmetry_multiplicity
 _atom_site_fract_x
 _atom_site_fract_y
 _atom_site_fract_z
 _atom_site_occupancy
  La  La0  1  0.870942  0.627474  0.243468  1
  La  La1  1  0.131850  0.371711  0.760138  1
  La  La2  1  0.613509  0.872049  0.741459  1
  La  La3  1  0.386518  0.129077  0.257442  1
  Ga  Ga4  1  0.500441  0.750408  0.248549  1
  Ga  Ga5  1  0.500441  0.251892  0.750033  1
  Ga  Ga6  1  0.239110  0.988316  0.747730  1
  Ga  Ga7  1  0.760684  0.508392  0.751358  1
  Ga  Ga8  1  0.760684  0.009327  0.252292  1
  Ga  Ga9  1  0.239110  0.491380  0.250794  1
  Ga  Ga10  1  0.031650  0.887447  0.144203  1
  Ga  Ga11  1  0.970384  0.113519  0.856864  1
  Ga  Ga12  1  0.257042  0.613269  0.643773  1
  Cu  Cu13  1  0.508751  0.631402  0.877349  1
  Cu  Cu14  1  0.490218  0.369656  0.120563  1
  Cu  Cu15  1  0.997792  0.747492  0.747637  1
  Cu  Cu16  1  0.997792  0.250155  0.250300  1
  Cu  Cu17  1  0.250167  0.871336  0.378831  1
  Cu  Cu18  1  0.751821  0.129232  0.622589  1
  Ge  Ge19  1  0.741091  0.386465  0.354627  1
