# generated using pymatgen
data_Gd2BeAlBO7
_symmetry_space_group_name_H-M   'P 1'
_cell_length_a   7.43214600
_cell_length_b   4.79399203
_cell_length_c   7.44397463
_cell_angle_alpha   89.78651200
_cell_angle_beta   90.00000000
_cell_angle_gamma   90.00000000
_symmetry_Int_Tables_number   1
_chemical_formula_structural   Gd2BeAlBO7
_chemical_formula_sum   'Gd4 Be2 Al2 B2 O14'
_cell_volume   265.22435972
_cell_formula_units_Z   2
loop_
 _symmetry_equiv_pos_site_id
 _symmetry_equiv_pos_as_xyz
  1  'x, y, z'
loop_
 _atom_site_type_symbol
 _atom_site_label
 _atom_site_symmetry_multiplicity
 _atom_site_fract_x
 _atom_site_fract_y
 _atom_site_fract_z
 _atom_site_occupancy
  Gd  Gd0  1  0.663095  0.509907  0.577038  1
  Gd  Gd1  1  0.163095  0.490093  0.422962  1
  Gd  Gd2  1  0.335255  0.503921  0.905448  1
  Gd  Gd3  1  0.835255  0.496079  0.094552  1
  Be  Be4  1  0.865318  0.947960  0.385359  1
  Be  Be5  1  0.365318  0.052040  0.614641  1
  Al  Al6  1  0.497816  0.000745  0.245958  1
  Al  Al7  1  0.997816  0.999255  0.754042  1
  B  B8  1  0.136034  0.937096  0.114318  1
  B  B9  1  0.636034  0.062904  0.885682  1
  O  O10  1  0.578999  0.205739  0.062786  1
  O  O11  1  0.078999  0.794261  0.937214  1
  O  O12  1  0.422666  0.213593  0.422318  1
  O  O13  1  0.922666  0.786407  0.577682  1
  O  O14  1  0.674153  0.783728  0.319290  1
  O  O15  1  0.174153  0.216272  0.680710  1
  O  O16  1  0.315297  0.798915  0.162155  1
  O  O17  1  0.815297  0.201085  0.837845  1
  O  O18  1  0.859512  0.279746  0.386333  1
  O  O19  1  0.359512  0.720254  0.613667  1
  O  O20  1  0.141599  0.239359  0.104047  1
  O  O21  1  0.641599  0.760641  0.895953  1
  O  O22  1  0.510255  0.175456  0.753653  1
  O  O23  1  0.010255  0.824544  0.246347  1
