# generated using pymatgen
data_Tb3CdNiSb3O14
_symmetry_space_group_name_H-M   'P 1'
_cell_length_a   7.25433426
_cell_length_b   7.25433460
_cell_length_c   7.25433000
_cell_angle_alpha   118.08939250
_cell_angle_beta   61.91046283
_cell_angle_gamma   118.08947405
_symmetry_Int_Tables_number   1
_chemical_formula_structural   Tb3CdNiSb3O14
_chemical_formula_sum   'Tb3 Cd1 Ni1 Sb3 O14'
_cell_volume   281.48968580
_cell_formula_units_Z   1
loop_
 _symmetry_equiv_pos_site_id
 _symmetry_equiv_pos_as_xyz
  1  'x, y, z'
loop_
 _atom_site_type_symbol
 _atom_site_label
 _atom_site_symmetry_multiplicity
 _atom_site_fract_x
 _atom_site_fract_y
 _atom_site_fract_z
 _atom_site_occupancy
  Tb  Tb0  1  0.000000  0.500011  0.000022  1
  Tb  Tb1  1  0.500003  0.000001  0.999982  1
  Tb  Tb2  1  0.500026  0.500026  0.500000  1
  Cd  Cd3  1  0.499999  0.500001  0.000001  1
  Ni  Ni4  1  0.999912  0.999887  0.499981  1
  Sb  Sb5  1  0.500041  0.999972  0.500054  1
  Sb  Sb6  1  0.999965  0.500041  0.499946  1
  Sb  Sb7  1  0.000023  0.000013  0.000008  1
  O  O8  1  0.624565  0.375439  0.124565  1
  O  O9  1  0.375437  0.624567  0.875435  1
  O  O10  1  0.075652  0.324907  0.175111  1
  O  O11  1  0.675106  0.924348  0.175092  1
  O  O12  1  0.675113  0.324911  0.575652  1
  O  O13  1  0.924350  0.675109  0.824910  1
  O  O14  1  0.324903  0.075652  0.824892  1
  O  O15  1  0.324911  0.675113  0.424348  1
  O  O16  1  0.654851  0.910624  0.589381  1
  O  O17  1  0.089412  0.345104  0.589402  1
  O  O18  1  0.089400  0.910610  0.154867  1
  O  O19  1  0.345105  0.089409  0.410600  1
  O  O20  1  0.910622  0.654850  0.410622  1
  O  O21  1  0.910606  0.089405  0.845127  1
