# generated using pymatgen
data_RbY6TlF20
_symmetry_space_group_name_H-M   'P 1'
_cell_length_a   8.29812161
_cell_length_b   8.29812195
_cell_length_c   8.29812200
_cell_angle_alpha   59.99999981
_cell_angle_beta   59.99999843
_cell_angle_gamma   59.99999573
_symmetry_Int_Tables_number   1
_chemical_formula_structural   RbY6TlF20
_chemical_formula_sum   'Rb1 Y6 Tl1 F20'
_cell_volume   404.04004048
_cell_formula_units_Z   1
loop_
 _symmetry_equiv_pos_site_id
 _symmetry_equiv_pos_as_xyz
  1  'x, y, z'
loop_
 _atom_site_type_symbol
 _atom_site_label
 _atom_site_symmetry_multiplicity
 _atom_site_fract_x
 _atom_site_fract_y
 _atom_site_fract_z
 _atom_site_occupancy
  Rb  Rb0  1  0.250000  0.250000  0.250000  1
  Y  Y1  1  0.759523  0.759523  0.240477  1
  Y  Y2  1  0.240477  0.759523  0.240477  1
  Y  Y3  1  0.759523  0.240477  0.240477  1
  Y  Y4  1  0.240477  0.240477  0.759523  1
  Y  Y5  1  0.759523  0.240477  0.759523  1
  Y  Y6  1  0.240477  0.759523  0.759523  1
  Tl  Tl7  1  0.750000  0.750000  0.750000  1
  F  F8  1  0.890069  0.890069  0.329794  1
  F  F9  1  0.890069  0.329794  0.890069  1
  F  F10  1  0.329794  0.890069  0.890069  1
  F  F11  1  0.890069  0.890069  0.890069  1
  F  F12  1  0.111041  0.111041  0.666878  1
  F  F13  1  0.111041  0.666878  0.111041  1
  F  F14  1  0.666878  0.111041  0.111041  1
  F  F15  1  0.111041  0.111041  0.111041  1
  F  F16  1  0.499756  0.499756  0.829772  1
  F  F17  1  0.170717  0.499756  0.829772  1
  F  F18  1  0.499756  0.170717  0.829772  1
  F  F19  1  0.170717  0.829772  0.499756  1
  F  F20  1  0.499756  0.829772  0.499756  1
  F  F21  1  0.499756  0.829772  0.170717  1
  F  F22  1  0.829772  0.170717  0.499756  1
  F  F23  1  0.829772  0.499756  0.170717  1
  F  F24  1  0.829772  0.499756  0.499756  1
  F  F25  1  0.499756  0.499756  0.170717  1
  F  F26  1  0.499756  0.170717  0.499756  1
  F  F27  1  0.170717  0.499756  0.499756  1
