# generated using pymatgen
data_Tm2ZnCo5NiB3
_symmetry_space_group_name_H-M   'P 1'
_cell_length_a   5.05676319
_cell_length_b   5.05676310
_cell_length_c   12.63288800
_cell_angle_alpha   90.00000000
_cell_angle_beta   90.00000000
_cell_angle_gamma   119.66828610
_symmetry_Int_Tables_number   1
_chemical_formula_structural   Tm2ZnCo5NiB3
_chemical_formula_sum   'Tm4 Zn2 Co10 Ni2 B6'
_cell_volume   280.68582297
_cell_formula_units_Z   2
loop_
 _symmetry_equiv_pos_site_id
 _symmetry_equiv_pos_as_xyz
  1  'x, y, z'
loop_
 _atom_site_type_symbol
 _atom_site_label
 _atom_site_symmetry_multiplicity
 _atom_site_fract_x
 _atom_site_fract_y
 _atom_site_fract_z
 _atom_site_occupancy
  Tm  Tm0  1  0.000000  0.000000  0.000000  1
  Tm  Tm1  1  0.000000  0.000000  0.500000  1
  Tm  Tm2  1  0.000000  0.000000  0.739021  1
  Tm  Tm3  1  0.000000  0.000000  0.260979  1
  Zn  Zn4  1  0.669794  0.330206  0.000000  1
  Zn  Zn5  1  0.330206  0.669794  0.000000  1
  Co  Co6  1  0.500000  0.000000  0.838448  1
  Co  Co7  1  0.000000  0.500000  0.838448  1
  Co  Co8  1  0.500000  0.000000  0.161552  1
  Co  Co9  1  0.000000  0.500000  0.161552  1
  Co  Co10  1  0.500000  0.500000  0.614830  1
  Co  Co11  1  0.500000  0.000000  0.614394  1
  Co  Co12  1  0.000000  0.500000  0.614394  1
  Co  Co13  1  0.500000  0.500000  0.385170  1
  Co  Co14  1  0.500000  0.000000  0.385606  1
  Co  Co15  1  0.000000  0.500000  0.385606  1
  Ni  Ni16  1  0.500000  0.500000  0.840404  1
  Ni  Ni17  1  0.500000  0.500000  0.159596  1
  B  B18  1  0.666471  0.333529  0.500000  1
  B  B19  1  0.333529  0.666471  0.500000  1
  B  B20  1  0.669730  0.330270  0.730084  1
  B  B21  1  0.330270  0.669730  0.730084  1
  B  B22  1  0.330270  0.669730  0.269916  1
  B  B23  1  0.669730  0.330270  0.269916  1
