# generated using pymatgen
data_Cs6YTlCl12
_symmetry_space_group_name_H-M   'P 1'
_cell_length_a   9.48719000
_cell_length_b   9.49469151
_cell_length_c   7.86761800
_cell_angle_alpha   90.00000000
_cell_angle_beta   90.00000000
_cell_angle_gamma   89.86206915
_symmetry_Int_Tables_number   1
_chemical_formula_structural   Cs6YTlCl12
_chemical_formula_sum   'Cs6 Y1 Tl1 Cl12'
_cell_volume   708.69678722
_cell_formula_units_Z   1
loop_
 _symmetry_equiv_pos_site_id
 _symmetry_equiv_pos_as_xyz
  1  'x, y, z'
loop_
 _atom_site_type_symbol
 _atom_site_label
 _atom_site_symmetry_multiplicity
 _atom_site_fract_x
 _atom_site_fract_y
 _atom_site_fract_z
 _atom_site_occupancy
  Cs  Cs0  1  0.000000  0.000000  0.500000  1
  Cs  Cs1  1  0.000000  0.000000  0.000000  1
  Cs  Cs2  1  0.235022  0.583821  0.500000  1
  Cs  Cs3  1  0.764978  0.416179  0.500000  1
  Cs  Cs4  1  0.414884  0.234999  0.000000  1
  Cs  Cs5  1  0.585116  0.765001  0.000000  1
  Y  Y6  1  0.500000  0.000000  0.500000  1
  Tl  Tl7  1  0.000000  0.500000  0.000000  1
  Cl  Cl8  1  0.690349  0.057400  0.738506  1
  Cl  Cl9  1  0.309651  0.942600  0.738506  1
  Cl  Cl10  1  0.941762  0.690198  0.238600  1
  Cl  Cl11  1  0.058238  0.309802  0.238600  1
  Cl  Cl12  1  0.309651  0.942600  0.261494  1
  Cl  Cl13  1  0.690349  0.057400  0.261494  1
  Cl  Cl14  1  0.058238  0.309802  0.761400  1
  Cl  Cl15  1  0.941762  0.690198  0.761400  1
  Cl  Cl16  1  0.570524  0.731230  0.500000  1
  Cl  Cl17  1  0.429476  0.268770  0.500000  1
  Cl  Cl18  1  0.267212  0.569324  0.000000  1
  Cl  Cl19  1  0.732788  0.430676  0.000000  1
