# generated using pymatgen
data_Eu2Sn5PdAu
_symmetry_space_group_name_H-M   'P 1'
_cell_length_a   4.64441400
_cell_length_b   9.62493163
_cell_length_c   10.27495311
_cell_angle_alpha   88.53033129
_cell_angle_beta   90.00000000
_cell_angle_gamma   90.00000000
_symmetry_Int_Tables_number   1
_chemical_formula_structural   Eu2Sn5PdAu
_chemical_formula_sum   'Eu4 Sn10 Pd2 Au2'
_cell_volume   459.16157754
_cell_formula_units_Z   2
loop_
 _symmetry_equiv_pos_site_id
 _symmetry_equiv_pos_as_xyz
  1  'x, y, z'
loop_
 _atom_site_type_symbol
 _atom_site_label
 _atom_site_symmetry_multiplicity
 _atom_site_fract_x
 _atom_site_fract_y
 _atom_site_fract_z
 _atom_site_occupancy
  Eu  Eu0  1  0.750000  0.640886  0.250696  1
  Eu  Eu1  1  0.250000  0.359114  0.749304  1
  Eu  Eu2  1  0.750000  0.100760  0.248447  1
  Eu  Eu3  1  0.250000  0.899240  0.751553  1
  Sn  Sn4  1  0.250000  0.130187  0.481724  1
  Sn  Sn5  1  0.750000  0.869813  0.518276  1
  Sn  Sn6  1  0.250000  0.372029  0.247453  1
  Sn  Sn7  1  0.750000  0.627971  0.752547  1
  Sn  Sn8  1  0.250000  0.611087  0.516315  1
  Sn  Sn9  1  0.750000  0.388913  0.483685  1
  Sn  Sn10  1  0.250000  0.615842  0.987118  1
  Sn  Sn11  1  0.750000  0.384158  0.012882  1
  Sn  Sn12  1  0.750000  0.107146  0.878025  1
  Sn  Sn13  1  0.250000  0.892854  0.121975  1
  Pd  Pd14  1  0.750000  0.141484  0.616365  1
  Pd  Pd15  1  0.250000  0.858516  0.383635  1
  Au  Au16  1  0.750000  0.822999  0.972507  1
  Au  Au17  1  0.250000  0.177001  0.027493  1
