# generated using pymatgen
data_Dy4V3B16Os
_symmetry_space_group_name_H-M   'P 1'
_cell_length_a   3.49928800
_cell_length_b   5.98711027
_cell_length_c   11.57928652
_cell_angle_alpha   89.96565640
_cell_angle_beta   90.00000000
_cell_angle_gamma   90.00000000
_symmetry_Int_Tables_number   1
_chemical_formula_structural   Dy4V3B16Os
_chemical_formula_sum   'Dy4 V3 B16 Os1'
_cell_volume   242.59322428
_cell_formula_units_Z   1
loop_
 _symmetry_equiv_pos_site_id
 _symmetry_equiv_pos_as_xyz
  1  'x, y, z'
loop_
 _atom_site_type_symbol
 _atom_site_label
 _atom_site_symmetry_multiplicity
 _atom_site_fract_x
 _atom_site_fract_y
 _atom_site_fract_z
 _atom_site_occupancy
  Dy  Dy0  1  0.000000  0.624092  0.351896  1
  Dy  Dy1  1  0.000000  0.375567  0.649274  1
  Dy  Dy2  1  0.000000  0.126497  0.152653  1
  Dy  Dy3  1  0.000000  0.873804  0.846693  1
  V  V4  1  0.000000  0.368976  0.917340  1
  V  V5  1  0.000000  0.126643  0.415568  1
  V  V6  1  0.000000  0.873184  0.582461  1
  B  B7  1  0.500000  0.784198  0.185630  1
  B  B8  1  0.500000  0.215067  0.814367  1
  B  B9  1  0.500000  0.286299  0.314108  1
  B  B10  1  0.500000  0.714358  0.685460  1
  B  B11  1  0.500000  0.864595  0.031646  1
  B  B12  1  0.500000  0.135096  0.968636  1
  B  B13  1  0.500000  0.364454  0.467368  1
  B  B14  1  0.500000  0.635812  0.532894  1
  B  B15  1  0.500000  0.886405  0.452924  1
  B  B16  1  0.500000  0.114226  0.546805  1
  B  B17  1  0.500000  0.386825  0.048273  1
  B  B18  1  0.500000  0.615138  0.952832  1
  B  B19  1  0.500000  0.975303  0.307191  1
  B  B20  1  0.500000  0.023708  0.692168  1
  B  B21  1  0.500000  0.476119  0.192544  1
  B  B22  1  0.500000  0.523775  0.807620  1
  Os  Os23  1  0.000000  0.629862  0.083649  1
