# generated using pymatgen
data_YbY(TmOs4)2
_symmetry_space_group_name_H-M   'P 1'
_cell_length_a   5.32570300
_cell_length_b   5.32570181
_cell_length_c   8.74333000
_cell_angle_alpha   90.00000000
_cell_angle_beta   90.00000000
_cell_angle_gamma   120.00000121
_symmetry_Int_Tables_number   1
_chemical_formula_structural   YbY(TmOs4)2
_chemical_formula_sum   'Yb1 Y1 Tm2 Os8'
_cell_volume   214.76390200
_cell_formula_units_Z   1
loop_
 _symmetry_equiv_pos_site_id
 _symmetry_equiv_pos_as_xyz
  1  'x, y, z'
loop_
 _atom_site_type_symbol
 _atom_site_label
 _atom_site_symmetry_multiplicity
 _atom_site_fract_x
 _atom_site_fract_y
 _atom_site_fract_z
 _atom_site_occupancy
  Yb  Yb0  1  0.333333  0.666667  0.062678  1
  Y  Y1  1  0.666667  0.333333  0.939169  1
  Tm  Tm2  1  0.333333  0.666667  0.429720  1
  Tm  Tm3  1  0.666667  0.333333  0.565541  1
  Os  Os4  1  0.000000  0.000000  0.500993  1
  Os  Os5  1  0.000000  0.000000  0.001059  1
  Os  Os6  1  0.827815  0.172185  0.252096  1
  Os  Os7  1  0.827815  0.655630  0.252096  1
  Os  Os8  1  0.344370  0.172185  0.252096  1
  Os  Os9  1  0.173058  0.826942  0.748184  1
  Os  Os10  1  0.173058  0.346116  0.748184  1
  Os  Os11  1  0.653884  0.826942  0.748184  1
