# generated using pymatgen
data_Dy7Co3Sn23Ir2Rh
_symmetry_space_group_name_H-M   'P 1'
_cell_length_a   9.79282044
_cell_length_b   9.79586267
_cell_length_c   10.04625066
_cell_angle_alpha   90.02430123
_cell_angle_beta   89.87706790
_cell_angle_gamma   120.02575780
_symmetry_Int_Tables_number   1
_chemical_formula_structural   Dy7Co3Sn23Ir2Rh
_chemical_formula_sum   'Dy7 Co3 Sn23 Ir2 Rh1'
_cell_volume   834.39408848
_cell_formula_units_Z   1
loop_
 _symmetry_equiv_pos_site_id
 _symmetry_equiv_pos_as_xyz
  1  'x, y, z'
loop_
 _atom_site_type_symbol
 _atom_site_label
 _atom_site_symmetry_multiplicity
 _atom_site_fract_x
 _atom_site_fract_y
 _atom_site_fract_z
 _atom_site_occupancy
  Dy  Dy0  1  0.997436  0.991216  0.002784  1
  Dy  Dy1  1  0.479392  0.521167  0.306803  1
  Dy  Dy2  1  0.520432  0.478475  0.692771  1
  Dy  Dy3  1  0.479073  0.958016  0.307074  1
  Dy  Dy4  1  0.520010  0.042113  0.693934  1
  Dy  Dy5  1  0.042342  0.521432  0.306004  1
  Dy  Dy6  1  0.958344  0.479752  0.694052  1
  Co  Co7  1  0.170088  0.337591  0.801985  1
  Co  Co8  1  0.337089  0.170652  0.196679  1
  Co  Co9  1  0.663901  0.832925  0.801159  1
  Sn  Sn10  1  0.352317  0.005699  0.005358  1
  Sn  Sn11  1  0.650306  0.995858  0.994831  1
  Sn  Sn12  1  0.006106  0.347704  0.994681  1
  Sn  Sn13  1  0.000336  0.644423  0.999636  1
  Sn  Sn14  1  0.646665  0.652531  0.994479  1
  Sn  Sn15  1  0.343992  0.344486  0.999763  1
  Sn  Sn16  1  0.335677  0.664508  0.820226  1
  Sn  Sn17  1  0.661437  0.331095  0.177822  1
  Sn  Sn18  1  0.999761  0.999485  0.500521  1
  Sn  Sn19  1  0.778452  0.221903  0.456008  1
  Sn  Sn20  1  0.220812  0.777882  0.543019  1
  Sn  Sn21  1  0.778835  0.556525  0.457023  1
  Sn  Sn22  1  0.218732  0.438420  0.549261  1
  Sn  Sn23  1  0.438726  0.219302  0.450575  1
  Sn  Sn24  1  0.560416  0.780331  0.550165  1
  Sn  Sn25  1  0.334546  0.666997  0.119292  1
  Sn  Sn26  1  0.666443  0.333651  0.880266  1
  Sn  Sn27  1  0.124971  0.888757  0.278489  1
  Sn  Sn28  1  0.883470  0.118782  0.726657  1
  Sn  Sn29  1  0.123874  0.237855  0.276755  1
  Sn  Sn30  1  0.875784  0.763730  0.721015  1
  Sn  Sn31  1  0.759933  0.882270  0.284574  1
  Sn  Sn32  1  0.237135  0.125700  0.721127  1
  Ir  Ir33  1  0.169330  0.834390  0.802030  1
  Ir  Ir34  1  0.831419  0.665095  0.197427  1
  Rh  Rh35  1  0.832418  0.169282  0.195756  1
