# generated using pymatgen
data_Lu18Sc2NiBi11
_symmetry_space_group_name_H-M   'P 1'
_cell_length_a   8.03430545
_cell_length_b   9.29418900
_cell_length_c   11.86300300
_cell_angle_alpha   90.00000000
_cell_angle_beta   89.67100570
_cell_angle_gamma   90.00000000
_symmetry_Int_Tables_number   1
_chemical_formula_structural   Lu18Sc2NiBi11
_chemical_formula_sum   'Lu18 Sc2 Ni1 Bi11'
_cell_volume   885.82374810
_cell_formula_units_Z   1
loop_
 _symmetry_equiv_pos_site_id
 _symmetry_equiv_pos_as_xyz
  1  'x, y, z'
loop_
 _atom_site_type_symbol
 _atom_site_label
 _atom_site_symmetry_multiplicity
 _atom_site_fract_x
 _atom_site_fract_y
 _atom_site_fract_z
 _atom_site_occupancy
  Lu  Lu0  1  0.179730  0.575533  0.446328  1
  Lu  Lu1  1  0.698828  0.932930  0.064364  1
  Lu  Lu2  1  0.816098  0.030293  0.560617  1
  Lu  Lu3  1  0.301171  0.433627  0.940555  1
  Lu  Lu4  1  0.816098  0.469707  0.560617  1
  Lu  Lu5  1  0.301171  0.066373  0.940555  1
  Lu  Lu6  1  0.179730  0.924467  0.446328  1
  Lu  Lu7  1  0.698828  0.567070  0.064364  1
  Lu  Lu8  1  0.549352  0.750000  0.506016  1
  Lu  Lu9  1  0.485248  0.250000  0.493434  1
  Lu  Lu10  1  0.147091  0.750000  0.700755  1
  Lu  Lu11  1  0.698235  0.750000  0.779261  1
  Lu  Lu12  1  0.816160  0.250000  0.277907  1
  Lu  Lu13  1  0.309148  0.250000  0.215971  1
  Lu  Lu14  1  0.860767  0.750000  0.305507  1
  Lu  Lu15  1  0.346608  0.750000  0.215807  1
  Lu  Lu16  1  0.151270  0.250000  0.716574  1
  Lu  Lu17  1  0.649363  0.250000  0.780068  1
  Sc  Sc18  1  0.028220  0.750000  0.989382  1
  Sc  Sc19  1  0.974686  0.250000  0.011543  1
  Ni  Ni20  1  0.913784  0.750000  0.528868  1
  Bi  Bi21  1  0.934902  0.494207  0.831700  1
  Bi  Bi22  1  0.432245  0.998217  0.675789  1
  Bi  Bi23  1  0.063864  0.994864  0.171157  1
  Bi  Bi24  1  0.559225  0.499722  0.322507  1
  Bi  Bi25  1  0.063864  0.505136  0.171157  1
  Bi  Bi26  1  0.559225  0.000278  0.322507  1
  Bi  Bi27  1  0.934902  0.005793  0.831700  1
  Bi  Bi28  1  0.432245  0.501783  0.675789  1
  Bi  Bi29  1  0.406814  0.750000  0.955745  1
  Bi  Bi30  1  0.093461  0.250000  0.457451  1
  Bi  Bi31  1  0.597665  0.250000  0.039674  1
