# generated using pymatgen
data_LaY3Ir2(RhO7)2
_symmetry_space_group_name_H-M   'P 1'
_cell_length_a   7.35119737
_cell_length_b   7.26731807
_cell_length_c   7.26731761
_cell_angle_alpha   60.11877635
_cell_angle_beta   60.35906998
_cell_angle_gamma   60.35906808
_symmetry_Int_Tables_number   1
_chemical_formula_structural   LaY3Ir2(RhO7)2
_chemical_formula_sum   'La1 Y3 Ir2 Rh2 O14'
_cell_volume   276.26111794
_cell_formula_units_Z   1
loop_
 _symmetry_equiv_pos_site_id
 _symmetry_equiv_pos_as_xyz
  1  'x, y, z'
loop_
 _atom_site_type_symbol
 _atom_site_label
 _atom_site_symmetry_multiplicity
 _atom_site_fract_x
 _atom_site_fract_y
 _atom_site_fract_z
 _atom_site_occupancy
  La  La0  1  0.625000  0.125000  0.125000  1
  Y  Y1  1  0.125000  0.625000  0.125000  1
  Y  Y2  1  0.125000  0.125000  0.625000  1
  Y  Y3  1  0.125000  0.125000  0.125000  1
  Ir  Ir4  1  0.125000  0.625000  0.625000  1
  Ir  Ir5  1  0.625000  0.625000  0.625000  1
  Rh  Rh6  1  0.625000  0.125000  0.625000  1
  Rh  Rh7  1  0.625000  0.625000  0.125000  1
  O  O8  1  0.722504  0.695792  0.293761  1
  O  O9  1  0.286786  0.292654  0.706661  1
  O  O10  1  0.722504  0.293761  0.695792  1
  O  O11  1  0.286786  0.706661  0.292654  1
  O  O12  1  0.291900  0.707647  0.707647  1
  O  O13  1  0.724543  0.286273  0.286273  1
  O  O14  1  0.527496  0.554208  0.956239  1
  O  O15  1  0.963214  0.957346  0.543339  1
  O  O16  1  0.527496  0.956239  0.554208  1
  O  O17  1  0.963214  0.543339  0.957346  1
  O  O18  1  0.958100  0.542353  0.542353  1
  O  O19  1  0.525457  0.963727  0.963727  1
  O  O20  1  0.238233  0.254577  0.254577  1
  O  O21  1  0.011767  0.995423  0.995423  1
