# generated using pymatgen
data_Ca7Lu(Si4Mo3)4
_symmetry_space_group_name_H-M   'P 1'
_cell_length_a   6.73503308
_cell_length_b   6.95153458
_cell_length_c   13.07695695
_cell_angle_alpha   89.89708534
_cell_angle_beta   90.03850316
_cell_angle_gamma   89.91872004
_symmetry_Int_Tables_number   1
_chemical_formula_structural   Ca7Lu(Si4Mo3)4
_chemical_formula_sum   'Ca7 Lu1 Si16 Mo12'
_cell_volume   612.24589017
_cell_formula_units_Z   1
loop_
 _symmetry_equiv_pos_site_id
 _symmetry_equiv_pos_as_xyz
  1  'x, y, z'
loop_
 _atom_site_type_symbol
 _atom_site_label
 _atom_site_symmetry_multiplicity
 _atom_site_fract_x
 _atom_site_fract_y
 _atom_site_fract_z
 _atom_site_occupancy
  Ca  Ca0  1  0.498392  0.333041  0.090937  1
  Ca  Ca1  1  0.998376  0.167022  0.408737  1
  Ca  Ca2  1  0.501406  0.667028  0.591558  1
  Ca  Ca3  1  0.001063  0.831055  0.907889  1
  Ca  Ca4  1  0.501012  0.668030  0.908531  1
  Ca  Ca5  1  0.001393  0.832453  0.591427  1
  Ca  Ca6  1  0.498403  0.333082  0.408560  1
  Lu  Lu7  1  0.998877  0.170668  0.094473  1
  Si  Si8  1  0.657286  0.043535  0.545939  1
  Si  Si9  1  0.157885  0.456052  0.955197  1
  Si  Si10  1  0.339653  0.958253  0.045963  1
  Si  Si11  1  0.842393  0.543696  0.453958  1
  Si  Si12  1  0.342716  0.956098  0.453916  1
  Si  Si13  1  0.842139  0.542001  0.045818  1
  Si  Si14  1  0.659919  0.042781  0.955060  1
  Si  Si15  1  0.157494  0.456591  0.545909  1
  Si  Si16  1  0.534784  0.372396  0.750486  1
  Si  Si17  1  0.034661  0.126536  0.749782  1
  Si  Si18  1  0.465126  0.629695  0.248961  1
  Si  Si19  1  0.965598  0.872305  0.249449  1
  Si  Si20  1  0.801048  0.628758  0.750124  1
  Si  Si21  1  0.301275  0.870428  0.750075  1
  Si  Si22  1  0.198683  0.369813  0.249961  1
  Si  Si23  1  0.697933  0.130577  0.249956  1
  Mo  Mo24  1  0.834901  0.330724  0.628358  1
  Mo  Mo25  1  0.333669  0.168561  0.872949  1
  Mo  Mo26  1  0.165159  0.668366  0.126873  1
  Mo  Mo27  1  0.666043  0.831186  0.371203  1
  Mo  Mo28  1  0.165414  0.668921  0.370965  1
  Mo  Mo29  1  0.668659  0.834118  0.126766  1
  Mo  Mo30  1  0.836348  0.328772  0.873607  1
  Mo  Mo31  1  0.334963  0.168694  0.628241  1
  Mo  Mo32  1  0.660866  0.010538  0.750549  1
  Mo  Mo33  1  0.161049  0.488843  0.750554  1
  Mo  Mo34  1  0.336984  0.991746  0.248816  1
  Mo  Mo35  1  0.838429  0.507638  0.248454  1
