# generated using pymatgen
data_Th6TiNbSn10
_symmetry_space_group_name_H-M   'P 1'
_cell_length_a   9.47545400
_cell_length_b   9.47545497
_cell_length_c   6.22088100
_cell_angle_alpha   90.00000000
_cell_angle_beta   90.00000000
_cell_angle_gamma   119.99999660
_symmetry_Int_Tables_number   1
_chemical_formula_structural   Th6TiNbSn10
_chemical_formula_sum   'Th6 Ti1 Nb1 Sn10'
_cell_volume   483.70729824
_cell_formula_units_Z   1
loop_
 _symmetry_equiv_pos_site_id
 _symmetry_equiv_pos_as_xyz
  1  'x, y, z'
loop_
 _atom_site_type_symbol
 _atom_site_label
 _atom_site_symmetry_multiplicity
 _atom_site_fract_x
 _atom_site_fract_y
 _atom_site_fract_z
 _atom_site_occupancy
  Th  Th0  1  0.614110  0.000000  0.750096  1
  Th  Th1  1  0.385890  0.000000  0.249904  1
  Th  Th2  1  0.000000  0.614110  0.750096  1
  Th  Th3  1  0.000000  0.385890  0.249904  1
  Th  Th4  1  0.385890  0.385890  0.750096  1
  Th  Th5  1  0.614110  0.614110  0.249904  1
  Ti  Ti6  1  0.000000  0.000000  0.000000  1
  Nb  Nb7  1  0.000000  0.000000  0.500000  1
  Sn  Sn8  1  0.258815  0.000000  0.750942  1
  Sn  Sn9  1  0.741185  0.000000  0.249058  1
  Sn  Sn10  1  0.000000  0.258815  0.750942  1
  Sn  Sn11  1  0.000000  0.741185  0.249058  1
  Sn  Sn12  1  0.741185  0.741185  0.750942  1
  Sn  Sn13  1  0.258815  0.258815  0.249058  1
  Sn  Sn14  1  0.333333  0.666667  0.500000  1
  Sn  Sn15  1  0.666667  0.333333  0.500000  1
  Sn  Sn16  1  0.666667  0.333333  0.000000  1
  Sn  Sn17  1  0.333333  0.666667  0.000000  1
