# generated using pymatgen
data_Li3MgAs6Ir4Rh3
_symmetry_space_group_name_H-M   'P 1'
_cell_length_a   7.01605975
_cell_length_b   7.01539185
_cell_length_c   6.99571808
_cell_angle_alpha   109.40591865
_cell_angle_beta   109.42994969
_cell_angle_gamma   109.52282654
_symmetry_Int_Tables_number   1
_chemical_formula_structural   Li3MgAs6Ir4Rh3
_chemical_formula_sum   'Li3 Mg1 As6 Ir4 Rh3'
_cell_volume   265.24640386
_cell_formula_units_Z   1
loop_
 _symmetry_equiv_pos_site_id
 _symmetry_equiv_pos_as_xyz
  1  'x, y, z'
loop_
 _atom_site_type_symbol
 _atom_site_label
 _atom_site_symmetry_multiplicity
 _atom_site_fract_x
 _atom_site_fract_y
 _atom_site_fract_z
 _atom_site_occupancy
  Li  Li0  1  0.500021  0.000041  0.000023  1
  Li  Li1  1  0.999745  0.499717  0.999477  1
  Li  Li2  1  0.499971  0.499718  0.500241  1
  Mg  Mg3  1  0.000028  0.000059  0.500029  1
  As  As4  1  0.684364  0.684363  0.992885  1
  As  As5  1  0.315944  0.315986  0.007589  1
  As  As6  1  0.999999  0.684362  0.691478  1
  As  As7  1  0.000041  0.315985  0.308397  1
  As  As8  1  0.684073  0.999754  0.691433  1
  As  As9  1  0.315682  0.999755  0.308322  1
  Ir  Ir10  1  0.000002  0.000010  0.000002  1
  Ir  Ir11  1  0.248443  0.496890  0.748446  1
  Ir  Ir12  1  0.751665  0.248680  0.500539  1
  Ir  Ir13  1  0.497008  0.248674  0.748138  1
  Rh  Rh14  1  0.502915  0.751537  0.251266  1
  Rh  Rh15  1  0.751481  0.502941  0.251474  1
  Rh  Rh16  1  0.248616  0.751528  0.500262  1
