# generated using pymatgen
data_Y8Re9Si16Tc3
_symmetry_space_group_name_H-M   'P 1'
_cell_length_a   6.77526541
_cell_length_b   6.77526506
_cell_length_c   12.82693008
_cell_angle_alpha   89.97553544
_cell_angle_beta   89.97553789
_cell_angle_gamma   90.02472020
_symmetry_Int_Tables_number   1
_chemical_formula_structural   Y8Re9Si16Tc3
_chemical_formula_sum   'Y8 Re9 Si16 Tc3'
_cell_volume   588.81004530
_cell_formula_units_Z   1
loop_
 _symmetry_equiv_pos_site_id
 _symmetry_equiv_pos_as_xyz
  1  'x, y, z'
loop_
 _atom_site_type_symbol
 _atom_site_label
 _atom_site_symmetry_multiplicity
 _atom_site_fract_x
 _atom_site_fract_y
 _atom_site_fract_z
 _atom_site_occupancy
  Y  Y0  1  0.007279  0.662986  0.031538  1
  Y  Y1  1  0.992446  0.337129  0.531581  1
  Y  Y2  1  0.337014  0.992721  0.468462  1
  Y  Y3  1  0.162646  0.492818  0.781264  1
  Y  Y4  1  0.837161  0.507402  0.281571  1
  Y  Y5  1  0.492598  0.162839  0.218429  1
  Y  Y6  1  0.507182  0.837354  0.718736  1
  Y  Y7  1  0.662871  0.007554  0.968419  1
  Re  Re8  1  0.017344  0.812867  0.631094  1
  Re  Re9  1  0.982547  0.186922  0.131277  1
  Re  Re10  1  0.813078  0.017453  0.368723  1
  Re  Re11  1  0.313945  0.483201  0.380997  1
  Re  Re12  1  0.687429  0.517268  0.881500  1
  Re  Re13  1  0.482732  0.312571  0.618500  1
  Re  Re14  1  0.516799  0.686055  0.119003  1
  Re  Re15  1  0.187133  0.982656  0.868906  1
  Re  Re16  1  0.836350  0.163650  0.750000  1
  Si  Si17  1  0.016949  0.727634  0.439430  1
  Si  Si18  1  0.613843  0.304260  0.434893  1
  Si  Si19  1  0.386556  0.695549  0.935133  1
  Si  Si20  1  0.195877  0.113651  0.684621  1
  Si  Si21  1  0.304451  0.613444  0.564867  1
  Si  Si22  1  0.695740  0.386157  0.065107  1
  Si  Si23  1  0.804363  0.886143  0.184967  1
  Si  Si24  1  0.113857  0.195637  0.315033  1
  Si  Si25  1  0.982859  0.272894  0.939332  1
  Si  Si26  1  0.727106  0.017141  0.560668  1
  Si  Si27  1  0.226704  0.482593  0.189453  1
  Si  Si28  1  0.771981  0.517517  0.689283  1
  Si  Si29  1  0.482483  0.228019  0.810717  1
  Si  Si30  1  0.517407  0.773296  0.310547  1
  Si  Si31  1  0.272366  0.983051  0.060570  1
  Si  Si32  1  0.886349  0.804123  0.815379  1
  Tc  Tc33  1  0.664265  0.663733  0.500522  1
  Tc  Tc34  1  0.164023  0.835977  0.250000  1
  Tc  Tc35  1  0.336267  0.335735  0.999478  1
