# generated using pymatgen
data_Tb2Ga9Co2Ni
_symmetry_space_group_name_H-M   'P 1'
_cell_length_a   7.40842955
_cell_length_b   7.40842998
_cell_length_c   9.41274100
_cell_angle_alpha   90.00182388
_cell_angle_beta   90.00182457
_cell_angle_gamma   119.77918842
_symmetry_Int_Tables_number   1
_chemical_formula_structural   Tb2Ga9Co2Ni
_chemical_formula_sum   'Tb4 Ga18 Co4 Ni2'
_cell_volume   448.39535635
_cell_formula_units_Z   2
loop_
 _symmetry_equiv_pos_site_id
 _symmetry_equiv_pos_as_xyz
  1  'x, y, z'
loop_
 _atom_site_type_symbol
 _atom_site_label
 _atom_site_symmetry_multiplicity
 _atom_site_fract_x
 _atom_site_fract_y
 _atom_site_fract_z
 _atom_site_occupancy
  Tb  Tb0  1  0.331739  0.003592  0.250232  1
  Tb  Tb1  1  0.996408  0.668261  0.749768  1
  Tb  Tb2  1  0.668404  0.996439  0.749765  1
  Tb  Tb3  1  0.003561  0.331596  0.250235  1
  Ga  Ga4  1  0.336274  0.002147  0.926123  1
  Ga  Ga5  1  0.997853  0.663726  0.073877  1
  Ga  Ga6  1  0.333614  0.998937  0.571021  1
  Ga  Ga7  1  0.001063  0.666386  0.428979  1
  Ga  Ga8  1  0.666339  0.002908  0.073518  1
  Ga  Ga9  1  0.997092  0.333661  0.926482  1
  Ga  Ga10  1  0.665984  0.000671  0.429159  1
  Ga  Ga11  1  0.999329  0.334016  0.570841  1
  Ga  Ga12  1  0.666035  0.663577  0.940090  1
  Ga  Ga13  1  0.336423  0.333965  0.059910  1
  Ga  Ga14  1  0.666974  0.667147  0.557227  1
  Ga  Ga15  1  0.332853  0.333026  0.442773  1
  Ga  Ga16  1  0.122517  0.123024  0.747751  1
  Ga  Ga17  1  0.876976  0.877483  0.252249  1
  Ga  Ga18  1  0.451319  0.663861  0.252713  1
  Ga  Ga19  1  0.336139  0.548681  0.747287  1
  Ga  Ga20  1  0.550089  0.336446  0.749635  1
  Ga  Ga21  1  0.663554  0.449911  0.250365  1
  Co  Co22  1  0.000003  0.999997  0.500000  1
  Co  Co23  1  0.328811  0.671189  0.500000  1
  Co  Co24  1  0.670484  0.329516  0.000000  1
  Co  Co25  1  0.671050  0.328950  0.500000  1
  Ni  Ni26  1  0.999921  0.000079  0.000000  1
  Ni  Ni27  1  0.329191  0.670809  0.000000  1
