# generated using pymatgen
data_Cd22Pd3
_symmetry_space_group_name_H-M   'P 1'
_cell_length_a   8.78339092
_cell_length_b   8.78339085
_cell_length_c   8.75094747
_cell_angle_alpha   71.40953394
_cell_angle_beta   71.40954153
_cell_angle_gamma   57.99745026
_symmetry_Int_Tables_number   1
_chemical_formula_structural   Cd22Pd3
_chemical_formula_sum   'Cd22 Pd3'
_cell_volume   533.12950541
_cell_formula_units_Z   1
loop_
 _symmetry_equiv_pos_site_id
 _symmetry_equiv_pos_as_xyz
  1  'x, y, z'
loop_
 _atom_site_type_symbol
 _atom_site_label
 _atom_site_symmetry_multiplicity
 _atom_site_fract_x
 _atom_site_fract_y
 _atom_site_fract_z
 _atom_site_occupancy
  Cd  Cd0  1  0.347837  0.737721  0.310181  1
  Cd  Cd1  1  0.652163  0.262279  0.689819  1
  Cd  Cd2  1  0.262279  0.652163  0.689819  1
  Cd  Cd3  1  0.737721  0.347837  0.310181  1
  Cd  Cd4  1  0.677898  0.322102  0.000000  1
  Cd  Cd5  1  0.322102  0.677898  0.000000  1
  Cd  Cd6  1  0.831319  0.831319  0.782337  1
  Cd  Cd7  1  0.168681  0.168681  0.217663  1
  Cd  Cd8  1  0.978476  0.978476  0.175287  1
  Cd  Cd9  1  0.021524  0.021524  0.824713  1
  Cd  Cd10  1  0.351260  0.351260  0.273031  1
  Cd  Cd11  1  0.648740  0.648740  0.726969  1
  Cd  Cd12  1  0.687775  0.687775  0.375391  1
  Cd  Cd13  1  0.312225  0.312225  0.624609  1
  Cd  Cd14  1  0.662357  0.025759  0.462220  1
  Cd  Cd15  1  0.337643  0.974241  0.537780  1
  Cd  Cd16  1  0.974241  0.337643  0.537780  1
  Cd  Cd17  1  0.025759  0.662357  0.462220  1
  Cd  Cd18  1  0.616429  0.999768  0.098222  1
  Cd  Cd19  1  0.383571  0.000232  0.901778  1
  Cd  Cd20  1  0.000232  0.383571  0.901778  1
  Cd  Cd21  1  0.999768  0.616429  0.098222  1
  Pd  Pd22  1  0.658784  0.658784  0.053010  1
  Pd  Pd23  1  0.341216  0.341216  0.946990  1
  Pd  Pd24  1  0.000000  0.000000  0.500000  1
