# generated using pymatgen
data_Ti5Cr2Si2B4Mo3
_symmetry_space_group_name_H-M   'P 1'
_cell_length_a   7.03575534
_cell_length_b   7.02828883
_cell_length_c   7.02384468
_cell_angle_alpha   130.01516745
_cell_angle_beta   130.15342051
_cell_angle_gamma   73.35225227
_symmetry_Int_Tables_number   1
_chemical_formula_structural   Ti5Cr2Si2B4Mo3
_chemical_formula_sum   'Ti5 Cr2 Si2 B4 Mo3'
_cell_volume   198.38362347
_cell_formula_units_Z   1
loop_
 _symmetry_equiv_pos_site_id
 _symmetry_equiv_pos_as_xyz
  1  'x, y, z'
loop_
 _atom_site_type_symbol
 _atom_site_label
 _atom_site_symmetry_multiplicity
 _atom_site_fract_x
 _atom_site_fract_y
 _atom_site_fract_z
 _atom_site_occupancy
  Ti  Ti0  1  0.805524  0.963293  0.500303  1
  Ti  Ti1  1  0.307343  0.808722  0.843388  1
  Ti  Ti2  1  0.193897  0.037608  0.500722  1
  Ti  Ti3  1  0.537858  0.692216  0.500150  1
  Ti  Ti4  1  0.035140  0.534117  0.841736  1
  Cr  Cr5  1  0.001782  0.000024  0.000376  1
  Cr  Cr6  1  0.501024  0.501119  0.000190  1
  Si  Si7  1  0.748514  0.748434  0.998077  1
  Si  Si8  1  0.249901  0.249739  0.000631  1
  B  B9  1  0.382785  0.883206  0.267150  1
  B  B10  1  0.883505  0.615906  0.498170  1
  B  B11  1  0.618660  0.117607  0.736298  1
  B  B12  1  0.117280  0.383318  0.499690  1
  Mo  Mo13  1  0.695697  0.193876  0.156978  1
  Mo  Mo14  1  0.962081  0.463869  0.156187  1
  Mo  Mo15  1  0.459011  0.306946  0.499954  1
