# generated using pymatgen
data_Li8Dy8AlSb7
_symmetry_space_group_name_H-M   'P 1'
_cell_length_a   9.43116500
_cell_length_b   9.43116657
_cell_length_c   7.02640500
_cell_angle_alpha   90.00000000
_cell_angle_beta   90.00000000
_cell_angle_gamma   119.99999801
_symmetry_Int_Tables_number   1
_chemical_formula_structural   Li8Dy8AlSb7
_chemical_formula_sum   'Li8 Dy8 Al1 Sb7'
_cell_volume   541.24584750
_cell_formula_units_Z   1
loop_
 _symmetry_equiv_pos_site_id
 _symmetry_equiv_pos_as_xyz
  1  'x, y, z'
loop_
 _atom_site_type_symbol
 _atom_site_label
 _atom_site_symmetry_multiplicity
 _atom_site_fract_x
 _atom_site_fract_y
 _atom_site_fract_z
 _atom_site_occupancy
  Li  Li0  1  0.167225  0.334451  0.275267  1
  Li  Li1  1  0.167225  0.832775  0.275267  1
  Li  Li2  1  0.665549  0.832775  0.275267  1
  Li  Li3  1  0.831067  0.662136  0.775255  1
  Li  Li4  1  0.831067  0.168933  0.775255  1
  Li  Li5  1  0.337864  0.168933  0.775255  1
  Li  Li6  1  0.333333  0.666667  0.687148  1
  Li  Li7  1  0.666667  0.333333  0.194050  1
  Dy  Dy8  1  0.512519  0.025038  0.498181  1
  Dy  Dy9  1  0.512519  0.487481  0.498181  1
  Dy  Dy10  1  0.974962  0.487481  0.498181  1
  Dy  Dy11  1  0.495050  0.990101  0.991129  1
  Dy  Dy12  1  0.495050  0.504950  0.991129  1
  Dy  Dy13  1  0.009899  0.504950  0.991129  1
  Dy  Dy14  1  0.000000  0.000000  0.503230  1
  Dy  Dy15  1  0.000000  0.000000  0.000894  1
  Al  Al16  1  0.666667  0.333333  0.755266  1
  Sb  Sb17  1  0.166041  0.332082  0.738215  1
  Sb  Sb18  1  0.166041  0.833959  0.738215  1
  Sb  Sb19  1  0.667918  0.833959  0.738215  1
  Sb  Sb20  1  0.833354  0.666708  0.237015  1
  Sb  Sb21  1  0.833354  0.166646  0.237015  1
  Sb  Sb22  1  0.333292  0.166646  0.237015  1
  Sb  Sb23  1  0.333333  0.666667  0.256219  1
