# generated using pymatgen
data_Hf6Mg2(Al2Pt)7
_symmetry_space_group_name_H-M   'P 1'
_cell_length_a   8.80152763
_cell_length_b   8.80089518
_cell_length_c   8.80089575
_cell_angle_alpha   59.98660718
_cell_angle_beta   59.99762192
_cell_angle_gamma   59.99761892
_symmetry_Int_Tables_number   1
_chemical_formula_structural   Hf6Mg2(Al2Pt)7
_chemical_formula_sum   'Hf6 Mg2 Al14 Pt7'
_cell_volume   481.98906823
_cell_formula_units_Z   1
loop_
 _symmetry_equiv_pos_site_id
 _symmetry_equiv_pos_as_xyz
  1  'x, y, z'
loop_
 _atom_site_type_symbol
 _atom_site_label
 _atom_site_symmetry_multiplicity
 _atom_site_fract_x
 _atom_site_fract_y
 _atom_site_fract_z
 _atom_site_occupancy
  Hf  Hf0  1  0.679355  0.679039  0.320393  1
  Hf  Hf1  1  0.321212  0.679039  0.320393  1
  Hf  Hf2  1  0.677079  0.322921  0.322921  1
  Hf  Hf3  1  0.321212  0.320393  0.679039  1
  Hf  Hf4  1  0.679355  0.320393  0.679039  1
  Hf  Hf5  1  0.319694  0.680306  0.680306  1
  Mg  Mg6  1  0.880632  0.882354  0.356379  1
  Mg  Mg7  1  0.880632  0.356379  0.882354  1
  Al  Al8  1  0.360466  0.880117  0.880117  1
  Al  Al9  1  0.879298  0.880117  0.880117  1
  Al  Al10  1  0.119261  0.122499  0.638978  1
  Al  Al11  1  0.119261  0.638978  0.122499  1
  Al  Al12  1  0.641310  0.120227  0.120227  1
  Al  Al13  1  0.118236  0.120227  0.120227  1
  Al  Al14  1  0.664430  0.662752  0.008386  1
  Al  Al15  1  0.664430  0.008386  0.662752  1
  Al  Al16  1  0.006918  0.663692  0.663692  1
  Al  Al17  1  0.665698  0.663692  0.663692  1
  Al  Al18  1  0.336705  0.334824  0.991768  1
  Al  Al19  1  0.336705  0.991768  0.334824  1
  Al  Al20  1  0.990624  0.335722  0.335722  1
  Al  Al21  1  0.337933  0.335722  0.335722  1
  Pt  Pt22  1  0.007629  0.992371  0.992371  1
  Pt  Pt23  1  0.001580  0.000058  0.506124  1
  Pt  Pt24  1  0.492238  0.000058  0.506124  1
  Pt  Pt25  1  0.003153  0.496847  0.496847  1
  Pt  Pt26  1  0.492238  0.506124  0.000058  1
  Pt  Pt27  1  0.001580  0.506124  0.000058  1
  Pt  Pt28  1  0.501134  0.998866  0.998866  1
