# generated using pymatgen
data_Nd8Si12Ir2PdRh
_symmetry_space_group_name_H-M   'P 1'
_cell_length_a   8.26842500
_cell_length_b   8.26842553
_cell_length_c   8.45883400
_cell_angle_alpha   90.00000000
_cell_angle_beta   90.00000000
_cell_angle_gamma   119.99999388
_symmetry_Int_Tables_number   1
_chemical_formula_structural   Nd8Si12Ir2PdRh
_chemical_formula_sum   'Nd8 Si12 Ir2 Pd1 Rh1'
_cell_volume   500.82588994
_cell_formula_units_Z   1
loop_
 _symmetry_equiv_pos_site_id
 _symmetry_equiv_pos_as_xyz
  1  'x, y, z'
loop_
 _atom_site_type_symbol
 _atom_site_label
 _atom_site_symmetry_multiplicity
 _atom_site_fract_x
 _atom_site_fract_y
 _atom_site_fract_z
 _atom_site_occupancy
  Nd  Nd0  1  0.495945  0.504055  0.752716  1
  Nd  Nd1  1  0.499892  0.500108  0.247840  1
  Nd  Nd2  1  0.008110  0.504055  0.752716  1
  Nd  Nd3  1  0.000216  0.500108  0.247840  1
  Nd  Nd4  1  0.495945  0.991890  0.752716  1
  Nd  Nd5  1  0.499892  0.999784  0.247840  1
  Nd  Nd6  1  0.000000  0.000000  0.749560  1
  Nd  Nd7  1  0.000000  0.000000  0.249530  1
  Si  Si8  1  0.832757  0.167243  0.001181  1
  Si  Si9  1  0.166072  0.833928  0.998807  1
  Si  Si10  1  0.334486  0.167243  0.001181  1
  Si  Si11  1  0.167117  0.832883  0.501960  1
  Si  Si12  1  0.667855  0.833928  0.998807  1
  Si  Si13  1  0.835265  0.164735  0.497504  1
  Si  Si14  1  0.832757  0.665514  0.001181  1
  Si  Si15  1  0.665768  0.832883  0.501960  1
  Si  Si16  1  0.166072  0.332145  0.998807  1
  Si  Si17  1  0.329470  0.164735  0.497504  1
  Si  Si18  1  0.167117  0.334232  0.501960  1
  Si  Si19  1  0.835265  0.670530  0.497504  1
  Ir  Ir20  1  0.333333  0.666667  0.006989  1
  Ir  Ir21  1  0.333333  0.666667  0.491901  1
  Pd  Pd22  1  0.666667  0.333333  0.509507  1
  Rh  Rh23  1  0.666667  0.333333  0.992493  1
