# generated using pymatgen
data_Y12Tm4Cd4Ir3Ru
_symmetry_space_group_name_H-M   'P 1'
_cell_length_a   9.65552338
_cell_length_b   9.65552351
_cell_length_c   9.65552422
_cell_angle_alpha   59.77777037
_cell_angle_beta   59.77776969
_cell_angle_gamma   59.77777414
_symmetry_Int_Tables_number   1
_chemical_formula_structural   Y12Tm4Cd4Ir3Ru
_chemical_formula_sum   'Y12 Tm4 Cd4 Ir3 Ru1'
_cell_volume   633.30911180
_cell_formula_units_Z   1
loop_
 _symmetry_equiv_pos_site_id
 _symmetry_equiv_pos_as_xyz
  1  'x, y, z'
loop_
 _atom_site_type_symbol
 _atom_site_label
 _atom_site_symmetry_multiplicity
 _atom_site_fract_x
 _atom_site_fract_y
 _atom_site_fract_z
 _atom_site_occupancy
  Y  Y0  1  0.810593  0.189576  0.189576  1
  Y  Y1  1  0.189524  0.809473  0.809473  1
  Y  Y2  1  0.189576  0.810593  0.189576  1
  Y  Y3  1  0.809473  0.189524  0.809473  1
  Y  Y4  1  0.189576  0.189576  0.810593  1
  Y  Y5  1  0.809473  0.809473  0.189524  1
  Y  Y6  1  0.939936  0.560792  0.560792  1
  Y  Y7  1  0.559789  0.939129  0.939129  1
  Y  Y8  1  0.560792  0.939936  0.560792  1
  Y  Y9  1  0.939129  0.559789  0.939129  1
  Y  Y10  1  0.560792  0.560792  0.939936  1
  Y  Y11  1  0.939129  0.939129  0.559789  1
  Tm  Tm12  1  0.347558  0.347558  0.347558  1
  Tm  Tm13  1  0.347785  0.347785  0.957906  1
  Tm  Tm14  1  0.347785  0.957906  0.347785  1
  Tm  Tm15  1  0.957906  0.347785  0.347785  1
  Cd  Cd16  1  0.579834  0.579834  0.579834  1
  Cd  Cd17  1  0.580439  0.580439  0.257847  1
  Cd  Cd18  1  0.580439  0.257847  0.580439  1
  Cd  Cd19  1  0.257847  0.580439  0.580439  1
  Ir  Ir20  1  0.143843  0.143843  0.572321  1
  Ir  Ir21  1  0.143843  0.572321  0.143843  1
  Ir  Ir22  1  0.572321  0.143843  0.143843  1
  Ru  Ru23  1  0.142617  0.142617  0.142617  1
