# generated using pymatgen
data_Y4ErReRuC7
_symmetry_space_group_name_H-M   'P 1'
_cell_length_a   8.27273148
_cell_length_b   8.24650232
_cell_length_c   3.47385500
_cell_angle_alpha   90.00000000
_cell_angle_beta   90.00000000
_cell_angle_gamma   122.26129772
_symmetry_Int_Tables_number   1
_chemical_formula_structural   Y4ErReRuC7
_chemical_formula_sum   'Y4 Er1 Re1 Ru1 C7'
_cell_volume   200.40427167
_cell_formula_units_Z   1
loop_
 _symmetry_equiv_pos_site_id
 _symmetry_equiv_pos_as_xyz
  1  'x, y, z'
loop_
 _atom_site_type_symbol
 _atom_site_label
 _atom_site_symmetry_multiplicity
 _atom_site_fract_x
 _atom_site_fract_y
 _atom_site_fract_z
 _atom_site_occupancy
  Y  Y0  1  0.500415  0.499057  0.000000  1
  Y  Y1  1  0.074834  0.333989  0.500000  1
  Y  Y2  1  0.922538  0.662531  0.500000  1
  Y  Y3  1  0.663355  0.926007  0.500000  1
  Er  Er4  1  0.341231  0.078938  0.500000  1
  Re  Re5  1  0.285018  0.714121  0.000000  1
  Ru  Ru6  1  0.712145  0.287951  0.000000  1
  C  C7  1  0.629066  0.369392  0.500000  1
  C  C8  1  0.372254  0.626765  0.500000  1
  C  C9  1  0.000547  0.000609  0.000000  1
  C  C10  1  0.172769  0.168482  0.000000  1
  C  C11  1  0.829731  0.831273  0.000000  1
  C  C12  1  0.001569  0.502560  0.000000  1
  C  C13  1  0.494530  0.998323  0.000000  1
