# generated using pymatgen
data_ErLu(HfRh)2
_symmetry_space_group_name_H-M   'P 1'
_cell_length_a   4.60634100
_cell_length_b   6.99518800
_cell_length_c   8.20577300
_cell_angle_alpha   90.00000000
_cell_angle_beta   90.00000000
_cell_angle_gamma   90.00000000
_symmetry_Int_Tables_number   1
_chemical_formula_structural   ErLu(HfRh)2
_chemical_formula_sum   'Er2 Lu2 Hf4 Rh4'
_cell_volume   264.40823344
_cell_formula_units_Z   2
loop_
 _symmetry_equiv_pos_site_id
 _symmetry_equiv_pos_as_xyz
  1  'x, y, z'
loop_
 _atom_site_type_symbol
 _atom_site_label
 _atom_site_symmetry_multiplicity
 _atom_site_fract_x
 _atom_site_fract_y
 _atom_site_fract_z
 _atom_site_occupancy
  Er  Er0  1  0.750000  0.017297  0.676638  1
  Er  Er1  1  0.750000  0.517297  0.823362  1
  Lu  Lu2  1  0.250000  0.982719  0.323322  1
  Lu  Lu3  1  0.250000  0.482719  0.176678  1
  Hf  Hf4  1  0.250000  0.359403  0.573881  1
  Hf  Hf5  1  0.250000  0.859403  0.926119  1
  Hf  Hf6  1  0.750000  0.640596  0.425652  1
  Hf  Hf7  1  0.750000  0.140596  0.074348  1
  Rh  Rh8  1  0.250000  0.232435  0.910546  1
  Rh  Rh9  1  0.250000  0.732435  0.589454  1
  Rh  Rh10  1  0.750000  0.767553  0.089503  1
  Rh  Rh11  1  0.750000  0.267553  0.410497  1
