# generated using pymatgen
data_Tb6Al24ZnRu4Rh3
_symmetry_space_group_name_H-M   'P 1'
_cell_length_a   8.87179113
_cell_length_b   8.82671913
_cell_length_c   9.56873765
_cell_angle_alpha   89.80603402
_cell_angle_beta   90.01789277
_cell_angle_gamma   119.84235867
_symmetry_Int_Tables_number   1
_chemical_formula_structural   Tb6Al24ZnRu4Rh3
_chemical_formula_sum   'Tb6 Al24 Zn1 Ru4 Rh3'
_cell_volume   649.95089972
_cell_formula_units_Z   1
loop_
 _symmetry_equiv_pos_site_id
 _symmetry_equiv_pos_as_xyz
  1  'x, y, z'
loop_
 _atom_site_type_symbol
 _atom_site_label
 _atom_site_symmetry_multiplicity
 _atom_site_fract_x
 _atom_site_fract_y
 _atom_site_fract_z
 _atom_site_occupancy
  Tb  Tb0  1  0.383370  0.189698  0.254570  1
  Tb  Tb1  1  0.808881  0.193137  0.253586  1
  Tb  Tb2  1  0.810751  0.614413  0.246575  1
  Tb  Tb3  1  0.616630  0.810302  0.745430  1
  Tb  Tb4  1  0.191119  0.806863  0.746414  1
  Tb  Tb5  1  0.189249  0.385587  0.753425  1
  Al  Al6  1  0.436613  0.872119  0.244127  1
  Al  Al7  1  0.123727  0.560537  0.250168  1
  Al  Al8  1  0.438338  0.560470  0.249953  1
  Al  Al9  1  0.563387  0.127881  0.755873  1
  Al  Al10  1  0.876273  0.439463  0.749832  1
  Al  Al11  1  0.561662  0.439530  0.750047  1
  Al  Al12  1  0.152245  0.828731  0.419330  1
  Al  Al13  1  0.162020  0.327145  0.422452  1
  Al  Al14  1  0.677160  0.829551  0.420725  1
  Al  Al15  1  0.847755  0.171269  0.580670  1
  Al  Al16  1  0.837980  0.672855  0.577548  1
  Al  Al17  1  0.322840  0.170449  0.579275  1
  Al  Al18  1  0.837683  0.164512  0.925565  1
  Al  Al19  1  0.837679  0.673032  0.922532  1
  Al  Al20  1  0.325299  0.163167  0.927295  1
  Al  Al21  1  0.162317  0.835488  0.074435  1
  Al  Al22  1  0.162321  0.326968  0.077468  1
  Al  Al23  1  0.674701  0.836833  0.072705  1
  Al  Al24  1  0.327752  0.657535  0.527893  1
  Al  Al25  1  0.672248  0.342465  0.472107  1
  Al  Al26  1  0.667628  0.333532  0.026932  1
  Al  Al27  1  0.332372  0.666468  0.973068  1
  Al  Al28  1  0.003686  0.002695  0.249617  1
  Al  Al29  1  0.996314  0.997305  0.750383  1
  Zn  Zn30  1  0.500000  0.000000  0.500000  1
  Ru  Ru31  1  0.000000  0.000000  0.500000  1
  Ru  Ru32  1  0.000000  0.000000  0.000000  1
  Ru  Ru33  1  0.000000  0.500000  0.500000  1
  Ru  Ru34  1  0.000000  0.500000  0.000000  1
  Rh  Rh35  1  0.500000  0.500000  0.500000  1
  Rh  Rh36  1  0.500000  0.000000  0.000000  1
  Rh  Rh37  1  0.500000  0.500000  0.000000  1
