# generated using pymatgen
data_La2TbPr7(Al2Ru3)2
_symmetry_space_group_name_H-M   'P 1'
_cell_length_a   8.51722065
_cell_length_b   8.65551483
_cell_length_c   8.58872140
_cell_angle_alpha   109.29747917
_cell_angle_beta   109.49965500
_cell_angle_gamma   109.53483331
_symmetry_Int_Tables_number   1
_chemical_formula_structural   La2TbPr7(Al2Ru3)2
_chemical_formula_sum   'La2 Tb1 Pr7 Al4 Ru6'
_cell_volume   487.90233027
_cell_formula_units_Z   1
loop_
 _symmetry_equiv_pos_site_id
 _symmetry_equiv_pos_as_xyz
  1  'x, y, z'
loop_
 _atom_site_type_symbol
 _atom_site_label
 _atom_site_symmetry_multiplicity
 _atom_site_fract_x
 _atom_site_fract_y
 _atom_site_fract_z
 _atom_site_occupancy
  La  La0  1  0.751889  0.810972  0.060364  1
  La  La1  1  0.439284  0.246323  0.688255  1
  Tb  Tb2  1  0.249404  0.681951  0.433225  1
  Pr  Pr3  1  0.689513  0.436939  0.254674  1
  Pr  Pr4  1  0.065340  0.749492  0.811149  1
  Pr  Pr5  1  0.815285  0.063074  0.748988  1
  Pr  Pr6  1  0.217211  0.218181  0.214619  1
  Pr  Pr7  1  0.494521  0.994672  0.282623  1
  Pr  Pr8  1  0.287146  0.502607  0.002826  1
  Pr  Pr9  1  0.002471  0.286801  0.503047  1
  Al  Al10  1  0.584880  0.589727  0.586940  1
  Al  Al11  1  0.502602  0.002193  0.911665  1
  Al  Al12  1  0.915599  0.498912  0.003038  1
  Al  Al13  1  0.999125  0.906402  0.498209  1
  Ru  Ru14  1  0.254269  0.125426  0.862581  1
  Ru  Ru15  1  0.737003  0.377172  0.631613  1
  Ru  Ru16  1  0.873311  0.255345  0.122179  1
  Ru  Ru17  1  0.104848  0.861098  0.242732  1
  Ru  Ru18  1  0.626710  0.748387  0.382891  1
  Ru  Ru19  1  0.389588  0.644326  0.758384  1
