# generated using pymatgen
data_Ba5Sr(Sn4Sb)2
_symmetry_space_group_name_H-M   'P 1'
_cell_length_a   9.26385034
_cell_length_b   9.26384960
_cell_length_c   9.32263600
_cell_angle_alpha   119.79162829
_cell_angle_beta   119.79162426
_cell_angle_gamma   90.00000402
_symmetry_Int_Tables_number   1
_chemical_formula_structural   Ba5Sr(Sn4Sb)2
_chemical_formula_sum   'Ba5 Sr1 Sn8 Sb2'
_cell_volume   569.27175283
_cell_formula_units_Z   1
loop_
 _symmetry_equiv_pos_site_id
 _symmetry_equiv_pos_as_xyz
  1  'x, y, z'
loop_
 _atom_site_type_symbol
 _atom_site_label
 _atom_site_symmetry_multiplicity
 _atom_site_fract_x
 _atom_site_fract_y
 _atom_site_fract_z
 _atom_site_occupancy
  Ba  Ba0  1  0.750000  0.750000  0.500000  1
  Ba  Ba1  1  0.663119  0.163119  0.000000  1
  Ba  Ba2  1  0.336881  0.836881  0.000000  1
  Ba  Ba3  1  0.836881  0.663119  0.000000  1
  Ba  Ba4  1  0.163119  0.336881  0.000000  1
  Sr  Sr5  1  0.250000  0.250000  0.500000  1
  Sn  Sn6  1  0.335661  0.840353  0.390380  1
  Sn  Sn7  1  0.659647  0.164339  0.609620  1
  Sn  Sn8  1  0.054720  0.550027  0.390380  1
  Sn  Sn9  1  0.550027  0.335661  0.390380  1
  Sn  Sn10  1  0.164339  0.949973  0.609620  1
  Sn  Sn11  1  0.949973  0.445280  0.609620  1
  Sn  Sn12  1  0.445280  0.659647  0.609620  1
  Sn  Sn13  1  0.840353  0.054720  0.390380  1
  Sb  Sb14  1  0.007428  0.007428  0.014856  1
  Sb  Sb15  1  0.492572  0.492572  0.985144  1
