# generated using pymatgen
data_K6Tl2Sb3
_symmetry_space_group_name_H-M   'P 1'
_cell_length_a   10.05514665
_cell_length_b   10.05514623
_cell_length_c   20.04402100
_cell_angle_alpha   82.96631704
_cell_angle_beta   82.96631734
_cell_angle_gamma   119.49550334
_symmetry_Int_Tables_number   1
_chemical_formula_structural   K6Tl2Sb3
_chemical_formula_sum   'K24 Tl8 Sb12'
_cell_volume   1711.02000673
_cell_formula_units_Z   4
loop_
 _symmetry_equiv_pos_site_id
 _symmetry_equiv_pos_as_xyz
  1  'x, y, z'
loop_
 _atom_site_type_symbol
 _atom_site_label
 _atom_site_symmetry_multiplicity
 _atom_site_fract_x
 _atom_site_fract_y
 _atom_site_fract_z
 _atom_site_occupancy
  K  K0  1  0.485644  0.336377  0.945772  1
  K  K1  1  0.663623  0.514356  0.554228  1
  K  K2  1  0.514356  0.663623  0.054228  1
  K  K3  1  0.336377  0.485644  0.445772  1
  K  K4  1  0.216707  0.672114  0.946393  1
  K  K5  1  0.327886  0.783293  0.553607  1
  K  K6  1  0.783293  0.327886  0.053607  1
  K  K7  1  0.672114  0.216707  0.446393  1
  K  K8  1  0.587644  0.075664  0.822401  1
  K  K9  1  0.924336  0.412356  0.677599  1
  K  K10  1  0.412356  0.924336  0.177599  1
  K  K11  1  0.075664  0.587644  0.322401  1
  K  K12  1  0.243623  0.413054  0.822432  1
  K  K13  1  0.586946  0.756377  0.677568  1
  K  K14  1  0.756377  0.586946  0.177568  1
  K  K15  1  0.413054  0.243623  0.322432  1
  K  K16  1  0.125446  0.938097  0.054338  1
  K  K17  1  0.061903  0.874554  0.445662  1
  K  K18  1  0.874554  0.061903  0.945662  1
  K  K19  1  0.938097  0.125446  0.554338  1
  K  K20  1  0.976406  0.023594  0.750000  1
  K  K21  1  0.023594  0.976406  0.250000  1
  K  K22  1  0.200086  0.799914  0.750000  1
  K  K23  1  0.799914  0.200086  0.250000  1
  Tl  Tl24  1  0.875428  0.705523  0.929089  1
  Tl  Tl25  1  0.294477  0.124572  0.570911  1
  Tl  Tl26  1  0.124572  0.294477  0.070911  1
  Tl  Tl27  1  0.705523  0.875428  0.429089  1
  Tl  Tl28  1  0.732229  0.561085  0.772285  1
  Tl  Tl29  1  0.438915  0.267771  0.727715  1
  Tl  Tl30  1  0.267771  0.438915  0.227715  1
  Tl  Tl31  1  0.561085  0.732229  0.272285  1
  Sb  Sb32  1  0.604791  0.727460  0.861992  1
  Sb  Sb33  1  0.272540  0.395209  0.638008  1
  Sb  Sb34  1  0.395209  0.272540  0.138008  1
  Sb  Sb35  1  0.727460  0.604791  0.361992  1
  Sb  Sb36  1  0.967246  0.789818  0.630468  1
  Sb  Sb37  1  0.210182  0.032754  0.869532  1
  Sb  Sb38  1  0.032754  0.210182  0.369532  1
  Sb  Sb39  1  0.789818  0.967246  0.130468  1
  Sb  Sb40  1  0.887141  0.428250  0.864979  1
  Sb  Sb41  1  0.571750  0.112859  0.635021  1
  Sb  Sb42  1  0.112859  0.571750  0.135021  1
  Sb  Sb43  1  0.428250  0.887141  0.364979  1
