# generated using pymatgen
data_Eu2Cd11
_symmetry_space_group_name_H-M   'P 1'
_cell_length_a   9.85754000
_cell_length_b   9.85754000
_cell_length_c   9.85754000
_cell_angle_alpha   90.00000000
_cell_angle_beta   90.00000000
_cell_angle_gamma   90.00000000
_symmetry_Int_Tables_number   1
_chemical_formula_structural   Eu2Cd11
_chemical_formula_sum   'Eu6 Cd33'
_cell_volume   957.86795434
_cell_formula_units_Z   3
loop_
 _symmetry_equiv_pos_site_id
 _symmetry_equiv_pos_as_xyz
  1  'x, y, z'
loop_
 _atom_site_type_symbol
 _atom_site_label
 _atom_site_symmetry_multiplicity
 _atom_site_fract_x
 _atom_site_fract_y
 _atom_site_fract_z
 _atom_site_occupancy
  Eu  Eu0  1  0.500000  0.202878  0.000000  1
  Eu  Eu1  1  0.500000  0.797122  0.000000  1
  Eu  Eu2  1  0.000000  0.500000  0.202878  1
  Eu  Eu3  1  0.000000  0.500000  0.797122  1
  Eu  Eu4  1  0.202878  0.000000  0.500000  1
  Eu  Eu5  1  0.797122  0.000000  0.500000  1
  Cd  Cd6  1  0.000000  0.000000  0.000000  1
  Cd  Cd7  1  0.734141  0.000000  0.151926  1
  Cd  Cd8  1  0.265859  0.000000  0.848074  1
  Cd  Cd9  1  0.265859  0.000000  0.151926  1
  Cd  Cd10  1  0.734141  0.000000  0.848074  1
  Cd  Cd11  1  0.151926  0.734141  0.000000  1
  Cd  Cd12  1  0.848074  0.265859  0.000000  1
  Cd  Cd13  1  0.151926  0.265859  0.000000  1
  Cd  Cd14  1  0.848074  0.734141  0.000000  1
  Cd  Cd15  1  0.000000  0.151926  0.734141  1
  Cd  Cd16  1  0.000000  0.848074  0.265859  1
  Cd  Cd17  1  0.000000  0.151926  0.265859  1
  Cd  Cd18  1  0.000000  0.848074  0.734141  1
  Cd  Cd19  1  0.500000  0.263909  0.500000  1
  Cd  Cd20  1  0.500000  0.736091  0.500000  1
  Cd  Cd21  1  0.500000  0.500000  0.263909  1
  Cd  Cd22  1  0.500000  0.500000  0.736091  1
  Cd  Cd23  1  0.263909  0.500000  0.500000  1
  Cd  Cd24  1  0.736091  0.500000  0.500000  1
  Cd  Cd25  1  0.000000  0.331215  0.500000  1
  Cd  Cd26  1  0.000000  0.668785  0.500000  1
  Cd  Cd27  1  0.500000  0.000000  0.331215  1
  Cd  Cd28  1  0.500000  0.000000  0.668785  1
  Cd  Cd29  1  0.331215  0.500000  0.000000  1
  Cd  Cd30  1  0.668785  0.500000  0.000000  1
  Cd  Cd31  1  0.718764  0.281236  0.281236  1
  Cd  Cd32  1  0.281236  0.281236  0.718764  1
  Cd  Cd33  1  0.281236  0.718764  0.281236  1
  Cd  Cd34  1  0.718764  0.718764  0.718764  1
  Cd  Cd35  1  0.281236  0.718764  0.718764  1
  Cd  Cd36  1  0.718764  0.718764  0.281236  1
  Cd  Cd37  1  0.718764  0.281236  0.718764  1
  Cd  Cd38  1  0.281236  0.281236  0.281236  1
