# generated using pymatgen
data_LaTh(Zn2Pt)4
_symmetry_space_group_name_H-M   'P 1'
_cell_length_a   7.74310033
_cell_length_b   7.74310033
_cell_length_c   4.23253800
_cell_angle_alpha   90.00000000
_cell_angle_beta   90.00000000
_cell_angle_gamma   90.81601905
_symmetry_Int_Tables_number   1
_chemical_formula_structural   LaTh(Zn2Pt)4
_chemical_formula_sum   'La1 Th1 Zn8 Pt4'
_cell_volume   253.73863013
_cell_formula_units_Z   1
loop_
 _symmetry_equiv_pos_site_id
 _symmetry_equiv_pos_as_xyz
  1  'x, y, z'
loop_
 _atom_site_type_symbol
 _atom_site_label
 _atom_site_symmetry_multiplicity
 _atom_site_fract_x
 _atom_site_fract_y
 _atom_site_fract_z
 _atom_site_occupancy
  La  La0  1  0.000000  0.000000  0.000000  1
  Th  Th1  1  0.500000  0.500000  0.500000  1
  Zn  Zn2  1  0.347744  0.091493  0.500000  1
  Zn  Zn3  1  0.652256  0.908507  0.500000  1
  Zn  Zn4  1  0.849793  0.407988  0.000000  1
  Zn  Zn5  1  0.150207  0.592012  0.000000  1
  Zn  Zn6  1  0.091493  0.347744  0.500000  1
  Zn  Zn7  1  0.908507  0.652256  0.500000  1
  Zn  Zn8  1  0.407988  0.849793  0.000000  1
  Zn  Zn9  1  0.592012  0.150207  0.000000  1
  Pt  Pt10  1  0.778629  0.221371  0.500000  1
  Pt  Pt11  1  0.221371  0.778629  0.500000  1
  Pt  Pt12  1  0.293287  0.293287  0.000000  1
  Pt  Pt13  1  0.706713  0.706713  0.000000  1
