# generated using pymatgen
data_Nd8ZnGa2Co
_symmetry_space_group_name_H-M   'P 1'
_cell_length_a   10.43794967
_cell_length_b   10.43795025
_cell_length_c   7.09488100
_cell_angle_alpha   90.00000000
_cell_angle_beta   90.00000000
_cell_angle_gamma   119.82061663
_symmetry_Int_Tables_number   1
_chemical_formula_structural   Nd8ZnGa2Co
_chemical_formula_sum   'Nd16 Zn2 Ga4 Co2'
_cell_volume   670.63830897
_cell_formula_units_Z   2
loop_
 _symmetry_equiv_pos_site_id
 _symmetry_equiv_pos_as_xyz
  1  'x, y, z'
loop_
 _atom_site_type_symbol
 _atom_site_label
 _atom_site_symmetry_multiplicity
 _atom_site_fract_x
 _atom_site_fract_y
 _atom_site_fract_z
 _atom_site_occupancy
  Nd  Nd0  1  0.007141  0.992859  0.277247  1
  Nd  Nd1  1  0.992859  0.007141  0.777247  1
  Nd  Nd2  1  0.170827  0.829173  0.973565  1
  Nd  Nd3  1  0.829173  0.170827  0.473565  1
  Nd  Nd4  1  0.169274  0.339315  0.995846  1
  Nd  Nd5  1  0.660685  0.830726  0.995846  1
  Nd  Nd6  1  0.339315  0.169274  0.495846  1
  Nd  Nd7  1  0.830726  0.660685  0.495846  1
  Nd  Nd8  1  0.334328  0.665672  0.677967  1
  Nd  Nd9  1  0.665672  0.334328  0.177967  1
  Nd  Nd10  1  0.461676  0.538324  0.294254  1
  Nd  Nd11  1  0.538324  0.461676  0.794254  1
  Nd  Nd12  1  0.454896  0.920992  0.290800  1
  Nd  Nd13  1  0.079008  0.545104  0.290800  1
  Nd  Nd14  1  0.920992  0.454896  0.790800  1
  Nd  Nd15  1  0.545104  0.079008  0.790800  1
  Zn  Zn16  1  0.165819  0.834181  0.541220  1
  Zn  Zn17  1  0.834181  0.165819  0.041220  1
  Ga  Ga18  1  0.162998  0.328951  0.540994  1
  Ga  Ga19  1  0.671049  0.837002  0.540994  1
  Ga  Ga20  1  0.328951  0.162998  0.040994  1
  Ga  Ga21  1  0.837002  0.671049  0.040994  1
  Co  Co22  1  0.335307  0.664693  0.053526  1
  Co  Co23  1  0.664693  0.335307  0.553526  1
