# generated using pymatgen
data_TbLu7Ga3Co
_symmetry_space_group_name_H-M   'P 1'
_cell_length_a   9.80716600
_cell_length_b   9.80716559
_cell_length_c   6.83645400
_cell_angle_alpha   90.00000000
_cell_angle_beta   90.00000000
_cell_angle_gamma   119.99999463
_symmetry_Int_Tables_number   1
_chemical_formula_structural   TbLu7Ga3Co
_chemical_formula_sum   'Tb2 Lu14 Ga6 Co2'
_cell_volume   569.44080657
_cell_formula_units_Z   2
loop_
 _symmetry_equiv_pos_site_id
 _symmetry_equiv_pos_as_xyz
  1  'x, y, z'
loop_
 _atom_site_type_symbol
 _atom_site_label
 _atom_site_symmetry_multiplicity
 _atom_site_fract_x
 _atom_site_fract_y
 _atom_site_fract_z
 _atom_site_occupancy
  Tb  Tb0  1  0.000000  0.000000  0.230960  1
  Tb  Tb1  1  0.000000  0.000000  0.730960  1
  Lu  Lu2  1  0.174638  0.825362  0.511049  1
  Lu  Lu3  1  0.650723  0.825362  0.511049  1
  Lu  Lu4  1  0.174638  0.349277  0.511049  1
  Lu  Lu5  1  0.825362  0.174638  0.011049  1
  Lu  Lu6  1  0.349277  0.174638  0.011049  1
  Lu  Lu7  1  0.825362  0.650723  0.011049  1
  Lu  Lu8  1  0.333333  0.666667  0.827842  1
  Lu  Lu9  1  0.666667  0.333333  0.327842  1
  Lu  Lu10  1  0.463548  0.536452  0.207228  1
  Lu  Lu11  1  0.072904  0.536452  0.207228  1
  Lu  Lu12  1  0.463548  0.927096  0.207228  1
  Lu  Lu13  1  0.536452  0.463548  0.707228  1
  Lu  Lu14  1  0.927096  0.463548  0.707228  1
  Lu  Lu15  1  0.536452  0.072904  0.707228  1
  Ga  Ga16  1  0.163923  0.836077  0.960129  1
  Ga  Ga17  1  0.672155  0.836077  0.960129  1
  Ga  Ga18  1  0.163923  0.327845  0.960129  1
  Ga  Ga19  1  0.836077  0.163923  0.460129  1
  Ga  Ga20  1  0.327845  0.163923  0.460129  1
  Ga  Ga21  1  0.836077  0.672155  0.460129  1
  Co  Co22  1  0.333333  0.666667  0.443399  1
  Co  Co23  1  0.666667  0.333333  0.943399  1
