# generated using pymatgen
data_Ca5La9(Ho3Sn8)2
_symmetry_space_group_name_H-M   'P 1'
_cell_length_a   8.10631255
_cell_length_b   8.54025557
_cell_length_c   16.14253700
_cell_angle_alpha   89.96899814
_cell_angle_beta   90.11578172
_cell_angle_gamma   90.01584196
_symmetry_Int_Tables_number   1
_chemical_formula_structural   Ca5La9(Ho3Sn8)2
_chemical_formula_sum   'Ca5 La9 Ho6 Sn16'
_cell_volume   1117.54504126
_cell_formula_units_Z   1
loop_
 _symmetry_equiv_pos_site_id
 _symmetry_equiv_pos_as_xyz
  1  'x, y, z'
loop_
 _atom_site_type_symbol
 _atom_site_label
 _atom_site_symmetry_multiplicity
 _atom_site_fract_x
 _atom_site_fract_y
 _atom_site_fract_z
 _atom_site_occupancy
  Ca  Ca0  1  0.331466  0.831956  0.620189  1
  Ca  Ca1  1  0.167740  0.499436  0.749034  1
  Ca  Ca2  1  0.665901  0.001660  0.748045  1
  Ca  Ca3  1  0.831754  0.501862  0.251196  1
  Ca  Ca4  1  0.331961  0.997312  0.249277  1
  La  La5  1  0.834931  0.671941  0.879322  1
  La  La6  1  0.494038  0.319755  0.904813  1
  La  La7  1  0.994864  0.181216  0.595264  1
  La  La8  1  0.506212  0.681746  0.402344  1
  La  La9  1  0.007560  0.817432  0.098519  1
  La  La10  1  0.505627  0.677575  0.097666  1
  La  La11  1  0.006153  0.819775  0.403197  1
  La  La12  1  0.492616  0.317000  0.594628  1
  La  La13  1  0.994462  0.183419  0.905164  1
  Ho  Ho14  1  0.335442  0.828499  0.876426  1
  Ho  Ho15  1  0.834256  0.671719  0.622889  1
  Ho  Ho16  1  0.666184  0.169980  0.374647  1
  Ho  Ho17  1  0.164696  0.329718  0.125493  1
  Ho  Ho18  1  0.664905  0.170445  0.126654  1
  Ho  Ho19  1  0.167104  0.328799  0.375255  1
  Sn  Sn20  1  0.324724  0.039992  0.037859  1
  Sn  Sn21  1  0.825650  0.459648  0.462075  1
  Sn  Sn22  1  0.680374  0.960713  0.534120  1
  Sn  Sn23  1  0.186847  0.541038  0.966548  1
  Sn  Sn24  1  0.666042  0.966600  0.964893  1
  Sn  Sn25  1  0.165273  0.534101  0.536450  1
  Sn  Sn26  1  0.330998  0.041298  0.458053  1
  Sn  Sn27  1  0.825512  0.454065  0.042306  1
  Sn  Sn28  1  0.533989  0.614690  0.745709  1
  Sn  Sn29  1  0.035859  0.885891  0.751006  1
  Sn  Sn30  1  0.465226  0.379682  0.250656  1
  Sn  Sn31  1  0.966415  0.119357  0.250620  1
  Sn  Sn32  1  0.293438  0.135982  0.750654  1
  Sn  Sn33  1  0.792261  0.365897  0.748113  1
  Sn  Sn34  1  0.705148  0.868093  0.250234  1
  Sn  Sn35  1  0.204363  0.631704  0.250678  1
