# generated using pymatgen
data_DyTh7(Sc3Ga4)4
_symmetry_space_group_name_H-M   'P 1'
_cell_length_a   7.40353141
_cell_length_b   7.67964628
_cell_length_c   14.55536240
_cell_angle_alpha   89.92693646
_cell_angle_beta   90.07774557
_cell_angle_gamma   90.05078357
_symmetry_Int_Tables_number   1
_chemical_formula_structural   DyTh7(Sc3Ga4)4
_chemical_formula_sum   'Dy1 Th7 Sc12 Ga16'
_cell_volume   827.56523995
_cell_formula_units_Z   1
loop_
 _symmetry_equiv_pos_site_id
 _symmetry_equiv_pos_as_xyz
  1  'x, y, z'
loop_
 _atom_site_type_symbol
 _atom_site_label
 _atom_site_symmetry_multiplicity
 _atom_site_fract_x
 _atom_site_fract_y
 _atom_site_fract_z
 _atom_site_occupancy
  Dy  Dy0  1  0.489638  0.678133  0.596267  1
  Th  Th1  1  0.010909  0.176611  0.095562  1
  Th  Th2  1  0.988699  0.822655  0.903459  1
  Th  Th3  1  0.488609  0.677313  0.904453  1
  Th  Th4  1  0.988827  0.822442  0.596411  1
  Th  Th5  1  0.510019  0.323487  0.095421  1
  Th  Th6  1  0.012384  0.177032  0.405299  1
  Th  Th7  1  0.510789  0.323337  0.405504  1
  Sc  Sc8  1  0.164832  0.500744  0.748736  1
  Sc  Sc9  1  0.835389  0.501397  0.250294  1
  Sc  Sc10  1  0.336549  0.998405  0.250462  1
  Sc  Sc11  1  0.663128  0.999052  0.748699  1
  Sc  Sc12  1  0.329179  0.172767  0.624683  1
  Sc  Sc13  1  0.670898  0.826913  0.376169  1
  Sc  Sc14  1  0.170906  0.672328  0.375766  1
  Sc  Sc15  1  0.671050  0.826599  0.124302  1
  Sc  Sc16  1  0.827763  0.328948  0.624307  1
  Sc  Sc17  1  0.329944  0.173070  0.874577  1
  Sc  Sc18  1  0.828724  0.327357  0.874603  1
  Sc  Sc19  1  0.171302  0.672723  0.124434  1
  Ga  Ga20  1  0.031222  0.119808  0.749986  1
  Ga  Ga21  1  0.968462  0.879143  0.249875  1
  Ga  Ga22  1  0.468704  0.621797  0.250244  1
  Ga  Ga23  1  0.530697  0.381024  0.749082  1
  Ga  Ga24  1  0.287966  0.874731  0.749309  1
  Ga  Ga25  1  0.712582  0.124222  0.249947  1
  Ga  Ga26  1  0.212699  0.375724  0.250097  1
  Ga  Ga27  1  0.784562  0.624964  0.749335  1
  Ga  Ga28  1  0.162997  0.464851  0.541295  1
  Ga  Ga29  1  0.840197  0.537472  0.459659  1
  Ga  Ga30  1  0.341995  0.959478  0.460635  1
  Ga  Ga31  1  0.840504  0.538419  0.040306  1
  Ga  Ga32  1  0.658215  0.034753  0.541398  1
  Ga  Ga33  1  0.159401  0.461944  0.959531  1
  Ga  Ga34  1  0.659752  0.038612  0.959455  1
  Ga  Ga35  1  0.340509  0.961744  0.040437  1
