# generated using pymatgen
data_Pr10AgSn6Br
_symmetry_space_group_name_H-M   'P 1'
_cell_length_a   9.64022300
_cell_length_b   9.64025239
_cell_length_c   6.79912100
_cell_angle_alpha   90.00107842
_cell_angle_beta   89.99946288
_cell_angle_gamma   120.00010658
_symmetry_Int_Tables_number   1
_chemical_formula_structural   Pr10AgSn6Br
_chemical_formula_sum   'Pr10 Ag1 Sn6 Br1'
_cell_volume   547.21553697
_cell_formula_units_Z   1
loop_
 _symmetry_equiv_pos_site_id
 _symmetry_equiv_pos_as_xyz
  1  'x, y, z'
loop_
 _atom_site_type_symbol
 _atom_site_label
 _atom_site_symmetry_multiplicity
 _atom_site_fract_x
 _atom_site_fract_y
 _atom_site_fract_z
 _atom_site_occupancy
  Pr  Pr0  1  0.268187  0.000001  0.748695  1
  Pr  Pr1  1  0.731813  0.999999  0.251305  1
  Pr  Pr2  1  0.000000  0.268192  0.748696  1
  Pr  Pr3  1  0.000000  0.731808  0.251304  1
  Pr  Pr4  1  0.731813  0.731814  0.748695  1
  Pr  Pr5  1  0.268187  0.268186  0.251305  1
  Pr  Pr6  1  0.333331  0.666666  0.500000  1
  Pr  Pr7  1  0.666669  0.333334  0.500000  1
  Pr  Pr8  1  0.666668  0.333333  0.000000  1
  Pr  Pr9  1  0.333332  0.666667  0.000000  1
  Ag  Ag10  1  0.000000  0.000000  0.000000  1
  Sn  Sn11  1  0.617165  0.000001  0.751620  1
  Sn  Sn12  1  0.382835  0.999999  0.248380  1
  Sn  Sn13  1  0.000000  0.617166  0.751618  1
  Sn  Sn14  1  0.000000  0.382834  0.248382  1
  Sn  Sn15  1  0.382835  0.382836  0.751620  1
  Sn  Sn16  1  0.617165  0.617164  0.248380  1
  Br  Br17  1  0.000000  0.000000  0.500000  1
