# generated using pymatgen
data_Nd3Ga4SiGe
_symmetry_space_group_name_H-M   'P 1'
_cell_length_a   4.23796836
_cell_length_b   4.30007749
_cell_length_c   22.03421163
_cell_angle_alpha   84.40031935
_cell_angle_beta   84.48144318
_cell_angle_gamma   89.99999566
_symmetry_Int_Tables_number   1
_chemical_formula_structural   Nd3Ga4SiGe
_chemical_formula_sum   'Nd6 Ga8 Si2 Ge2'
_cell_volume   397.75623324
_cell_formula_units_Z   2
loop_
 _symmetry_equiv_pos_site_id
 _symmetry_equiv_pos_as_xyz
  1  'x, y, z'
loop_
 _atom_site_type_symbol
 _atom_site_label
 _atom_site_symmetry_multiplicity
 _atom_site_fract_x
 _atom_site_fract_y
 _atom_site_fract_z
 _atom_site_occupancy
  Nd  Nd0  1  0.958861  0.708861  0.082277  1
  Nd  Nd1  1  0.291189  0.041189  0.417624  1
  Nd  Nd2  1  0.623359  0.373359  0.753280  1
  Nd  Nd3  1  0.376390  0.626390  0.247220  1
  Nd  Nd4  1  0.708771  0.958771  0.582457  1
  Nd  Nd5  1  0.041188  0.291188  0.917624  1
  Ga  Ga6  1  0.820367  0.570367  0.359266  1
  Ga  Ga7  1  0.152406  0.902406  0.695190  1
  Ga  Ga8  1  0.432360  0.182360  0.135280  1
  Ga  Ga9  1  0.765006  0.515006  0.469988  1
  Ga  Ga10  1  0.096673  0.846673  0.806652  1
  Ga  Ga11  1  0.846859  0.096859  0.306281  1
  Ga  Ga12  1  0.179341  0.429341  0.641319  1
  Ga  Ga13  1  0.513562  0.763562  0.972876  1
  Si  Si14  1  0.568619  0.818619  0.862761  1
  Si  Si15  1  0.487114  0.237114  0.025769  1
  Ge  Ge16  1  0.902682  0.152682  0.194636  1
  Ge  Ge17  1  0.235252  0.485252  0.529497  1
