# generated using pymatgen
data_PrY3(Si3Rh)2
_symmetry_space_group_name_H-M   'P 1'
_cell_length_a   8.20392900
_cell_length_b   8.20392968
_cell_length_c   8.07592900
_cell_angle_alpha   90.00000000
_cell_angle_beta   90.00000000
_cell_angle_gamma   119.99999322
_symmetry_Int_Tables_number   1
_chemical_formula_structural   PrY3(Si3Rh)2
_chemical_formula_sum   'Pr2 Y6 Si12 Rh4'
_cell_volume   470.72468761
_cell_formula_units_Z   2
loop_
 _symmetry_equiv_pos_site_id
 _symmetry_equiv_pos_as_xyz
  1  'x, y, z'
loop_
 _atom_site_type_symbol
 _atom_site_label
 _atom_site_symmetry_multiplicity
 _atom_site_fract_x
 _atom_site_fract_y
 _atom_site_fract_z
 _atom_site_occupancy
  Pr  Pr0  1  0.000000  0.000000  0.250000  1
  Pr  Pr1  1  0.000000  0.000000  0.750000  1
  Y  Y2  1  0.508493  0.491507  0.250000  1
  Y  Y3  1  0.508493  0.016984  0.250000  1
  Y  Y4  1  0.983016  0.491507  0.250000  1
  Y  Y5  1  0.491507  0.508493  0.750000  1
  Y  Y6  1  0.491507  0.983016  0.750000  1
  Y  Y7  1  0.016984  0.508493  0.750000  1
  Si  Si8  1  0.168510  0.831490  0.500659  1
  Si  Si9  1  0.168510  0.337020  0.500659  1
  Si  Si10  1  0.662980  0.831490  0.500659  1
  Si  Si11  1  0.831490  0.168510  0.499341  1
  Si  Si12  1  0.831490  0.662980  0.499341  1
  Si  Si13  1  0.337020  0.168510  0.499341  1
  Si  Si14  1  0.831490  0.168510  0.000659  1
  Si  Si15  1  0.831490  0.662980  0.000659  1
  Si  Si16  1  0.337020  0.168510  0.000659  1
  Si  Si17  1  0.168510  0.831490  0.999341  1
  Si  Si18  1  0.168510  0.337020  0.999341  1
  Si  Si19  1  0.662980  0.831490  0.999341  1
  Rh  Rh20  1  0.333333  0.666667  0.467145  1
  Rh  Rh21  1  0.666667  0.333333  0.532855  1
  Rh  Rh22  1  0.666667  0.333333  0.967145  1
  Rh  Rh23  1  0.333333  0.666667  0.032855  1
