# generated using pymatgen
data_Zr10Ga6O
_symmetry_space_group_name_H-M   'P 1'
_cell_length_a   8.10783000
_cell_length_b   8.10783022
_cell_length_c   5.74384800
_cell_angle_alpha   90.00000000
_cell_angle_beta   90.00000000
_cell_angle_gamma   119.99999912
_symmetry_Int_Tables_number   1
_chemical_formula_structural   Zr10Ga6O
_chemical_formula_sum   'Zr10 Ga6 O1'
_cell_volume   326.99631159
_cell_formula_units_Z   1
loop_
 _symmetry_equiv_pos_site_id
 _symmetry_equiv_pos_as_xyz
  1  'x, y, z'
loop_
 _atom_site_type_symbol
 _atom_site_label
 _atom_site_symmetry_multiplicity
 _atom_site_fract_x
 _atom_site_fract_y
 _atom_site_fract_z
 _atom_site_occupancy
  Zr  Zr0  1  0.000000  0.763173  0.254242  1
  Zr  Zr1  1  0.236827  0.236827  0.254242  1
  Zr  Zr2  1  0.763173  0.000000  0.254242  1
  Zr  Zr3  1  0.000000  0.236827  0.745758  1
  Zr  Zr4  1  0.763173  0.763173  0.745758  1
  Zr  Zr5  1  0.236827  0.000000  0.745758  1
  Zr  Zr6  1  0.333333  0.666667  0.500000  1
  Zr  Zr7  1  0.666667  0.333333  0.500000  1
  Zr  Zr8  1  0.666667  0.333333  0.000000  1
  Zr  Zr9  1  0.333333  0.666667  0.000000  1
  Ga  Ga10  1  0.000000  0.396561  0.246547  1
  Ga  Ga11  1  0.603439  0.603439  0.246547  1
  Ga  Ga12  1  0.396561  0.000000  0.246547  1
  Ga  Ga13  1  0.000000  0.603439  0.753453  1
  Ga  Ga14  1  0.396561  0.396561  0.753453  1
  Ga  Ga15  1  0.603439  0.000000  0.753453  1
  O  O16  1  0.000000  0.000000  0.500000  1
