# generated using pymatgen
data_Ca2B8IrRu6
_symmetry_space_group_name_H-M   'P 1'
_cell_length_a   6.44345600
_cell_length_b   6.44345600
_cell_length_c   10.13358600
_cell_angle_alpha   90.00000000
_cell_angle_beta   90.00000000
_cell_angle_gamma   90.00000000
_symmetry_Int_Tables_number   1
_chemical_formula_structural   Ca2B8IrRu6
_chemical_formula_sum   'Ca4 B16 Ir2 Ru12'
_cell_volume   420.72749252
_cell_formula_units_Z   2
loop_
 _symmetry_equiv_pos_site_id
 _symmetry_equiv_pos_as_xyz
  1  'x, y, z'
loop_
 _atom_site_type_symbol
 _atom_site_label
 _atom_site_symmetry_multiplicity
 _atom_site_fract_x
 _atom_site_fract_y
 _atom_site_fract_z
 _atom_site_occupancy
  Ca  Ca0  1  0.730111  0.884756  0.000000  1
  Ca  Ca1  1  0.115244  0.730111  0.500000  1
  Ca  Ca2  1  0.884756  0.269889  0.500000  1
  Ca  Ca3  1  0.269889  0.115244  0.000000  1
  B  B4  1  0.500000  0.000000  0.588013  1
  B  B5  1  0.500000  0.000000  0.411987  1
  B  B6  1  0.896701  0.276806  0.167517  1
  B  B7  1  0.103299  0.723194  0.832483  1
  B  B8  1  0.500000  0.500000  0.340670  1
  B  B9  1  0.500000  0.500000  0.840670  1
  B  B10  1  0.276806  0.103299  0.667517  1
  B  B11  1  0.103299  0.723194  0.167517  1
  B  B12  1  0.276806  0.103299  0.332483  1
  B  B13  1  0.896701  0.276806  0.832483  1
  B  B14  1  0.500000  0.500000  0.659330  1
  B  B15  1  0.500000  0.500000  0.159330  1
  B  B16  1  0.000000  0.500000  0.911987  1
  B  B17  1  0.723194  0.896701  0.667517  1
  B  B18  1  0.723194  0.896701  0.332483  1
  B  B19  1  0.000000  0.500000  0.088013  1
  Ir  Ir20  1  0.000000  0.000000  0.250000  1
  Ir  Ir21  1  0.000000  0.000000  0.750000  1
  Ru  Ru22  1  0.204964  0.393040  0.755446  1
  Ru  Ru23  1  0.406411  0.288342  0.500000  1
  Ru  Ru24  1  0.393040  0.795036  0.255446  1
  Ru  Ru25  1  0.204964  0.393040  0.244554  1
  Ru  Ru26  1  0.593589  0.711658  0.500000  1
  Ru  Ru27  1  0.606960  0.204964  0.744554  1
  Ru  Ru28  1  0.288342  0.593589  0.000000  1
  Ru  Ru29  1  0.711658  0.406411  0.000000  1
  Ru  Ru30  1  0.795036  0.606960  0.244554  1
  Ru  Ru31  1  0.795036  0.606960  0.755446  1
  Ru  Ru32  1  0.393040  0.795036  0.744554  1
  Ru  Ru33  1  0.606960  0.204964  0.255446  1
