# generated using pymatgen
data_Th8NiOs5Au2
_symmetry_space_group_name_H-M   'P 1'
_cell_length_a   4.38456300
_cell_length_b   5.91496376
_cell_length_c   14.77312993
_cell_angle_alpha   90.55177126
_cell_angle_beta   90.00000000
_cell_angle_gamma   90.00000000
_symmetry_Int_Tables_number   1
_chemical_formula_structural   Th8NiOs5Au2
_chemical_formula_sum   'Th8 Ni1 Os5 Au2'
_cell_volume   383.11643374
_cell_formula_units_Z   1
loop_
 _symmetry_equiv_pos_site_id
 _symmetry_equiv_pos_as_xyz
  1  'x, y, z'
loop_
 _atom_site_type_symbol
 _atom_site_label
 _atom_site_symmetry_multiplicity
 _atom_site_fract_x
 _atom_site_fract_y
 _atom_site_fract_z
 _atom_site_occupancy
  Th  Th0  1  0.250000  0.548904  0.286372  1
  Th  Th1  1  0.750000  0.474107  0.723540  1
  Th  Th2  1  0.250000  0.955235  0.785999  1
  Th  Th3  1  0.250000  0.758638  0.533599  1
  Th  Th4  1  0.250000  0.738950  0.031792  1
  Th  Th5  1  0.750000  0.262770  0.955553  1
  Th  Th6  1  0.750000  0.022653  0.221273  1
  Th  Th7  1  0.750000  0.240421  0.453362  1
  Ni  Ni8  1  0.750000  0.766558  0.902859  1
  Os  Os9  1  0.250000  0.060392  0.348085  1
  Os  Os10  1  0.750000  0.561871  0.139283  1
  Os  Os11  1  0.750000  0.723164  0.404554  1
  Os  Os12  1  0.250000  0.449564  0.854639  1
  Os  Os13  1  0.750000  0.940064  0.653426  1
  Au  Au14  1  0.250000  0.234102  0.102182  1
  Au  Au15  1  0.250000  0.262610  0.603484  1
