# generated using pymatgen
data_LiHo3ZnIn3Rh
_symmetry_space_group_name_H-M   'P 1'
_cell_length_a   7.87799200
_cell_length_b   7.87799219
_cell_length_c   3.65695900
_cell_angle_alpha   90.00000000
_cell_angle_beta   90.00000000
_cell_angle_gamma   119.99999808
_symmetry_Int_Tables_number   1
_chemical_formula_structural   LiHo3ZnIn3Rh
_chemical_formula_sum   'Li1 Ho3 Zn1 In3 Rh1'
_cell_volume   196.55396668
_cell_formula_units_Z   1
loop_
 _symmetry_equiv_pos_site_id
 _symmetry_equiv_pos_as_xyz
  1  'x, y, z'
loop_
 _atom_site_type_symbol
 _atom_site_label
 _atom_site_symmetry_multiplicity
 _atom_site_fract_x
 _atom_site_fract_y
 _atom_site_fract_z
 _atom_site_occupancy
  Li  Li0  1  0.000000  0.000000  0.500000  1
  Ho  Ho1  1  0.975576  0.395249  0.500000  1
  Ho  Ho2  1  0.604751  0.580326  0.500000  1
  Ho  Ho3  1  0.419674  0.024424  0.500000  1
  Zn  Zn4  1  0.333333  0.666667  0.000000  1
  In  In5  1  0.257447  0.266563  0.000000  1
  In  In6  1  0.009117  0.742553  0.000000  1
  In  In7  1  0.733437  0.990883  0.000000  1
  Rh  Rh8  1  0.666667  0.333333  0.000000  1
