# generated using pymatgen
data_ThPb2
_symmetry_space_group_name_H-M   'P 1'
_cell_length_a   8.95118800
_cell_length_b   8.95118855
_cell_length_c   4.54933600
_cell_angle_alpha   90.00000000
_cell_angle_beta   90.00000000
_cell_angle_gamma   149.64219274
_symmetry_Int_Tables_number   1
_chemical_formula_structural   ThPb2
_chemical_formula_sum   'Th2 Pb4'
_cell_volume   184.22277531
_cell_formula_units_Z   2
loop_
 _symmetry_equiv_pos_site_id
 _symmetry_equiv_pos_as_xyz
  1  'x, y, z'
loop_
 _atom_site_type_symbol
 _atom_site_label
 _atom_site_symmetry_multiplicity
 _atom_site_fract_x
 _atom_site_fract_y
 _atom_site_fract_z
 _atom_site_occupancy
  Th  Th0  1  0.901068  0.098932  0.750000  1
  Th  Th1  1  0.098932  0.901068  0.250000  1
  Pb  Pb2  1  0.566841  0.433159  0.750000  1
  Pb  Pb3  1  0.433159  0.566841  0.250000  1
  Pb  Pb4  1  0.250696  0.749304  0.750000  1
  Pb  Pb5  1  0.749304  0.250696  0.250000  1
