# generated using pymatgen
data_Tm6VFeB14
_symmetry_space_group_name_H-M   'P 1'
_cell_length_a   7.98720644
_cell_length_b   7.98720741
_cell_length_c   9.25206900
_cell_angle_alpha   90.00000000
_cell_angle_beta   90.00000000
_cell_angle_gamma   155.47136189
_symmetry_Int_Tables_number   1
_chemical_formula_structural   Tm6VFeB14
_chemical_formula_sum   'Tm6 V1 Fe1 B14'
_cell_volume   245.03701968
_cell_formula_units_Z   1
loop_
 _symmetry_equiv_pos_site_id
 _symmetry_equiv_pos_as_xyz
  1  'x, y, z'
loop_
 _atom_site_type_symbol
 _atom_site_label
 _atom_site_symmetry_multiplicity
 _atom_site_fract_x
 _atom_site_fract_y
 _atom_site_fract_z
 _atom_site_occupancy
  Tm  Tm0  1  0.893681  0.106319  0.441997  1
  Tm  Tm1  1  0.105389  0.894611  0.562598  1
  Tm  Tm2  1  0.893681  0.106319  0.058003  1
  Tm  Tm3  1  0.105389  0.894611  0.937402  1
  Tm  Tm4  1  0.243798  0.756202  0.250000  1
  Tm  Tm5  1  0.758189  0.241811  0.750000  1
  V  V6  1  0.051985  0.948015  0.250000  1
  Fe  Fe7  1  0.945922  0.054078  0.750000  1
  B  B8  1  0.728393  0.271607  0.468505  1
  B  B9  1  0.273090  0.726910  0.535390  1
  B  B10  1  0.728393  0.271607  0.031495  1
  B  B11  1  0.273090  0.726910  0.964610  1
  B  B12  1  0.633042  0.366958  0.148524  1
  B  B13  1  0.370395  0.629605  0.847447  1
  B  B14  1  0.633042  0.366958  0.351476  1
  B  B15  1  0.370395  0.629605  0.652553  1
  B  B16  1  0.519671  0.480329  0.092465  1
  B  B17  1  0.478808  0.521192  0.903086  1
  B  B18  1  0.519671  0.480329  0.407535  1
  B  B19  1  0.478808  0.521192  0.596914  1
  B  B20  1  0.454741  0.545259  0.250000  1
  B  B21  1  0.540431  0.459569  0.750000  1
