# generated using pymatgen
data_Nb6V4Si4Ge2B
_symmetry_space_group_name_H-M   'P 1'
_cell_length_a   7.50409201
_cell_length_b   7.52017573
_cell_length_c   5.07286401
_cell_angle_alpha   90.00319474
_cell_angle_beta   89.99358919
_cell_angle_gamma   119.92928495
_symmetry_Int_Tables_number   1
_chemical_formula_structural   Nb6V4Si4Ge2B
_chemical_formula_sum   'Nb6 V4 Si4 Ge2 B1'
_cell_volume   248.09557241
_cell_formula_units_Z   1
loop_
 _symmetry_equiv_pos_site_id
 _symmetry_equiv_pos_as_xyz
  1  'x, y, z'
loop_
 _atom_site_type_symbol
 _atom_site_label
 _atom_site_symmetry_multiplicity
 _atom_site_fract_x
 _atom_site_fract_y
 _atom_site_fract_z
 _atom_site_occupancy
  Nb  Nb0  1  0.003955  0.758227  0.245770  1
  Nb  Nb1  1  0.245728  0.241773  0.245770  1
  Nb  Nb2  1  0.753164  0.000000  0.246290  1
  Nb  Nb3  1  0.999858  0.245526  0.753307  1
  Nb  Nb4  1  0.754332  0.754474  0.753307  1
  Nb  Nb5  1  0.247495  0.000000  0.753792  1
  V  V6  1  0.333934  0.670367  0.504170  1
  V  V7  1  0.663568  0.329633  0.504170  1
  V  V8  1  0.664070  0.330146  0.995801  1
  V  V9  1  0.333923  0.669854  0.995801  1
  Si  Si10  1  0.405354  0.000000  0.246654  1
  Si  Si11  1  0.999157  0.597579  0.752429  1
  Si  Si12  1  0.401578  0.402421  0.752429  1
  Si  Si13  1  0.597585  0.000000  0.752874  1
  Ge  Ge14  1  0.000681  0.404659  0.248353  1
  Ge  Ge15  1  0.596022  0.595341  0.248353  1
  B  B16  1  0.999596  0.000000  0.500731  1
