# generated using pymatgen
data_Yb3ZrOs7W
_symmetry_space_group_name_H-M   'P 1'
_cell_length_a   5.39939400
_cell_length_b   5.39939318
_cell_length_c   8.51232000
_cell_angle_alpha   90.00000000
_cell_angle_beta   90.00000000
_cell_angle_gamma   119.99999277
_symmetry_Int_Tables_number   1
_chemical_formula_structural   Yb3ZrOs7W
_chemical_formula_sum   'Yb3 Zr1 Os7 W1'
_cell_volume   214.91591548
_cell_formula_units_Z   1
loop_
 _symmetry_equiv_pos_site_id
 _symmetry_equiv_pos_as_xyz
  1  'x, y, z'
loop_
 _atom_site_type_symbol
 _atom_site_label
 _atom_site_symmetry_multiplicity
 _atom_site_fract_x
 _atom_site_fract_y
 _atom_site_fract_z
 _atom_site_occupancy
  Yb  Yb0  1  0.666667  0.333333  0.574194  1
  Yb  Yb1  1  0.666667  0.333333  0.936564  1
  Yb  Yb2  1  0.333333  0.666667  0.056688  1
  Zr  Zr3  1  0.333333  0.666667  0.424521  1
  Os  Os4  1  0.000000  0.000000  0.002665  1
  Os  Os5  1  0.826605  0.173395  0.255466  1
  Os  Os6  1  0.826605  0.653211  0.255466  1
  Os  Os7  1  0.346789  0.173395  0.255466  1
  Os  Os8  1  0.173477  0.826523  0.745808  1
  Os  Os9  1  0.173477  0.346954  0.745808  1
  Os  Os10  1  0.653046  0.826523  0.745808  1
  W  W11  1  0.000000  0.000000  0.501547  1
