# generated using pymatgen
data_Nb6Si7(NiRu)8
_symmetry_space_group_name_H-M   'P 1'
_cell_length_a   8.19307294
_cell_length_b   8.19307386
_cell_length_c   8.19307300
_cell_angle_alpha   59.99999944
_cell_angle_beta   59.99999574
_cell_angle_gamma   60.00000319
_symmetry_Int_Tables_number   1
_chemical_formula_structural   Nb6Si7(NiRu)8
_chemical_formula_sum   'Nb6 Si7 Ni8 Ru8'
_cell_volume   388.88886909
_cell_formula_units_Z   1
loop_
 _symmetry_equiv_pos_site_id
 _symmetry_equiv_pos_as_xyz
  1  'x, y, z'
loop_
 _atom_site_type_symbol
 _atom_site_label
 _atom_site_symmetry_multiplicity
 _atom_site_fract_x
 _atom_site_fract_y
 _atom_site_fract_z
 _atom_site_occupancy
  Nb  Nb0  1  0.703019  0.703019  0.296981  1
  Nb  Nb1  1  0.296981  0.703019  0.296981  1
  Nb  Nb2  1  0.703019  0.296981  0.296981  1
  Nb  Nb3  1  0.296981  0.296981  0.703019  1
  Nb  Nb4  1  0.703019  0.296981  0.703019  1
  Nb  Nb5  1  0.296981  0.703019  0.703019  1
  Si  Si6  1  0.000000  0.000000  0.000000  1
  Si  Si7  1  0.000000  0.000000  0.500000  1
  Si  Si8  1  0.500000  0.000000  0.500000  1
  Si  Si9  1  0.000000  0.500000  0.500000  1
  Si  Si10  1  0.500000  0.500000  0.000000  1
  Si  Si11  1  0.000000  0.500000  0.000000  1
  Si  Si12  1  0.500000  0.000000  0.000000  1
  Ni  Ni13  1  0.662359  0.662359  0.012924  1
  Ni  Ni14  1  0.662359  0.012924  0.662359  1
  Ni  Ni15  1  0.012924  0.662359  0.662359  1
  Ni  Ni16  1  0.662359  0.662359  0.662359  1
  Ni  Ni17  1  0.337641  0.337641  0.987076  1
  Ni  Ni18  1  0.337641  0.987076  0.337641  1
  Ni  Ni19  1  0.987076  0.337641  0.337641  1
  Ni  Ni20  1  0.337641  0.337641  0.337641  1
  Ru  Ru21  1  0.878859  0.878859  0.363421  1
  Ru  Ru22  1  0.878859  0.363421  0.878859  1
  Ru  Ru23  1  0.363421  0.878859  0.878859  1
  Ru  Ru24  1  0.878859  0.878859  0.878859  1
  Ru  Ru25  1  0.121141  0.121141  0.636579  1
  Ru  Ru26  1  0.121141  0.636579  0.121141  1
  Ru  Ru27  1  0.636579  0.121141  0.121141  1
  Ru  Ru28  1  0.121141  0.121141  0.121141  1
