# generated using pymatgen
data_Er8Re11Si16Os
_symmetry_space_group_name_H-M   'P 1'
_cell_length_a   6.75274136
_cell_length_b   6.75274175
_cell_length_c   12.72387419
_cell_angle_alpha   90.03725481
_cell_angle_beta   89.96274338
_cell_angle_gamma   90.41480504
_symmetry_Int_Tables_number   1
_chemical_formula_structural   Er8Re11Si16Os
_chemical_formula_sum   'Er8 Re11 Si16 Os1'
_cell_volume   580.18708843
_cell_formula_units_Z   1
loop_
 _symmetry_equiv_pos_site_id
 _symmetry_equiv_pos_as_xyz
  1  'x, y, z'
loop_
 _atom_site_type_symbol
 _atom_site_label
 _atom_site_symmetry_multiplicity
 _atom_site_fract_x
 _atom_site_fract_y
 _atom_site_fract_z
 _atom_site_occupancy
  Er  Er0  1  0.005924  0.661306  0.030174  1
  Er  Er1  1  0.994054  0.337851  0.530545  1
  Er  Er2  1  0.337851  0.994054  0.469455  1
  Er  Er3  1  0.163932  0.490361  0.781235  1
  Er  Er4  1  0.836215  0.508753  0.280804  1
  Er  Er5  1  0.490361  0.163932  0.218765  1
  Er  Er6  1  0.508753  0.836215  0.719196  1
  Er  Er7  1  0.661306  0.005924  0.969826  1
  Re  Re8  1  0.162862  0.837150  0.249843  1
  Re  Re9  1  0.333468  0.333468  0.000000  1
  Re  Re10  1  0.027119  0.808390  0.631195  1
  Re  Re11  1  0.974538  0.191542  0.132387  1
  Re  Re12  1  0.808390  0.027119  0.368805  1
  Re  Re13  1  0.315058  0.485109  0.379869  1
  Re  Re14  1  0.684891  0.515516  0.879105  1
  Re  Re15  1  0.485109  0.315058  0.620131  1
  Re  Re16  1  0.515516  0.684891  0.120895  1
  Re  Re17  1  0.191542  0.974538  0.867613  1
  Re  Re18  1  0.837150  0.162862  0.750157  1
  Si  Si19  1  0.018674  0.731455  0.438410  1
  Si  Si20  1  0.611827  0.307605  0.435408  1
  Si  Si21  1  0.386438  0.692914  0.935130  1
  Si  Si22  1  0.197440  0.113839  0.682985  1
  Si  Si23  1  0.307605  0.611827  0.564592  1
  Si  Si24  1  0.692914  0.386438  0.064870  1
  Si  Si25  1  0.802959  0.886138  0.183377  1
  Si  Si26  1  0.113839  0.197440  0.317015  1
  Si  Si27  1  0.980802  0.268998  0.938436  1
  Si  Si28  1  0.731455  0.018674  0.561590  1
  Si  Si29  1  0.220865  0.479882  0.188064  1
  Si  Si30  1  0.778908  0.519069  0.688761  1
  Si  Si31  1  0.479882  0.220865  0.811936  1
  Si  Si32  1  0.519069  0.778908  0.311239  1
  Si  Si33  1  0.268998  0.980802  0.061564  1
  Si  Si34  1  0.886138  0.802959  0.816623  1
  Os  Os35  1  0.668149  0.668149  0.500000  1
