# generated using pymatgen
data_Ho2Nb3Ni9P7
_symmetry_space_group_name_H-M   'P 1'
_cell_length_a   9.30450900
_cell_length_b   9.30450911
_cell_length_c   3.70550400
_cell_angle_alpha   90.00000000
_cell_angle_beta   90.00000000
_cell_angle_gamma   120.00000317
_symmetry_Int_Tables_number   1
_chemical_formula_structural   Ho2Nb3Ni9P7
_chemical_formula_sum   'Ho2 Nb3 Ni9 P7'
_cell_volume   277.82084627
_cell_formula_units_Z   1
loop_
 _symmetry_equiv_pos_site_id
 _symmetry_equiv_pos_as_xyz
  1  'x, y, z'
loop_
 _atom_site_type_symbol
 _atom_site_label
 _atom_site_symmetry_multiplicity
 _atom_site_fract_x
 _atom_site_fract_y
 _atom_site_fract_z
 _atom_site_occupancy
  Ho  Ho0  1  0.333333  0.666667  0.000000  1
  Ho  Ho1  1  0.666667  0.333333  0.500000  1
  Nb  Nb2  1  0.225293  0.119838  0.500000  1
  Nb  Nb3  1  0.880162  0.105454  0.500000  1
  Nb  Nb4  1  0.894546  0.774707  0.500000  1
  Ni  Ni5  1  0.129067  0.287376  0.000000  1
  Ni  Ni6  1  0.712624  0.841692  0.000000  1
  Ni  Ni7  1  0.158308  0.870933  0.000000  1
  Ni  Ni8  1  0.433698  0.370052  0.000000  1
  Ni  Ni9  1  0.629948  0.063646  0.000000  1
  Ni  Ni10  1  0.936354  0.566302  0.000000  1
  Ni  Ni11  1  0.058048  0.445930  0.500000  1
  Ni  Ni12  1  0.554070  0.612119  0.500000  1
  Ni  Ni13  1  0.387881  0.941952  0.500000  1
  P  P14  1  0.289285  0.410831  0.500000  1
  P  P15  1  0.589169  0.878454  0.500000  1
  P  P16  1  0.121546  0.710715  0.500000  1
  P  P17  1  0.416359  0.112056  0.000000  1
  P  P18  1  0.887944  0.304302  0.000000  1
  P  P19  1  0.695698  0.583641  0.000000  1
  P  P20  1  0.000000  0.000000  0.000000  1
