# generated using pymatgen
data_Ca6Tb7Nd7Sn16
_symmetry_space_group_name_H-M   'P 1'
_cell_length_a   8.00952728
_cell_length_b   8.41691774
_cell_length_c   15.91470050
_cell_angle_alpha   90.16310137
_cell_angle_beta   89.76311745
_cell_angle_gamma   89.58712524
_symmetry_Int_Tables_number   1
_chemical_formula_structural   Ca6Tb7Nd7Sn16
_chemical_formula_sum   'Ca6 Tb7 Nd7 Sn16'
_cell_volume   1072.85654014
_cell_formula_units_Z   1
loop_
 _symmetry_equiv_pos_site_id
 _symmetry_equiv_pos_as_xyz
  1  'x, y, z'
loop_
 _atom_site_type_symbol
 _atom_site_label
 _atom_site_symmetry_multiplicity
 _atom_site_fract_x
 _atom_site_fract_y
 _atom_site_fract_z
 _atom_site_occupancy
  Ca  Ca0  1  0.996915  0.183344  0.407969  1
  Ca  Ca1  1  0.334281  0.829318  0.122486  1
  Ca  Ca2  1  0.165516  0.498111  0.249068  1
  Ca  Ca3  1  0.665438  0.005088  0.249857  1
  Ca  Ca4  1  0.334934  0.994749  0.750426  1
  Ca  Ca5  1  0.834237  0.503216  0.750047  1
  Tb  Tb6  1  0.164787  0.330376  0.624918  1
  Tb  Tb7  1  0.505910  0.683783  0.903454  1
  Tb  Tb8  1  0.836214  0.672599  0.125039  1
  Tb  Tb9  1  0.165913  0.327914  0.874512  1
  Tb  Tb10  1  0.507556  0.683832  0.596264  1
  Tb  Tb11  1  0.665944  0.172330  0.624985  1
  Tb  Tb12  1  0.835713  0.670230  0.376876  1
  Nd  Nd13  1  0.994185  0.179667  0.090931  1
  Nd  Nd14  1  0.005024  0.818125  0.903513  1
  Nd  Nd15  1  0.664225  0.171982  0.875366  1
  Nd  Nd16  1  0.491427  0.315918  0.094688  1
  Nd  Nd17  1  0.334325  0.829908  0.376353  1
  Nd  Nd18  1  0.005368  0.816874  0.597169  1
  Nd  Nd19  1  0.495047  0.317516  0.405616  1
  Sn  Sn20  1  0.821462  0.465530  0.540202  1
  Sn  Sn21  1  0.675392  0.961675  0.464312  1
  Sn  Sn22  1  0.702511  0.856908  0.749418  1
  Sn  Sn23  1  0.177475  0.541410  0.465754  1
  Sn  Sn24  1  0.322779  0.035215  0.960216  1
  Sn  Sn25  1  0.795095  0.364734  0.249324  1
  Sn  Sn26  1  0.823470  0.465054  0.962852  1
  Sn  Sn27  1  0.536762  0.604143  0.249793  1
  Sn  Sn28  1  0.172603  0.536051  0.036362  1
  Sn  Sn29  1  0.465723  0.392572  0.749417  1
  Sn  Sn30  1  0.206726  0.638491  0.749538  1
  Sn  Sn31  1  0.968521  0.111707  0.746714  1
  Sn  Sn32  1  0.330047  0.036268  0.541754  1
  Sn  Sn33  1  0.677642  0.957023  0.036306  1
  Sn  Sn34  1  0.289414  0.142208  0.248928  1
  Sn  Sn35  1  0.031421  0.886133  0.249573  1
