# generated using pymatgen
data_La2TbSm(Mo2O7)2
_symmetry_space_group_name_H-M   'P 1'
_cell_length_a   7.59943615
_cell_length_b   7.51402643
_cell_length_c   7.49003639
_cell_angle_alpha   59.35746698
_cell_angle_beta   59.51565822
_cell_angle_gamma   59.62327942
_symmetry_Int_Tables_number   1
_chemical_formula_structural   La2TbSm(Mo2O7)2
_chemical_formula_sum   'La2 Tb1 Sm1 Mo4 O14'
_cell_volume   298.97811815
_cell_formula_units_Z   1
loop_
 _symmetry_equiv_pos_site_id
 _symmetry_equiv_pos_as_xyz
  1  'x, y, z'
loop_
 _atom_site_type_symbol
 _atom_site_label
 _atom_site_symmetry_multiplicity
 _atom_site_fract_x
 _atom_site_fract_y
 _atom_site_fract_z
 _atom_site_occupancy
  La  La0  1  0.125000  0.125000  0.125000  1
  La  La1  1  0.625000  0.125000  0.125000  1
  Tb  Tb2  1  0.125000  0.125000  0.625000  1
  Sm  Sm3  1  0.125000  0.625000  0.125000  1
  Mo  Mo4  1  0.625000  0.625000  0.625000  1
  Mo  Mo5  1  0.125000  0.625000  0.625000  1
  Mo  Mo6  1  0.625000  0.125000  0.625000  1
  Mo  Mo7  1  0.625000  0.625000  0.125000  1
  O  O8  1  0.290606  0.290360  0.700262  1
  O  O9  1  0.290615  0.701868  0.291287  1
  O  O10  1  0.959385  0.548132  0.958713  1
  O  O11  1  0.706582  0.293922  0.292913  1
  O  O12  1  0.002459  0.000465  0.994617  1
  O  O13  1  0.533770  0.548132  0.958713  1
  O  O14  1  0.286489  0.718017  0.709004  1
  O  O15  1  0.531228  0.959640  0.549738  1
  O  O16  1  0.543418  0.956078  0.957087  1
  O  O17  1  0.716230  0.701868  0.291287  1
  O  O18  1  0.247541  0.249535  0.255383  1
  O  O19  1  0.959394  0.959640  0.549738  1
  O  O20  1  0.963511  0.531983  0.540996  1
  O  O21  1  0.718772  0.290360  0.700262  1
