# generated using pymatgen
data_Ta3Ti2Nb(B2Ru5)2
_symmetry_space_group_name_H-M   'P 1'
_cell_length_a   9.35770473
_cell_length_b   9.35770478
_cell_length_c   3.01751800
_cell_angle_alpha   90.00000000
_cell_angle_beta   90.00000000
_cell_angle_gamma   90.05164015
_symmetry_Int_Tables_number   1
_chemical_formula_structural   Ta3Ti2Nb(B2Ru5)2
_chemical_formula_sum   'Ta3 Ti2 Nb1 B4 Ru10'
_cell_volume   264.23379984
_cell_formula_units_Z   1
loop_
 _symmetry_equiv_pos_site_id
 _symmetry_equiv_pos_as_xyz
  1  'x, y, z'
loop_
 _atom_site_type_symbol
 _atom_site_label
 _atom_site_symmetry_multiplicity
 _atom_site_fract_x
 _atom_site_fract_y
 _atom_site_fract_z
 _atom_site_occupancy
  Ta  Ta0  1  0.177291  0.322709  0.000000  1
  Ta  Ta1  1  0.322742  0.822615  0.000000  1
  Ta  Ta2  1  0.677385  0.177258  0.000000  1
  Ti  Ti3  1  0.499779  0.499845  0.000000  1
  Ti  Ti4  1  0.000155  0.000221  0.000000  1
  Nb  Nb5  1  0.822777  0.677223  0.000000  1
  B  B6  1  0.623860  0.876140  0.000000  1
  B  B7  1  0.376584  0.123416  0.000000  1
  B  B8  1  0.123196  0.623536  0.000000  1
  B  B9  1  0.876464  0.376804  0.000000  1
  Ru  Ru10  1  0.569338  0.716216  0.500000  1
  Ru  Ru11  1  0.429276  0.284108  0.500000  1
  Ru  Ru12  1  0.071667  0.784378  0.500000  1
  Ru  Ru13  1  0.929716  0.215933  0.500000  1
  Ru  Ru14  1  0.284067  0.570284  0.500000  1
  Ru  Ru15  1  0.715622  0.428333  0.500000  1
  Ru  Ru16  1  0.215892  0.070724  0.500000  1
  Ru  Ru17  1  0.783784  0.930662  0.500000  1
  Ru  Ru18  1  0.499911  0.000089  0.500000  1
  Ru  Ru19  1  0.000491  0.499509  0.500000  1
