# generated using pymatgen
data_Pr7Nd3IrRu3
_symmetry_space_group_name_H-M   'P 1'
_cell_length_a   8.96767201
_cell_length_b   8.99396335
_cell_length_c   7.42098068
_cell_angle_alpha   83.59916791
_cell_angle_beta   83.61597747
_cell_angle_gamma   43.38807958
_symmetry_Int_Tables_number   1
_chemical_formula_structural   Pr7Nd3IrRu3
_chemical_formula_sum   'Pr7 Nd3 Ir1 Ru3'
_cell_volume   408.19548349
_cell_formula_units_Z   1
loop_
 _symmetry_equiv_pos_site_id
 _symmetry_equiv_pos_as_xyz
  1  'x, y, z'
loop_
 _atom_site_type_symbol
 _atom_site_label
 _atom_site_symmetry_multiplicity
 _atom_site_fract_x
 _atom_site_fract_y
 _atom_site_fract_z
 _atom_site_occupancy
  Pr  Pr0  1  0.016188  0.799877  0.916951  1
  Pr  Pr1  1  0.201910  0.983597  0.586050  1
  Pr  Pr2  1  0.984124  0.200725  0.086311  1
  Pr  Pr3  1  0.795729  0.020519  0.413317  1
  Pr  Pr4  1  0.358958  0.207528  0.815394  1
  Pr  Pr5  1  0.789831  0.641922  0.685129  1
  Pr  Pr6  1  0.642510  0.790875  0.186047  1
  Nd  Nd7  1  0.208605  0.355864  0.314450  1
  Nd  Nd8  1  0.572816  0.426977  0.749561  1
  Nd  Nd9  1  0.427500  0.574021  0.248178  1
  Ir  Ir10  1  0.179857  0.595989  0.574366  1
  Ru  Ru11  1  0.398813  0.824057  0.924198  1
  Ru  Ru12  1  0.824601  0.399379  0.425999  1
  Ru  Ru13  1  0.598557  0.178668  0.074049  1
