# generated using pymatgen
data_CeTh3(C2Se)2
_symmetry_space_group_name_H-M   'P 1'
_cell_length_a   7.46542780
_cell_length_b   7.45467625
_cell_length_c   6.79893348
_cell_angle_alpha   78.73670059
_cell_angle_beta   78.60576494
_cell_angle_gamma   32.50155510
_symmetry_Int_Tables_number   1
_chemical_formula_structural   CeTh3(C2Se)2
_chemical_formula_sum   'Ce1 Th3 C4 Se2'
_cell_volume   199.00713505
_cell_formula_units_Z   1
loop_
 _symmetry_equiv_pos_site_id
 _symmetry_equiv_pos_as_xyz
  1  'x, y, z'
loop_
 _atom_site_type_symbol
 _atom_site_label
 _atom_site_symmetry_multiplicity
 _atom_site_fract_x
 _atom_site_fract_y
 _atom_site_fract_z
 _atom_site_occupancy
  Ce  Ce0  1  0.444716  0.847467  0.852692  1
  Th  Th1  1  0.846671  0.443533  0.349937  1
  Th  Th2  1  0.559419  0.151947  0.147067  1
  Th  Th3  1  0.148949  0.558690  0.650599  1
  C  C4  1  0.351134  0.093404  0.469797  1
  C  C5  1  0.912730  0.643974  0.029662  1
  C  C6  1  0.645301  0.909883  0.527859  1
  C  C7  1  0.094894  0.348468  0.972033  1
  Se  Se8  1  0.205608  0.794192  0.250294  1
  Se  Se9  1  0.790578  0.208442  0.750061  1
