# generated using pymatgen
data_Sc6Al12Mo4Os7
_symmetry_space_group_name_H-M   'P 1'
_cell_length_a   8.79442507
_cell_length_b   8.79527033
_cell_length_c   8.79485600
_cell_angle_alpha   60.00158639
_cell_angle_beta   59.99845577
_cell_angle_gamma   59.99827673
_symmetry_Int_Tables_number   1
_chemical_formula_structural   Sc6Al12Mo4Os7
_chemical_formula_sum   'Sc6 Al12 Mo4 Os7'
_cell_volume   481.02191393
_cell_formula_units_Z   1
loop_
 _symmetry_equiv_pos_site_id
 _symmetry_equiv_pos_as_xyz
  1  'x, y, z'
loop_
 _atom_site_type_symbol
 _atom_site_label
 _atom_site_symmetry_multiplicity
 _atom_site_fract_x
 _atom_site_fract_y
 _atom_site_fract_z
 _atom_site_occupancy
  Sc  Sc0  1  0.707530  0.707553  0.292445  1
  Sc  Sc1  1  0.292467  0.707556  0.292425  1
  Sc  Sc2  1  0.707515  0.292440  0.292514  1
  Sc  Sc3  1  0.292507  0.292404  0.707548  1
  Sc  Sc4  1  0.707514  0.292421  0.707537  1
  Sc  Sc5  1  0.292452  0.707560  0.707559  1
  Al  Al6  1  0.121313  0.121304  0.636096  1
  Al  Al7  1  0.121312  0.636096  0.121300  1
  Al  Al8  1  0.636081  0.121308  0.121306  1
  Al  Al9  1  0.121315  0.121297  0.121291  1
  Al  Al10  1  0.659348  0.659405  0.021839  1
  Al  Al11  1  0.659326  0.021905  0.659385  1
  Al  Al12  1  0.021890  0.659365  0.659367  1
  Al  Al13  1  0.659360  0.659404  0.659407  1
  Al  Al14  1  0.335054  0.335025  0.994893  1
  Al  Al15  1  0.335054  0.994888  0.335028  1
  Al  Al16  1  0.994889  0.335037  0.335040  1
  Al  Al17  1  0.335049  0.335029  0.335030  1
  Mo  Mo18  1  0.879506  0.879498  0.361463  1
  Mo  Mo19  1  0.879490  0.361464  0.879518  1
  Mo  Mo20  1  0.361442  0.879494  0.879531  1
  Mo  Mo21  1  0.879506  0.879504  0.879530  1
  Os  Os22  1  0.999947  0.000026  0.000029  1
  Os  Os23  1  0.997037  0.997089  0.502925  1
  Os  Os24  1  0.503011  0.997102  0.502824  1
  Os  Os25  1  0.997046  0.502955  0.502940  1
  Os  Os26  1  0.502998  0.502827  0.997089  1
  Os  Os27  1  0.997051  0.502936  0.997067  1
  Os  Os28  1  0.502990  0.997109  0.997074  1
