# generated using pymatgen
data_Hf4TiGaRh10
_symmetry_space_group_name_H-M   'P 1'
_cell_length_a   4.14482100
_cell_length_b   5.54763933
_cell_length_c   10.93169629
_cell_angle_alpha   90.38440086
_cell_angle_beta   90.00000000
_cell_angle_gamma   90.00000000
_symmetry_Int_Tables_number   1
_chemical_formula_structural   Hf4TiGaRh10
_chemical_formula_sum   'Hf4 Ti1 Ga1 Rh10'
_cell_volume   251.35746096
_cell_formula_units_Z   1
loop_
 _symmetry_equiv_pos_site_id
 _symmetry_equiv_pos_as_xyz
  1  'x, y, z'
loop_
 _atom_site_type_symbol
 _atom_site_label
 _atom_site_symmetry_multiplicity
 _atom_site_fract_x
 _atom_site_fract_y
 _atom_site_fract_z
 _atom_site_occupancy
  Hf  Hf0  1  0.500000  0.170738  0.644055  1
  Hf  Hf1  1  0.500000  0.829262  0.355945  1
  Hf  Hf2  1  0.500000  0.682310  0.861003  1
  Hf  Hf3  1  0.500000  0.317690  0.138997  1
  Ti  Ti4  1  0.000000  0.500000  0.500000  1
  Ga  Ga5  1  0.000000  0.000000  0.000000  1
  Rh  Rh6  1  0.500000  0.191168  0.890739  1
  Rh  Rh7  1  0.500000  0.808832  0.109261  1
  Rh  Rh8  1  0.500000  0.682996  0.604958  1
  Rh  Rh9  1  0.500000  0.317004  0.395042  1
  Rh  Rh10  1  0.000000  0.426972  0.742429  1
  Rh  Rh11  1  0.000000  0.573028  0.257571  1
  Rh  Rh12  1  0.000000  0.000000  0.500000  1
  Rh  Rh13  1  0.000000  0.500000  0.000000  1
  Rh  Rh14  1  0.000000  0.070813  0.244105  1
  Rh  Rh15  1  0.000000  0.929187  0.755895  1
