# generated using pymatgen
data_TbLu2Fe8Co
_symmetry_space_group_name_H-M   'P 1'
_cell_length_a   8.57409547
_cell_length_b   8.57409504
_cell_length_c   8.57409576
_cell_angle_alpha   34.43524243
_cell_angle_beta   34.43524831
_cell_angle_gamma   34.43524596
_symmetry_Int_Tables_number   1
_chemical_formula_structural   TbLu2Fe8Co
_chemical_formula_sum   'Tb1 Lu2 Fe8 Co1'
_cell_volume   179.79116856
_cell_formula_units_Z   1
loop_
 _symmetry_equiv_pos_site_id
 _symmetry_equiv_pos_as_xyz
  1  'x, y, z'
loop_
 _atom_site_type_symbol
 _atom_site_label
 _atom_site_symmetry_multiplicity
 _atom_site_fract_x
 _atom_site_fract_y
 _atom_site_fract_z
 _atom_site_occupancy
  Tb  Tb0  1  0.000000  0.000000  0.000000  1
  Lu  Lu1  1  0.142272  0.142272  0.142272  1
  Lu  Lu2  1  0.857728  0.857728  0.857728  1
  Fe  Fe3  1  0.332711  0.332711  0.332711  1
  Fe  Fe4  1  0.667289  0.667289  0.667289  1
  Fe  Fe5  1  0.082163  0.583275  0.583275  1
  Fe  Fe6  1  0.583275  0.583275  0.082163  1
  Fe  Fe7  1  0.583275  0.082163  0.583275  1
  Fe  Fe8  1  0.416725  0.917837  0.416725  1
  Fe  Fe9  1  0.917837  0.416725  0.416725  1
  Fe  Fe10  1  0.416725  0.416725  0.917837  1
  Co  Co11  1  0.500000  0.500000  0.500000  1
