# generated using pymatgen
data_Ca3Ho3Ge2BO13
_symmetry_space_group_name_H-M   'P 1'
_cell_length_a   7.42474600
_cell_length_b   7.43251400
_cell_length_c   10.52197900
_cell_angle_alpha   90.00000000
_cell_angle_beta   90.00000000
_cell_angle_gamma   90.00000000
_symmetry_Int_Tables_number   1
_chemical_formula_structural   Ca3Ho3Ge2BO13
_chemical_formula_sum   'Ca6 Ho6 Ge4 B2 O26'
_cell_volume   580.65045096
_cell_formula_units_Z   2
loop_
 _symmetry_equiv_pos_site_id
 _symmetry_equiv_pos_as_xyz
  1  'x, y, z'
loop_
 _atom_site_type_symbol
 _atom_site_label
 _atom_site_symmetry_multiplicity
 _atom_site_fract_x
 _atom_site_fract_y
 _atom_site_fract_z
 _atom_site_occupancy
  Ca  Ca0  1  0.729123  0.769774  0.502172  1
  Ca  Ca1  1  0.000000  0.500000  0.231398  1
  Ca  Ca2  1  0.770877  0.269774  0.002172  1
  Ca  Ca3  1  0.500000  0.000000  0.731398  1
  Ca  Ca4  1  0.229123  0.730226  0.002172  1
  Ca  Ca5  1  0.270877  0.230226  0.502172  1
  Ho  Ho6  1  0.227858  0.272091  0.001872  1
  Ho  Ho7  1  0.727858  0.227909  0.501872  1
  Ho  Ho8  1  0.500000  0.000000  0.274030  1
  Ho  Ho9  1  0.272142  0.772091  0.501872  1
  Ho  Ho10  1  0.772142  0.727909  0.001872  1
  Ho  Ho11  1  0.000000  0.500000  0.774030  1
  Ge  Ge12  1  0.500000  0.500000  0.247079  1
  Ge  Ge13  1  0.000000  0.000000  0.747079  1
  Ge  Ge14  1  0.500000  0.500000  0.745801  1
  Ge  Ge15  1  0.000000  0.000000  0.245801  1
  B  B16  1  0.500000  0.000000  0.003898  1
  B  B17  1  0.000000  0.500000  0.503898  1
  O  O18  1  0.000000  0.500000  0.991679  1
  O  O19  1  0.008492  0.199093  0.846180  1
  O  O20  1  0.500000  0.000000  0.491679  1
  O  O21  1  0.803768  0.008684  0.647967  1
  O  O22  1  0.991508  0.800907  0.846180  1
  O  O23  1  0.491508  0.699093  0.346180  1
  O  O24  1  0.835751  0.493852  0.424785  1
  O  O25  1  0.303768  0.491316  0.147967  1
  O  O26  1  0.696232  0.508684  0.147967  1
  O  O27  1  0.508492  0.300907  0.346180  1
  O  O28  1  0.494924  0.162581  0.088271  1
  O  O29  1  0.664249  0.993852  0.924785  1
  O  O30  1  0.335751  0.006148  0.924785  1
  O  O31  1  0.196232  0.991316  0.647967  1
  O  O32  1  0.803681  0.013284  0.343262  1
  O  O33  1  0.505076  0.837419  0.088271  1
  O  O34  1  0.486073  0.693337  0.648579  1
  O  O35  1  0.005076  0.662581  0.588271  1
  O  O36  1  0.696319  0.513284  0.843262  1
  O  O37  1  0.164249  0.506148  0.424785  1
  O  O38  1  0.303681  0.486716  0.843262  1
  O  O39  1  0.994924  0.337419  0.588271  1
  O  O40  1  0.513927  0.306663  0.648579  1
  O  O41  1  0.013927  0.193337  0.148579  1
  O  O42  1  0.196319  0.986716  0.343262  1
  O  O43  1  0.986073  0.806663  0.148579  1
