# generated using pymatgen
data_PrSi2(TcOs)2
_symmetry_space_group_name_H-M   'P 1'
_cell_length_a   7.39428823
_cell_length_b   7.39428722
_cell_length_c   4.08157200
_cell_angle_alpha   90.00000000
_cell_angle_beta   90.00000000
_cell_angle_gamma   148.16108462
_symmetry_Int_Tables_number   1
_chemical_formula_structural   PrSi2(TcOs)2
_chemical_formula_sum   'Pr1 Si2 Tc2 Os2'
_cell_volume   117.72527715
_cell_formula_units_Z   1
loop_
 _symmetry_equiv_pos_site_id
 _symmetry_equiv_pos_as_xyz
  1  'x, y, z'
loop_
 _atom_site_type_symbol
 _atom_site_label
 _atom_site_symmetry_multiplicity
 _atom_site_fract_x
 _atom_site_fract_y
 _atom_site_fract_z
 _atom_site_occupancy
  Pr  Pr0  1  0.000000  0.000000  0.000000  1
  Si  Si1  1  0.588702  0.411298  0.500000  1
  Si  Si2  1  0.411298  0.588702  0.500000  1
  Tc  Tc3  1  0.695841  0.304159  0.000000  1
  Tc  Tc4  1  0.304159  0.695841  0.000000  1
  Os  Os5  1  0.812817  0.187183  0.500000  1
  Os  Os6  1  0.187183  0.812817  0.500000  1
