# generated using pymatgen
data_HoPaCo3Si5
_symmetry_space_group_name_H-M   'P 1'
_cell_length_a   7.85975086
_cell_length_b   7.85975093
_cell_length_c   7.85975071
_cell_angle_alpha   138.51529500
_cell_angle_beta   104.72380836
_cell_angle_gamma   89.81135330
_symmetry_Int_Tables_number   1
_chemical_formula_structural   HoPaCo3Si5
_chemical_formula_sum   'Ho2 Pa2 Co6 Si10'
_cell_volume   297.50901245
_cell_formula_units_Z   2
loop_
 _symmetry_equiv_pos_site_id
 _symmetry_equiv_pos_as_xyz
  1  'x, y, z'
loop_
 _atom_site_type_symbol
 _atom_site_label
 _atom_site_symmetry_multiplicity
 _atom_site_fract_x
 _atom_site_fract_y
 _atom_site_fract_z
 _atom_site_occupancy
  Ho  Ho0  1  0.867051  0.632462  0.234590  1
  Ho  Ho1  1  0.397872  0.132462  0.265410  1
  Pa  Pa2  1  0.598631  0.866120  0.732511  1
  Pa  Pa3  1  0.133610  0.366120  0.767489  1
  Co  Co4  1  0.997268  0.247268  0.250000  1
  Co  Co5  1  0.997268  0.747268  0.750000  1
  Co  Co6  1  0.249678  0.863679  0.386000  1
  Co  Co7  1  0.521636  0.638692  0.882945  1
  Co  Co8  1  0.477679  0.363679  0.114000  1
  Co  Co9  1  0.755748  0.138692  0.617055  1
  Si  Si10  1  0.767484  0.017484  0.250000  1
  Si  Si11  1  0.229569  0.979569  0.750000  1
  Si  Si12  1  0.767484  0.517484  0.750000  1
  Si  Si13  1  0.951124  0.103411  0.847713  1
  Si  Si14  1  0.051667  0.897486  0.154181  1
  Si  Si15  1  0.503830  0.253830  0.750000  1
  Si  Si16  1  0.503830  0.753830  0.250000  1
  Si  Si17  1  0.743304  0.397486  0.345819  1
  Si  Si18  1  0.255697  0.603411  0.652287  1
  Si  Si19  1  0.229569  0.479569  0.250000  1
