# generated using pymatgen
data_CrSb12Pt2Rh
_symmetry_space_group_name_H-M   'P 1'
_cell_length_a   8.20179538
_cell_length_b   8.17028713
_cell_length_c   8.19735186
_cell_angle_alpha   109.47715011
_cell_angle_beta   109.55170589
_cell_angle_gamma   109.36463401
_symmetry_Int_Tables_number   1
_chemical_formula_structural   CrSb12Pt2Rh
_chemical_formula_sum   'Cr1 Sb12 Pt2 Rh1'
_cell_volume   422.96567635
_cell_formula_units_Z   1
loop_
 _symmetry_equiv_pos_site_id
 _symmetry_equiv_pos_as_xyz
  1  'x, y, z'
loop_
 _atom_site_type_symbol
 _atom_site_label
 _atom_site_symmetry_multiplicity
 _atom_site_fract_x
 _atom_site_fract_y
 _atom_site_fract_z
 _atom_site_occupancy
  Cr  Cr0  1  0.000000  0.500000  0.000000  1
  Sb  Sb1  1  0.157277  0.811399  0.662034  1
  Sb  Sb2  1  0.842723  0.188601  0.337966  1
  Sb  Sb3  1  0.849775  0.504156  0.665141  1
  Sb  Sb4  1  0.150225  0.495844  0.334859  1
  Sb  Sb5  1  0.815353  0.654486  0.150081  1
  Sb  Sb6  1  0.184647  0.345514  0.849919  1
  Sb  Sb7  1  0.504630  0.660949  0.849534  1
  Sb  Sb8  1  0.495370  0.339051  0.150466  1
  Sb  Sb9  1  0.665088  0.159370  0.820697  1
  Sb  Sb10  1  0.334912  0.840630  0.179303  1
  Sb  Sb11  1  0.654957  0.848908  0.503121  1
  Sb  Sb12  1  0.345043  0.151092  0.496879  1
  Pt  Pt13  1  0.000000  0.000000  0.500000  1
  Pt  Pt14  1  0.500000  0.500000  0.500000  1
  Rh  Rh15  1  0.500000  0.000000  0.000000  1
