# generated using pymatgen
data_TbCe2AlHg2Pd3
_symmetry_space_group_name_H-M   'P 1'
_cell_length_a   7.52633726
_cell_length_b   7.63245262
_cell_length_c   3.98694500
_cell_angle_alpha   90.00000000
_cell_angle_beta   90.00000000
_cell_angle_gamma   119.30908923
_symmetry_Int_Tables_number   1
_chemical_formula_structural   TbCe2AlHg2Pd3
_chemical_formula_sum   'Tb1 Ce2 Al1 Hg2 Pd3'
_cell_volume   199.71024833
_cell_formula_units_Z   1
loop_
 _symmetry_equiv_pos_site_id
 _symmetry_equiv_pos_as_xyz
  1  'x, y, z'
loop_
 _atom_site_type_symbol
 _atom_site_label
 _atom_site_symmetry_multiplicity
 _atom_site_fract_x
 _atom_site_fract_y
 _atom_site_fract_z
 _atom_site_occupancy
  Tb  Tb0  1  0.000462  0.595491  0.500000  1
  Ce  Ce1  1  0.407172  0.406793  0.500000  1
  Ce  Ce2  1  0.588807  0.999257  0.500000  1
  Al  Al3  1  0.247066  0.995815  0.000000  1
  Hg  Hg4  1  0.000211  0.258722  0.000000  1
  Hg  Hg5  1  0.747237  0.744625  0.000000  1
  Pd  Pd6  1  0.041903  0.001291  0.500000  1
  Pd  Pd7  1  0.329426  0.686172  0.000000  1
  Pd  Pd8  1  0.637717  0.311835  0.000000  1
