# generated using pymatgen
data_Er7Tm(OsI4)2
_symmetry_space_group_name_H-M   'P 1'
_cell_length_a   11.30016900
_cell_length_b   11.29655268
_cell_length_c   6.13926307
_cell_angle_alpha   89.24225220
_cell_angle_beta   89.24461849
_cell_angle_gamma   88.68179238
_symmetry_Int_Tables_number   1
_chemical_formula_structural   Er7Tm(OsI4)2
_chemical_formula_sum   'Er7 Tm1 Os2 I8'
_cell_volume   783.35412253
_cell_formula_units_Z   1
loop_
 _symmetry_equiv_pos_site_id
 _symmetry_equiv_pos_as_xyz
  1  'x, y, z'
loop_
 _atom_site_type_symbol
 _atom_site_label
 _atom_site_symmetry_multiplicity
 _atom_site_fract_x
 _atom_site_fract_y
 _atom_site_fract_z
 _atom_site_occupancy
  Er  Er0  1  0.196752  0.916924  0.995742  1
  Er  Er1  1  0.803149  0.082830  0.004286  1
  Er  Er2  1  0.082889  0.803056  0.504294  1
  Er  Er3  1  0.917021  0.196787  0.495740  1
  Er  Er4  1  0.804905  0.921683  0.507104  1
  Er  Er5  1  0.195058  0.078141  0.492912  1
  Er  Er6  1  0.078175  0.195041  0.992909  1
  Tm  Tm7  1  0.922198  0.805977  0.007040  1
  Os  Os8  1  0.000172  0.999667  0.249928  1
  Os  Os9  1  0.999740  0.000094  0.750076  1
  I  I10  1  0.356912  0.848508  0.512587  1
  I  I11  1  0.643078  0.151483  0.487423  1
  I  I12  1  0.151236  0.643129  0.987439  1
  I  I13  1  0.848538  0.356899  0.012573  1
  I  I14  1  0.351935  0.144990  0.995660  1
  I  I15  1  0.648263  0.854861  0.004339  1
  I  I16  1  0.854989  0.647968  0.504292  1
  I  I17  1  0.144989  0.351962  0.495656  1
