# generated using pymatgen
data_Gd6Zn23P
_symmetry_space_group_name_H-M   'P 1'
_cell_length_a   9.08585950
_cell_length_b   9.08586006
_cell_length_c   9.08586000
_cell_angle_alpha   60.00000021
_cell_angle_beta   59.99999819
_cell_angle_gamma   60.00000502
_symmetry_Int_Tables_number   1
_chemical_formula_structural   Gd6Zn23P
_chemical_formula_sum   'Gd6 Zn23 P1'
_cell_volume   530.37508505
_cell_formula_units_Z   1
loop_
 _symmetry_equiv_pos_site_id
 _symmetry_equiv_pos_as_xyz
  1  'x, y, z'
loop_
 _atom_site_type_symbol
 _atom_site_label
 _atom_site_symmetry_multiplicity
 _atom_site_fract_x
 _atom_site_fract_y
 _atom_site_fract_z
 _atom_site_occupancy
  Gd  Gd0  1  0.712846  0.287154  0.287154  1
  Gd  Gd1  1  0.712846  0.287154  0.712846  1
  Gd  Gd2  1  0.712846  0.712846  0.287154  1
  Gd  Gd3  1  0.287154  0.712846  0.712846  1
  Gd  Gd4  1  0.287154  0.712846  0.287154  1
  Gd  Gd5  1  0.287154  0.287154  0.712846  1
  Zn  Zn6  1  0.623778  0.125407  0.125407  1
  Zn  Zn7  1  0.125407  0.623778  0.125407  1
  Zn  Zn8  1  0.125407  0.125407  0.623778  1
  Zn  Zn9  1  0.125407  0.125407  0.125407  1
  Zn  Zn10  1  0.376222  0.874593  0.874593  1
  Zn  Zn11  1  0.874593  0.376222  0.874593  1
  Zn  Zn12  1  0.874593  0.874593  0.376222  1
  Zn  Zn13  1  0.874593  0.874593  0.874593  1
  Zn  Zn14  1  0.500000  0.000000  0.000000  1
  Zn  Zn15  1  0.500000  0.000000  0.500000  1
  Zn  Zn16  1  0.500000  0.500000  0.000000  1
  Zn  Zn17  1  0.000000  0.500000  0.500000  1
  Zn  Zn18  1  0.000000  0.500000  0.000000  1
  Zn  Zn19  1  0.000000  0.000000  0.500000  1
  Zn  Zn20  1  0.000000  0.000000  0.000000  1
  Zn  Zn21  1  0.016402  0.327865  0.327865  1
  Zn  Zn22  1  0.327865  0.016402  0.327865  1
  Zn  Zn23  1  0.327865  0.327865  0.016402  1
  Zn  Zn24  1  0.327865  0.327865  0.327865  1
  Zn  Zn25  1  0.983598  0.672135  0.672135  1
  Zn  Zn26  1  0.672135  0.983598  0.672135  1
  Zn  Zn27  1  0.672135  0.672135  0.983598  1
  Zn  Zn28  1  0.672135  0.672135  0.672135  1
  P  P29  1  0.500000  0.500000  0.500000  1
