# generated using pymatgen
data_TiCu2Rh3SeS7
_symmetry_space_group_name_H-M   'P 1'
_cell_length_a   6.85986908
_cell_length_b   6.82790294
_cell_length_c   6.85986920
_cell_angle_alpha   63.57228610
_cell_angle_beta   63.66414791
_cell_angle_gamma   63.57227658
_symmetry_Int_Tables_number   1
_chemical_formula_structural   TiCu2Rh3SeS7
_chemical_formula_sum   'Ti1 Cu2 Rh3 Se1 S7'
_cell_volume   245.28376965
_cell_formula_units_Z   1
loop_
 _symmetry_equiv_pos_site_id
 _symmetry_equiv_pos_as_xyz
  1  'x, y, z'
loop_
 _atom_site_type_symbol
 _atom_site_label
 _atom_site_symmetry_multiplicity
 _atom_site_fract_x
 _atom_site_fract_y
 _atom_site_fract_z
 _atom_site_occupancy
  Ti  Ti0  1  0.154595  0.136618  0.154595  1
  Cu  Cu1  1  0.729036  0.769457  0.729036  1
  Cu  Cu2  1  0.505284  0.485503  0.505284  1
  Rh  Rh3  1  0.125265  0.119115  0.615106  1
  Rh  Rh4  1  0.122470  0.620677  0.122470  1
  Rh  Rh5  1  0.615106  0.119115  0.125265  1
  Se  Se6  1  0.884179  0.352913  0.884179  1
  S  S7  1  0.376251  0.375126  0.886700  1
  S  S8  1  0.361468  0.359636  0.361468  1
  S  S9  1  0.886700  0.375126  0.376251  1
  S  S10  1  0.881350  0.885234  0.881350  1
  S  S11  1  0.338746  0.890339  0.886536  1
  S  S12  1  0.383012  0.870800  0.383012  1
  S  S13  1  0.886536  0.890339  0.338746  1
