# generated using pymatgen
data_EuAl3Hg
_symmetry_space_group_name_H-M   'P 1'
_cell_length_a   6.63067969
_cell_length_b   6.63067931
_cell_length_c   6.63067873
_cell_angle_alpha   141.31189449
_cell_angle_beta   141.31189447
_cell_angle_gamma   55.86668910
_symmetry_Int_Tables_number   1
_chemical_formula_structural   EuAl3Hg
_chemical_formula_sum   'Eu1 Al3 Hg1'
_cell_volume   113.03753139
_cell_formula_units_Z   1
loop_
 _symmetry_equiv_pos_site_id
 _symmetry_equiv_pos_as_xyz
  1  'x, y, z'
loop_
 _atom_site_type_symbol
 _atom_site_label
 _atom_site_symmetry_multiplicity
 _atom_site_fract_x
 _atom_site_fract_y
 _atom_site_fract_z
 _atom_site_occupancy
  Eu  Eu0  1  0.007144  0.007144  0.000000  1
  Al  Al1  1  0.746035  0.246035  0.500000  1
  Al  Al2  1  0.246035  0.746035  0.500000  1
  Al  Al3  1  0.612654  0.612654  0.000000  1
  Hg  Hg4  1  0.388132  0.388132  0.000000  1
