# generated using pymatgen
data_Sc9Ga11Tc11Ge5
_symmetry_space_group_name_H-M   'P 1'
_cell_length_a   6.74985891
_cell_length_b   6.83464271
_cell_length_c   12.88475583
_cell_angle_alpha   89.82574276
_cell_angle_beta   90.05049650
_cell_angle_gamma   90.33323888
_symmetry_Int_Tables_number   1
_chemical_formula_structural   Sc9Ga11Tc11Ge5
_chemical_formula_sum   'Sc9 Ga11 Tc11 Ge5'
_cell_volume   594.39779241
_cell_formula_units_Z   1
loop_
 _symmetry_equiv_pos_site_id
 _symmetry_equiv_pos_as_xyz
  1  'x, y, z'
loop_
 _atom_site_type_symbol
 _atom_site_label
 _atom_site_symmetry_multiplicity
 _atom_site_fract_x
 _atom_site_fract_y
 _atom_site_fract_z
 _atom_site_occupancy
  Sc  Sc0  1  0.477314  0.668745  0.591291  1
  Sc  Sc1  1  0.978917  0.830491  0.908631  1
  Sc  Sc2  1  0.515209  0.328749  0.089434  1
  Sc  Sc3  1  0.013360  0.174066  0.410400  1
  Sc  Sc4  1  0.512793  0.330574  0.410485  1
  Sc  Sc5  1  0.011444  0.173495  0.088900  1
  Sc  Sc6  1  0.481239  0.669642  0.909576  1
  Sc  Sc7  1  0.982309  0.831283  0.591033  1
  Sc  Sc8  1  0.658827  0.983942  0.249783  1
  Ga  Ga9  1  0.670167  0.952729  0.460273  1
  Ga  Ga10  1  0.170055  0.546756  0.046211  1
  Ga  Ga11  1  0.328133  0.046883  0.950815  1
  Ga  Ga12  1  0.824560  0.455710  0.548795  1
  Ga  Ga13  1  0.332398  0.048005  0.548836  1
  Ga  Ga14  1  0.829796  0.454275  0.951183  1
  Ga  Ga15  1  0.478231  0.367234  0.750766  1
  Ga  Ga16  1  0.984590  0.130105  0.749156  1
  Ga  Ga17  1  0.518025  0.614524  0.250943  1
  Ga  Ga18  1  0.040306  0.869926  0.248173  1
  Ga  Ga19  1  0.298150  0.157735  0.249521  1
  Tc  Tc20  1  0.680534  0.146943  0.630777  1
  Tc  Tc21  1  0.177052  0.353965  0.872074  1
  Tc  Tc22  1  0.334259  0.846085  0.123417  1
  Tc  Tc23  1  0.832630  0.654550  0.374046  1
  Tc  Tc24  1  0.327780  0.845610  0.377327  1
  Tc  Tc25  1  0.826817  0.655124  0.125006  1
  Tc  Tc26  1  0.682455  0.144115  0.870602  1
  Tc  Tc27  1  0.178056  0.356921  0.625530  1
  Tc  Tc28  1  0.836859  0.503387  0.749794  1
  Tc  Tc29  1  0.339660  0.994781  0.749700  1
  Tc  Tc30  1  0.156954  0.508534  0.251770  1
  Ge  Ge31  1  0.670561  0.956706  0.041511  1
  Ge  Ge32  1  0.168809  0.547654  0.453921  1
  Ge  Ge33  1  0.687313  0.843688  0.749269  1
  Ge  Ge34  1  0.186506  0.653409  0.750798  1
  Ge  Ge35  1  0.807933  0.353662  0.250252  1
