# generated using pymatgen
data_Np2AsN2
_symmetry_space_group_name_H-M   'P 1'
_cell_length_a   3.79963800
_cell_length_b   3.79963884
_cell_length_c   6.71023600
_cell_angle_alpha   90.00000000
_cell_angle_beta   90.00000000
_cell_angle_gamma   119.99999271
_symmetry_Int_Tables_number   1
_chemical_formula_structural   Np2AsN2
_chemical_formula_sum   'Np2 As1 N2'
_cell_volume   83.89826865
_cell_formula_units_Z   1
loop_
 _symmetry_equiv_pos_site_id
 _symmetry_equiv_pos_as_xyz
  1  'x, y, z'
loop_
 _atom_site_type_symbol
 _atom_site_label
 _atom_site_symmetry_multiplicity
 _atom_site_fract_x
 _atom_site_fract_y
 _atom_site_fract_z
 _atom_site_occupancy
  Np  Np0  1  0.666667  0.333333  0.709345  1
  Np  Np1  1  0.333333  0.666667  0.290655  1
  As  As2  1  0.000000  0.000000  0.000000  1
  N  N3  1  0.333333  0.666667  0.625764  1
  N  N4  1  0.666667  0.333333  0.374236  1
