# generated using pymatgen
data_Nd6RhI10
_symmetry_space_group_name_H-M   'P 1'
_cell_length_a   7.99064573
_cell_length_b   9.96141720
_cell_length_c   10.07176674
_cell_angle_alpha   107.42770859
_cell_angle_beta   97.21511281
_cell_angle_gamma   104.88491253
_symmetry_Int_Tables_number   1
_chemical_formula_structural   Nd6RhI10
_chemical_formula_sum   'Nd6 Rh1 I10'
_cell_volume   721.17378748
_cell_formula_units_Z   1
loop_
 _symmetry_equiv_pos_site_id
 _symmetry_equiv_pos_as_xyz
  1  'x, y, z'
loop_
 _atom_site_type_symbol
 _atom_site_label
 _atom_site_symmetry_multiplicity
 _atom_site_fract_x
 _atom_site_fract_y
 _atom_site_fract_z
 _atom_site_occupancy
  Nd  Nd0  1  0.531095  0.218054  0.416201  1
  Nd  Nd1  1  0.468905  0.781946  0.583799  1
  Nd  Nd2  1  0.143967  0.370809  0.329541  1
  Nd  Nd3  1  0.856033  0.629191  0.670459  1
  Nd  Nd4  1  0.616312  0.542446  0.255630  1
  Nd  Nd5  1  0.383688  0.457554  0.744370  1
  Rh  Rh6  1  0.500000  0.500000  0.500000  1
  I  I7  1  0.146614  0.045374  0.226101  1
  I  I8  1  0.853386  0.954626  0.773899  1
  I  I9  1  0.238591  0.411150  0.037966  1
  I  I10  1  0.761409  0.588850  0.962034  1
  I  I11  1  0.714322  0.240046  0.152372  1
  I  I12  1  0.285678  0.759954  0.847628  1
  I  I13  1  0.046651  0.683556  0.409102  1
  I  I14  1  0.953349  0.316444  0.590898  1
  I  I15  1  0.413564  0.128165  0.678530  1
  I  I16  1  0.586436  0.871835  0.321470  1
