# generated using pymatgen
data_CaYb4Si8Ni17
_symmetry_space_group_name_H-M   'P 1'
_cell_length_a   13.00693707
_cell_length_b   13.00770051
_cell_length_c   3.94276800
_cell_angle_alpha   90.00000000
_cell_angle_beta   90.00000000
_cell_angle_gamma   141.08763168
_symmetry_Int_Tables_number   1
_chemical_formula_structural   CaYb4Si8Ni17
_chemical_formula_sum   'Ca1 Yb4 Si8 Ni17'
_cell_volume   419.01256568
_cell_formula_units_Z   1
loop_
 _symmetry_equiv_pos_site_id
 _symmetry_equiv_pos_as_xyz
  1  'x, y, z'
loop_
 _atom_site_type_symbol
 _atom_site_label
 _atom_site_symmetry_multiplicity
 _atom_site_fract_x
 _atom_site_fract_y
 _atom_site_fract_z
 _atom_site_occupancy
  Ca  Ca0  1  0.825180  0.610204  0.000000  1
  Yb  Yb1  1  0.606130  0.819999  0.000000  1
  Yb  Yb2  1  0.186382  0.794316  0.500000  1
  Yb  Yb3  1  0.794477  0.185001  0.500000  1
  Yb  Yb4  1  0.220520  0.221423  0.500000  1
  Si  Si5  1  0.157273  0.991073  0.000000  1
  Si  Si6  1  0.988090  0.155711  0.000000  1
  Si  Si7  1  0.479022  0.959014  0.000000  1
  Si  Si8  1  0.958653  0.477700  0.000000  1
  Si  Si9  1  0.586733  0.310229  0.500000  1
  Si  Si10  1  0.309389  0.585997  0.500000  1
  Si  Si11  1  0.493761  0.494044  0.000000  1
  Si  Si12  1  0.757933  0.757808  0.500000  1
  Ni  Ni13  1  0.371852  0.038438  0.000000  1
  Ni  Ni14  1  0.040181  0.373046  0.000000  1
  Ni  Ni15  1  0.671308  0.275826  0.000000  1
  Ni  Ni16  1  0.279611  0.672480  0.000000  1
  Ni  Ni17  1  0.447950  0.282071  0.000000  1
  Ni  Ni18  1  0.283570  0.450247  0.000000  1
  Ni  Ni19  1  0.010266  0.883482  0.500000  1
  Ni  Ni20  1  0.876555  0.006994  0.500000  1
  Ni  Ni21  1  0.306926  0.086002  0.500000  1
  Ni  Ni22  1  0.085262  0.305871  0.500000  1
  Ni  Ni23  1  0.517671  0.085492  0.500000  1
  Ni  Ni24  1  0.086325  0.518232  0.500000  1
  Ni  Ni25  1  0.846405  0.447467  0.500000  1
  Ni  Ni26  1  0.451886  0.847841  0.500000  1
  Ni  Ni27  1  0.574377  0.475846  0.500000  1
  Ni  Ni28  1  0.478343  0.578624  0.500000  1
  Ni  Ni29  1  0.924210  0.925765  0.000000  1
