# generated using pymatgen
data_Tb12Ni4SnRu
_symmetry_space_group_name_H-M   'P 1'
_cell_length_a   8.36548707
_cell_length_b   8.36548719
_cell_length_c   8.36548654
_cell_angle_alpha   107.33778901
_cell_angle_beta   109.52179251
_cell_angle_gamma   111.58185036
_symmetry_Int_Tables_number   1
_chemical_formula_structural   Tb12Ni4SnRu
_chemical_formula_sum   'Tb12 Ni4 Sn1 Ru1'
_cell_volume   450.04502069
_cell_formula_units_Z   1
loop_
 _symmetry_equiv_pos_site_id
 _symmetry_equiv_pos_as_xyz
  1  'x, y, z'
loop_
 _atom_site_type_symbol
 _atom_site_label
 _atom_site_symmetry_multiplicity
 _atom_site_fract_x
 _atom_site_fract_y
 _atom_site_fract_z
 _atom_site_occupancy
  Tb  Tb0  1  0.689483  0.287741  0.977224  1
  Tb  Tb1  1  0.310517  0.712259  0.022776  1
  Tb  Tb2  1  0.689483  0.712259  0.401742  1
  Tb  Tb3  1  0.310517  0.287741  0.598258  1
  Tb  Tb4  1  0.806372  0.126389  0.320017  1
  Tb  Tb5  1  0.806372  0.486353  0.679983  1
  Tb  Tb6  1  0.193628  0.873611  0.679983  1
  Tb  Tb7  1  0.193628  0.513647  0.320017  1
  Tb  Tb8  1  0.611772  0.793128  0.818644  1
  Tb  Tb9  1  0.974487  0.793128  0.181356  1
  Tb  Tb10  1  0.025513  0.206872  0.818644  1
  Tb  Tb11  1  0.388228  0.206872  0.181356  1
  Ni  Ni12  1  0.865606  0.500000  0.365606  1
  Ni  Ni13  1  0.134394  0.500000  0.634394  1
  Ni  Ni14  1  0.000000  0.122857  0.122857  1
  Ni  Ni15  1  0.000000  0.877143  0.877143  1
  Sn  Sn16  1  0.500000  0.000000  0.500000  1
  Ru  Ru17  1  0.500000  0.500000  0.000000  1
