# generated using pymatgen
data_Ba5DyOs3O16
_symmetry_space_group_name_H-M   'P 1'
_cell_length_a   6.03297979
_cell_length_b   6.03563753
_cell_length_c   10.68408433
_cell_angle_alpha   93.02833973
_cell_angle_beta   93.00990551
_cell_angle_gamma   90.04905018
_symmetry_Int_Tables_number   1
_chemical_formula_structural   Ba5DyOs3O16
_chemical_formula_sum   'Ba5 Dy1 Os3 O16'
_cell_volume   387.95648036
_cell_formula_units_Z   1
loop_
 _symmetry_equiv_pos_site_id
 _symmetry_equiv_pos_as_xyz
  1  'x, y, z'
loop_
 _atom_site_type_symbol
 _atom_site_label
 _atom_site_symmetry_multiplicity
 _atom_site_fract_x
 _atom_site_fract_y
 _atom_site_fract_z
 _atom_site_occupancy
  Ba  Ba0  1  0.511610  0.027323  0.202923  1
  Ba  Ba1  1  0.027392  0.511395  0.203009  1
  Ba  Ba2  1  0.999985  0.999976  0.499927  1
  Ba  Ba3  1  0.972584  0.488676  0.797102  1
  Ba  Ba4  1  0.488452  0.972661  0.797189  1
  Dy  Dy5  1  0.500004  0.500001  0.000006  1
  Os  Os6  1  0.000023  0.000026  0.000056  1
  Os  Os7  1  0.561822  0.561656  0.393977  1
  Os  Os8  1  0.438160  0.438248  0.606011  1
  O  O9  1  0.764945  0.231801  0.999668  1
  O  O10  1  0.771463  0.768539  0.018571  1
  O  O11  1  0.039603  0.040631  0.172111  1
  O  O12  1  0.481492  0.480647  0.206400  1
  O  O13  1  0.762798  0.763129  0.332262  1
  O  O14  1  0.318529  0.747793  0.376354  1
  O  O15  1  0.748953  0.319367  0.376748  1
  O  O16  1  0.326942  0.325959  0.439040  1
  O  O17  1  0.672981  0.673976  0.560887  1
  O  O18  1  0.251122  0.680608  0.623231  1
  O  O19  1  0.681421  0.252304  0.623612  1
  O  O20  1  0.237234  0.236909  0.667737  1
  O  O21  1  0.518540  0.519382  0.793626  1
  O  O22  1  0.960380  0.959350  0.827841  1
  O  O23  1  0.228521  0.231449  0.981413  1
  O  O24  1  0.235041  0.768184  0.000310  1
