# generated using pymatgen
data_Tb4Y(In2Ni)2
_symmetry_space_group_name_H-M   'P 1'
_cell_length_a   3.62494000
_cell_length_b   8.08944200
_cell_length_c   18.08794000
_cell_angle_alpha   90.00000000
_cell_angle_beta   90.00000000
_cell_angle_gamma   90.00000000
_symmetry_Int_Tables_number   1
_chemical_formula_structural   Tb4Y(In2Ni)2
_chemical_formula_sum   'Tb8 Y2 In8 Ni4'
_cell_volume   530.40608376
_cell_formula_units_Z   2
loop_
 _symmetry_equiv_pos_site_id
 _symmetry_equiv_pos_as_xyz
  1  'x, y, z'
loop_
 _atom_site_type_symbol
 _atom_site_label
 _atom_site_symmetry_multiplicity
 _atom_site_fract_x
 _atom_site_fract_y
 _atom_site_fract_z
 _atom_site_occupancy
  Tb  Tb0  1  0.000000  0.746696  0.277881  1
  Tb  Tb1  1  0.000000  0.253304  0.722119  1
  Tb  Tb2  1  0.000000  0.753304  0.777881  1
  Tb  Tb3  1  0.000000  0.246696  0.222119  1
  Tb  Tb4  1  0.000000  0.617311  0.088595  1
  Tb  Tb5  1  0.000000  0.382689  0.911405  1
  Tb  Tb6  1  0.000000  0.882689  0.588595  1
  Tb  Tb7  1  0.000000  0.117311  0.411405  1
  Y  Y8  1  0.000000  0.500000  0.500000  1
  Y  Y9  1  0.000000  0.000000  0.000000  1
  In  In10  1  0.500000  0.705533  0.930612  1
  In  In11  1  0.500000  0.294467  0.069388  1
  In  In12  1  0.500000  0.794467  0.430612  1
  In  In13  1  0.500000  0.205533  0.569388  1
  In  In14  1  0.500000  0.570234  0.651748  1
  In  In15  1  0.500000  0.429766  0.348252  1
  In  In16  1  0.500000  0.929766  0.151748  1
  In  In17  1  0.500000  0.070234  0.848252  1
  Ni  Ni18  1  0.500000  0.522946  0.195847  1
  Ni  Ni19  1  0.500000  0.477054  0.804153  1
  Ni  Ni20  1  0.500000  0.977054  0.695847  1
  Ni  Ni21  1  0.500000  0.022946  0.304153  1
