# generated using pymatgen
data_Y9Ho(SnBi)3
_symmetry_space_group_name_H-M   'P 1'
_cell_length_a   9.07329003
_cell_length_b   9.09414828
_cell_length_c   6.48494401
_cell_angle_alpha   90.00208756
_cell_angle_beta   89.99421875
_cell_angle_gamma   119.89970712
_symmetry_Int_Tables_number   1
_chemical_formula_structural   Y9Ho(SnBi)3
_chemical_formula_sum   'Y9 Ho1 Sn3 Bi3'
_cell_volume   463.87578645
_cell_formula_units_Z   1
loop_
 _symmetry_equiv_pos_site_id
 _symmetry_equiv_pos_as_xyz
  1  'x, y, z'
loop_
 _atom_site_type_symbol
 _atom_site_label
 _atom_site_symmetry_multiplicity
 _atom_site_fract_x
 _atom_site_fract_y
 _atom_site_fract_z
 _atom_site_occupancy
  Y  Y0  1  0.759042  0.753347  0.250040  1
  Y  Y1  1  0.005575  0.245996  0.250105  1
  Y  Y2  1  0.764945  0.005967  0.749910  1
  Y  Y3  1  0.236414  0.999699  0.250043  1
  Y  Y4  1  0.671516  0.337886  0.498847  1
  Y  Y5  1  0.000088  0.755753  0.749979  1
  Y  Y6  1  0.326068  0.659458  0.001314  1
  Y  Y7  1  0.238240  0.243795  0.749927  1
  Y  Y8  1  0.671603  0.338014  0.001187  1
  Ho  Ho9  1  0.325526  0.658904  0.498524  1
  Sn  Sn10  1  0.997844  0.392505  0.749562  1
  Sn  Sn11  1  0.392336  0.389947  0.250364  1
  Sn  Sn12  1  0.001728  0.608955  0.250521  1
  Bi  Bi13  1  0.608692  0.611602  0.749664  1
  Bi  Bi14  1  0.391460  0.999952  0.749690  1
  Bi  Bi15  1  0.608923  0.998222  0.250323  1
