# generated using pymatgen
data_Mo2Ir2Os3Ru
_symmetry_space_group_name_H-M   'P 1'
_cell_length_a   5.56004213
_cell_length_b   5.54513362
_cell_length_c   4.39375600
_cell_angle_alpha   90.00000000
_cell_angle_beta   90.00000000
_cell_angle_gamma   120.10810148
_symmetry_Int_Tables_number   1
_chemical_formula_structural   Mo2Ir2Os3Ru
_chemical_formula_sum   'Mo2 Ir2 Os3 Ru1'
_cell_volume   117.18784192
_cell_formula_units_Z   1
loop_
 _symmetry_equiv_pos_site_id
 _symmetry_equiv_pos_as_xyz
  1  'x, y, z'
loop_
 _atom_site_type_symbol
 _atom_site_label
 _atom_site_symmetry_multiplicity
 _atom_site_fract_x
 _atom_site_fract_y
 _atom_site_fract_z
 _atom_site_occupancy
  Mo  Mo0  1  0.160500  0.324369  0.250000  1
  Mo  Mo1  1  0.835056  0.673939  0.750000  1
  Ir  Ir2  1  0.336281  0.668029  0.750000  1
  Ir  Ir3  1  0.665835  0.330510  0.250000  1
  Os  Os4  1  0.672624  0.840764  0.250000  1
  Os  Os5  1  0.167087  0.839072  0.250000  1
  Os  Os6  1  0.329481  0.162256  0.750000  1
  Ru  Ru7  1  0.833137  0.161060  0.750000  1
