# generated using pymatgen
data_Ce3Ni3(BiSb)2
_symmetry_space_group_name_H-M   'P 1'
_cell_length_a   8.33818386
_cell_length_b   8.33818369
_cell_length_c   8.33818400
_cell_angle_alpha   109.47122382
_cell_angle_beta   109.47122340
_cell_angle_gamma   109.47122172
_symmetry_Int_Tables_number   1
_chemical_formula_structural   Ce3Ni3(BiSb)2
_chemical_formula_sum   'Ce6 Ni6 Bi4 Sb4'
_cell_volume   446.26463501
_cell_formula_units_Z   2
loop_
 _symmetry_equiv_pos_site_id
 _symmetry_equiv_pos_as_xyz
  1  'x, y, z'
loop_
 _atom_site_type_symbol
 _atom_site_label
 _atom_site_symmetry_multiplicity
 _atom_site_fract_x
 _atom_site_fract_y
 _atom_site_fract_z
 _atom_site_occupancy
  Ce  Ce0  1  0.880095  0.250000  0.130095  1
  Ce  Ce1  1  0.619905  0.750000  0.369905  1
  Ce  Ce2  1  0.250000  0.130095  0.880095  1
  Ce  Ce3  1  0.750000  0.369905  0.619905  1
  Ce  Ce4  1  0.130095  0.880095  0.250000  1
  Ce  Ce5  1  0.369905  0.619905  0.750000  1
  Ni  Ni6  1  0.367117  0.250000  0.617117  1
  Ni  Ni7  1  0.132883  0.750000  0.882883  1
  Ni  Ni8  1  0.250000  0.617117  0.367117  1
  Ni  Ni9  1  0.750000  0.882883  0.132883  1
  Ni  Ni10  1  0.617117  0.367117  0.250000  1
  Ni  Ni11  1  0.882883  0.132883  0.750000  1
  Bi  Bi12  1  0.664333  0.500000  0.000000  1
  Bi  Bi13  1  0.500000  0.000000  0.664333  1
  Bi  Bi14  1  0.000000  0.664333  0.500000  1
  Bi  Bi15  1  0.835667  0.835667  0.835667  1
  Sb  Sb16  1  0.500000  0.000000  0.158218  1
  Sb  Sb17  1  0.158218  0.500000  0.000000  1
  Sb  Sb18  1  0.000000  0.158218  0.500000  1
  Sb  Sb19  1  0.341782  0.341782  0.341782  1
