# generated using pymatgen
data_Ho12Ni4AgBi
_symmetry_space_group_name_H-M   'P 1'
_cell_length_a   8.38195876
_cell_length_b   8.38195749
_cell_length_c   8.38195877
_cell_angle_alpha   112.45522459
_cell_angle_beta   108.94490888
_cell_angle_gamma   107.06041703
_symmetry_Int_Tables_number   1
_chemical_formula_structural   Ho12Ni4AgBi
_chemical_formula_sum   'Ho12 Ni4 Ag1 Bi1'
_cell_volume   452.28678578
_cell_formula_units_Z   1
loop_
 _symmetry_equiv_pos_site_id
 _symmetry_equiv_pos_as_xyz
  1  'x, y, z'
loop_
 _atom_site_type_symbol
 _atom_site_label
 _atom_site_symmetry_multiplicity
 _atom_site_fract_x
 _atom_site_fract_y
 _atom_site_fract_z
 _atom_site_occupancy
  Ho  Ho0  1  0.422078  0.220000  0.202077  1
  Ho  Ho1  1  0.577922  0.780000  0.797923  1
  Ho  Ho2  1  0.017924  0.220000  0.797923  1
  Ho  Ho3  1  0.982076  0.780000  0.202077  1
  Ho  Ho4  1  0.177967  0.293967  0.471934  1
  Ho  Ho5  1  0.822033  0.706033  0.528066  1
  Ho  Ho6  1  0.177967  0.706033  0.884000  1
  Ho  Ho7  1  0.822033  0.293967  0.116000  1
  Ho  Ho8  1  0.322020  0.631177  0.309158  1
  Ho  Ho9  1  0.677980  0.368823  0.690842  1
  Ho  Ho10  1  0.322020  0.012863  0.690842  1
  Ho  Ho11  1  0.677980  0.987137  0.309158  1
  Ni  Ni12  1  0.358037  0.000000  0.358037  1
  Ni  Ni13  1  0.641963  0.000000  0.641963  1
  Ni  Ni14  1  0.126219  0.626219  0.500000  1
  Ni  Ni15  1  0.873781  0.373781  0.500000  1
  Ag  Ag16  1  0.000000  0.000000  0.000000  1
  Bi  Bi17  1  0.500000  0.500000  0.000000  1
