# generated using pymatgen
data_NdAgPt2O7
_symmetry_space_group_name_H-M   'P 1'
_cell_length_a   7.47546920
_cell_length_b   7.31800460
_cell_length_c   7.31800301
_cell_angle_alpha   59.41895999
_cell_angle_beta   59.28561183
_cell_angle_gamma   59.28561313
_symmetry_Int_Tables_number   1
_chemical_formula_structural   NdAgPt2O7
_chemical_formula_sum   'Nd2 Ag2 Pt4 O14'
_cell_volume   278.76118981
_cell_formula_units_Z   2
loop_
 _symmetry_equiv_pos_site_id
 _symmetry_equiv_pos_as_xyz
  1  'x, y, z'
loop_
 _atom_site_type_symbol
 _atom_site_label
 _atom_site_symmetry_multiplicity
 _atom_site_fract_x
 _atom_site_fract_y
 _atom_site_fract_z
 _atom_site_occupancy
  Nd  Nd0  1  0.125000  0.625000  0.625000  1
  Nd  Nd1  1  0.625000  0.625000  0.625000  1
  Ag  Ag2  1  0.625000  0.625000  0.125000  1
  Ag  Ag3  1  0.625000  0.125000  0.625000  1
  Pt  Pt4  1  0.125000  0.125000  0.625000  1
  Pt  Pt5  1  0.125000  0.625000  0.125000  1
  Pt  Pt6  1  0.625000  0.125000  0.125000  1
  Pt  Pt7  1  0.125000  0.125000  0.125000  1
  O  O8  1  0.519174  0.480826  0.480826  1
  O  O9  1  0.730826  0.769174  0.769174  1
  O  O10  1  0.453204  0.036355  0.457344  1
  O  O11  1  0.196902  0.792656  0.213645  1
  O  O12  1  0.453204  0.457344  0.036355  1
  O  O13  1  0.035349  0.464651  0.464651  1
  O  O14  1  0.452446  0.047554  0.047554  1
  O  O15  1  0.053098  0.036355  0.457344  1
  O  O16  1  0.053098  0.457344  0.036355  1
  O  O17  1  0.797554  0.202446  0.202446  1
  O  O18  1  0.214651  0.785349  0.785349  1
  O  O19  1  0.796796  0.213645  0.792656  1
  O  O20  1  0.196902  0.213645  0.792656  1
  O  O21  1  0.796796  0.792656  0.213645  1
