# generated using pymatgen
data_Ho7Tm3(CoSb2)2
_symmetry_space_group_name_H-M   'P 1'
_cell_length_a   7.81136300
_cell_length_b   8.74815042
_cell_length_c   12.13323258
_cell_angle_alpha   90.03538535
_cell_angle_beta   90.00000000
_cell_angle_gamma   90.00000000
_symmetry_Int_Tables_number   1
_chemical_formula_structural   Ho7Tm3(CoSb2)2
_chemical_formula_sum   'Ho14 Tm6 Co4 Sb8'
_cell_volume   829.12402910
_cell_formula_units_Z   2
loop_
 _symmetry_equiv_pos_site_id
 _symmetry_equiv_pos_as_xyz
  1  'x, y, z'
loop_
 _atom_site_type_symbol
 _atom_site_label
 _atom_site_symmetry_multiplicity
 _atom_site_fract_x
 _atom_site_fract_y
 _atom_site_fract_z
 _atom_site_occupancy
  Ho  Ho0  1  0.155909  0.750286  0.203967  1
  Ho  Ho1  1  0.655909  0.249714  0.296033  1
  Ho  Ho2  1  0.844520  0.249891  0.796302  1
  Ho  Ho3  1  0.344520  0.750109  0.703698  1
  Ho  Ho4  1  0.451880  0.750321  0.997872  1
  Ho  Ho5  1  0.951880  0.249679  0.502128  1
  Ho  Ho6  1  0.547023  0.249530  0.002020  1
  Ho  Ho7  1  0.047023  0.750470  0.497980  1
  Ho  Ho8  1  0.623317  0.750172  0.308236  1
  Ho  Ho9  1  0.123317  0.249828  0.191764  1
  Ho  Ho10  1  0.377259  0.249577  0.692209  1
  Ho  Ho11  1  0.877259  0.750423  0.807791  1
  Ho  Ho12  1  0.822379  0.535212  0.065349  1
  Ho  Ho13  1  0.322379  0.464788  0.434651  1
  Tm  Tm14  1  0.824273  0.963868  0.065248  1
  Tm  Tm15  1  0.324273  0.036132  0.434752  1
  Tm  Tm16  1  0.176132  0.463449  0.934441  1
  Tm  Tm17  1  0.676132  0.536551  0.565559  1
  Tm  Tm18  1  0.175820  0.036750  0.934429  1
  Tm  Tm19  1  0.675820  0.963250  0.565571  1
  Co  Co20  1  0.434434  0.750538  0.490866  1
  Co  Co21  1  0.934434  0.249462  0.009134  1
  Co  Co22  1  0.566811  0.249143  0.509301  1
  Co  Co23  1  0.066811  0.750857  0.990699  1
  Sb  Sb24  1  0.931049  0.992102  0.326951  1
  Sb  Sb25  1  0.431049  0.007898  0.173049  1
  Sb  Sb26  1  0.069544  0.491983  0.672806  1
  Sb  Sb27  1  0.569544  0.508017  0.827194  1
  Sb  Sb28  1  0.069433  0.008072  0.672830  1
  Sb  Sb29  1  0.569433  0.991928  0.827170  1
  Sb  Sb30  1  0.930215  0.508128  0.327089  1
  Sb  Sb31  1  0.430215  0.491872  0.172911  1
