# generated using pymatgen
data_Sc4B8Mo3Os7
_symmetry_space_group_name_H-M   'P 1'
_cell_length_a   3.05983000
_cell_length_b   8.71271307
_cell_length_c   10.07002564
_cell_angle_alpha   90.36986282
_cell_angle_beta   90.00000000
_cell_angle_gamma   90.00000000
_symmetry_Int_Tables_number   1
_chemical_formula_structural   Sc4B8Mo3Os7
_chemical_formula_sum   'Sc4 B8 Mo3 Os7'
_cell_volume   268.45545785
_cell_formula_units_Z   1
loop_
 _symmetry_equiv_pos_site_id
 _symmetry_equiv_pos_as_xyz
  1  'x, y, z'
loop_
 _atom_site_type_symbol
 _atom_site_label
 _atom_site_symmetry_multiplicity
 _atom_site_fract_x
 _atom_site_fract_y
 _atom_site_fract_z
 _atom_site_occupancy
  Sc  Sc0  1  0.500000  0.836450  0.179997  1
  Sc  Sc1  1  0.500000  0.160238  0.820593  1
  Sc  Sc2  1  0.500000  0.658768  0.681175  1
  Sc  Sc3  1  0.500000  0.337447  0.316034  1
  B  B4  1  0.500000  0.969811  0.589824  1
  B  B5  1  0.500000  0.038201  0.413528  1
  B  B6  1  0.500000  0.855076  0.898534  1
  B  B7  1  0.500000  0.146814  0.101881  1
  B  B8  1  0.500000  0.647912  0.399347  1
  B  B9  1  0.500000  0.352003  0.600041  1
  B  B10  1  0.500000  0.464730  0.912898  1
  B  B11  1  0.500000  0.534737  0.085910  1
  Mo  Mo12  1  0.000000  0.662567  0.951256  1
  Mo  Mo13  1  0.000000  0.336988  0.047291  1
  Mo  Mo14  1  0.000000  0.842446  0.454755  1
  Os  Os15  1  0.000000  0.165103  0.548721  1
  Os  Os16  1  0.000000  0.999332  0.000729  1
  Os  Os17  1  0.000000  0.406083  0.760269  1
  Os  Os18  1  0.000000  0.590119  0.238653  1
  Os  Os19  1  0.000000  0.497375  0.498388  1
  Os  Os20  1  0.000000  0.907950  0.737339  1
  Os  Os21  1  0.000000  0.089849  0.262837  1
