# generated using pymatgen
data_ThSiNiH
_symmetry_space_group_name_H-M   'P 1'
_cell_length_a   4.07808900
_cell_length_b   4.07808900
_cell_length_c   7.15765400
_cell_angle_alpha   90.00000000
_cell_angle_beta   90.00000000
_cell_angle_gamma   90.00000000
_symmetry_Int_Tables_number   1
_chemical_formula_structural   ThSiNiH
_chemical_formula_sum   'Th2 Si2 Ni2 H2'
_cell_volume   119.03758295
_cell_formula_units_Z   2
loop_
 _symmetry_equiv_pos_site_id
 _symmetry_equiv_pos_as_xyz
  1  'x, y, z'
loop_
 _atom_site_type_symbol
 _atom_site_label
 _atom_site_symmetry_multiplicity
 _atom_site_fract_x
 _atom_site_fract_y
 _atom_site_fract_z
 _atom_site_occupancy
  Th  Th0  1  0.500000  0.000000  0.321332  1
  Th  Th1  1  0.000000  0.500000  0.678668  1
  Si  Si2  1  0.500000  0.000000  0.837362  1
  Si  Si3  1  0.000000  0.500000  0.162638  1
  Ni  Ni4  1  0.500000  0.500000  0.000000  1
  Ni  Ni5  1  0.000000  0.000000  0.000000  1
  H  H6  1  0.000000  0.000000  0.500000  1
  H  H7  1  0.500000  0.500000  0.500000  1
