# generated using pymatgen
data_Dy4Cd2Cu3Ni
_symmetry_space_group_name_H-M   'P 1'
_cell_length_a   7.50234157
_cell_length_b   7.50234157
_cell_length_c   3.68411000
_cell_angle_alpha   90.00000000
_cell_angle_beta   90.00000000
_cell_angle_gamma   90.82740550
_symmetry_Int_Tables_number   1
_chemical_formula_structural   Dy4Cd2Cu3Ni
_chemical_formula_sum   'Dy4 Cd2 Cu3 Ni1'
_cell_volume   207.33898536
_cell_formula_units_Z   1
loop_
 _symmetry_equiv_pos_site_id
 _symmetry_equiv_pos_as_xyz
  1  'x, y, z'
loop_
 _atom_site_type_symbol
 _atom_site_label
 _atom_site_symmetry_multiplicity
 _atom_site_fract_x
 _atom_site_fract_y
 _atom_site_fract_z
 _atom_site_occupancy
  Dy  Dy0  1  0.670905  0.170905  0.500000  1
  Dy  Dy1  1  0.318094  0.818094  0.500000  1
  Dy  Dy2  1  0.176482  0.338865  0.500000  1
  Dy  Dy3  1  0.838865  0.676482  0.500000  1
  Cd  Cd4  1  0.000507  0.003320  0.000000  1
  Cd  Cd5  1  0.503320  0.500507  0.000000  1
  Cu  Cu6  1  0.879478  0.379478  0.000000  1
  Cu  Cu7  1  0.617024  0.877610  0.000000  1
  Cu  Cu8  1  0.377610  0.117024  0.000000  1
  Ni  Ni9  1  0.117715  0.617715  0.000000  1
