# generated using pymatgen
data_Ta3Ti5Si2(B2Mo)2
_symmetry_space_group_name_H-M   'P 1'
_cell_length_a   7.21380329
_cell_length_b   7.23422418
_cell_length_c   7.21565545
_cell_angle_alpha   129.93807489
_cell_angle_beta   129.86445469
_cell_angle_gamma   73.63254504
_symmetry_Int_Tables_number   1
_chemical_formula_structural   Ta3Ti5Si2(B2Mo)2
_chemical_formula_sum   'Ta3 Ti5 Si2 B4 Mo2'
_cell_volume   216.16488425
_cell_formula_units_Z   1
loop_
 _symmetry_equiv_pos_site_id
 _symmetry_equiv_pos_as_xyz
  1  'x, y, z'
loop_
 _atom_site_type_symbol
 _atom_site_label
 _atom_site_symmetry_multiplicity
 _atom_site_fract_x
 _atom_site_fract_y
 _atom_site_fract_z
 _atom_site_occupancy
  Ta  Ta0  1  0.691714  0.194004  0.156470  1
  Ta  Ta1  1  0.961161  0.460665  0.152596  1
  Ta  Ta2  1  0.461690  0.306952  0.498395  1
  Ti  Ti3  1  0.806567  0.956967  0.497929  1
  Ti  Ti4  1  0.308323  0.807641  0.850169  1
  Ti  Ti5  1  0.192051  0.040168  0.498257  1
  Ti  Ti6  1  0.539582  0.691804  0.498597  1
  Ti  Ti7  1  0.038897  0.541539  0.847316  1
  Si  Si8  1  0.750710  0.752099  0.000166  1
  Si  Si9  1  0.246575  0.248860  0.992756  1
  B  B10  1  0.390515  0.889120  0.280829  1
  B  B11  1  0.890447  0.613304  0.502907  1
  B  B12  1  0.610865  0.109205  0.721892  1
  B  B13  1  0.113521  0.389375  0.503169  1
  Mo  Mo14  1  0.999683  0.996386  0.997446  1
  Mo  Mo15  1  0.497698  0.501908  0.001106  1
