# generated using pymatgen
data_Nd2Th(CuSi)4
_symmetry_space_group_name_H-M   'P 1'
_cell_length_a   4.14905800
_cell_length_b   4.14406346
_cell_length_c   12.24681700
_cell_angle_alpha   99.74067420
_cell_angle_beta   99.75254676
_cell_angle_gamma   90.00000916
_symmetry_Int_Tables_number   1
_chemical_formula_structural   Nd2Th(CuSi)4
_chemical_formula_sum   'Nd2 Th1 Cu4 Si4'
_cell_volume   204.44735577
_cell_formula_units_Z   1
loop_
 _symmetry_equiv_pos_site_id
 _symmetry_equiv_pos_as_xyz
  1  'x, y, z'
loop_
 _atom_site_type_symbol
 _atom_site_label
 _atom_site_symmetry_multiplicity
 _atom_site_fract_x
 _atom_site_fract_y
 _atom_site_fract_z
 _atom_site_occupancy
  Nd  Nd0  1  0.849049  0.349049  0.698101  1
  Nd  Nd1  1  0.150951  0.650951  0.301899  1
  Th  Th2  1  0.000000  0.000000  0.000000  1
  Cu  Cu3  1  0.250157  0.250157  0.500314  1
  Cu  Cu4  1  0.749843  0.749843  0.499686  1
  Cu  Cu5  1  0.596274  0.096274  0.192548  1
  Cu  Cu6  1  0.403726  0.903726  0.807452  1
  Si  Si7  1  0.449644  0.449644  0.899289  1
  Si  Si8  1  0.550356  0.550356  0.100711  1
  Si  Si9  1  0.695834  0.195834  0.391667  1
  Si  Si10  1  0.304166  0.804166  0.608333  1
