# generated using pymatgen
data_LiMn20RuWC6
_symmetry_space_group_name_H-M   'P 1'
_cell_length_a   7.36161302
_cell_length_b   7.36643069
_cell_length_c   7.36949744
_cell_angle_alpha   60.00135272
_cell_angle_beta   59.98095149
_cell_angle_gamma   59.96257278
_symmetry_Int_Tables_number   1
_chemical_formula_structural   LiMn20RuWC6
_chemical_formula_sum   'Li1 Mn20 Ru1 W1 C6'
_cell_volume   282.46970983
_cell_formula_units_Z   1
loop_
 _symmetry_equiv_pos_site_id
 _symmetry_equiv_pos_as_xyz
  1  'x, y, z'
loop_
 _atom_site_type_symbol
 _atom_site_label
 _atom_site_symmetry_multiplicity
 _atom_site_fract_x
 _atom_site_fract_y
 _atom_site_fract_z
 _atom_site_occupancy
  Li  Li0  1  0.999785  0.999994  0.000264  1
  Mn  Mn1  1  0.853349  0.382184  0.382231  1
  Mn  Mn2  1  0.382171  0.853252  0.382287  1
  Mn  Mn3  1  0.382231  0.382295  0.853124  1
  Mn  Mn4  1  0.382215  0.382283  0.382334  1
  Mn  Mn5  1  0.159669  0.613401  0.613438  1
  Mn  Mn6  1  0.613463  0.159585  0.613445  1
  Mn  Mn7  1  0.613526  0.613466  0.159474  1
  Mn  Mn8  1  0.613540  0.613475  0.613477  1
  Mn  Mn9  1  0.658414  0.000204  0.000158  1
  Mn  Mn10  1  0.658379  0.000191  0.341263  1
  Mn  Mn11  1  0.658387  0.341212  0.000190  1
  Mn  Mn12  1  0.000127  0.658496  0.341247  1
  Mn  Mn13  1  0.000141  0.658537  0.000116  1
  Mn  Mn14  1  0.341188  0.658478  0.000159  1
  Mn  Mn15  1  0.000123  0.341156  0.658604  1
  Mn  Mn16  1  0.341143  0.000163  0.658568  1
  Mn  Mn17  1  0.000079  0.000111  0.658648  1
  Mn  Mn18  1  0.341172  0.000181  0.000133  1
  Mn  Mn19  1  0.000138  0.341190  0.000125  1
  Mn  Mn20  1  0.000095  0.000127  0.341239  1
  Ru  Ru21  1  0.250576  0.250115  0.249618  1
  W  W22  1  0.750040  0.749969  0.749969  1
  C  C23  1  0.727892  0.272061  0.271997  1
  C  C24  1  0.727881  0.272083  0.727994  1
  C  C25  1  0.727913  0.727974  0.272043  1
  C  C26  1  0.272153  0.727915  0.727957  1
  C  C27  1  0.272119  0.727931  0.271936  1
  C  C28  1  0.272090  0.271971  0.727963  1
