# generated using pymatgen
data_Nd3Eu13(MgRh)4
_symmetry_space_group_name_H-M   'P 1'
_cell_length_a   10.25085728
_cell_length_b   10.25085706
_cell_length_c   10.25085660
_cell_angle_alpha   60.70880585
_cell_angle_beta   60.70880554
_cell_angle_gamma   60.70880486
_symmetry_Int_Tables_number   1
_chemical_formula_structural   Nd3Eu13(MgRh)4
_chemical_formula_sum   'Nd3 Eu13 Mg4 Rh4'
_cell_volume   773.85201899
_cell_formula_units_Z   1
loop_
 _symmetry_equiv_pos_site_id
 _symmetry_equiv_pos_as_xyz
  1  'x, y, z'
loop_
 _atom_site_type_symbol
 _atom_site_label
 _atom_site_symmetry_multiplicity
 _atom_site_fract_x
 _atom_site_fract_y
 _atom_site_fract_z
 _atom_site_occupancy
  Nd  Nd0  1  0.340877  0.340877  0.975729  1
  Nd  Nd1  1  0.340877  0.975729  0.340877  1
  Nd  Nd2  1  0.975729  0.340877  0.340877  1
  Eu  Eu3  1  0.809382  0.190754  0.190754  1
  Eu  Eu4  1  0.190031  0.809579  0.809579  1
  Eu  Eu5  1  0.190754  0.809382  0.190754  1
  Eu  Eu6  1  0.809579  0.190031  0.809579  1
  Eu  Eu7  1  0.190754  0.190754  0.809382  1
  Eu  Eu8  1  0.809579  0.809579  0.190031  1
  Eu  Eu9  1  0.943423  0.557190  0.557190  1
  Eu  Eu10  1  0.559271  0.942066  0.942066  1
  Eu  Eu11  1  0.557190  0.943423  0.557190  1
  Eu  Eu12  1  0.942066  0.559271  0.942066  1
  Eu  Eu13  1  0.557190  0.557190  0.943423  1
  Eu  Eu14  1  0.942066  0.942066  0.559271  1
  Eu  Eu15  1  0.344509  0.344509  0.344509  1
  Mg  Mg16  1  0.577607  0.577607  0.577607  1
  Mg  Mg17  1  0.577708  0.577708  0.269612  1
  Mg  Mg18  1  0.577708  0.269612  0.577708  1
  Mg  Mg19  1  0.269612  0.577708  0.577708  1
  Rh  Rh20  1  0.142751  0.142751  0.142751  1
  Rh  Rh21  1  0.138417  0.138417  0.574501  1
  Rh  Rh22  1  0.138417  0.574501  0.138417  1
  Rh  Rh23  1  0.574501  0.138417  0.138417  1
