# generated using pymatgen
data_Pr6RhCl11
_symmetry_space_group_name_H-M   'P 1'
_cell_length_a   8.31821364
_cell_length_b   8.31821361
_cell_length_c   7.41299155
_cell_angle_alpha   86.90232404
_cell_angle_beta   86.90232095
_cell_angle_gamma   101.67483667
_symmetry_Int_Tables_number   1
_chemical_formula_structural   Pr6RhCl11
_chemical_formula_sum   'Pr6 Rh1 Cl11'
_cell_volume   500.47090626
_cell_formula_units_Z   1
loop_
 _symmetry_equiv_pos_site_id
 _symmetry_equiv_pos_as_xyz
  1  'x, y, z'
loop_
 _atom_site_type_symbol
 _atom_site_label
 _atom_site_symmetry_multiplicity
 _atom_site_fract_x
 _atom_site_fract_y
 _atom_site_fract_z
 _atom_site_occupancy
  Pr  Pr0  1  0.706876  0.016953  0.770787  1
  Pr  Pr1  1  0.193252  0.193252  0.761502  1
  Pr  Pr2  1  0.983047  0.293124  0.229213  1
  Pr  Pr3  1  0.016953  0.706876  0.770787  1
  Pr  Pr4  1  0.806748  0.806748  0.238498  1
  Pr  Pr5  1  0.293124  0.983047  0.229213  1
  Rh  Rh6  1  0.000000  0.000000  0.000000  1
  Cl  Cl7  1  0.000000  0.000000  0.500000  1
  Cl  Cl8  1  0.661806  0.094030  0.364093  1
  Cl  Cl9  1  0.490051  0.202201  0.943294  1
  Cl  Cl10  1  0.304948  0.304948  0.364890  1
  Cl  Cl11  1  0.905970  0.338194  0.635907  1
  Cl  Cl12  1  0.202201  0.490051  0.943294  1
  Cl  Cl13  1  0.797799  0.509949  0.056706  1
  Cl  Cl14  1  0.094030  0.661806  0.364093  1
  Cl  Cl15  1  0.695052  0.695052  0.635110  1
  Cl  Cl16  1  0.509949  0.797799  0.056706  1
  Cl  Cl17  1  0.338194  0.905970  0.635907  1
