# generated using pymatgen
data_LiLa6Nd10Cd3(OsPt)2
_symmetry_space_group_name_H-M   'P 1'
_cell_length_a   10.02081145
_cell_length_b   10.05978364
_cell_length_c   10.14319500
_cell_angle_alpha   59.47057442
_cell_angle_beta   59.85057663
_cell_angle_gamma   59.81821895
_symmetry_Int_Tables_number   1
_chemical_formula_structural   LiLa6Nd10Cd3(OsPt)2
_chemical_formula_sum   'Li1 La6 Nd10 Cd3 Os2 Pt2'
_cell_volume   718.29101576
_cell_formula_units_Z   1
loop_
 _symmetry_equiv_pos_site_id
 _symmetry_equiv_pos_as_xyz
  1  'x, y, z'
loop_
 _atom_site_type_symbol
 _atom_site_label
 _atom_site_symmetry_multiplicity
 _atom_site_fract_x
 _atom_site_fract_y
 _atom_site_fract_z
 _atom_site_occupancy
  Li  Li0  1  0.574457  0.572405  0.573232  1
  La  La1  1  0.346209  0.347646  0.356070  1
  La  La2  1  0.347055  0.345529  0.952780  1
  La  La3  1  0.344074  0.959993  0.344485  1
  La  La4  1  0.959770  0.344447  0.350743  1
  La  La5  1  0.819309  0.188087  0.189670  1
  La  La6  1  0.185099  0.821691  0.806318  1
  Nd  Nd7  1  0.191360  0.812421  0.193281  1
  Nd  Nd8  1  0.814626  0.187313  0.807041  1
  Nd  Nd9  1  0.190187  0.190590  0.810178  1
  Nd  Nd10  1  0.807231  0.807302  0.191845  1
  Nd  Nd11  1  0.935132  0.560758  0.569059  1
  Nd  Nd12  1  0.560020  0.935221  0.935975  1
  Nd  Nd13  1  0.558463  0.937557  0.565896  1
  Nd  Nd14  1  0.937637  0.558301  0.938744  1
  Nd  Nd15  1  0.562505  0.562617  0.939788  1
  Nd  Nd16  1  0.937646  0.937894  0.561999  1
  Cd  Cd17  1  0.580688  0.582357  0.258770  1
  Cd  Cd18  1  0.580536  0.256760  0.583015  1
  Cd  Cd19  1  0.256348  0.580551  0.580827  1
  Os  Os20  1  0.139770  0.148077  0.138095  1
  Os  Os21  1  0.146993  0.137475  0.576445  1
  Pt  Pt22  1  0.148061  0.577114  0.135929  1
  Pt  Pt23  1  0.576829  0.147897  0.139821  1
