# generated using pymatgen
data_PrSmCo17Si8Ru
_symmetry_space_group_name_H-M   'P 1'
_cell_length_a   7.96616787
_cell_length_b   8.00512358
_cell_length_c   7.97151688
_cell_angle_alpha   121.85545895
_cell_angle_beta   121.69656041
_cell_angle_gamma   87.03020190
_symmetry_Int_Tables_number   1
_chemical_formula_structural   PrSmCo17Si8Ru
_chemical_formula_sum   'Pr1 Sm1 Co17 Si8 Ru1'
_cell_volume   349.03469599
_cell_formula_units_Z   1
loop_
 _symmetry_equiv_pos_site_id
 _symmetry_equiv_pos_as_xyz
  1  'x, y, z'
loop_
 _atom_site_type_symbol
 _atom_site_label
 _atom_site_symmetry_multiplicity
 _atom_site_fract_x
 _atom_site_fract_y
 _atom_site_fract_z
 _atom_site_occupancy
  Pr  Pr0  1  0.249227  0.249331  0.999177  1
  Sm  Sm1  1  0.750247  0.750358  0.000904  1
  Co  Co2  1  0.448284  0.949212  0.758606  1
  Co  Co3  1  0.189140  0.691688  0.241753  1
  Co  Co4  1  0.548013  0.042417  0.235022  1
  Co  Co5  1  0.947952  0.189920  0.499048  1
  Co  Co6  1  0.198178  0.927720  0.127852  1
  Co  Co7  1  0.799448  0.068427  0.869717  1
  Co  Co8  1  0.430019  0.699098  0.130191  1
  Co  Co9  1  0.570639  0.300145  0.872184  1
  Co  Co10  1  0.701320  0.574313  0.263919  1
  Co  Co11  1  0.300694  0.429739  0.732613  1
  Co  Co12  1  0.936866  0.809989  0.735872  1
  Co  Co13  1  0.312398  0.549334  0.501156  1
  Co  Co14  1  0.811527  0.307859  0.764513  1
  Co  Co15  1  0.002255  0.502363  0.499989  1
  Co  Co16  1  0.500210  0.001196  0.499958  1
  Co  Co17  1  0.067972  0.197024  0.267511  1
  Co  Co18  1  0.050469  0.811916  0.498846  1
  Si  Si19  1  0.291261  0.787855  0.834115  1
  Si  Si20  1  0.050988  0.545685  0.840571  1
  Si  Si21  1  0.542030  0.716871  0.501141  1
  Si  Si22  1  0.789660  0.954058  0.498464  1
  Si  Si23  1  0.446428  0.285976  0.501348  1
  Si  Si24  1  0.956014  0.455151  0.165891  1
  Si  Si25  1  0.711875  0.203997  0.159871  1
  Si  Si26  1  0.209105  0.046443  0.498420  1
  Ru  Ru27  1  0.687781  0.451916  0.501349  1
