# generated using pymatgen
data_DyHo3Th6(Si3C)2
_symmetry_space_group_name_H-M   'P 1'
_cell_length_a   8.74506300
_cell_length_b   8.74506213
_cell_length_c   6.36867900
_cell_angle_alpha   90.00000000
_cell_angle_beta   90.00000000
_cell_angle_gamma   119.99999951
_symmetry_Int_Tables_number   1
_chemical_formula_structural   DyHo3Th6(Si3C)2
_chemical_formula_sum   'Dy1 Ho3 Th6 Si6 C2'
_cell_volume   421.79928129
_cell_formula_units_Z   1
loop_
 _symmetry_equiv_pos_site_id
 _symmetry_equiv_pos_as_xyz
  1  'x, y, z'
loop_
 _atom_site_type_symbol
 _atom_site_label
 _atom_site_symmetry_multiplicity
 _atom_site_fract_x
 _atom_site_fract_y
 _atom_site_fract_z
 _atom_site_occupancy
  Dy  Dy0  1  0.666667  0.333333  0.500000  1
  Ho  Ho1  1  0.666667  0.333333  0.000000  1
  Ho  Ho2  1  0.333333  0.666667  0.000000  1
  Ho  Ho3  1  0.333333  0.666667  0.500000  1
  Th  Th4  1  0.766813  0.766839  0.750025  1
  Th  Th5  1  0.233161  0.999974  0.750025  1
  Th  Th6  1  0.000026  0.233187  0.750025  1
  Th  Th7  1  0.233161  0.233187  0.249975  1
  Th  Th8  1  0.766813  0.999974  0.249975  1
  Th  Th9  1  0.000026  0.766839  0.249975  1
  Si  Si10  1  0.401812  0.401883  0.750051  1
  Si  Si11  1  0.598117  0.999929  0.750051  1
  Si  Si12  1  0.000071  0.598188  0.750051  1
  Si  Si13  1  0.598117  0.598188  0.249949  1
  Si  Si14  1  0.401812  0.999929  0.249949  1
  Si  Si15  1  0.000071  0.401883  0.249949  1
  C  C16  1  0.000000  0.000000  0.000000  1
  C  C17  1  0.000000  0.000000  0.500000  1
