# generated using pymatgen
data_Li7Co11O24
_symmetry_space_group_name_H-M   'P 1'
_cell_length_a   9.79715480
_cell_length_b   9.79715547
_cell_length_c   8.01418100
_cell_angle_alpha   66.00306077
_cell_angle_beta   66.00305902
_cell_angle_gamma   33.63230908
_symmetry_Int_Tables_number   1
_chemical_formula_structural   Li7Co11O24
_chemical_formula_sum   'Li7 Co11 O24'
_cell_volume   385.68602587
_cell_formula_units_Z   1
loop_
 _symmetry_equiv_pos_site_id
 _symmetry_equiv_pos_as_xyz
  1  'x, y, z'
loop_
 _atom_site_type_symbol
 _atom_site_label
 _atom_site_symmetry_multiplicity
 _atom_site_fract_x
 _atom_site_fract_y
 _atom_site_fract_z
 _atom_site_occupancy
  Li  Li0  1  0.083634  0.083634  0.792251  1
  Li  Li1  1  0.751191  0.751191  0.126645  1
  Li  Li2  1  0.248809  0.248809  0.873355  1
  Li  Li3  1  0.584098  0.584098  0.541205  1
  Li  Li4  1  0.415902  0.415902  0.458795  1
  Li  Li5  1  0.916366  0.916366  0.207749  1
  Li  Li6  1  0.500000  0.500000  0.000000  1
  Co  Co7  1  0.333412  0.333412  0.163493  1
  Co  Co8  1  0.167009  0.167009  0.335736  1
  Co  Co9  1  0.662900  0.168999  0.833654  1
  Co  Co10  1  0.168999  0.662900  0.833654  1
  Co  Co11  1  0.832991  0.832991  0.664264  1
  Co  Co12  1  0.000000  0.000000  0.500000  1
  Co  Co13  1  0.666588  0.666588  0.836507  1
  Co  Co14  1  0.831001  0.337100  0.166346  1
  Co  Co15  1  0.500000  0.000000  0.500000  1
  Co  Co16  1  0.337100  0.831001  0.166346  1
  Co  Co17  1  0.000000  0.500000  0.500000  1
  O  O18  1  0.674292  0.674292  0.592060  1
  O  O19  1  0.174067  0.174067  0.559905  1
  O  O20  1  0.471304  0.028552  0.261898  1
  O  O21  1  0.028552  0.471304  0.261898  1
  O  O22  1  0.640222  0.175696  0.068464  1
  O  O23  1  0.175696  0.640222  0.068464  1
  O  O24  1  0.340264  0.340264  0.918286  1
  O  O25  1  0.484975  0.484975  0.758740  1
  O  O26  1  0.158308  0.158308  0.108101  1
  O  O27  1  0.990691  0.990691  0.748391  1
  O  O28  1  0.841692  0.841692  0.891899  1
  O  O29  1  0.659736  0.659736  0.081714  1
  O  O30  1  0.137254  0.694593  0.596404  1
  O  O31  1  0.694593  0.137254  0.596404  1
  O  O32  1  0.971448  0.528696  0.738102  1
  O  O33  1  0.862746  0.305407  0.403596  1
  O  O34  1  0.528696  0.971448  0.738102  1
  O  O35  1  0.305407  0.862746  0.403596  1
  O  O36  1  0.009309  0.009309  0.251609  1
  O  O37  1  0.825933  0.825933  0.440095  1
  O  O38  1  0.515025  0.515025  0.241260  1
  O  O39  1  0.325708  0.325708  0.407940  1
  O  O40  1  0.824304  0.359778  0.931536  1
  O  O41  1  0.359778  0.824304  0.931536  1
