# generated using pymatgen
data_ErTm5Ga7Co16
_symmetry_space_group_name_H-M   'P 1'
_cell_length_a   8.41698986
_cell_length_b   8.41233232
_cell_length_c   8.41233229
_cell_angle_alpha   60.03664163
_cell_angle_beta   59.98168143
_cell_angle_gamma   59.98168394
_symmetry_Int_Tables_number   1
_chemical_formula_structural   ErTm5Ga7Co16
_chemical_formula_sum   'Er1 Tm5 Ga7 Co16'
_cell_volume   421.18646081
_cell_formula_units_Z   1
loop_
 _symmetry_equiv_pos_site_id
 _symmetry_equiv_pos_as_xyz
  1  'x, y, z'
loop_
 _atom_site_type_symbol
 _atom_site_label
 _atom_site_symmetry_multiplicity
 _atom_site_fract_x
 _atom_site_fract_y
 _atom_site_fract_z
 _atom_site_occupancy
  Er  Er0  1  0.718112  0.281888  0.281888  1
  Tm  Tm1  1  0.281216  0.718784  0.718784  1
  Tm  Tm2  1  0.281017  0.718983  0.281065  1
  Tm  Tm3  1  0.281017  0.281065  0.718983  1
  Tm  Tm4  1  0.718935  0.281065  0.718983  1
  Tm  Tm5  1  0.718935  0.718983  0.281065  1
  Ga  Ga6  1  0.500113  0.999887  0.999887  1
  Ga  Ga7  1  0.000113  0.499887  0.499887  1
  Ga  Ga8  1  0.000229  0.500087  0.999771  1
  Ga  Ga9  1  0.000229  0.999771  0.500087  1
  Ga  Ga10  1  0.499913  0.999771  0.500087  1
  Ga  Ga11  1  0.499913  0.500087  0.999771  1
  Ga  Ga12  1  0.999786  0.000214  0.000214  1
  Co  Co13  1  0.321989  0.322028  0.322028  1
  Co  Co14  1  0.322070  0.322032  0.033831  1
  Co  Co15  1  0.033957  0.322028  0.322028  1
  Co  Co16  1  0.322070  0.033831  0.322032  1
  Co  Co17  1  0.677968  0.677930  0.677930  1
  Co  Co18  1  0.677972  0.678011  0.966043  1
  Co  Co19  1  0.677972  0.966043  0.678011  1
  Co  Co20  1  0.966169  0.677930  0.677930  1
  Co  Co21  1  0.125992  0.125537  0.125537  1
  Co  Co22  1  0.125614  0.125667  0.623106  1
  Co  Co23  1  0.622934  0.125537  0.125537  1
  Co  Co24  1  0.125614  0.623106  0.125667  1
  Co  Co25  1  0.874333  0.874386  0.874386  1
  Co  Co26  1  0.874463  0.874008  0.377066  1
  Co  Co27  1  0.874463  0.377066  0.874008  1
  Co  Co28  1  0.376894  0.874386  0.874386  1
