# generated using pymatgen
data_Ni4Mo2IrPt
_symmetry_space_group_name_H-M   'P 1'
_cell_length_a   4.33573400
_cell_length_b   4.63682306
_cell_length_c   5.21747458
_cell_angle_alpha   90.76307450
_cell_angle_beta   90.00000000
_cell_angle_gamma   90.00000000
_symmetry_Int_Tables_number   1
_chemical_formula_structural   Ni4Mo2IrPt
_chemical_formula_sum   'Ni4 Mo2 Ir1 Pt1'
_cell_volume   104.88297030
_cell_formula_units_Z   1
loop_
 _symmetry_equiv_pos_site_id
 _symmetry_equiv_pos_as_xyz
  1  'x, y, z'
loop_
 _atom_site_type_symbol
 _atom_site_label
 _atom_site_symmetry_multiplicity
 _atom_site_fract_x
 _atom_site_fract_y
 _atom_site_fract_z
 _atom_site_occupancy
  Ni  Ni0  1  0.500000  0.165050  0.242257  1
  Ni  Ni1  1  0.000000  0.837318  0.256833  1
  Ni  Ni2  1  0.000000  0.334766  0.486247  1
  Ni  Ni3  1  0.500000  0.664739  0.014862  1
  Mo  Mo4  1  0.500000  0.656830  0.488868  1
  Mo  Mo5  1  0.000000  0.348128  0.011362  1
  Ir  Ir6  1  0.000000  0.823581  0.758743  1
  Pt  Pt7  1  0.500000  0.169587  0.740830  1
