# generated using pymatgen
data_Ce2Sc3Ga4
_symmetry_space_group_name_H-M   'P 1'
_cell_length_a   7.33899500
_cell_length_b   7.60319500
_cell_length_c   14.46994400
_cell_angle_alpha   90.00000000
_cell_angle_beta   90.00000000
_cell_angle_gamma   90.00000000
_symmetry_Int_Tables_number   1
_chemical_formula_structural   Ce2Sc3Ga4
_chemical_formula_sum   'Ce8 Sc12 Ga16'
_cell_volume   807.42012720
_cell_formula_units_Z   4
loop_
 _symmetry_equiv_pos_site_id
 _symmetry_equiv_pos_as_xyz
  1  'x, y, z'
loop_
 _atom_site_type_symbol
 _atom_site_label
 _atom_site_symmetry_multiplicity
 _atom_site_fract_x
 _atom_site_fract_y
 _atom_site_fract_z
 _atom_site_occupancy
  Ce  Ce0  1  0.988670  0.172858  0.096026  1
  Ce  Ce1  1  0.488670  0.327142  0.403974  1
  Ce  Ce2  1  0.511330  0.672858  0.903974  1
  Ce  Ce3  1  0.011330  0.827142  0.596026  1
  Ce  Ce4  1  0.011330  0.827142  0.903974  1
  Ce  Ce5  1  0.511330  0.672858  0.596026  1
  Ce  Ce6  1  0.488670  0.327142  0.096026  1
  Ce  Ce7  1  0.988670  0.172858  0.403974  1
  Sc  Sc8  1  0.662659  0.004947  0.250000  1
  Sc  Sc9  1  0.162659  0.495053  0.250000  1
  Sc  Sc10  1  0.837341  0.504947  0.750000  1
  Sc  Sc11  1  0.337341  0.995053  0.750000  1
  Sc  Sc12  1  0.829116  0.676024  0.124101  1
  Sc  Sc13  1  0.329116  0.823976  0.375899  1
  Sc  Sc14  1  0.670884  0.176024  0.875899  1
  Sc  Sc15  1  0.170884  0.323976  0.624101  1
  Sc  Sc16  1  0.170884  0.323976  0.875899  1
  Sc  Sc17  1  0.670884  0.176024  0.624101  1
  Sc  Sc18  1  0.329116  0.823976  0.124101  1
  Sc  Sc19  1  0.829116  0.676024  0.375899  1
  Ga  Ga20  1  0.787322  0.376893  0.250000  1
  Ga  Ga21  1  0.287322  0.123107  0.250000  1
  Ga  Ga22  1  0.712678  0.876893  0.750000  1
  Ga  Ga23  1  0.212678  0.623107  0.750000  1
  Ga  Ga24  1  0.033181  0.879248  0.250000  1
  Ga  Ga25  1  0.533181  0.620752  0.250000  1
  Ga  Ga26  1  0.466819  0.379248  0.750000  1
  Ga  Ga27  1  0.966819  0.120752  0.750000  1
  Ga  Ga28  1  0.843724  0.464753  0.960444  1
  Ga  Ga29  1  0.343724  0.035247  0.539556  1
  Ga  Ga30  1  0.656276  0.964753  0.039556  1
  Ga  Ga31  1  0.156276  0.535247  0.460444  1
  Ga  Ga32  1  0.156276  0.535247  0.039556  1
  Ga  Ga33  1  0.656276  0.964753  0.460444  1
  Ga  Ga34  1  0.343724  0.035247  0.960444  1
  Ga  Ga35  1  0.843724  0.464753  0.539556  1
