# generated using pymatgen
data_Dy16Ni3Hg4Ir
_symmetry_space_group_name_H-M   'P 1'
_cell_length_a   9.52793988
_cell_length_b   9.52794018
_cell_length_c   9.52793965
_cell_angle_alpha   59.94495194
_cell_angle_beta   59.94494846
_cell_angle_gamma   59.94495415
_symmetry_Int_Tables_number   1
_chemical_formula_structural   Dy16Ni3Hg4Ir
_chemical_formula_sum   'Dy16 Ni3 Hg4 Ir1'
_cell_volume   610.85687520
_cell_formula_units_Z   1
loop_
 _symmetry_equiv_pos_site_id
 _symmetry_equiv_pos_as_xyz
  1  'x, y, z'
loop_
 _atom_site_type_symbol
 _atom_site_label
 _atom_site_symmetry_multiplicity
 _atom_site_fract_x
 _atom_site_fract_y
 _atom_site_fract_z
 _atom_site_occupancy
  Dy  Dy0  1  0.597910  0.597910  0.597910  1
  Dy  Dy1  1  0.604530  0.604530  0.194493  1
  Dy  Dy2  1  0.604530  0.194493  0.604530  1
  Dy  Dy3  1  0.194493  0.604530  0.604530  1
  Dy  Dy4  1  0.059991  0.439256  0.439256  1
  Dy  Dy5  1  0.437090  0.061517  0.061517  1
  Dy  Dy6  1  0.439256  0.059991  0.439256  1
  Dy  Dy7  1  0.061517  0.437090  0.061517  1
  Dy  Dy8  1  0.439256  0.439256  0.059991  1
  Dy  Dy9  1  0.061517  0.061517  0.437090  1
  Dy  Dy10  1  0.187162  0.814815  0.814815  1
  Dy  Dy11  1  0.808625  0.188602  0.188602  1
  Dy  Dy12  1  0.814815  0.187162  0.814815  1
  Dy  Dy13  1  0.188602  0.808625  0.188602  1
  Dy  Dy14  1  0.814815  0.814815  0.187162  1
  Dy  Dy15  1  0.188602  0.188602  0.808625  1
  Ni  Ni16  1  0.391884  0.391884  0.822452  1
  Ni  Ni17  1  0.391884  0.822452  0.391884  1
  Ni  Ni18  1  0.822452  0.391884  0.391884  1
  Hg  Hg19  1  0.834872  0.834872  0.834872  1
  Hg  Hg20  1  0.833941  0.833941  0.493785  1
  Hg  Hg21  1  0.833941  0.493785  0.833941  1
  Hg  Hg22  1  0.493785  0.833941  0.833941  1
  Ir  Ir23  1  0.394535  0.394535  0.394535  1
