# generated using pymatgen
data_Hf5Mg3ZrAl13Pt7
_symmetry_space_group_name_H-M   'P 1'
_cell_length_a   8.83019052
_cell_length_b   8.83019072
_cell_length_c   8.83658317
_cell_angle_alpha   59.97610247
_cell_angle_beta   59.97610586
_cell_angle_gamma   60.04509273
_symmetry_Int_Tables_number   1
_chemical_formula_structural   Hf5Mg3ZrAl13Pt7
_chemical_formula_sum   'Hf5 Mg3 Zr1 Al13 Pt7'
_cell_volume   487.19211559
_cell_formula_units_Z   1
loop_
 _symmetry_equiv_pos_site_id
 _symmetry_equiv_pos_as_xyz
  1  'x, y, z'
loop_
 _atom_site_type_symbol
 _atom_site_label
 _atom_site_symmetry_multiplicity
 _atom_site_fract_x
 _atom_site_fract_y
 _atom_site_fract_z
 _atom_site_occupancy
  Hf  Hf0  1  0.320847  0.678010  0.322168  1
  Hf  Hf1  1  0.678010  0.320847  0.322168  1
  Hf  Hf2  1  0.322777  0.322777  0.677368  1
  Hf  Hf3  1  0.680205  0.318218  0.681451  1
  Hf  Hf4  1  0.318218  0.680205  0.681451  1
  Mg  Mg5  1  0.881977  0.881977  0.356149  1
  Mg  Mg6  1  0.882018  0.356059  0.881929  1
  Mg  Mg7  1  0.356059  0.882018  0.881929  1
  Zr  Zr8  1  0.682302  0.682302  0.317451  1
  Al  Al9  1  0.879294  0.879294  0.879017  1
  Al  Al10  1  0.120969  0.120969  0.639341  1
  Al  Al11  1  0.121204  0.639279  0.120880  1
  Al  Al12  1  0.639279  0.121204  0.120880  1
  Al  Al13  1  0.119475  0.119475  0.119433  1
  Al  Al14  1  0.662508  0.662508  0.010151  1
  Al  Al15  1  0.662212  0.011074  0.662380  1
  Al  Al16  1  0.011074  0.662212  0.662380  1
  Al  Al17  1  0.663542  0.663542  0.664001  1
  Al  Al18  1  0.336991  0.336991  0.987723  1
  Al  Al19  1  0.336495  0.988669  0.336820  1
  Al  Al20  1  0.988669  0.336495  0.336820  1
  Al  Al21  1  0.337587  0.337587  0.337782  1
  Pt  Pt22  1  0.994679  0.994679  0.994909  1
  Pt  Pt23  1  0.000534  0.000534  0.506433  1
  Pt  Pt24  1  0.496896  0.002364  0.497673  1
  Pt  Pt25  1  0.002364  0.496896  0.497673  1
  Pt  Pt26  1  0.497185  0.497185  0.002458  1
  Pt  Pt27  1  0.000691  0.505938  0.000588  1
  Pt  Pt28  1  0.505938  0.000691  0.000588  1
