# generated using pymatgen
data_TbEr3Fe3Ru5
_symmetry_space_group_name_H-M   'P 1'
_cell_length_a   5.21702086
_cell_length_b   5.39781057
_cell_length_c   9.05639793
_cell_angle_alpha   72.66183461
_cell_angle_beta   91.88297962
_cell_angle_gamma   121.15309855
_symmetry_Int_Tables_number   1
_chemical_formula_structural   TbEr3Fe3Ru5
_chemical_formula_sum   'Tb1 Er3 Fe3 Ru5'
_cell_volume   206.02696587
_cell_formula_units_Z   1
loop_
 _symmetry_equiv_pos_site_id
 _symmetry_equiv_pos_as_xyz
  1  'x, y, z'
loop_
 _atom_site_type_symbol
 _atom_site_label
 _atom_site_symmetry_multiplicity
 _atom_site_fract_x
 _atom_site_fract_y
 _atom_site_fract_z
 _atom_site_occupancy
  Tb  Tb0  1  0.874177  0.749478  0.375221  1
  Er  Er1  1  0.375913  0.750843  0.874227  1
  Er  Er2  1  0.999249  0.999339  0.000571  1
  Er  Er3  1  0.501011  0.000435  0.500142  1
  Fe  Fe4  1  0.687487  0.375067  0.937353  1
  Fe  Fe5  1  0.939041  0.376839  0.185361  1
  Fe  Fe6  1  0.435674  0.373080  0.689513  1
  Ru  Ru7  1  0.441721  0.376960  0.181967  1
  Ru  Ru8  1  0.933312  0.372982  0.693024  1
  Ru  Ru9  1  0.441721  0.882795  0.181967  1
  Ru  Ru10  1  0.933312  0.867307  0.693024  1
  Ru  Ru11  1  0.187379  0.374874  0.437630  1
