# generated using pymatgen
data_Ca2Pr8Si5Sb
_symmetry_space_group_name_H-M   'P 1'
_cell_length_a   9.14405041
_cell_length_b   9.14405028
_cell_length_c   9.14405000
_cell_angle_alpha   129.22211993
_cell_angle_beta   129.22212734
_cell_angle_gamma   74.65342944
_symmetry_Int_Tables_number   1
_chemical_formula_structural   Ca2Pr8Si5Sb
_chemical_formula_sum   'Ca2 Pr8 Si5 Sb1'
_cell_volume   447.07168115
_cell_formula_units_Z   1
loop_
 _symmetry_equiv_pos_site_id
 _symmetry_equiv_pos_as_xyz
  1  'x, y, z'
loop_
 _atom_site_type_symbol
 _atom_site_label
 _atom_site_symmetry_multiplicity
 _atom_site_fract_x
 _atom_site_fract_y
 _atom_site_fract_z
 _atom_site_occupancy
  Ca  Ca0  1  0.991125  0.991125  0.000000  1
  Ca  Ca1  1  0.508875  0.508875  0.000000  1
  Pr  Pr2  1  0.827992  0.311149  0.855857  1
  Pr  Pr3  1  0.188851  0.672008  0.144143  1
  Pr  Pr4  1  0.455292  0.972135  0.144143  1
  Pr  Pr5  1  0.311149  0.455292  0.483157  1
  Pr  Pr6  1  0.044708  0.188851  0.516843  1
  Pr  Pr7  1  0.527865  0.044708  0.855857  1
  Pr  Pr8  1  0.672008  0.527865  0.483157  1
  Pr  Pr9  1  0.972135  0.827992  0.516843  1
  Si  Si10  1  0.113834  0.613834  0.727669  1
  Si  Si11  1  0.886166  0.386166  0.272331  1
  Si  Si12  1  0.613834  0.886166  0.500000  1
  Si  Si13  1  0.386166  0.113834  0.500000  1
  Si  Si14  1  0.250000  0.250000  0.000000  1
  Sb  Sb15  1  0.750000  0.750000  0.000000  1
