# generated using pymatgen
data_Pr8Si12Pd3Au
_symmetry_space_group_name_H-M   'P 1'
_cell_length_a   8.29211500
_cell_length_b   8.29211641
_cell_length_c   8.65575200
_cell_angle_alpha   90.00000000
_cell_angle_beta   90.00000000
_cell_angle_gamma   120.00000635
_symmetry_Int_Tables_number   1
_chemical_formula_structural   Pr8Si12Pd3Au
_chemical_formula_sum   'Pr8 Si12 Pd3 Au1'
_cell_volume   515.42575457
_cell_formula_units_Z   1
loop_
 _symmetry_equiv_pos_site_id
 _symmetry_equiv_pos_as_xyz
  1  'x, y, z'
loop_
 _atom_site_type_symbol
 _atom_site_label
 _atom_site_symmetry_multiplicity
 _atom_site_fract_x
 _atom_site_fract_y
 _atom_site_fract_z
 _atom_site_occupancy
  Pr  Pr0  1  0.499123  0.500877  0.747403  1
  Pr  Pr1  1  0.499396  0.500604  0.252396  1
  Pr  Pr2  1  0.001754  0.500877  0.747403  1
  Pr  Pr3  1  0.001209  0.500604  0.252396  1
  Pr  Pr4  1  0.499123  0.998246  0.747403  1
  Pr  Pr5  1  0.499396  0.998791  0.252396  1
  Pr  Pr6  1  0.000000  0.000000  0.748086  1
  Pr  Pr7  1  0.000000  0.000000  0.252175  1
  Si  Si8  1  0.837842  0.162158  0.999905  1
  Si  Si9  1  0.167266  0.832734  0.000209  1
  Si  Si10  1  0.324317  0.162158  0.999905  1
  Si  Si11  1  0.165532  0.834468  0.499300  1
  Si  Si12  1  0.665467  0.832734  0.000209  1
  Si  Si13  1  0.834074  0.165926  0.500684  1
  Si  Si14  1  0.837842  0.675683  0.999905  1
  Si  Si15  1  0.668936  0.834468  0.499300  1
  Si  Si16  1  0.167266  0.334533  0.000209  1
  Si  Si17  1  0.331852  0.165926  0.500684  1
  Si  Si18  1  0.165532  0.331064  0.499300  1
  Si  Si19  1  0.834074  0.668148  0.500684  1
  Pd  Pd20  1  0.333333  0.666667  0.000845  1
  Pd  Pd21  1  0.333333  0.666667  0.498955  1
  Pd  Pd22  1  0.666667  0.333333  0.500772  1
  Au  Au23  1  0.666667  0.333333  0.999476  1
