# generated using pymatgen
data_La8Tb12Si15Au
_symmetry_space_group_name_H-M   'P 1'
_cell_length_a   7.87803250
_cell_length_b   7.85525229
_cell_length_c   14.68311502
_cell_angle_alpha   89.92649472
_cell_angle_beta   89.65788150
_cell_angle_gamma   90.16007686
_symmetry_Int_Tables_number   1
_chemical_formula_structural   La8Tb12Si15Au
_chemical_formula_sum   'La8 Tb12 Si15 Au1'
_cell_volume   908.62839196
_cell_formula_units_Z   1
loop_
 _symmetry_equiv_pos_site_id
 _symmetry_equiv_pos_as_xyz
  1  'x, y, z'
loop_
 _atom_site_type_symbol
 _atom_site_label
 _atom_site_symmetry_multiplicity
 _atom_site_fract_x
 _atom_site_fract_y
 _atom_site_fract_z
 _atom_site_occupancy
  La  La0  1  0.990586  0.633891  0.044512  1
  La  La1  1  0.012676  0.358570  0.543450  1
  La  La2  1  0.635743  0.988049  0.955725  1
  La  La3  1  0.138297  0.511469  0.792902  1
  La  La4  1  0.855906  0.483980  0.291250  1
  La  La5  1  0.508190  0.135565  0.204564  1
  La  La6  1  0.492821  0.864200  0.706017  1
  La  La7  1  0.369084  0.014928  0.458204  1
  Tb  Tb8  1  0.368444  0.488598  0.375819  1
  Tb  Tb9  1  0.857690  0.016756  0.370631  1
  Tb  Tb10  1  0.989029  0.136344  0.124745  1
  Tb  Tb11  1  0.016183  0.865999  0.626261  1
  Tb  Tb12  1  0.637871  0.512000  0.875178  1
  Tb  Tb13  1  0.492677  0.362174  0.626239  1
  Tb  Tb14  1  0.508958  0.633657  0.123701  1
  Tb  Tb15  1  0.134096  0.989219  0.875798  1
  Tb  Tb16  1  0.687321  0.691842  0.499795  1
  Tb  Tb17  1  0.815684  0.185010  0.749607  1
  Tb  Tb18  1  0.177350  0.809907  0.251021  1
  Tb  Tb19  1  0.312444  0.316163  0.999284  1
  Si  Si20  1  0.930791  0.286455  0.938309  1
  Si  Si21  1  0.713559  0.068664  0.562411  1
  Si  Si22  1  0.212992  0.430179  0.189021  1
  Si  Si23  1  0.788218  0.569596  0.688346  1
  Si  Si24  1  0.431393  0.213321  0.812423  1
  Si  Si25  1  0.566231  0.787221  0.309612  1
  Si  Si26  1  0.287254  0.930723  0.062022  1
  Si  Si27  1  0.843528  0.799382  0.805901  1
  Si  Si28  1  0.157274  0.201495  0.306859  1
  Si  Si29  1  0.793565  0.843316  0.191809  1
  Si  Si30  1  0.304676  0.653374  0.560401  1
  Si  Si31  1  0.700425  0.341212  0.054837  1
  Si  Si32  1  0.658359  0.300857  0.445626  1
  Si  Si33  1  0.342267  0.700696  0.944596  1
  Si  Si34  1  0.202658  0.158233  0.695768  1
  Au  Au35  1  0.065761  0.716955  0.437356  1
