# generated using pymatgen
data_LaNd7(SiPd)8
_symmetry_space_group_name_H-M   'P 1'
_cell_length_a   5.88047231
_cell_length_b   7.89855774
_cell_length_c   10.88796476
_cell_angle_alpha   88.27906581
_cell_angle_beta   90.06203393
_cell_angle_gamma   89.95806289
_symmetry_Int_Tables_number   1
_chemical_formula_structural   LaNd7(SiPd)8
_chemical_formula_sum   'La1 Nd7 Si8 Pd8'
_cell_volume   505.48747634
_cell_formula_units_Z   1
loop_
 _symmetry_equiv_pos_site_id
 _symmetry_equiv_pos_as_xyz
  1  'x, y, z'
loop_
 _atom_site_type_symbol
 _atom_site_label
 _atom_site_symmetry_multiplicity
 _atom_site_fract_x
 _atom_site_fract_y
 _atom_site_fract_z
 _atom_site_occupancy
  La  La0  1  0.630454  0.326861  0.369806  1
  Nd  Nd1  1  0.364415  0.965341  0.142622  1
  Nd  Nd2  1  0.635106  0.034359  0.857248  1
  Nd  Nd3  1  0.864500  0.534623  0.857058  1
  Nd  Nd4  1  0.134823  0.466331  0.142241  1
  Nd  Nd5  1  0.868623  0.826799  0.370777  1
  Nd  Nd6  1  0.132015  0.173011  0.629855  1
  Nd  Nd7  1  0.368039  0.673617  0.630025  1
  Si  Si8  1  0.868103  0.535648  0.578105  1
  Si  Si9  1  0.132094  0.466468  0.423193  1
  Si  Si10  1  0.367236  0.963938  0.423404  1
  Si  Si11  1  0.632867  0.033333  0.578400  1
  Si  Si12  1  0.643704  0.625469  0.142776  1
  Si  Si13  1  0.355766  0.375595  0.856252  1
  Si  Si14  1  0.143713  0.875365  0.856335  1
  Si  Si15  1  0.857149  0.123976  0.142456  1
  Pd  Pd16  1  0.901750  0.836464  0.051757  1
  Pd  Pd17  1  0.098707  0.163429  0.947530  1
  Pd  Pd18  1  0.401555  0.663369  0.947798  1
  Pd  Pd19  1  0.598780  0.336602  0.051434  1
  Pd  Pd20  1  0.893240  0.821560  0.669191  1
  Pd  Pd21  1  0.106490  0.177640  0.331149  1
  Pd  Pd22  1  0.393163  0.678662  0.331037  1
  Pd  Pd23  1  0.607709  0.321539  0.669552  1
