# generated using pymatgen
data_Eu10Si5Ni
_symmetry_space_group_name_H-M   'P 1'
_cell_length_a   9.12015898
_cell_length_b   9.12015856
_cell_length_c   9.15261209
_cell_angle_alpha   129.47614079
_cell_angle_beta   129.47614031
_cell_angle_gamma   73.97611328
_symmetry_Int_Tables_number   1
_chemical_formula_structural   Eu10Si5Ni
_chemical_formula_sum   'Eu10 Si5 Ni1'
_cell_volume   442.97064369
_cell_formula_units_Z   1
loop_
 _symmetry_equiv_pos_site_id
 _symmetry_equiv_pos_as_xyz
  1  'x, y, z'
loop_
 _atom_site_type_symbol
 _atom_site_label
 _atom_site_symmetry_multiplicity
 _atom_site_fract_x
 _atom_site_fract_y
 _atom_site_fract_z
 _atom_site_occupancy
  Eu  Eu0  1  0.534777  0.034777  0.855879  1
  Eu  Eu1  1  0.177609  0.677609  0.143790  1
  Eu  Eu2  1  0.029959  0.178679  0.497791  1
  Eu  Eu3  1  0.678679  0.529959  0.497791  1
  Eu  Eu4  1  0.466182  0.966182  0.143790  1
  Eu  Eu5  1  0.821103  0.321103  0.855879  1
  Eu  Eu6  1  0.967830  0.819110  0.497791  1
  Eu  Eu7  1  0.319110  0.467830  0.497791  1
  Eu  Eu8  1  0.501160  0.498715  0.999875  1
  Eu  Eu9  1  0.998715  0.001160  0.999875  1
  Si  Si10  1  0.111375  0.611375  0.722752  1
  Si  Si11  1  0.388541  0.109938  0.498480  1
  Si  Si12  1  0.609938  0.888541  0.498480  1
  Si  Si13  1  0.247876  0.247876  0.995750  1
  Si  Si14  1  0.747876  0.747876  0.995750  1
  Ni  Ni15  1  0.899269  0.399269  0.298537  1
