# generated using pymatgen
data_Pr6Sm2Sc12Si15Hg
_symmetry_space_group_name_H-M   'P 1'
_cell_length_a   7.27894910
_cell_length_b   7.53178179
_cell_length_c   14.34545968
_cell_angle_alpha   89.94628567
_cell_angle_beta   89.59103464
_cell_angle_gamma   90.18052185
_symmetry_Int_Tables_number   1
_chemical_formula_structural   Pr6Sm2Sc12Si15Hg
_chemical_formula_sum   'Pr6 Sm2 Sc12 Si15 Hg1'
_cell_volume   786.44338159
_cell_formula_units_Z   1
loop_
 _symmetry_equiv_pos_site_id
 _symmetry_equiv_pos_as_xyz
  1  'x, y, z'
loop_
 _atom_site_type_symbol
 _atom_site_label
 _atom_site_symmetry_multiplicity
 _atom_site_fract_x
 _atom_site_fract_y
 _atom_site_fract_z
 _atom_site_occupancy
  Pr  Pr0  1  0.488187  0.672443  0.903149  1
  Pr  Pr1  1  0.494876  0.678789  0.599986  1
  Pr  Pr2  1  0.988063  0.834388  0.597242  1
  Pr  Pr3  1  0.987399  0.828315  0.903515  1
  Pr  Pr4  1  0.511768  0.327580  0.097791  1
  Pr  Pr5  1  0.012382  0.172584  0.098484  1
  Sm  Sm6  1  0.008216  0.170772  0.396433  1
  Sm  Sm7  1  0.512748  0.324275  0.397081  1
  Sc  Sc8  1  0.342255  0.169103  0.628687  1
  Sc  Sc9  1  0.665526  0.824351  0.373241  1
  Sc  Sc10  1  0.663507  0.001675  0.752376  1
  Sc  Sc11  1  0.168074  0.677491  0.371434  1
  Sc  Sc12  1  0.829922  0.323187  0.876575  1
  Sc  Sc13  1  0.823078  0.324735  0.625480  1
  Sc  Sc14  1  0.838670  0.501775  0.250413  1
  Sc  Sc15  1  0.339475  0.997130  0.249106  1
  Sc  Sc16  1  0.328423  0.174508  0.876321  1
  Sc  Sc17  1  0.169407  0.676122  0.125594  1
  Sc  Sc18  1  0.670693  0.823888  0.124999  1
  Sc  Sc19  1  0.161244  0.497666  0.754982  1
  Si  Si20  1  0.286168  0.881957  0.751577  1
  Si  Si21  1  0.464912  0.623285  0.249066  1
  Si  Si22  1  0.035942  0.128809  0.751192  1
  Si  Si23  1  0.535668  0.376399  0.752071  1
  Si  Si24  1  0.964217  0.876583  0.249330  1
  Si  Si25  1  0.711069  0.119793  0.249741  1
  Si  Si26  1  0.849088  0.536940  0.039856  1
  Si  Si27  1  0.348576  0.962442  0.040194  1
  Si  Si28  1  0.150773  0.462776  0.961648  1
  Si  Si29  1  0.652673  0.042365  0.535460  1
  Si  Si30  1  0.344439  0.964336  0.458523  1
  Si  Si31  1  0.836292  0.537923  0.456511  1
  Si  Si32  1  0.790935  0.617448  0.751896  1
  Si  Si33  1  0.211900  0.379837  0.250476  1
  Si  Si34  1  0.650386  0.037128  0.960678  1
  Hg  Hg35  1  0.163047  0.451200  0.538895  1
