# generated using pymatgen
data_Nd5FePtO12
_symmetry_space_group_name_H-M   'P 1'
_cell_length_a   7.05851080
_cell_length_b   7.05851074
_cell_length_c   7.59318300
_cell_angle_alpha   74.44605604
_cell_angle_beta   74.44605618
_cell_angle_gamma   51.07799278
_symmetry_Int_Tables_number   1
_chemical_formula_structural   Nd5FePtO12
_chemical_formula_sum   'Nd5 Fe1 Pt1 O12'
_cell_volume   281.02987553
_cell_formula_units_Z   1
loop_
 _symmetry_equiv_pos_site_id
 _symmetry_equiv_pos_as_xyz
  1  'x, y, z'
loop_
 _atom_site_type_symbol
 _atom_site_label
 _atom_site_symmetry_multiplicity
 _atom_site_fract_x
 _atom_site_fract_y
 _atom_site_fract_z
 _atom_site_occupancy
  Nd  Nd0  1  0.307635  0.303684  0.358211  1
  Nd  Nd1  1  0.696316  0.692365  0.641789  1
  Nd  Nd2  1  0.692138  0.694484  0.166693  1
  Nd  Nd3  1  0.305516  0.307862  0.833307  1
  Nd  Nd4  1  0.003286  0.996714  0.500000  1
  Fe  Fe5  1  0.756173  0.243827  0.000000  1
  Pt  Pt6  1  0.243247  0.756753  0.000000  1
  O  O7  1  0.096631  0.593148  0.577989  1
  O  O8  1  0.000263  0.997818  0.178042  1
  O  O9  1  0.406852  0.903369  0.422011  1
  O  O10  1  0.493586  0.507200  0.177317  1
  O  O11  1  0.096876  0.576044  0.079786  1
  O  O12  1  0.905367  0.401209  0.422856  1
  O  O13  1  0.002182  0.999737  0.821958  1
  O  O14  1  0.598791  0.094632  0.577144  1
  O  O15  1  0.492800  0.506414  0.822683  1
  O  O16  1  0.583982  0.105597  0.076511  1
  O  O17  1  0.423956  0.903124  0.920214  1
  O  O18  1  0.894403  0.416018  0.923489  1
