# generated using pymatgen
data_TbYLu14(In3Ag)2
_symmetry_space_group_name_H-M   'P 1'
_cell_length_a   10.44005500
_cell_length_b   10.44005538
_cell_length_c   6.79332600
_cell_angle_alpha   90.00000000
_cell_angle_beta   90.00000000
_cell_angle_gamma   120.00000196
_symmetry_Int_Tables_number   1
_chemical_formula_structural   TbYLu14(In3Ag)2
_chemical_formula_sum   'Tb1 Y1 Lu14 In6 Ag2'
_cell_volume   641.23713995
_cell_formula_units_Z   1
loop_
 _symmetry_equiv_pos_site_id
 _symmetry_equiv_pos_as_xyz
  1  'x, y, z'
loop_
 _atom_site_type_symbol
 _atom_site_label
 _atom_site_symmetry_multiplicity
 _atom_site_fract_x
 _atom_site_fract_y
 _atom_site_fract_z
 _atom_site_occupancy
  Tb  Tb0  1  0.000000  0.000000  0.500790  1
  Y  Y1  1  0.000000  0.000000  0.000901  1
  Lu  Lu2  1  0.477990  0.522010  0.474635  1
  Lu  Lu3  1  0.044022  0.522010  0.474635  1
  Lu  Lu4  1  0.477990  0.955978  0.474635  1
  Lu  Lu5  1  0.522009  0.477991  0.974852  1
  Lu  Lu6  1  0.955979  0.477991  0.974852  1
  Lu  Lu7  1  0.522009  0.044021  0.974852  1
  Lu  Lu8  1  0.826273  0.173727  0.265541  1
  Lu  Lu9  1  0.347455  0.173727  0.265541  1
  Lu  Lu10  1  0.826273  0.652545  0.265541  1
  Lu  Lu11  1  0.173787  0.826213  0.765558  1
  Lu  Lu12  1  0.652424  0.826213  0.765558  1
  Lu  Lu13  1  0.173787  0.347576  0.765558  1
  Lu  Lu14  1  0.333333  0.666667  0.120612  1
  Lu  Lu15  1  0.666667  0.333333  0.621385  1
  In  In16  1  0.164651  0.835349  0.241622  1
  In  In17  1  0.670696  0.835349  0.241622  1
  In  In18  1  0.164651  0.329304  0.241622  1
  In  In19  1  0.835374  0.164626  0.742418  1
  In  In20  1  0.329253  0.164626  0.742418  1
  In  In21  1  0.835374  0.670747  0.742418  1
  Ag  Ag22  1  0.333333  0.666667  0.703057  1
  Ag  Ag23  1  0.666667  0.333333  0.203927  1
