# generated using pymatgen
data_TmSc2Ga5Ni
_symmetry_space_group_name_H-M   'P 1'
_cell_length_a   6.73449375
_cell_length_b   6.73449338
_cell_length_c   4.08540500
_cell_angle_alpha   90.00000000
_cell_angle_beta   90.00000000
_cell_angle_gamma   120.70027265
_symmetry_Int_Tables_number   1
_chemical_formula_structural   TmSc2Ga5Ni
_chemical_formula_sum   'Tm1 Sc2 Ga5 Ni1'
_cell_volume   159.31901635
_cell_formula_units_Z   1
loop_
 _symmetry_equiv_pos_site_id
 _symmetry_equiv_pos_as_xyz
  1  'x, y, z'
loop_
 _atom_site_type_symbol
 _atom_site_label
 _atom_site_symmetry_multiplicity
 _atom_site_fract_x
 _atom_site_fract_y
 _atom_site_fract_z
 _atom_site_occupancy
  Tm  Tm0  1  0.411134  0.411134  0.000000  1
  Sc  Sc1  1  0.595751  0.002618  0.000000  1
  Sc  Sc2  1  0.002618  0.595751  0.000000  1
  Ga  Ga3  1  0.236834  0.998186  0.500000  1
  Ga  Ga4  1  0.998186  0.236834  0.500000  1
  Ga  Ga5  1  0.762071  0.762071  0.500000  1
  Ga  Ga6  1  0.330790  0.672626  0.500000  1
  Ga  Ga7  1  0.672626  0.330790  0.500000  1
  Ni  Ni8  1  0.989990  0.989990  0.000000  1
