# generated using pymatgen
data_Tb16MgHg3(RuPt)2
_symmetry_space_group_name_H-M   'P 1'
_cell_length_a   9.67553472
_cell_length_b   9.67868148
_cell_length_c   9.65879600
_cell_angle_alpha   60.06794121
_cell_angle_beta   60.05721162
_cell_angle_gamma   60.16839956
_symmetry_Int_Tables_number   1
_chemical_formula_structural   Tb16MgHg3(RuPt)2
_chemical_formula_sum   'Tb16 Mg1 Hg3 Ru2 Pt2'
_cell_volume   641.00291725
_cell_formula_units_Z   1
loop_
 _symmetry_equiv_pos_site_id
 _symmetry_equiv_pos_as_xyz
  1  'x, y, z'
loop_
 _atom_site_type_symbol
 _atom_site_label
 _atom_site_symmetry_multiplicity
 _atom_site_fract_x
 _atom_site_fract_y
 _atom_site_fract_z
 _atom_site_occupancy
  Tb  Tb0  1  0.600153  0.598820  0.594883  1
  Tb  Tb1  1  0.600153  0.598820  0.206144  1
  Tb  Tb2  1  0.608209  0.197851  0.596970  1
  Tb  Tb3  1  0.187413  0.608891  0.601849  1
  Tb  Tb4  1  0.052223  0.441945  0.442662  1
  Tb  Tb5  1  0.437209  0.056871  0.065634  1
  Tb  Tb6  1  0.437209  0.056871  0.440285  1
  Tb  Tb7  1  0.052223  0.441945  0.063170  1
  Tb  Tb8  1  0.439353  0.440065  0.060290  1
  Tb  Tb9  1  0.058951  0.060813  0.440118  1
  Tb  Tb10  1  0.188100  0.814725  0.809979  1
  Tb  Tb11  1  0.814206  0.188477  0.186478  1
  Tb  Tb12  1  0.814206  0.188477  0.810839  1
  Tb  Tb13  1  0.188100  0.814725  0.187195  1
  Tb  Tb14  1  0.811734  0.813008  0.187629  1
  Tb  Tb15  1  0.186489  0.188043  0.812733  1
  Mg  Mg16  1  0.536457  0.820181  0.821681  1
  Hg  Hg17  1  0.832591  0.837305  0.837154  1
  Hg  Hg18  1  0.832591  0.837305  0.492947  1
  Hg  Hg19  1  0.832188  0.493077  0.837367  1
  Ru  Ru20  1  0.387738  0.825763  0.393249  1
  Ru  Ru21  1  0.824855  0.391424  0.391860  1
  Pt  Pt22  1  0.388822  0.392296  0.396307  1
  Pt  Pt23  1  0.388822  0.392296  0.822574  1
