# generated using pymatgen
data_RbMnCrF6
_symmetry_space_group_name_H-M   'P 1'
_cell_length_a   7.54526775
_cell_length_b   7.54526799
_cell_length_c   7.54526796
_cell_angle_alpha   120.03339134
_cell_angle_beta   120.34303425
_cell_angle_gamma   89.67452891
_symmetry_Int_Tables_number   1
_chemical_formula_structural   RbMnCrF6
_chemical_formula_sum   'Rb2 Mn2 Cr2 F12'
_cell_volume   302.87270400
_cell_formula_units_Z   2
loop_
 _symmetry_equiv_pos_site_id
 _symmetry_equiv_pos_as_xyz
  1  'x, y, z'
loop_
 _atom_site_type_symbol
 _atom_site_label
 _atom_site_symmetry_multiplicity
 _atom_site_fract_x
 _atom_site_fract_y
 _atom_site_fract_z
 _atom_site_occupancy
  Rb  Rb0  1  0.612202  0.362202  0.250000  1
  Rb  Rb1  1  0.387798  0.637798  0.750000  1
  Mn  Mn2  1  0.500000  0.000000  0.500000  1
  Mn  Mn3  1  0.000000  0.000000  0.000000  1
  Cr  Cr4  1  0.000000  0.000000  0.500000  1
  Cr  Cr5  1  0.000000  0.500000  0.000000  1
  F  F6  1  0.050745  0.300745  0.750000  1
  F  F7  1  0.662812  0.912812  0.750000  1
  F  F8  1  0.059247  0.337913  0.145850  1
  F  F9  1  0.692063  0.913397  0.354150  1
  F  F10  1  0.692063  0.337913  0.778666  1
  F  F11  1  0.059247  0.913397  0.721334  1
  F  F12  1  0.949255  0.699255  0.250000  1
  F  F13  1  0.337188  0.087188  0.250000  1
  F  F14  1  0.940753  0.662087  0.854150  1
  F  F15  1  0.307937  0.086603  0.645850  1
  F  F16  1  0.307937  0.662087  0.221334  1
  F  F17  1  0.940753  0.086603  0.278666  1
