# generated using pymatgen
data_Ho8ErTm(SiB4)4
_symmetry_space_group_name_H-M   'P 1'
_cell_length_a   7.20144800
_cell_length_b   7.20144800
_cell_length_c   8.03039700
_cell_angle_alpha   90.00000000
_cell_angle_beta   90.00000000
_cell_angle_gamma   90.00000000
_symmetry_Int_Tables_number   1
_chemical_formula_structural   Ho8ErTm(SiB4)4
_chemical_formula_sum   'Ho8 Er1 Tm1 Si4 B16'
_cell_volume   416.46324073
_cell_formula_units_Z   1
loop_
 _symmetry_equiv_pos_site_id
 _symmetry_equiv_pos_as_xyz
  1  'x, y, z'
loop_
 _atom_site_type_symbol
 _atom_site_label
 _atom_site_symmetry_multiplicity
 _atom_site_fract_x
 _atom_site_fract_y
 _atom_site_fract_z
 _atom_site_occupancy
  Ho  Ho0  1  0.680122  0.180260  0.224332  1
  Ho  Ho1  1  0.319878  0.819740  0.775668  1
  Ho  Ho2  1  0.319878  0.819740  0.224332  1
  Ho  Ho3  1  0.819740  0.680122  0.224332  1
  Ho  Ho4  1  0.819740  0.680122  0.775668  1
  Ho  Ho5  1  0.680122  0.180260  0.775668  1
  Ho  Ho6  1  0.180260  0.319878  0.775668  1
  Ho  Ho7  1  0.180260  0.319878  0.224332  1
  Er  Er8  1  0.000000  0.000000  0.500000  1
  Tm  Tm9  1  0.500000  0.500000  0.500000  1
  Si  Si10  1  0.115985  0.615473  0.500000  1
  Si  Si11  1  0.884015  0.384527  0.500000  1
  Si  Si12  1  0.384527  0.115985  0.500000  1
  Si  Si13  1  0.615473  0.884015  0.500000  1
  B  B14  1  0.172897  0.039180  0.000000  1
  B  B15  1  0.827103  0.960820  0.000000  1
  B  B16  1  0.960820  0.172897  0.000000  1
  B  B17  1  0.327102  0.539160  0.000000  1
  B  B18  1  0.039180  0.827103  0.000000  1
  B  B19  1  0.672898  0.460840  0.000000  1
  B  B20  1  0.539160  0.672898  0.000000  1
  B  B21  1  0.460840  0.327102  0.000000  1
  B  B22  1  0.089611  0.589642  0.000000  1
  B  B23  1  0.910389  0.410358  0.000000  1
  B  B24  1  0.410358  0.089611  0.000000  1
  B  B25  1  0.589642  0.910389  0.000000  1
  B  B26  1  0.000000  0.000000  0.164031  1
  B  B27  1  0.000000  0.000000  0.835969  1
  B  B28  1  0.500000  0.500000  0.835750  1
  B  B29  1  0.500000  0.500000  0.164250  1
