# generated using pymatgen
data_Nd4Sc4Ir3Pt
_symmetry_space_group_name_H-M   'P 1'
_cell_length_a   4.48819500
_cell_length_b   7.16667598
_cell_length_c   8.73798663
_cell_angle_alpha   88.17090544
_cell_angle_beta   90.00000000
_cell_angle_gamma   90.00000000
_symmetry_Int_Tables_number   1
_chemical_formula_structural   Nd4Sc4Ir3Pt
_chemical_formula_sum   'Nd4 Sc4 Ir3 Pt1'
_cell_volume   280.91797267
_cell_formula_units_Z   1
loop_
 _symmetry_equiv_pos_site_id
 _symmetry_equiv_pos_as_xyz
  1  'x, y, z'
loop_
 _atom_site_type_symbol
 _atom_site_label
 _atom_site_symmetry_multiplicity
 _atom_site_fract_x
 _atom_site_fract_y
 _atom_site_fract_z
 _atom_site_occupancy
  Nd  Nd0  1  0.250000  0.013130  0.673786  1
  Nd  Nd1  1  0.250000  0.525648  0.817679  1
  Nd  Nd2  1  0.750000  0.984193  0.325391  1
  Nd  Nd3  1  0.750000  0.482129  0.181936  1
  Sc  Sc4  1  0.250000  0.132937  0.069935  1
  Sc  Sc5  1  0.250000  0.638517  0.431018  1
  Sc  Sc6  1  0.750000  0.863397  0.935209  1
  Sc  Sc7  1  0.750000  0.360148  0.568269  1
  Ir  Ir8  1  0.250000  0.266561  0.402101  1
  Ir  Ir9  1  0.250000  0.762122  0.092401  1
  Ir  Ir10  1  0.750000  0.732621  0.598628  1
  Pt  Pt11  1  0.750000  0.238598  0.903645  1
