# generated using pymatgen
data_LaEu(CuO3)2
_symmetry_space_group_name_H-M   'P 1'
_cell_length_a   3.95668400
_cell_length_b   12.66341900
_cell_length_c   5.41864200
_cell_angle_alpha   90.00000000
_cell_angle_beta   90.00000000
_cell_angle_gamma   90.00000000
_symmetry_Int_Tables_number   1
_chemical_formula_structural   LaEu(CuO3)2
_chemical_formula_sum   'La2 Eu2 Cu4 O12'
_cell_volume   271.50185581
_cell_formula_units_Z   2
loop_
 _symmetry_equiv_pos_site_id
 _symmetry_equiv_pos_as_xyz
  1  'x, y, z'
loop_
 _atom_site_type_symbol
 _atom_site_label
 _atom_site_symmetry_multiplicity
 _atom_site_fract_x
 _atom_site_fract_y
 _atom_site_fract_z
 _atom_site_occupancy
  La  La0  1  0.267119  0.416135  0.749999  1
  La  La1  1  0.732881  0.916135  0.749999  1
  Eu  Eu2  1  0.241136  0.085022  0.250000  1
  Eu  Eu3  1  0.758864  0.585022  0.250000  1
  Cu  Cu4  1  0.908300  0.325554  0.250000  1
  Cu  Cu5  1  0.091700  0.825554  0.250000  1
  Cu  Cu6  1  0.900985  0.173323  0.749999  1
  Cu  Cu7  1  0.099015  0.673323  0.749999  1
  O  O8  1  0.129435  0.247474  0.001600  1
  O  O9  1  0.870565  0.747474  0.001600  1
  O  O10  1  0.754196  0.418372  0.017777  1
  O  O11  1  0.245804  0.918372  0.017777  1
  O  O12  1  0.754196  0.418372  0.482224  1
  O  O13  1  0.245804  0.918372  0.482224  1
  O  O14  1  0.129435  0.247474  0.498401  1
  O  O15  1  0.870565  0.747474  0.498401  1
  O  O16  1  0.736733  0.084136  0.510993  1
  O  O17  1  0.263267  0.584136  0.510993  1
  O  O18  1  0.736733  0.084136  0.989008  1
  O  O19  1  0.263267  0.584136  0.989008  1
