# generated using pymatgen
data_Ti10Sb6C
_symmetry_space_group_name_H-M   'P 1'
_cell_length_a   7.99554700
_cell_length_b   7.99554864
_cell_length_c   5.46782900
_cell_angle_alpha   90.00000000
_cell_angle_beta   90.00000000
_cell_angle_gamma   119.99998908
_symmetry_Int_Tables_number   1
_chemical_formula_structural   Ti10Sb6C
_chemical_formula_sum   'Ti10 Sb6 C1'
_cell_volume   302.72065442
_cell_formula_units_Z   1
loop_
 _symmetry_equiv_pos_site_id
 _symmetry_equiv_pos_as_xyz
  1  'x, y, z'
loop_
 _atom_site_type_symbol
 _atom_site_label
 _atom_site_symmetry_multiplicity
 _atom_site_fract_x
 _atom_site_fract_y
 _atom_site_fract_z
 _atom_site_occupancy
  Ti  Ti0  1  0.000000  0.776202  0.270677  1
  Ti  Ti1  1  0.223798  0.223798  0.270677  1
  Ti  Ti2  1  0.776202  0.000000  0.270677  1
  Ti  Ti3  1  0.000000  0.223798  0.729323  1
  Ti  Ti4  1  0.776202  0.776202  0.729323  1
  Ti  Ti5  1  0.223798  0.000000  0.729323  1
  Ti  Ti6  1  0.333333  0.666667  0.000000  1
  Ti  Ti7  1  0.666667  0.333333  0.000000  1
  Ti  Ti8  1  0.666667  0.333333  0.500000  1
  Ti  Ti9  1  0.333333  0.666667  0.500000  1
  Sb  Sb10  1  0.000000  0.396486  0.243502  1
  Sb  Sb11  1  0.603514  0.603514  0.243502  1
  Sb  Sb12  1  0.396486  0.000000  0.243502  1
  Sb  Sb13  1  0.000000  0.603514  0.756498  1
  Sb  Sb14  1  0.396486  0.396486  0.756498  1
  Sb  Sb15  1  0.603514  0.000000  0.756498  1
  C  C16  1  0.000000  0.000000  0.500000  1
