# generated using pymatgen
data_Nd2U(GaRu)3
_symmetry_space_group_name_H-M   'P 1'
_cell_length_a   6.98374654
_cell_length_b   6.98374728
_cell_length_c   4.09590300
_cell_angle_alpha   90.00000000
_cell_angle_beta   90.00000000
_cell_angle_gamma   116.70101136
_symmetry_Int_Tables_number   1
_chemical_formula_structural   Nd2U(GaRu)3
_chemical_formula_sum   'Nd2 U1 Ga3 Ru3'
_cell_volume   178.46572934
_cell_formula_units_Z   1
loop_
 _symmetry_equiv_pos_site_id
 _symmetry_equiv_pos_as_xyz
  1  'x, y, z'
loop_
 _atom_site_type_symbol
 _atom_site_label
 _atom_site_symmetry_multiplicity
 _atom_site_fract_x
 _atom_site_fract_y
 _atom_site_fract_z
 _atom_site_occupancy
  Nd  Nd0  1  0.418187  0.011344  0.500000  1
  Nd  Nd1  1  0.011344  0.418187  0.500000  1
  U  U2  1  0.617496  0.617496  0.500000  1
  Ga  Ga3  1  0.749362  0.026289  0.000000  1
  Ga  Ga4  1  0.026289  0.749362  0.000000  1
  Ga  Ga5  1  0.207210  0.207210  0.000000  1
  Ru  Ru6  1  0.387348  0.631912  0.000000  1
  Ru  Ru7  1  0.631912  0.387348  0.000000  1
  Ru  Ru8  1  0.950853  0.950853  0.500000  1
