# generated using pymatgen
data_Ca2La6AsPd24
_symmetry_space_group_name_H-M   'P 1'
_cell_length_a   8.52050407
_cell_length_b   8.52050407
_cell_length_c   8.52050407
_cell_angle_alpha   90.01018038
_cell_angle_beta   90.01018038
_cell_angle_gamma   90.01018038
_symmetry_Int_Tables_number   1
_chemical_formula_structural   Ca2La6AsPd24
_chemical_formula_sum   'Ca2 La6 As1 Pd24'
_cell_volume   618.57995653
_cell_formula_units_Z   1
loop_
 _symmetry_equiv_pos_site_id
 _symmetry_equiv_pos_as_xyz
  1  'x, y, z'
loop_
 _atom_site_type_symbol
 _atom_site_label
 _atom_site_symmetry_multiplicity
 _atom_site_fract_x
 _atom_site_fract_y
 _atom_site_fract_z
 _atom_site_occupancy
  Ca  Ca0  1  0.251936  0.251936  0.251936  1
  Ca  Ca1  1  0.748064  0.748064  0.748064  1
  La  La2  1  0.746300  0.746300  0.253724  1
  La  La3  1  0.746300  0.253724  0.746300  1
  La  La4  1  0.253700  0.253700  0.746276  1
  La  La5  1  0.253700  0.746276  0.253700  1
  La  La6  1  0.253724  0.746300  0.746300  1
  La  La7  1  0.746276  0.253700  0.253700  1
  As  As8  1  0.000000  0.000000  0.000000  1
  Pd  Pd9  1  0.261137  0.499271  0.001276  1
  Pd  Pd10  1  0.738863  0.500729  0.998724  1
  Pd  Pd11  1  0.001276  0.261137  0.499271  1
  Pd  Pd12  1  0.499271  0.261137  0.001276  1
  Pd  Pd13  1  0.998724  0.738863  0.500729  1
  Pd  Pd14  1  0.500729  0.738863  0.998724  1
  Pd  Pd15  1  0.499271  0.001276  0.261137  1
  Pd  Pd16  1  0.261137  0.001276  0.499271  1
  Pd  Pd17  1  0.500729  0.998724  0.738863  1
  Pd  Pd18  1  0.738863  0.998724  0.500729  1
  Pd  Pd19  1  0.001276  0.499271  0.261137  1
  Pd  Pd20  1  0.998724  0.500729  0.738863  1
  Pd  Pd21  1  0.253914  0.498632  0.498632  1
  Pd  Pd22  1  0.746086  0.501368  0.501368  1
  Pd  Pd23  1  0.498632  0.253914  0.498632  1
  Pd  Pd24  1  0.501368  0.746086  0.501368  1
  Pd  Pd25  1  0.498632  0.498632  0.253914  1
  Pd  Pd26  1  0.501368  0.501368  0.746086  1
  Pd  Pd27  1  0.292578  0.001524  0.001524  1
  Pd  Pd28  1  0.707422  0.998476  0.998476  1
  Pd  Pd29  1  0.001524  0.292578  0.001524  1
  Pd  Pd30  1  0.998476  0.707422  0.998476  1
  Pd  Pd31  1  0.001524  0.001524  0.292578  1
  Pd  Pd32  1  0.998476  0.998476  0.707422  1
