# generated using pymatgen
data_K2MnZnB2(PO4)4
_symmetry_space_group_name_H-M   'P 1'
_cell_length_a   9.11501075
_cell_length_b   9.11501129
_cell_length_c   8.52347200
_cell_angle_alpha   89.07037327
_cell_angle_beta   89.07037322
_cell_angle_gamma   90.50768318
_symmetry_Int_Tables_number   1
_chemical_formula_structural   K2MnZnB2(PO4)4
_chemical_formula_sum   'K4 Mn2 Zn2 B4 P8 O32'
_cell_volume   707.94336253
_cell_formula_units_Z   2
loop_
 _symmetry_equiv_pos_site_id
 _symmetry_equiv_pos_as_xyz
  1  'x, y, z'
loop_
 _atom_site_type_symbol
 _atom_site_label
 _atom_site_symmetry_multiplicity
 _atom_site_fract_x
 _atom_site_fract_y
 _atom_site_fract_z
 _atom_site_occupancy
  K  K0  1  0.027961  0.972039  0.750000  1
  K  K1  1  0.968694  0.031306  0.250000  1
  K  K2  1  0.597179  0.402821  0.250000  1
  K  K3  1  0.403911  0.596089  0.750000  1
  Mn  Mn4  1  0.315931  0.937060  0.441460  1
  Mn  Mn5  1  0.062940  0.684069  0.058540  1
  Zn  Zn6  1  0.933418  0.313699  0.939231  1
  Zn  Zn7  1  0.686301  0.066582  0.560769  1
  B  B8  1  0.794645  0.572779  0.574076  1
  B  B9  1  0.427221  0.205355  0.925924  1
  B  B10  1  0.204311  0.425152  0.426664  1
  B  B11  1  0.574848  0.795689  0.073336  1
  P  P12  1  0.691017  0.052261  0.940064  1
  P  P13  1  0.614783  0.772314  0.407660  1
  P  P14  1  0.769794  0.612434  0.903565  1
  P  P15  1  0.227686  0.385217  0.092340  1
  P  P16  1  0.049002  0.688130  0.445351  1
  P  P17  1  0.387566  0.230206  0.596435  1
  P  P18  1  0.311870  0.950998  0.054649  1
  P  P19  1  0.947739  0.308983  0.559936  1
  O  O20  1  0.431539  0.273119  0.766835  1
  O  O21  1  0.097514  0.278510  0.084309  1
  O  O22  1  0.925944  0.665408  0.574584  1
  O  O23  1  0.804324  0.473303  0.002080  1
  O  O24  1  0.578364  0.175856  0.979728  1
  O  O25  1  0.424193  0.825440  0.018655  1
  O  O26  1  0.986956  0.669024  0.282603  1
  O  O27  1  0.671831  0.992542  0.775875  1
  O  O28  1  0.204823  0.524462  0.992284  1
  O  O29  1  0.843866  0.116308  0.971236  1
  O  O30  1  0.570182  0.736207  0.235596  1
  O  O31  1  0.726881  0.568461  0.733165  1
  O  O32  1  0.275446  0.105422  0.594059  1
  O  O33  1  0.074866  0.328906  0.434551  1
  O  O34  1  0.621870  0.674824  0.969307  1
  O  O35  1  0.824144  0.421636  0.520272  1
  O  O36  1  0.330976  0.013044  0.217397  1
  O  O37  1  0.325176  0.378130  0.530693  1
  O  O38  1  0.334592  0.074056  0.925416  1
  O  O39  1  0.883692  0.156134  0.528764  1
  O  O40  1  0.263793  0.429818  0.264404  1
  O  O41  1  0.475538  0.795177  0.507716  1
  O  O42  1  0.683512  0.623415  0.462011  1
  O  O43  1  0.007458  0.328169  0.724125  1
  O  O44  1  0.526697  0.195676  0.497920  1
  O  O45  1  0.112116  0.841419  0.473630  1
  O  O46  1  0.671094  0.925134  0.065449  1
  O  O47  1  0.376585  0.316488  0.037989  1
  O  O48  1  0.158581  0.887884  0.026370  1
  O  O49  1  0.894578  0.724554  0.905941  1
  O  O50  1  0.721490  0.902486  0.415691  1
  O  O51  1  0.174560  0.575807  0.481345  1
