# generated using pymatgen
data_Y4HoLu(RuI3)2
_symmetry_space_group_name_H-M   'P 1'
_cell_length_a   4.23109700
_cell_length_b   8.85622722
_cell_length_c   12.26388146
_cell_angle_alpha   86.00404508
_cell_angle_beta   90.00000000
_cell_angle_gamma   90.00000000
_symmetry_Int_Tables_number   1
_chemical_formula_structural   Y4HoLu(RuI3)2
_chemical_formula_sum   'Y4 Ho1 Lu1 Ru2 I6'
_cell_volume   458.42955543
_cell_formula_units_Z   1
loop_
 _symmetry_equiv_pos_site_id
 _symmetry_equiv_pos_as_xyz
  1  'x, y, z'
loop_
 _atom_site_type_symbol
 _atom_site_label
 _atom_site_symmetry_multiplicity
 _atom_site_fract_x
 _atom_site_fract_y
 _atom_site_fract_z
 _atom_site_occupancy
  Y  Y0  1  0.750000  0.097324  0.684858  1
  Y  Y1  1  0.250000  0.901729  0.315716  1
  Y  Y2  1  0.250000  0.262582  0.897704  1
  Y  Y3  1  0.750000  0.737017  0.101280  1
  Ho  Ho4  1  0.750000  0.129308  0.124697  1
  Lu  Lu5  1  0.250000  0.873746  0.875809  1
  Ru  Ru6  1  0.750000  0.050779  0.908117  1
  Ru  Ru7  1  0.250000  0.946756  0.091150  1
  I  I8  1  0.250000  0.353050  0.636791  1
  I  I9  1  0.750000  0.646812  0.363310  1
  I  I10  1  0.750000  0.144230  0.391757  1
  I  I11  1  0.250000  0.855574  0.608946  1
  I  I12  1  0.250000  0.425131  0.133522  1
  I  I13  1  0.750000  0.575961  0.866343  1
