# generated using pymatgen
data_Sr4H12IrAu
_symmetry_space_group_name_H-M   'P 1'
_cell_length_a   7.46202982
_cell_length_b   7.46203035
_cell_length_c   5.70100783
_cell_angle_alpha   90.00508101
_cell_angle_beta   90.00507374
_cell_angle_gamma   135.09303436
_symmetry_Int_Tables_number   1
_chemical_formula_structural   Sr4H12IrAu
_chemical_formula_sum   'Sr4 H12 Ir1 Au1'
_cell_volume   224.10125274
_cell_formula_units_Z   1
loop_
 _symmetry_equiv_pos_site_id
 _symmetry_equiv_pos_as_xyz
  1  'x, y, z'
loop_
 _atom_site_type_symbol
 _atom_site_label
 _atom_site_symmetry_multiplicity
 _atom_site_fract_x
 _atom_site_fract_y
 _atom_site_fract_z
 _atom_site_occupancy
  Sr  Sr0  1  0.646757  0.353243  0.000000  1
  Sr  Sr1  1  0.353243  0.646757  0.000000  1
  Sr  Sr2  1  0.851720  0.148280  0.500000  1
  Sr  Sr3  1  0.148280  0.851720  0.500000  1
  H  H4  1  0.877957  0.122043  0.000000  1
  H  H5  1  0.122043  0.877957  0.000000  1
  H  H6  1  0.622501  0.377499  0.500000  1
  H  H7  1  0.377499  0.622501  0.500000  1
  H  H8  1  0.000210  0.500018  0.246662  1
  H  H9  1  0.999790  0.499982  0.753338  1
  H  H10  1  0.499982  0.999790  0.753338  1
  H  H11  1  0.500018  0.000210  0.246662  1
  H  H12  1  0.286842  0.286842  0.292003  1
  H  H13  1  0.713158  0.713158  0.707997  1
  H  H14  1  0.292650  0.292650  0.713650  1
  H  H15  1  0.707350  0.707350  0.286350  1
  Ir  Ir16  1  0.500000  0.500000  0.500000  1
  Au  Au17  1  0.000000  0.000000  0.000000  1
