# generated using pymatgen
data_Ho3ZnIn4Rh
_symmetry_space_group_name_H-M   'P 1'
_cell_length_a   7.88878700
_cell_length_b   7.88878766
_cell_length_c   3.85794700
_cell_angle_alpha   90.00000000
_cell_angle_beta   90.00000000
_cell_angle_gamma   119.99999303
_symmetry_Int_Tables_number   1
_chemical_formula_structural   Ho3ZnIn4Rh
_chemical_formula_sum   'Ho3 Zn1 In4 Rh1'
_cell_volume   207.92533790
_cell_formula_units_Z   1
loop_
 _symmetry_equiv_pos_site_id
 _symmetry_equiv_pos_as_xyz
  1  'x, y, z'
loop_
 _atom_site_type_symbol
 _atom_site_label
 _atom_site_symmetry_multiplicity
 _atom_site_fract_x
 _atom_site_fract_y
 _atom_site_fract_z
 _atom_site_occupancy
  Ho  Ho0  1  0.702442  0.953852  0.500000  1
  Ho  Ho1  1  0.251411  0.297558  0.500000  1
  Ho  Ho2  1  0.046148  0.748589  0.500000  1
  Zn  Zn3  1  0.666667  0.333333  0.500000  1
  In  In4  1  0.929624  0.333015  0.000000  1
  In  In5  1  0.403393  0.070376  0.000000  1
  In  In6  1  0.666985  0.596607  0.000000  1
  In  In7  1  0.333333  0.666667  0.000000  1
  Rh  Rh8  1  0.000000  0.000000  0.000000  1
