# generated using pymatgen
data_La16Dy4Ir7Pt5
_symmetry_space_group_name_H-M   'P 1'
_cell_length_a   11.49273860
_cell_length_b   11.49273953
_cell_length_c   6.51992901
_cell_angle_alpha   90.06965173
_cell_angle_beta   90.06964748
_cell_angle_gamma   89.85263169
_symmetry_Int_Tables_number   1
_chemical_formula_structural   La16Dy4Ir7Pt5
_chemical_formula_sum   'La16 Dy4 Ir7 Pt5'
_cell_volume   861.16799996
_cell_formula_units_Z   1
loop_
 _symmetry_equiv_pos_site_id
 _symmetry_equiv_pos_as_xyz
  1  'x, y, z'
loop_
 _atom_site_type_symbol
 _atom_site_label
 _atom_site_symmetry_multiplicity
 _atom_site_fract_x
 _atom_site_fract_y
 _atom_site_fract_z
 _atom_site_occupancy
  La  La0  1  0.292673  0.091040  0.376835  1
  La  La1  1  0.293257  0.908006  0.875780  1
  La  La2  1  0.707098  0.086999  0.875729  1
  La  La3  1  0.706648  0.908058  0.375897  1
  La  La4  1  0.586835  0.786104  0.883233  1
  La  La5  1  0.585087  0.210011  0.377148  1
  La  La6  1  0.412451  0.788009  0.382801  1
  La  La7  1  0.409534  0.210809  0.884485  1
  La  La8  1  0.213896  0.413165  0.616767  1
  La  La9  1  0.211991  0.587549  0.117199  1
  La  La10  1  0.789989  0.414913  0.122852  1
  La  La11  1  0.789191  0.590466  0.615515  1
  La  La12  1  0.908960  0.707327  0.123165  1
  La  La13  1  0.913001  0.292902  0.624271  1
  La  La14  1  0.091994  0.706743  0.624220  1
  La  La15  1  0.091942  0.293352  0.124103  1
  Dy  Dy16  1  0.999690  0.999691  0.499654  1
  Dy  Dy17  1  0.000309  0.000310  0.000346  1
  Dy  Dy18  1  0.498117  0.501114  0.000946  1
  Dy  Dy19  1  0.498886  0.501883  0.499054  1
  Ir  Ir20  1  0.649241  0.647949  0.250423  1
  Ir  Ir21  1  0.352051  0.350759  0.249577  1
  Ir  Ir22  1  0.350511  0.649489  0.750000  1
  Ir  Ir23  1  0.500367  0.999969  0.118312  1
  Ir  Ir24  1  0.500169  0.001047  0.619641  1
  Ir  Ir25  1  0.998953  0.499831  0.880359  1
  Ir  Ir26  1  0.000031  0.499633  0.381688  1
  Pt  Pt27  1  0.852022  0.147978  0.250000  1
  Pt  Pt28  1  0.852617  0.853552  0.750109  1
  Pt  Pt29  1  0.146448  0.147383  0.749891  1
  Pt  Pt30  1  0.147256  0.852744  0.250000  1
  Pt  Pt31  1  0.648784  0.351216  0.750000  1
