# generated using pymatgen
data_Er20(Ir3Ru)3
_symmetry_space_group_name_H-M   'P 1'
_cell_length_a   10.74154600
_cell_length_b   10.74154600
_cell_length_c   6.36793500
_cell_angle_alpha   90.00000000
_cell_angle_beta   90.00000000
_cell_angle_gamma   90.00000000
_symmetry_Int_Tables_number   1
_chemical_formula_structural   Er20(Ir3Ru)3
_chemical_formula_sum   'Er20 Ir9 Ru3'
_cell_volume   734.73750132
_cell_formula_units_Z   1
loop_
 _symmetry_equiv_pos_site_id
 _symmetry_equiv_pos_as_xyz
  1  'x, y, z'
loop_
 _atom_site_type_symbol
 _atom_site_label
 _atom_site_symmetry_multiplicity
 _atom_site_fract_x
 _atom_site_fract_y
 _atom_site_fract_z
 _atom_site_occupancy
  Er  Er0  1  0.293609  0.086378  0.377200  1
  Er  Er1  1  0.293628  0.913800  0.877328  1
  Er  Er2  1  0.706372  0.086200  0.877328  1
  Er  Er3  1  0.706391  0.913622  0.377200  1
  Er  Er4  1  0.586200  0.793628  0.877328  1
  Er  Er5  1  0.586378  0.206391  0.377200  1
  Er  Er6  1  0.413622  0.793609  0.377200  1
  Er  Er7  1  0.413800  0.206372  0.877328  1
  Er  Er8  1  0.207941  0.412900  0.623831  1
  Er  Er9  1  0.207753  0.587036  0.121414  1
  Er  Er10  1  0.792247  0.412964  0.121414  1
  Er  Er11  1  0.792059  0.587100  0.623831  1
  Er  Er12  1  0.912964  0.707753  0.121414  1
  Er  Er13  1  0.912900  0.292059  0.623831  1
  Er  Er14  1  0.087100  0.707941  0.623831  1
  Er  Er15  1  0.087036  0.292247  0.121414  1
  Er  Er16  1  0.000000  0.000000  0.499839  1
  Er  Er17  1  0.000000  0.000000  0.999769  1
  Er  Er18  1  0.500000  0.500000  0.999769  1
  Er  Er19  1  0.500000  0.500000  0.499839  1
  Ir  Ir20  1  0.847399  0.153031  0.250033  1
  Ir  Ir21  1  0.847198  0.846948  0.749813  1
  Ir  Ir22  1  0.152802  0.153052  0.749813  1
  Ir  Ir23  1  0.152601  0.846969  0.250033  1
  Ir  Ir24  1  0.653052  0.347198  0.749813  1
  Ir  Ir25  1  0.653031  0.652601  0.250033  1
  Ir  Ir26  1  0.346969  0.347399  0.250033  1
  Ir  Ir27  1  0.346948  0.652802  0.749813  1
  Ir  Ir28  1  0.000000  0.500000  0.379096  1
  Ru  Ru29  1  0.500000  0.000000  0.121984  1
  Ru  Ru30  1  0.500000  0.000000  0.622049  1
  Ru  Ru31  1  0.000000  0.500000  0.879176  1
