# generated using pymatgen
data_Nd2Ho4Fe3Co14P12Ru
_symmetry_space_group_name_H-M   'P 1'
_cell_length_a   3.71518100
_cell_length_b   10.58133900
_cell_length_c   12.14929200
_cell_angle_alpha   90.00000000
_cell_angle_beta   90.00000000
_cell_angle_gamma   90.00000000
_symmetry_Int_Tables_number   1
_chemical_formula_structural   Nd2Ho4Fe3Co14P12Ru
_chemical_formula_sum   'Nd2 Ho4 Fe3 Co14 P12 Ru1'
_cell_volume   477.60798112
_cell_formula_units_Z   1
loop_
 _symmetry_equiv_pos_site_id
 _symmetry_equiv_pos_as_xyz
  1  'x, y, z'
loop_
 _atom_site_type_symbol
 _atom_site_label
 _atom_site_symmetry_multiplicity
 _atom_site_fract_x
 _atom_site_fract_y
 _atom_site_fract_z
 _atom_site_occupancy
  Nd  Nd0  1  0.000000  0.500000  0.524731  1
  Nd  Nd1  1  0.500000  0.000000  0.476890  1
  Ho  Ho2  1  0.500000  0.819646  0.203708  1
  Ho  Ho3  1  0.500000  0.180354  0.203708  1
  Ho  Ho4  1  0.000000  0.680710  0.796717  1
  Ho  Ho5  1  0.000000  0.319290  0.796717  1
  Fe  Fe6  1  0.000000  0.500000  0.988626  1
  Fe  Fe7  1  0.500000  0.000000  0.011595  1
  Fe  Fe8  1  0.000000  0.000000  0.846161  1
  Co  Co9  1  0.500000  0.296355  0.428262  1
  Co  Co10  1  0.500000  0.703645  0.428262  1
  Co  Co11  1  0.000000  0.204146  0.570464  1
  Co  Co12  1  0.000000  0.795854  0.570464  1
  Co  Co13  1  0.500000  0.878704  0.711926  1
  Co  Co14  1  0.500000  0.121296  0.711926  1
  Co  Co15  1  0.000000  0.620666  0.288482  1
  Co  Co16  1  0.000000  0.379334  0.288482  1
  Co  Co17  1  0.500000  0.331139  0.992293  1
  Co  Co18  1  0.500000  0.668861  0.992293  1
  Co  Co19  1  0.000000  0.167963  0.005265  1
  Co  Co20  1  0.000000  0.832037  0.005265  1
  Co  Co21  1  0.500000  0.500000  0.704971  1
  Co  Co22  1  0.000000  0.000000  0.294805  1
  P  P23  1  0.500000  0.307568  0.618557  1
  P  P24  1  0.500000  0.692432  0.618557  1
  P  P25  1  0.000000  0.191607  0.381744  1
  P  P26  1  0.000000  0.808393  0.381744  1
  P  P27  1  0.500000  0.500000  0.884090  1
  P  P28  1  0.000000  0.000000  0.114369  1
  P  P29  1  0.500000  0.847652  0.893815  1
  P  P30  1  0.500000  0.152348  0.893815  1
  P  P31  1  0.000000  0.655485  0.104340  1
  P  P32  1  0.000000  0.344515  0.104340  1
  P  P33  1  0.500000  0.500000  0.345191  1
  P  P34  1  0.000000  0.000000  0.662088  1
  Ru  Ru35  1  0.500000  0.500000  0.155341  1
