# generated using pymatgen
data_Sm4ReTc2Os5
_symmetry_space_group_name_H-M   'P 1'
_cell_length_a   5.29657307
_cell_length_b   5.37120157
_cell_length_c   9.24354300
_cell_angle_alpha   90.00000000
_cell_angle_beta   90.00000000
_cell_angle_gamma   120.46719048
_symmetry_Int_Tables_number   1
_chemical_formula_structural   Sm4ReTc2Os5
_chemical_formula_sum   'Sm4 Re1 Tc2 Os5'
_cell_volume   226.65832169
_cell_formula_units_Z   1
loop_
 _symmetry_equiv_pos_site_id
 _symmetry_equiv_pos_as_xyz
  1  'x, y, z'
loop_
 _atom_site_type_symbol
 _atom_site_label
 _atom_site_symmetry_multiplicity
 _atom_site_fract_x
 _atom_site_fract_y
 _atom_site_fract_z
 _atom_site_occupancy
  Sm  Sm0  1  0.338433  0.669217  0.436771  1
  Sm  Sm1  1  0.670120  0.335059  0.561899  1
  Sm  Sm2  1  0.670120  0.335059  0.938101  1
  Sm  Sm3  1  0.338433  0.669217  0.063229  1
  Re  Re4  1  0.320487  0.160243  0.250000  1
  Tc  Tc5  1  0.165363  0.330646  0.750000  1
  Tc  Tc6  1  0.165363  0.834717  0.750000  1
  Os  Os7  1  0.822042  0.652119  0.250000  1
  Os  Os8  1  0.652775  0.826387  0.750000  1
  Os  Os9  1  0.017412  0.008706  0.001986  1
  Os  Os10  1  0.822042  0.169923  0.250000  1
  Os  Os11  1  0.017412  0.008706  0.498014  1
