# generated using pymatgen
data_OsSeBr9
_symmetry_space_group_name_H-M   'P 1'
_cell_length_a   12.01581600
_cell_length_b   7.04898062
_cell_length_c   10.09612232
_cell_angle_alpha   75.40492533
_cell_angle_beta   90.00000000
_cell_angle_gamma   90.00000000
_symmetry_Int_Tables_number   1
_chemical_formula_structural   OsSeBr9
_chemical_formula_sum   'Os2 Se2 Br18'
_cell_volume   827.53956949
_cell_formula_units_Z   2
loop_
 _symmetry_equiv_pos_site_id
 _symmetry_equiv_pos_as_xyz
  1  'x, y, z'
loop_
 _atom_site_type_symbol
 _atom_site_label
 _atom_site_symmetry_multiplicity
 _atom_site_fract_x
 _atom_site_fract_y
 _atom_site_fract_z
 _atom_site_occupancy
  Os  Os0  1  0.250000  0.647816  0.846157  1
  Os  Os1  1  0.750000  0.352184  0.153843  1
  Se  Se2  1  0.250000  0.757851  0.466470  1
  Se  Se3  1  0.750000  0.242149  0.533530  1
  Br  Br4  1  0.606416  0.448503  0.309995  1
  Br  Br5  1  0.106416  0.551497  0.690005  1
  Br  Br6  1  0.393584  0.551497  0.690005  1
  Br  Br7  1  0.893584  0.448503  0.309995  1
  Br  Br8  1  0.750000  0.684184  0.008234  1
  Br  Br9  1  0.250000  0.315816  0.991766  1
  Br  Br10  1  0.750000  0.507866  0.643022  1
  Br  Br11  1  0.250000  0.492134  0.356978  1
  Br  Br12  1  0.750000  0.018850  0.326526  1
  Br  Br13  1  0.250000  0.981150  0.673474  1
  Br  Br14  1  0.897862  0.242332  0.026493  1
  Br  Br15  1  0.397862  0.757668  0.973507  1
  Br  Br16  1  0.102138  0.757668  0.973507  1
  Br  Br17  1  0.602138  0.242332  0.026493  1
  Br  Br18  1  0.900880  0.056452  0.658720  1
  Br  Br19  1  0.400880  0.943548  0.341280  1
  Br  Br20  1  0.099120  0.943548  0.341280  1
  Br  Br21  1  0.599120  0.056452  0.658720  1
