# generated using pymatgen
data_Tb3PaCo3
_symmetry_space_group_name_H-M   'P 1'
_cell_length_a   5.91953993
_cell_length_b   5.91954008
_cell_length_c   14.10866500
_cell_angle_alpha   90.00000000
_cell_angle_beta   90.00000000
_cell_angle_gamma   143.62344089
_symmetry_Int_Tables_number   1
_chemical_formula_structural   Tb3PaCo3
_chemical_formula_sum   'Tb6 Pa2 Co6'
_cell_volume   293.21224601
_cell_formula_units_Z   2
loop_
 _symmetry_equiv_pos_site_id
 _symmetry_equiv_pos_as_xyz
  1  'x, y, z'
loop_
 _atom_site_type_symbol
 _atom_site_label
 _atom_site_symmetry_multiplicity
 _atom_site_fract_x
 _atom_site_fract_y
 _atom_site_fract_z
 _atom_site_occupancy
  Tb  Tb0  1  0.780887  0.219113  0.385365  1
  Tb  Tb1  1  0.219113  0.780887  0.614635  1
  Tb  Tb2  1  0.780887  0.219113  0.114635  1
  Tb  Tb3  1  0.219113  0.780887  0.885365  1
  Tb  Tb4  1  0.508776  0.491224  0.250000  1
  Tb  Tb5  1  0.491224  0.508776  0.750000  1
  Pa  Pa6  1  0.500000  0.500000  0.500000  1
  Pa  Pa7  1  0.500000  0.500000  0.000000  1
  Co  Co8  1  0.080914  0.919086  0.400647  1
  Co  Co9  1  0.919086  0.080914  0.599353  1
  Co  Co10  1  0.080914  0.919086  0.099353  1
  Co  Co11  1  0.919086  0.080914  0.900647  1
  Co  Co12  1  0.203797  0.796203  0.250000  1
  Co  Co13  1  0.796203  0.203797  0.750000  1
