# generated using pymatgen
data_Nd6Pd7Rh
_symmetry_space_group_name_H-M   'P 1'
_cell_length_a   8.12437217
_cell_length_b   8.12437222
_cell_length_c   8.12437209
_cell_angle_alpha   114.34542553
_cell_angle_beta   114.34542783
_cell_angle_gamma   114.34543503
_symmetry_Int_Tables_number   1
_chemical_formula_structural   Nd6Pd7Rh
_chemical_formula_sum   'Nd6 Pd7 Rh1'
_cell_volume   317.28388298
_cell_formula_units_Z   1
loop_
 _symmetry_equiv_pos_site_id
 _symmetry_equiv_pos_as_xyz
  1  'x, y, z'
loop_
 _atom_site_type_symbol
 _atom_site_label
 _atom_site_symmetry_multiplicity
 _atom_site_fract_x
 _atom_site_fract_y
 _atom_site_fract_z
 _atom_site_occupancy
  Nd  Nd0  1  0.972902  0.601751  0.724471  1
  Nd  Nd1  1  0.724471  0.972902  0.601751  1
  Nd  Nd2  1  0.601751  0.724471  0.972902  1
  Nd  Nd3  1  0.027098  0.398249  0.275529  1
  Nd  Nd4  1  0.275529  0.027098  0.398249  1
  Nd  Nd5  1  0.398249  0.275529  0.027098  1
  Pd  Pd6  1  0.500000  0.500000  0.500000  1
  Pd  Pd7  1  0.940891  0.776762  0.446796  1
  Pd  Pd8  1  0.446796  0.940891  0.776762  1
  Pd  Pd9  1  0.776762  0.446796  0.940891  1
  Pd  Pd10  1  0.059109  0.223238  0.553204  1
  Pd  Pd11  1  0.553204  0.059109  0.223238  1
  Pd  Pd12  1  0.223238  0.553204  0.059109  1
  Rh  Rh13  1  0.000000  0.000000  0.000000  1
