# generated using pymatgen
data_EuGa3CoNi
_symmetry_space_group_name_H-M   'P 1'
_cell_length_a   6.30421957
_cell_length_b   6.30421866
_cell_length_c   5.21267500
_cell_angle_alpha   90.00000000
_cell_angle_beta   90.00000000
_cell_angle_gamma   103.94889555
_symmetry_Int_Tables_number   1
_chemical_formula_structural   EuGa3CoNi
_chemical_formula_sum   'Eu2 Ga6 Co2 Ni2'
_cell_volume   201.05911367
_cell_formula_units_Z   2
loop_
 _symmetry_equiv_pos_site_id
 _symmetry_equiv_pos_as_xyz
  1  'x, y, z'
loop_
 _atom_site_type_symbol
 _atom_site_label
 _atom_site_symmetry_multiplicity
 _atom_site_fract_x
 _atom_site_fract_y
 _atom_site_fract_z
 _atom_site_occupancy
  Eu  Eu0  1  0.345617  0.345617  0.250000  1
  Eu  Eu1  1  0.654383  0.654383  0.750000  1
  Ga  Ga2  1  0.913113  0.528550  0.249065  1
  Ga  Ga3  1  0.086887  0.471450  0.749065  1
  Ga  Ga4  1  0.053096  0.053096  0.750000  1
  Ga  Ga5  1  0.946904  0.946904  0.250000  1
  Ga  Ga6  1  0.471450  0.086887  0.750935  1
  Ga  Ga7  1  0.528550  0.913113  0.250935  1
  Co  Co8  1  0.796525  0.203475  0.000000  1
  Co  Co9  1  0.203475  0.796525  0.500000  1
  Ni  Ni10  1  0.205714  0.794286  0.000000  1
  Ni  Ni11  1  0.794286  0.205714  0.500000  1
