# generated using pymatgen
data_Ho11ErIn2Fe2Ir
_symmetry_space_group_name_H-M   'P 1'
_cell_length_a   8.34283229
_cell_length_b   8.34588849
_cell_length_c   8.34474496
_cell_angle_alpha   108.73858541
_cell_angle_beta   108.71773902
_cell_angle_gamma   110.96832253
_symmetry_Int_Tables_number   1
_chemical_formula_structural   Ho11ErIn2Fe2Ir
_chemical_formula_sum   'Ho11 Er1 In2 Fe2 Ir1'
_cell_volume   447.04510625
_cell_formula_units_Z   1
loop_
 _symmetry_equiv_pos_site_id
 _symmetry_equiv_pos_as_xyz
  1  'x, y, z'
loop_
 _atom_site_type_symbol
 _atom_site_label
 _atom_site_symmetry_multiplicity
 _atom_site_fract_x
 _atom_site_fract_y
 _atom_site_fract_z
 _atom_site_occupancy
  Ho  Ho0  1  0.807299  0.568291  0.760983  1
  Ho  Ho1  1  0.192942  0.954138  0.761149  1
  Ho  Ho2  1  0.954118  0.193031  0.761311  1
  Ho  Ho3  1  0.807569  0.046232  0.238647  1
  Ho  Ho4  1  0.046109  0.806906  0.238869  1
  Ho  Ho5  1  0.431665  0.192936  0.238910  1
  Ho  Ho6  1  0.568057  0.806897  0.760838  1
  Ho  Ho7  1  0.308064  0.308153  0.615972  1
  Ho  Ho8  1  0.691430  0.691954  0.383843  1
  Ho  Ho9  1  0.692204  0.308224  0.000088  1
  Ho  Ho10  1  0.308035  0.691928  0.000525  1
  Er  Er11  1  0.192358  0.430721  0.238385  1
  In  In12  1  0.000339  0.500568  0.500075  1
  In  In13  1  0.499911  0.999551  0.500122  1
  Fe  Fe14  1  0.385859  0.386495  0.000266  1
  Fe  Fe15  1  0.613572  0.613583  0.000077  1
  Ir  Ir16  1  0.000468  0.000391  0.999940  1
