# generated using pymatgen
data_CaYbAl20(FeIr)2
_symmetry_space_group_name_H-M   'P 1'
_cell_length_a   6.81401605
_cell_length_b   6.83513058
_cell_length_c   9.07831300
_cell_angle_alpha   90.00000000
_cell_angle_beta   90.00000000
_cell_angle_gamma   96.70717670
_symmetry_Int_Tables_number   1
_chemical_formula_structural   CaYbAl20(FeIr)2
_chemical_formula_sum   'Ca1 Yb1 Al20 Fe2 Ir2'
_cell_volume   419.92584331
_cell_formula_units_Z   1
loop_
 _symmetry_equiv_pos_site_id
 _symmetry_equiv_pos_as_xyz
  1  'x, y, z'
loop_
 _atom_site_type_symbol
 _atom_site_label
 _atom_site_symmetry_multiplicity
 _atom_site_fract_x
 _atom_site_fract_y
 _atom_site_fract_z
 _atom_site_occupancy
  Ca  Ca0  1  0.875726  0.123939  0.250000  1
  Yb  Yb1  1  0.124493  0.875653  0.750000  1
  Al  Al2  1  0.230726  0.218991  0.501786  1
  Al  Al3  1  0.769541  0.780814  0.001288  1
  Al  Al4  1  0.769541  0.780814  0.498712  1
  Al  Al5  1  0.230726  0.218991  0.998214  1
  Al  Al6  1  0.381319  0.628846  0.550289  1
  Al  Al7  1  0.618424  0.371377  0.049504  1
  Al  Al8  1  0.580516  0.864038  0.750000  1
  Al  Al9  1  0.419232  0.135677  0.250000  1
  Al  Al10  1  0.857740  0.588879  0.250000  1
  Al  Al11  1  0.142555  0.411467  0.750000  1
  Al  Al12  1  0.479189  0.219593  0.750000  1
  Al  Al13  1  0.520801  0.780204  0.250000  1
  Al  Al14  1  0.225696  0.477995  0.250000  1
  Al  Al15  1  0.774629  0.522083  0.750000  1
  Al  Al16  1  0.163059  0.845876  0.401216  1
  Al  Al17  1  0.837107  0.153959  0.900437  1
  Al  Al18  1  0.837107  0.153959  0.599563  1
  Al  Al19  1  0.163059  0.845876  0.098784  1
  Al  Al20  1  0.381319  0.628846  0.949711  1
  Al  Al21  1  0.618424  0.371377  0.450496  1
  Fe  Fe22  1  0.499357  0.999820  0.500021  1
  Fe  Fe23  1  0.499357  0.999820  0.999979  1
  Ir  Ir24  1  0.000178  0.500553  0.500052  1
  Ir  Ir25  1  0.000178  0.500553  0.999948  1
