# generated using pymatgen
data_B3OsRu
_symmetry_space_group_name_H-M   'P 1'
_cell_length_a   2.93322500
_cell_length_b   2.93322493
_cell_length_c   12.88390300
_cell_angle_alpha   90.00000000
_cell_angle_beta   90.00000000
_cell_angle_gamma   120.00001202
_symmetry_Int_Tables_number   1
_chemical_formula_structural   B3OsRu
_chemical_formula_sum   'B6 Os2 Ru2'
_cell_volume   95.99945587
_cell_formula_units_Z   2
loop_
 _symmetry_equiv_pos_site_id
 _symmetry_equiv_pos_as_xyz
  1  'x, y, z'
loop_
 _atom_site_type_symbol
 _atom_site_label
 _atom_site_symmetry_multiplicity
 _atom_site_fract_x
 _atom_site_fract_y
 _atom_site_fract_z
 _atom_site_occupancy
  B  B0  1  0.666667  0.333333  0.249395  1
  B  B1  1  0.333333  0.666667  0.749395  1
  B  B2  1  0.333333  0.666667  0.531076  1
  B  B3  1  0.666667  0.333333  0.031076  1
  B  B4  1  0.333333  0.666667  0.969999  1
  B  B5  1  0.666667  0.333333  0.469999  1
  Os  Os6  1  0.333333  0.666667  0.359915  1
  Os  Os7  1  0.666667  0.333333  0.859915  1
  Ru  Ru8  1  0.666667  0.333333  0.639615  1
  Ru  Ru9  1  0.333333  0.666667  0.139615  1
