# generated using pymatgen
data_Ce2Pr3P12Ru19
_symmetry_space_group_name_H-M   'P 1'
_cell_length_a   12.63785300
_cell_length_b   12.63785210
_cell_length_c   4.01595600
_cell_angle_alpha   90.00000000
_cell_angle_beta   90.00000000
_cell_angle_gamma   119.99999973
_symmetry_Int_Tables_number   1
_chemical_formula_structural   Ce2Pr3P12Ru19
_chemical_formula_sum   'Ce2 Pr3 P12 Ru19'
_cell_volume   555.47708385
_cell_formula_units_Z   1
loop_
 _symmetry_equiv_pos_site_id
 _symmetry_equiv_pos_as_xyz
  1  'x, y, z'
loop_
 _atom_site_type_symbol
 _atom_site_label
 _atom_site_symmetry_multiplicity
 _atom_site_fract_x
 _atom_site_fract_y
 _atom_site_fract_z
 _atom_site_occupancy
  Ce  Ce0  1  0.333333  0.666667  0.000000  1
  Ce  Ce1  1  0.666667  0.333333  0.000000  1
  Pr  Pr2  1  0.185293  0.185293  0.500000  1
  Pr  Pr3  1  0.814707  0.000000  0.500000  1
  Pr  Pr4  1  0.000000  0.814707  0.500000  1
  P  P5  1  0.812255  0.812255  0.000000  1
  P  P6  1  0.187745  0.000000  0.000000  1
  P  P7  1  0.000000  0.187745  0.000000  1
  P  P8  1  0.171514  0.476313  0.500000  1
  P  P9  1  0.523687  0.695201  0.500000  1
  P  P10  1  0.304799  0.828486  0.500000  1
  P  P11  1  0.695201  0.523687  0.500000  1
  P  P12  1  0.828486  0.304799  0.500000  1
  P  P13  1  0.476313  0.171514  0.500000  1
  P  P14  1  0.374345  0.374345  0.000000  1
  P  P15  1  0.625655  0.000000  0.000000  1
  P  P16  1  0.000000  0.625655  0.000000  1
  Ru  Ru17  1  0.554012  0.554012  0.000000  1
  Ru  Ru18  1  0.445988  0.000000  0.000000  1
  Ru  Ru19  1  0.000000  0.445988  0.000000  1
  Ru  Ru20  1  0.714526  0.714526  0.500000  1
  Ru  Ru21  1  0.285474  0.000000  0.500000  1
  Ru  Ru22  1  0.000000  0.285474  0.500000  1
  Ru  Ru23  1  0.184904  0.380357  0.000000  1
  Ru  Ru24  1  0.619643  0.804547  0.000000  1
  Ru  Ru25  1  0.195453  0.815096  0.000000  1
  Ru  Ru26  1  0.804547  0.619643  0.000000  1
  Ru  Ru27  1  0.815096  0.195453  0.000000  1
  Ru  Ru28  1  0.380357  0.184904  0.000000  1
  Ru  Ru29  1  0.367350  0.493799  0.500000  1
  Ru  Ru30  1  0.506201  0.873551  0.500000  1
  Ru  Ru31  1  0.126449  0.632650  0.500000  1
  Ru  Ru32  1  0.873551  0.506201  0.500000  1
  Ru  Ru33  1  0.632650  0.126449  0.500000  1
  Ru  Ru34  1  0.493799  0.367350  0.500000  1
  Ru  Ru35  1  0.000000  0.000000  0.000000  1
