# generated using pymatgen
data_UAg2(PO5)2
_symmetry_space_group_name_H-M   'P 1'
_cell_length_a   6.37023519
_cell_length_b   12.12893677
_cell_length_c   6.91301622
_cell_angle_alpha   107.54236596
_cell_angle_beta   102.79111140
_cell_angle_gamma   89.23602035
_symmetry_Int_Tables_number   1
_chemical_formula_structural   UAg2(PO5)2
_chemical_formula_sum   'U2 Ag4 P4 O20'
_cell_volume   495.83024600
_cell_formula_units_Z   2
loop_
 _symmetry_equiv_pos_site_id
 _symmetry_equiv_pos_as_xyz
  1  'x, y, z'
loop_
 _atom_site_type_symbol
 _atom_site_label
 _atom_site_symmetry_multiplicity
 _atom_site_fract_x
 _atom_site_fract_y
 _atom_site_fract_z
 _atom_site_occupancy
  U  U0  1  0.626250  0.861367  0.125493  1
  U  U1  1  0.373737  0.138645  0.874556  1
  Ag  Ag2  1  0.295523  0.608808  0.284537  1
  Ag  Ag3  1  0.942590  0.243893  0.291907  1
  Ag  Ag4  1  0.057346  0.756047  0.708027  1
  Ag  Ag5  1  0.704563  0.391172  0.715419  1
  P  P6  1  0.770207  0.582970  0.187814  1
  P  P7  1  0.454472  0.165061  0.362690  1
  P  P8  1  0.545445  0.834944  0.637295  1
  P  P9  1  0.229837  0.417032  0.812124  1
  O  O10  1  0.340521  0.813853  0.024296  1
  O  O11  1  0.698651  0.673594  0.076625  1
  O  O12  1  0.904712  0.911195  0.228500  1
  O  O13  1  0.800798  0.464972  0.035096  1
  O  O14  1  0.532239  0.054621  0.222171  1
  O  O15  1  0.262141  0.200266  0.214487  1
  O  O16  1  0.615116  0.570141  0.325084  1
  O  O17  1  0.991100  0.623415  0.354361  1
  O  O18  1  0.647408  0.260379  0.428706  1
  O  O19  1  0.605230  0.851266  0.445680  1
  O  O20  1  0.394576  0.148746  0.554367  1
  O  O21  1  0.352605  0.739508  0.571278  1
  O  O22  1  0.009066  0.376599  0.645583  1
  O  O23  1  0.384929  0.429848  0.674889  1
  O  O24  1  0.737860  0.799808  0.785561  1
  O  O25  1  0.467502  0.945347  0.777807  1
  O  O26  1  0.199290  0.535076  0.964946  1
  O  O27  1  0.095317  0.088907  0.771602  1
  O  O28  1  0.301365  0.326411  0.923352  1
  O  O29  1  0.659604  0.186109  0.975750  1
