# generated using pymatgen
data_Ho11TmZn(InFe)2
_symmetry_space_group_name_H-M   'P 1'
_cell_length_a   8.35955827
_cell_length_b   8.35503654
_cell_length_c   8.35529840
_cell_angle_alpha   109.73746754
_cell_angle_beta   109.81432383
_cell_angle_gamma   108.84088622
_symmetry_Int_Tables_number   1
_chemical_formula_structural   Ho11TmZn(InFe)2
_chemical_formula_sum   'Ho11 Tm1 Zn1 In2 Fe2'
_cell_volume   449.31941617
_cell_formula_units_Z   1
loop_
 _symmetry_equiv_pos_site_id
 _symmetry_equiv_pos_as_xyz
  1  'x, y, z'
loop_
 _atom_site_type_symbol
 _atom_site_label
 _atom_site_symmetry_multiplicity
 _atom_site_fract_x
 _atom_site_fract_y
 _atom_site_fract_z
 _atom_site_occupancy
  Ho  Ho0  1  0.554475  0.797996  0.756484  1
  Ho  Ho1  1  0.958876  0.202427  0.756440  1
  Ho  Ho2  1  0.202570  0.959100  0.757164  1
  Ho  Ho3  1  0.041401  0.798011  0.243388  1
  Ho  Ho4  1  0.797249  0.041733  0.243843  1
  Ho  Ho5  1  0.202565  0.445413  0.243479  1
  Ho  Ho6  1  0.797234  0.553383  0.755481  1
  Ho  Ho7  1  0.305694  0.305454  0.610806  1
  Ho  Ho8  1  0.693938  0.693312  0.388318  1
  Ho  Ho9  1  0.305702  0.694900  0.000232  1
  Ho  Ho10  1  0.693938  0.305626  0.000630  1
  Tm  Tm11  1  0.445396  0.202319  0.243077  1
  Zn  Zn12  1  0.001103  0.000329  0.000769  1
  In  In13  1  0.500060  0.000576  0.499486  1
  In  In14  1  0.000169  0.500114  0.500059  1
  Fe  Fe15  1  0.387443  0.386969  0.000503  1
  Fe  Fe16  1  0.612187  0.612339  0.999843  1
