# generated using pymatgen
data_Cd4FeOs3O14
_symmetry_space_group_name_H-M   'P 1'
_cell_length_a   7.25900125
_cell_length_b   7.25900054
_cell_length_c   7.25899999
_cell_angle_alpha   60.38658611
_cell_angle_beta   60.38658839
_cell_angle_gamma   60.38658572
_symmetry_Int_Tables_number   1
_chemical_formula_structural   Cd4FeOs3O14
_chemical_formula_sum   'Cd4 Fe1 Os3 O14'
_cell_volume   272.83252799
_cell_formula_units_Z   1
loop_
 _symmetry_equiv_pos_site_id
 _symmetry_equiv_pos_as_xyz
  1  'x, y, z'
loop_
 _atom_site_type_symbol
 _atom_site_label
 _atom_site_symmetry_multiplicity
 _atom_site_fract_x
 _atom_site_fract_y
 _atom_site_fract_z
 _atom_site_occupancy
  Cd  Cd0  1  0.125000  0.125000  0.125000  1
  Cd  Cd1  1  0.625000  0.125000  0.125000  1
  Cd  Cd2  1  0.125000  0.625000  0.125000  1
  Cd  Cd3  1  0.125000  0.125000  0.625000  1
  Fe  Fe4  1  0.625000  0.625000  0.625000  1
  Os  Os5  1  0.125000  0.625000  0.625000  1
  Os  Os6  1  0.625000  0.125000  0.625000  1
  Os  Os7  1  0.625000  0.625000  0.125000  1
  O  O8  1  0.250270  0.250270  0.250270  1
  O  O9  1  0.999730  0.999730  0.999730  1
  O  O10  1  0.553318  0.954790  0.553318  1
  O  O11  1  0.308597  0.698682  0.308597  1
  O  O12  1  0.553318  0.553318  0.954790  1
  O  O13  1  0.954790  0.553318  0.553318  1
  O  O14  1  0.551318  0.941403  0.941403  1
  O  O15  1  0.941403  0.941403  0.551318  1
  O  O16  1  0.941403  0.551318  0.941403  1
  O  O17  1  0.698682  0.308597  0.308597  1
  O  O18  1  0.295210  0.696682  0.696682  1
  O  O19  1  0.696682  0.295210  0.696682  1
  O  O20  1  0.308597  0.308597  0.698682  1
  O  O21  1  0.696682  0.696682  0.295210  1
