# generated using pymatgen
data_La6IrPdI6
_symmetry_space_group_name_H-M   'P 1'
_cell_length_a   11.08949672
_cell_length_b   11.08949644
_cell_length_c   10.98821883
_cell_angle_alpha   109.47379115
_cell_angle_beta   109.47378978
_cell_angle_gamma   109.83654960
_symmetry_Int_Tables_number   1
_chemical_formula_structural   La6IrPdI6
_chemical_formula_sum   'La12 Ir2 Pd2 I12'
_cell_volume   1035.43558815
_cell_formula_units_Z   2
loop_
 _symmetry_equiv_pos_site_id
 _symmetry_equiv_pos_as_xyz
  1  'x, y, z'
loop_
 _atom_site_type_symbol
 _atom_site_label
 _atom_site_symmetry_multiplicity
 _atom_site_fract_x
 _atom_site_fract_y
 _atom_site_fract_z
 _atom_site_occupancy
  La  La0  1  0.460133  0.484900  0.225894  1
  La  La1  1  0.759006  0.234238  0.274106  1
  La  La2  1  0.759246  0.025140  0.484700  1
  La  La3  1  0.225453  0.459561  0.484700  1
  La  La4  1  0.265762  0.740994  0.225894  1
  La  La5  1  0.040439  0.274547  0.015300  1
  La  La6  1  0.015100  0.039867  0.274106  1
  La  La7  1  0.474860  0.740754  0.015300  1
  La  La8  1  0.481758  0.231758  0.463517  1
  La  La9  1  0.021552  0.478448  0.750000  1
  La  La10  1  0.268242  0.018242  0.036483  1
  La  La11  1  0.228448  0.271552  0.750000  1
  Ir  Ir12  1  0.999326  0.249326  0.498652  1
  Ir  Ir13  1  0.250674  0.500674  0.001348  1
  Pd  Pd14  1  0.250637  0.249363  0.250000  1
  Pd  Pd15  1  0.499363  0.000637  0.250000  1
  I  I16  1  0.250464  0.760114  0.741228  1
  I  I17  1  0.518885  0.509236  0.758772  1
  I  I18  1  0.983124  0.742036  0.991567  1
  I  I19  1  0.739886  0.249536  0.758772  1
  I  I20  1  0.990764  0.981115  0.741228  1
  I  I21  1  0.250468  0.991556  0.508433  1
  I  I22  1  0.757964  0.516876  0.508433  1
  I  I23  1  0.508444  0.249532  0.991567  1
  I  I24  1  0.759329  0.740671  0.250000  1
  I  I25  1  0.741467  0.991467  0.982936  1
  I  I26  1  0.990671  0.509329  0.250000  1
  I  I27  1  0.508533  0.758533  0.517064  1
