# generated using pymatgen
data_GdY7(Si3Pd)4
_symmetry_space_group_name_H-M   'P 1'
_cell_length_a   8.19221100
_cell_length_b   8.19221139
_cell_length_c   8.20349800
_cell_angle_alpha   90.00000000
_cell_angle_beta   90.00000000
_cell_angle_gamma   120.00000247
_symmetry_Int_Tables_number   1
_chemical_formula_structural   GdY7(Si3Pd)4
_chemical_formula_sum   'Gd1 Y7 Si12 Pd4'
_cell_volume   476.79531259
_cell_formula_units_Z   1
loop_
 _symmetry_equiv_pos_site_id
 _symmetry_equiv_pos_as_xyz
  1  'x, y, z'
loop_
 _atom_site_type_symbol
 _atom_site_label
 _atom_site_symmetry_multiplicity
 _atom_site_fract_x
 _atom_site_fract_y
 _atom_site_fract_z
 _atom_site_occupancy
  Gd  Gd0  1  0.000000  0.000000  0.250000  1
  Y  Y1  1  0.499716  0.500284  0.750000  1
  Y  Y2  1  0.500404  0.499596  0.250000  1
  Y  Y3  1  0.000567  0.500284  0.750000  1
  Y  Y4  1  0.999192  0.499596  0.250000  1
  Y  Y5  1  0.499716  0.999433  0.750000  1
  Y  Y6  1  0.500404  0.000808  0.250000  1
  Y  Y7  1  0.000000  0.000000  0.750000  1
  Si  Si8  1  0.834339  0.165661  0.999515  1
  Si  Si9  1  0.165698  0.834302  0.999917  1
  Si  Si10  1  0.331320  0.165661  0.999515  1
  Si  Si11  1  0.165698  0.834302  0.500083  1
  Si  Si12  1  0.668605  0.834302  0.999917  1
  Si  Si13  1  0.834339  0.165661  0.500485  1
  Si  Si14  1  0.834339  0.668680  0.999515  1
  Si  Si15  1  0.668605  0.834302  0.500083  1
  Si  Si16  1  0.165698  0.331395  0.999917  1
  Si  Si17  1  0.331320  0.165661  0.500485  1
  Si  Si18  1  0.165698  0.331395  0.500083  1
  Si  Si19  1  0.834339  0.668680  0.500485  1
  Pd  Pd20  1  0.666667  0.333333  0.998899  1
  Pd  Pd21  1  0.333333  0.666667  0.001287  1
  Pd  Pd22  1  0.333333  0.666667  0.498713  1
  Pd  Pd23  1  0.666667  0.333333  0.501101  1
