# generated using pymatgen
data_TbTm2SbO7
_symmetry_space_group_name_H-M   'P 1'
_cell_length_a   6.43913800
_cell_length_b   6.43913904
_cell_length_c   7.50089700
_cell_angle_alpha   90.00000000
_cell_angle_beta   90.00000000
_cell_angle_gamma   109.30386427
_symmetry_Int_Tables_number   1
_chemical_formula_structural   TbTm2SbO7
_chemical_formula_sum   'Tb2 Tm4 Sb2 O14'
_cell_volume   293.52080490
_cell_formula_units_Z   2
loop_
 _symmetry_equiv_pos_site_id
 _symmetry_equiv_pos_as_xyz
  1  'x, y, z'
loop_
 _atom_site_type_symbol
 _atom_site_label
 _atom_site_symmetry_multiplicity
 _atom_site_fract_x
 _atom_site_fract_y
 _atom_site_fract_z
 _atom_site_occupancy
  Tb  Tb0  1  0.500000  0.500000  0.500000  1
  Tb  Tb1  1  0.500000  0.500000  0.000000  1
  Tm  Tm2  1  0.531187  0.001521  0.750000  1
  Tm  Tm3  1  0.001521  0.531187  0.250000  1
  Tm  Tm4  1  0.468813  0.998479  0.250000  1
  Tm  Tm5  1  0.998479  0.468813  0.750000  1
  Sb  Sb6  1  0.000000  0.000000  0.500000  1
  Sb  Sb7  1  0.000000  0.000000  0.000000  1
  O  O8  1  0.675849  0.928477  0.469766  1
  O  O9  1  0.928477  0.675849  0.530234  1
  O  O10  1  0.675849  0.928477  0.030234  1
  O  O11  1  0.928477  0.675849  0.969766  1
  O  O12  1  0.324151  0.071523  0.530234  1
  O  O13  1  0.071523  0.324151  0.469766  1
  O  O14  1  0.324151  0.071523  0.969766  1
  O  O15  1  0.071523  0.324151  0.030234  1
  O  O16  1  0.928182  0.071818  0.750000  1
  O  O17  1  0.071818  0.928182  0.250000  1
  O  O18  1  0.366510  0.633490  0.750000  1
  O  O19  1  0.633490  0.366510  0.250000  1
  O  O20  1  0.640627  0.359373  0.750000  1
  O  O21  1  0.359373  0.640627  0.250000  1
