# generated using pymatgen
data_CaEu3(YSe2)8
_symmetry_space_group_name_H-M   'P 1'
_cell_length_a   4.08736600
_cell_length_b   13.60410548
_cell_length_c   13.89182800
_cell_angle_alpha   89.98518037
_cell_angle_beta   90.00000000
_cell_angle_gamma   90.00000000
_symmetry_Int_Tables_number   1
_chemical_formula_structural   CaEu3(YSe2)8
_chemical_formula_sum   'Ca1 Eu3 Y8 Se16'
_cell_volume   772.45448922
_cell_formula_units_Z   1
loop_
 _symmetry_equiv_pos_site_id
 _symmetry_equiv_pos_as_xyz
  1  'x, y, z'
loop_
 _atom_site_type_symbol
 _atom_site_label
 _atom_site_symmetry_multiplicity
 _atom_site_fract_x
 _atom_site_fract_y
 _atom_site_fract_z
 _atom_site_occupancy
  Ca  Ca0  1  0.750000  0.130937  0.082105  1
  Eu  Eu1  1  0.250000  0.367406  0.584641  1
  Eu  Eu2  1  0.250000  0.868423  0.915384  1
  Eu  Eu3  1  0.750000  0.632314  0.414263  1
  Y  Y4  1  0.250000  0.105271  0.415916  1
  Y  Y5  1  0.250000  0.605706  0.082495  1
  Y  Y6  1  0.750000  0.895132  0.582491  1
  Y  Y7  1  0.750000  0.392741  0.919806  1
  Y  Y8  1  0.250000  0.148844  0.799833  1
  Y  Y9  1  0.250000  0.648990  0.701431  1
  Y  Y10  1  0.750000  0.853758  0.199666  1
  Y  Y11  1  0.750000  0.348885  0.297563  1
  Se  Se12  1  0.250000  0.213592  0.235931  1
  Se  Se13  1  0.250000  0.717178  0.261488  1
  Se  Se14  1  0.750000  0.785260  0.762394  1
  Se  Se15  1  0.750000  0.284891  0.738914  1
  Se  Se16  1  0.250000  0.256994  0.977077  1
  Se  Se17  1  0.250000  0.759296  0.525718  1
  Se  Se18  1  0.750000  0.741256  0.025403  1
  Se  Se19  1  0.750000  0.240119  0.474165  1
  Se  Se20  1  0.250000  0.467592  0.382058  1
  Se  Se21  1  0.250000  0.972425  0.116863  1
  Se  Se22  1  0.750000  0.531633  0.616997  1
  Se  Se23  1  0.750000  0.032549  0.885775  1
  Se  Se24  1  0.250000  0.037023  0.619241  1
  Se  Se25  1  0.250000  0.535012  0.881599  1
  Se  Se26  1  0.750000  0.962905  0.381337  1
  Se  Se27  1  0.750000  0.463867  0.119443  1
