# generated using pymatgen
data_Ac2ErPa3N8
_symmetry_space_group_name_H-M   'P 1'
_cell_length_a   7.17779436
_cell_length_b   7.17770850
_cell_length_c   7.06039723
_cell_angle_alpha   120.54595838
_cell_angle_beta   90.00875023
_cell_angle_gamma   119.99473719
_symmetry_Int_Tables_number   1
_chemical_formula_structural   Ac2ErPa3N8
_chemical_formula_sum   'Ac2 Er1 Pa3 N8'
_cell_volume   255.06931422
_cell_formula_units_Z   1
loop_
 _symmetry_equiv_pos_site_id
 _symmetry_equiv_pos_as_xyz
  1  'x, y, z'
loop_
 _atom_site_type_symbol
 _atom_site_label
 _atom_site_symmetry_multiplicity
 _atom_site_fract_x
 _atom_site_fract_y
 _atom_site_fract_z
 _atom_site_occupancy
  Ac  Ac0  1  0.996135  0.992284  0.988420  1
  Ac  Ac1  1  0.753866  0.507716  0.261580  1
  Er  Er2  1  0.375000  0.750000  0.125000  1
  Pa  Pa3  1  0.375000  0.750000  0.624999  1
  Pa  Pa4  1  0.375000  0.249999  0.624999  1
  Pa  Pa5  1  0.874999  0.249999  0.625000  1
  N  N6  1  0.611875  0.223811  0.409121  1
  N  N7  1  0.185320  0.797248  0.409118  1
  N  N8  1  0.611944  0.797262  0.409209  1
  N  N9  1  0.144983  0.290021  0.434998  1
  N  N10  1  0.605016  0.209980  0.815002  1
  N  N11  1  0.138056  0.702737  0.840789  1
  N  N12  1  0.138126  0.276190  0.840879  1
  N  N13  1  0.564680  0.702751  0.840882  1
