# generated using pymatgen
data_MnNb2F12
_symmetry_space_group_name_H-M   'P 1'
_cell_length_a   5.37722490
_cell_length_b   5.68013965
_cell_length_c   9.42454366
_cell_angle_alpha   74.04705613
_cell_angle_beta   88.89524221
_cell_angle_gamma   62.37431431
_symmetry_Int_Tables_number   1
_chemical_formula_structural   MnNb2F12
_chemical_formula_sum   'Mn1 Nb2 F12'
_cell_volume   243.23360689
_cell_formula_units_Z   1
loop_
 _symmetry_equiv_pos_site_id
 _symmetry_equiv_pos_as_xyz
  1  'x, y, z'
loop_
 _atom_site_type_symbol
 _atom_site_label
 _atom_site_symmetry_multiplicity
 _atom_site_fract_x
 _atom_site_fract_y
 _atom_site_fract_z
 _atom_site_occupancy
  Mn  Mn0  1  0.500000  0.500000  0.500000  1
  Nb  Nb1  1  0.771873  0.005426  0.239170  1
  Nb  Nb2  1  0.228127  0.994574  0.760830  1
  F  F3  1  0.946190  0.233651  0.205378  1
  F  F4  1  0.053810  0.766349  0.794622  1
  F  F5  1  0.019246  0.763394  0.137932  1
  F  F6  1  0.460341  0.771911  0.628270  1
  F  F7  1  0.539659  0.228089  0.371730  1
  F  F8  1  0.940491  0.243022  0.576882  1
  F  F9  1  0.059509  0.756978  0.423118  1
  F  F10  1  0.405278  0.239006  0.681516  1
  F  F11  1  0.594722  0.760994  0.318484  1
  F  F12  1  0.512218  0.778354  0.923980  1
  F  F13  1  0.487782  0.221646  0.076020  1
  F  F14  1  0.980754  0.236606  0.862068  1
