# generated using pymatgen
data_Sr6LiFe(CoO6)2
_symmetry_space_group_name_H-M   'P 1'
_cell_length_a   6.61626657
_cell_length_b   6.61698477
_cell_length_c   6.61668102
_cell_angle_alpha   93.05461484
_cell_angle_beta   93.05944312
_cell_angle_gamma   93.06346982
_symmetry_Int_Tables_number   1
_chemical_formula_structural   Sr6LiFe(CoO6)2
_chemical_formula_sum   'Sr6 Li1 Fe1 Co2 O12'
_cell_volume   288.39213500
_cell_formula_units_Z   1
loop_
 _symmetry_equiv_pos_site_id
 _symmetry_equiv_pos_as_xyz
  1  'x, y, z'
loop_
 _atom_site_type_symbol
 _atom_site_label
 _atom_site_symmetry_multiplicity
 _atom_site_fract_x
 _atom_site_fract_y
 _atom_site_fract_z
 _atom_site_occupancy
  Sr  Sr0  1  0.610915  0.889100  0.250014  1
  Sr  Sr1  1  0.889042  0.249984  0.610919  1
  Sr  Sr2  1  0.250000  0.610959  0.889081  1
  Sr  Sr3  1  0.119930  0.750019  0.380092  1
  Sr  Sr4  1  0.749994  0.380059  0.119918  1
  Sr  Sr5  1  0.380096  0.119898  0.749991  1
  Li  Li6  1  0.250064  0.249950  0.249966  1
  Fe  Fe7  1  0.749972  0.750055  0.750005  1
  Co  Co8  1  0.496744  0.496842  0.496820  1
  Co  Co9  1  0.003192  0.003197  0.003166  1
  O  O10  1  0.546277  0.227958  0.418664  1
  O  O11  1  0.228083  0.418736  0.546313  1
  O  O12  1  0.418740  0.546269  0.228012  1
  O  O13  1  0.030044  0.903531  0.718114  1
  O  O14  1  0.903547  0.718127  0.030059  1
  O  O15  1  0.718116  0.030057  0.903548  1
  O  O16  1  0.469931  0.781909  0.596471  1
  O  O17  1  0.781862  0.596438  0.469959  1
  O  O18  1  0.596466  0.469943  0.781877  1
  O  O19  1  0.953722  0.081287  0.272008  1
  O  O20  1  0.081281  0.271968  0.953704  1
  O  O21  1  0.271981  0.953715  0.081296  1
