# generated using pymatgen
data_Pr8Ge(IrO8)3
_symmetry_space_group_name_H-M   'P 1'
_cell_length_a   5.47711892
_cell_length_b   9.45282727
_cell_length_c   10.24237303
_cell_angle_alpha   89.71985304
_cell_angle_beta   89.97594995
_cell_angle_gamma   90.17178181
_symmetry_Int_Tables_number   1
_chemical_formula_structural   Pr8Ge(IrO8)3
_chemical_formula_sum   'Pr8 Ge1 Ir3 O24'
_cell_volume   530.28250279
_cell_formula_units_Z   1
loop_
 _symmetry_equiv_pos_site_id
 _symmetry_equiv_pos_as_xyz
  1  'x, y, z'
loop_
 _atom_site_type_symbol
 _atom_site_label
 _atom_site_symmetry_multiplicity
 _atom_site_fract_x
 _atom_site_fract_y
 _atom_site_fract_z
 _atom_site_occupancy
  Pr  Pr0  1  0.036737  0.219482  0.131115  1
  Pr  Pr1  1  0.468005  0.766230  0.635065  1
  Pr  Pr2  1  0.969493  0.715013  0.375525  1
  Pr  Pr3  1  0.532947  0.294295  0.853750  1
  Pr  Pr4  1  0.027244  0.114623  0.539693  1
  Pr  Pr5  1  0.472786  0.899195  0.038912  1
  Pr  Pr6  1  0.974993  0.599218  0.951413  1
  Pr  Pr7  1  0.522535  0.403808  0.469753  1
  Ge  Ge8  1  0.037776  0.493356  0.641669  1
  Ir  Ir9  1  0.547857  0.001301  0.359025  1
  Ir  Ir10  1  0.955461  0.995845  0.858184  1
  Ir  Ir11  1  0.456959  0.504647  0.143387  1
  O  O12  1  0.441159  0.148441  0.476681  1
  O  O13  1  0.061775  0.850614  0.981310  1
  O  O14  1  0.559365  0.649299  0.019454  1
  O  O15  1  0.928453  0.352403  0.520399  1
  O  O16  1  0.725087  0.392400  0.069130  1
  O  O17  1  0.774681  0.610981  0.562866  1
  O  O18  1  0.285133  0.887529  0.434852  1
  O  O19  1  0.221948  0.109664  0.934805  1
  O  O20  1  0.252350  0.411062  0.008144  1
  O  O21  1  0.247395  0.590169  0.507145  1
  O  O22  1  0.757605  0.914983  0.494156  1
  O  O23  1  0.750607  0.088435  0.993743  1
  O  O24  1  0.190131  0.629970  0.180109  1
  O  O25  1  0.305079  0.361548  0.674237  1
  O  O26  1  0.815921  0.128434  0.318208  1
  O  O27  1  0.686970  0.867226  0.825710  1
  O  O28  1  0.339067  0.057093  0.216970  1
  O  O29  1  0.159605  0.942564  0.719524  1
  O  O30  1  0.658542  0.563663  0.281330  1
  O  O31  1  0.834409  0.445802  0.784146  1
  O  O32  1  0.329994  0.360963  0.257111  1
  O  O33  1  0.178461  0.634292  0.755174  1
  O  O34  1  0.673658  0.859711  0.243777  1
  O  O35  1  0.819809  0.135741  0.743530  1
