# generated using pymatgen
data_Ca3Dy3Si24Os3Ru5
_symmetry_space_group_name_H-M   'P 1'
_cell_length_a   10.16135609
_cell_length_b   10.16199926
_cell_length_c   8.15535063
_cell_angle_alpha   89.93855576
_cell_angle_beta   90.06977556
_cell_angle_gamma   132.67648959
_symmetry_Int_Tables_number   1
_chemical_formula_structural   Ca3Dy3Si24Os3Ru5
_chemical_formula_sum   'Ca3 Dy3 Si24 Os3 Ru5'
_cell_volume   619.11933845
_cell_formula_units_Z   1
loop_
 _symmetry_equiv_pos_site_id
 _symmetry_equiv_pos_as_xyz
  1  'x, y, z'
loop_
 _atom_site_type_symbol
 _atom_site_label
 _atom_site_symmetry_multiplicity
 _atom_site_fract_x
 _atom_site_fract_y
 _atom_site_fract_z
 _atom_site_occupancy
  Ca  Ca0  1  0.500260  0.500115  0.500154  1
  Ca  Ca1  1  0.000059  0.000303  0.999868  1
  Ca  Ca2  1  0.501221  0.001070  0.750095  1
  Dy  Dy3  1  0.000094  0.500084  0.250017  1
  Dy  Dy4  1  0.499329  0.999411  0.249967  1
  Dy  Dy5  1  0.000633  0.500714  0.750074  1
  Si  Si6  1  0.795518  0.203079  0.500669  1
  Si  Si7  1  0.297179  0.705119  0.998718  1
  Si  Si8  1  0.205089  0.797174  0.501282  1
  Si  Si9  1  0.703814  0.295171  0.999505  1
  Si  Si10  1  0.333400  0.333903  0.832388  1
  Si  Si11  1  0.666298  0.667875  0.167326  1
  Si  Si12  1  0.168115  0.166098  0.332572  1
  Si  Si13  1  0.834166  0.833163  0.667694  1
  Si  Si14  1  0.121934  0.889507  0.730359  1
  Si  Si15  1  0.109021  0.877393  0.270797  1
  Si  Si16  1  0.609181  0.377374  0.228510  1
  Si  Si17  1  0.623197  0.390600  0.770374  1
  Si  Si18  1  0.876374  0.108503  0.269924  1
  Si  Si19  1  0.891513  0.124107  0.731012  1
  Si  Si20  1  0.389780  0.622273  0.769876  1
  Si  Si21  1  0.377016  0.608668  0.228955  1
  Si  Si22  1  0.346272  0.113675  0.505718  1
  Si  Si23  1  0.886710  0.654639  0.493356  1
  Si  Si24  1  0.386500  0.153771  0.006476  1
  Si  Si25  1  0.844577  0.612882  0.993248  1
  Si  Si26  1  0.653344  0.885971  0.492281  1
  Si  Si27  1  0.113351  0.345005  0.507953  1
  Si  Si28  1  0.613956  0.846827  0.994448  1
  Si  Si29  1  0.153620  0.386235  0.006672  1
  Os  Os30  1  0.672648  0.329972  0.498148  1
  Os  Os31  1  0.169073  0.826910  0.001962  1
  Os  Os32  1  0.326903  0.669069  0.497972  1
  Ru  Ru33  1  0.829896  0.172514  0.001710  1
  Ru  Ru34  1  0.126074  0.126002  0.625486  1
  Ru  Ru35  1  0.874006  0.874417  0.374800  1
  Ru  Ru36  1  0.374012  0.374087  0.125163  1
  Ru  Ru37  1  0.625867  0.626319  0.874470  1
