# generated using pymatgen
data_Tm4Sb6Ru5Rh2
_symmetry_space_group_name_H-M   'P 1'
_cell_length_a   7.53784219
_cell_length_b   7.53549852
_cell_length_c   7.53549812
_cell_angle_alpha   109.53357906
_cell_angle_beta   109.43377051
_cell_angle_gamma   109.43375767
_symmetry_Int_Tables_number   1
_chemical_formula_structural   Tm4Sb6Ru5Rh2
_chemical_formula_sum   'Tm4 Sb6 Ru5 Rh2'
_cell_volume   329.54600140
_cell_formula_units_Z   1
loop_
 _symmetry_equiv_pos_site_id
 _symmetry_equiv_pos_as_xyz
  1  'x, y, z'
loop_
 _atom_site_type_symbol
 _atom_site_label
 _atom_site_symmetry_multiplicity
 _atom_site_fract_x
 _atom_site_fract_y
 _atom_site_fract_z
 _atom_site_occupancy
  Tm  Tm0  1  0.500000  0.999256  0.000744  1
  Tm  Tm1  1  0.000000  0.499214  0.997720  1
  Tm  Tm2  1  0.000000  0.002280  0.500786  1
  Tm  Tm3  1  0.500000  0.499256  0.500744  1
  Sb  Sb4  1  0.315652  0.001026  0.314626  1
  Sb  Sb5  1  0.000000  0.684535  0.686492  1
  Sb  Sb6  1  0.684348  0.685374  0.998974  1
  Sb  Sb7  1  0.686837  0.001454  0.685383  1
  Sb  Sb8  1  0.000000  0.313508  0.315465  1
  Sb  Sb9  1  0.313163  0.314617  0.998546  1
  Ru  Ru10  1  0.249062  0.499424  0.749638  1
  Ru  Ru11  1  0.500000  0.249930  0.750070  1
  Ru  Ru12  1  0.750938  0.250362  0.500576  1
  Ru  Ru13  1  0.500000  0.749930  0.250070  1
  Ru  Ru14  1  0.000000  0.000234  0.999766  1
  Rh  Rh15  1  0.250566  0.750083  0.500483  1
  Rh  Rh16  1  0.749434  0.499517  0.249917  1
