# generated using pymatgen
data_Ho3Tm7In8(PtRh)2
_symmetry_space_group_name_H-M   'P 1'
_cell_length_a   3.60127800
_cell_length_b   8.07516031
_cell_length_c   18.08152409
_cell_angle_alpha   89.99170117
_cell_angle_beta   90.00000000
_cell_angle_gamma   90.00000000
_symmetry_Int_Tables_number   1
_chemical_formula_structural   Ho3Tm7In8(PtRh)2
_chemical_formula_sum   'Ho3 Tm7 In8 Pt2 Rh2'
_cell_volume   525.82693726
_cell_formula_units_Z   1
loop_
 _symmetry_equiv_pos_site_id
 _symmetry_equiv_pos_as_xyz
  1  'x, y, z'
loop_
 _atom_site_type_symbol
 _atom_site_label
 _atom_site_symmetry_multiplicity
 _atom_site_fract_x
 _atom_site_fract_y
 _atom_site_fract_z
 _atom_site_occupancy
  Ho  Ho0  1  0.000000  0.748206  0.279733  1
  Ho  Ho1  1  0.000000  0.999999  0.999933  1
  Ho  Ho2  1  0.000000  0.500062  0.500023  1
  Tm  Tm3  1  0.000000  0.115741  0.412296  1
  Tm  Tm4  1  0.000000  0.884545  0.587863  1
  Tm  Tm5  1  0.000000  0.383115  0.913349  1
  Tm  Tm6  1  0.000000  0.616809  0.086433  1
  Tm  Tm7  1  0.000000  0.239590  0.221383  1
  Tm  Tm8  1  0.000000  0.760330  0.778628  1
  Tm  Tm9  1  0.000000  0.251496  0.720495  1
  In  In10  1  0.500000  0.422560  0.351032  1
  In  In11  1  0.500000  0.577083  0.649039  1
  In  In12  1  0.500000  0.074377  0.849984  1
  In  In13  1  0.500000  0.925961  0.149843  1
  In  In14  1  0.500000  0.292733  0.066519  1
  In  In15  1  0.500000  0.707087  0.933430  1
  In  In16  1  0.500000  0.205918  0.567558  1
  In  In17  1  0.500000  0.794508  0.432829  1
  Pt  Pt18  1  0.500000  0.476988  0.803673  1
  Pt  Pt19  1  0.500000  0.521678  0.195870  1
  Rh  Rh20  1  0.500000  0.024035  0.304454  1
  Rh  Rh21  1  0.500000  0.977178  0.695635  1
