# generated using pymatgen
data_Ho2Tm2Al23ZnPt9
_symmetry_space_group_name_H-M   'P 1'
_cell_length_a   7.52580726
_cell_length_b   7.54307471
_cell_length_c   13.14126860
_cell_angle_alpha   84.57176878
_cell_angle_beta   79.03813187
_cell_angle_gamma   59.90959812
_symmetry_Int_Tables_number   1
_chemical_formula_structural   Ho2Tm2Al23ZnPt9
_chemical_formula_sum   'Ho2 Tm2 Al23 Zn1 Pt9'
_cell_volume   633.68813877
_cell_formula_units_Z   1
loop_
 _symmetry_equiv_pos_site_id
 _symmetry_equiv_pos_as_xyz
  1  'x, y, z'
loop_
 _atom_site_type_symbol
 _atom_site_label
 _atom_site_symmetry_multiplicity
 _atom_site_fract_x
 _atom_site_fract_y
 _atom_site_fract_z
 _atom_site_occupancy
  Ho  Ho0  1  0.394059  0.167451  0.808923  1
  Ho  Ho1  1  0.607051  0.831664  0.190108  1
  Tm  Tm2  1  0.733281  0.499513  0.808632  1
  Tm  Tm3  1  0.266679  0.501464  0.191557  1
  Al  Al4  1  0.321203  0.161941  0.054753  1
  Al  Al5  1  0.147006  0.832084  0.561897  1
  Al  Al6  1  0.853270  0.167943  0.438526  1
  Al  Al7  1  0.480199  0.166398  0.559144  1
  Al  Al8  1  0.520062  0.833540  0.441045  1
  Al  Al9  1  0.218076  0.165385  0.327680  1
  Al  Al10  1  0.782582  0.834328  0.671883  1
  Al  Al11  1  0.436153  0.506701  0.672975  1
  Al  Al12  1  0.563405  0.493703  0.327732  1
  Al  Al13  1  0.108552  0.160241  0.671319  1
  Al  Al14  1  0.890885  0.839744  0.329383  1
  Al  Al15  1  0.353707  0.499594  0.943825  1
  Al  Al16  1  0.647726  0.505137  0.054547  1
  Al  Al17  1  0.016110  0.168017  0.953224  1
  Al  Al18  1  0.981053  0.831530  0.044313  1
  Al  Al19  1  0.186602  0.499384  0.441197  1
  Al  Al20  1  0.813562  0.500603  0.559245  1
  Al  Al21  1  0.733860  0.164923  0.183124  1
  Al  Al22  1  0.265141  0.835641  0.817296  1
  Al  Al23  1  0.057571  0.631687  0.817683  1
  Al  Al24  1  0.939449  0.368777  0.184242  1
  Al  Al25  1  0.852157  0.041585  0.818430  1
  Al  Al26  1  0.144746  0.957801  0.183753  1
  Zn  Zn27  1  0.685014  0.833466  0.938008  1
  Pt  Pt28  1  0.120032  0.491504  0.639331  1
  Pt  Pt29  1  0.880204  0.508606  0.361271  1
  Pt  Pt30  1  0.656662  0.179265  0.001065  1
  Pt  Pt31  1  0.336066  0.827794  0.001790  1
  Pt  Pt32  1  0.537064  0.167275  0.361187  1
  Pt  Pt33  1  0.462694  0.832726  0.639077  1
  Pt  Pt34  1  0.778736  0.175379  0.637965  1
  Pt  Pt35  1  0.221467  0.824508  0.362785  1
  Pt  Pt36  1  0.007915  0.492699  0.001083  1
