# generated using pymatgen
data_LiLa3Tl(HgPd)2
_symmetry_space_group_name_H-M   'P 1'
_cell_length_a   8.07400600
_cell_length_b   8.07400605
_cell_length_c   3.91238000
_cell_angle_alpha   90.00000000
_cell_angle_beta   90.00000000
_cell_angle_gamma   120.29750893
_symmetry_Int_Tables_number   1
_chemical_formula_structural   LiLa3Tl(HgPd)2
_chemical_formula_sum   'Li1 La3 Tl1 Hg2 Pd2'
_cell_volume   220.21150643
_cell_formula_units_Z   1
loop_
 _symmetry_equiv_pos_site_id
 _symmetry_equiv_pos_as_xyz
  1  'x, y, z'
loop_
 _atom_site_type_symbol
 _atom_site_label
 _atom_site_symmetry_multiplicity
 _atom_site_fract_x
 _atom_site_fract_y
 _atom_site_fract_z
 _atom_site_occupancy
  Li  Li0  1  0.003778  0.003778  0.500000  1
  La  La1  1  0.411147  0.411147  0.500000  1
  La  La2  1  0.581914  0.003297  0.500000  1
  La  La3  1  0.003297  0.581914  0.500000  1
  Tl  Tl4  1  0.750535  0.750535  0.000000  1
  Hg  Hg5  1  0.248878  0.997130  0.000000  1
  Hg  Hg6  1  0.997130  0.248878  0.000000  1
  Pd  Pd7  1  0.666977  0.336346  0.000000  1
  Pd  Pd8  1  0.336346  0.666977  0.000000  1
