# generated using pymatgen
data_TiNbCr2(B2W)2
_symmetry_space_group_name_H-M   'P 1'
_cell_length_a   5.85020815
_cell_length_b   5.85020838
_cell_length_c   3.18752000
_cell_angle_alpha   90.00000000
_cell_angle_beta   90.00000000
_cell_angle_gamma   88.80299936
_symmetry_Int_Tables_number   1
_chemical_formula_structural   TiNbCr2(B2W)2
_chemical_formula_sum   'Ti1 Nb1 Cr2 B4 W2'
_cell_volume   109.06886403
_cell_formula_units_Z   1
loop_
 _symmetry_equiv_pos_site_id
 _symmetry_equiv_pos_as_xyz
  1  'x, y, z'
loop_
 _atom_site_type_symbol
 _atom_site_label
 _atom_site_symmetry_multiplicity
 _atom_site_fract_x
 _atom_site_fract_y
 _atom_site_fract_z
 _atom_site_occupancy
  Ti  Ti0  1  0.681198  0.181198  0.500000  1
  Nb  Nb1  1  0.319657  0.819657  0.500000  1
  Cr  Cr2  1  0.501556  0.496719  0.000000  1
  Cr  Cr3  1  0.996719  0.001556  0.000000  1
  B  B4  1  0.108566  0.608566  0.000000  1
  B  B5  1  0.886718  0.386718  0.000000  1
  B  B6  1  0.617003  0.890545  0.000000  1
  B  B7  1  0.390545  0.117003  0.000000  1
  W  W8  1  0.177774  0.320262  0.500000  1
  W  W9  1  0.820262  0.677774  0.500000  1
