# generated using pymatgen
data_CsSm2YCBr6
_symmetry_space_group_name_H-M   'P 1'
_cell_length_a   8.95984874
_cell_length_b   8.99069291
_cell_length_c   9.54658237
_cell_angle_alpha   70.93865221
_cell_angle_beta   84.88262378
_cell_angle_gamma   89.17810136
_symmetry_Int_Tables_number   1
_chemical_formula_structural   CsSm2YCBr6
_chemical_formula_sum   'Cs2 Sm4 Y2 C2 Br12'
_cell_volume   723.87459733
_cell_formula_units_Z   2
loop_
 _symmetry_equiv_pos_site_id
 _symmetry_equiv_pos_as_xyz
  1  'x, y, z'
loop_
 _atom_site_type_symbol
 _atom_site_label
 _atom_site_symmetry_multiplicity
 _atom_site_fract_x
 _atom_site_fract_y
 _atom_site_fract_z
 _atom_site_occupancy
  Cs  Cs0  1  0.467239  0.364746  0.331115  1
  Cs  Cs1  1  0.532762  0.635254  0.668885  1
  Sm  Sm2  1  0.915319  0.741219  0.004349  1
  Sm  Sm3  1  0.084681  0.258781  0.995650  1
  Sm  Sm4  1  0.740145  0.086969  0.001017  1
  Sm  Sm5  1  0.259854  0.913031  0.998984  1
  Y  Y6  1  0.973184  0.887365  0.322748  1
  Y  Y7  1  0.026815  0.112635  0.677253  1
  C  C8  1  0.006377  0.026590  0.921530  1
  C  C9  1  0.993622  0.973410  0.078470  1
  Br  Br10  1  0.073722  0.192548  0.332082  1
  Br  Br11  1  0.926278  0.807452  0.667918  1
  Br  Br12  1  0.206136  0.590549  0.000824  1
  Br  Br13  1  0.793865  0.409451  0.999176  1
  Br  Br14  1  0.404935  0.202304  0.001794  1
  Br  Br15  1  0.595064  0.797697  0.998205  1
  Br  Br16  1  0.670189  0.999240  0.328913  1
  Br  Br17  1  0.329811  0.000760  0.671087  1
  Br  Br18  1  0.276372  0.776405  0.325549  1
  Br  Br19  1  0.723628  0.223595  0.674451  1
  Br  Br20  1  0.852539  0.592917  0.329578  1
  Br  Br21  1  0.147460  0.407083  0.670422  1
