# generated using pymatgen
data_Sc12Si12OsAu3
_symmetry_space_group_name_H-M   'P 1'
_cell_length_a   4.05633200
_cell_length_b   10.40215832
_cell_length_c   11.77228408
_cell_angle_alpha   90.04822285
_cell_angle_beta   90.00000000
_cell_angle_gamma   90.00000000
_symmetry_Int_Tables_number   1
_chemical_formula_structural   Sc12Si12OsAu3
_chemical_formula_sum   'Sc12 Si12 Os1 Au3'
_cell_volume   496.72673208
_cell_formula_units_Z   1
loop_
 _symmetry_equiv_pos_site_id
 _symmetry_equiv_pos_as_xyz
  1  'x, y, z'
loop_
 _atom_site_type_symbol
 _atom_site_label
 _atom_site_symmetry_multiplicity
 _atom_site_fract_x
 _atom_site_fract_y
 _atom_site_fract_z
 _atom_site_occupancy
  Sc  Sc0  1  0.250000  0.874007  0.017830  1
  Sc  Sc1  1  0.250000  0.627014  0.522888  1
  Sc  Sc2  1  0.750000  0.121420  0.975705  1
  Sc  Sc3  1  0.750000  0.372686  0.479011  1
  Sc  Sc4  1  0.250000  0.920794  0.602896  1
  Sc  Sc5  1  0.250000  0.579586  0.097154  1
  Sc  Sc6  1  0.750000  0.078282  0.401743  1
  Sc  Sc7  1  0.750000  0.420458  0.900776  1
  Sc  Sc8  1  0.250000  0.663925  0.800080  1
  Sc  Sc9  1  0.250000  0.840530  0.301780  1
  Sc  Sc10  1  0.750000  0.340009  0.197441  1
  Sc  Sc11  1  0.750000  0.152429  0.701263  1
  Si  Si12  1  0.250000  0.010568  0.824143  1
  Si  Si13  1  0.250000  0.475511  0.326990  1
  Si  Si14  1  0.750000  0.976002  0.176566  1
  Si  Si15  1  0.750000  0.526237  0.671268  1
  Si  Si16  1  0.250000  0.241861  0.848479  1
  Si  Si17  1  0.250000  0.252303  0.348812  1
  Si  Si18  1  0.750000  0.752551  0.150304  1
  Si  Si19  1  0.750000  0.753696  0.659892  1
  Si  Si20  1  0.250000  0.180460  0.542309  1
  Si  Si21  1  0.250000  0.320499  0.038703  1
  Si  Si22  1  0.750000  0.819058  0.461591  1
  Si  Si23  1  0.750000  0.695614  0.951845  1
  Os  Os24  1  0.750000  0.889961  0.823699  1
  Au  Au25  1  0.250000  0.385645  0.678694  1
  Au  Au26  1  0.250000  0.113792  0.176336  1
  Au  Au27  1  0.750000  0.615100  0.321801  1
