# generated using pymatgen
data_TbNdHoRh9
_symmetry_space_group_name_H-M   'P 1'
_cell_length_a   5.30326800
_cell_length_b   5.30326866
_cell_length_c   17.53132000
_cell_angle_alpha   90.00000000
_cell_angle_beta   90.00000000
_cell_angle_gamma   120.00000834
_symmetry_Int_Tables_number   1
_chemical_formula_structural   TbNdHoRh9
_chemical_formula_sum   'Tb2 Nd2 Ho2 Rh18'
_cell_volume   427.00446469
_cell_formula_units_Z   2
loop_
 _symmetry_equiv_pos_site_id
 _symmetry_equiv_pos_as_xyz
  1  'x, y, z'
loop_
 _atom_site_type_symbol
 _atom_site_label
 _atom_site_symmetry_multiplicity
 _atom_site_fract_x
 _atom_site_fract_y
 _atom_site_fract_z
 _atom_site_occupancy
  Tb  Tb0  1  0.666667  0.333333  0.458427  1
  Tb  Tb1  1  0.333333  0.666667  0.958427  1
  Nd  Nd2  1  0.333333  0.666667  0.749925  1
  Nd  Nd3  1  0.666667  0.333333  0.249925  1
  Ho  Ho4  1  0.333333  0.666667  0.541770  1
  Ho  Ho5  1  0.666667  0.333333  0.041770  1
  Rh  Rh6  1  0.167364  0.334727  0.125028  1
  Rh  Rh7  1  0.832636  0.665273  0.625028  1
  Rh  Rh8  1  0.665273  0.832636  0.125028  1
  Rh  Rh9  1  0.167364  0.832636  0.125028  1
  Rh  Rh10  1  0.832636  0.167364  0.625028  1
  Rh  Rh11  1  0.334727  0.167364  0.625028  1
  Rh  Rh12  1  0.832603  0.665207  0.874881  1
  Rh  Rh13  1  0.832603  0.167397  0.874881  1
  Rh  Rh14  1  0.334793  0.167397  0.874881  1
  Rh  Rh15  1  0.665207  0.832603  0.374881  1
  Rh  Rh16  1  0.167397  0.832603  0.374881  1
  Rh  Rh17  1  0.167397  0.334793  0.374881  1
  Rh  Rh18  1  0.000000  0.000000  0.250073  1
  Rh  Rh19  1  0.000000  0.000000  0.750073  1
  Rh  Rh20  1  0.333333  0.666667  0.250013  1
  Rh  Rh21  1  0.666667  0.333333  0.750013  1
  Rh  Rh22  1  0.000000  0.000000  0.000066  1
  Rh  Rh23  1  0.000000  0.000000  0.500066  1
