# generated using pymatgen
data_NaEu3(CrN3)2
_symmetry_space_group_name_H-M   'P 1'
_cell_length_a   6.00695150
_cell_length_b   6.00695168
_cell_length_c   11.84859300
_cell_angle_alpha   88.95425455
_cell_angle_beta   91.04574548
_cell_angle_gamma   127.02268198
_symmetry_Int_Tables_number   1
_chemical_formula_structural   NaEu3(CrN3)2
_chemical_formula_sum   'Na2 Eu6 Cr4 N12'
_cell_volume   341.27442487
_cell_formula_units_Z   2
loop_
 _symmetry_equiv_pos_site_id
 _symmetry_equiv_pos_as_xyz
  1  'x, y, z'
loop_
 _atom_site_type_symbol
 _atom_site_label
 _atom_site_symmetry_multiplicity
 _atom_site_fract_x
 _atom_site_fract_y
 _atom_site_fract_z
 _atom_site_occupancy
  Na  Na0  1  0.555409  0.444591  0.632242  1
  Na  Na1  1  0.444591  0.555409  0.367758  1
  Eu  Eu2  1  0.944835  0.055165  0.145610  1
  Eu  Eu3  1  0.055165  0.944835  0.854390  1
  Eu  Eu4  1  0.856006  0.143994  0.583462  1
  Eu  Eu5  1  0.143994  0.856006  0.416538  1
  Eu  Eu6  1  0.643370  0.356630  0.080109  1
  Eu  Eu7  1  0.356630  0.643370  0.919891  1
  Cr  Cr8  1  0.736170  0.263830  0.839463  1
  Cr  Cr9  1  0.263830  0.736170  0.160537  1
  Cr  Cr10  1  0.765650  0.234350  0.341687  1
  Cr  Cr11  1  0.234350  0.765650  0.658313  1
  N  N12  1  0.843321  0.156679  0.957899  1
  N  N13  1  0.156679  0.843321  0.042101  1
  N  N14  1  0.669721  0.330279  0.454991  1
  N  N15  1  0.330279  0.669721  0.545009  1
  N  N16  1  0.577763  0.422237  0.872681  1
  N  N17  1  0.422237  0.577763  0.127319  1
  N  N18  1  0.922319  0.077681  0.375696  1
  N  N19  1  0.077681  0.922319  0.624304  1
  N  N20  1  0.520002  0.978358  0.752306  1
  N  N21  1  0.978358  0.520002  0.247694  1
  N  N22  1  0.479998  0.021642  0.247694  1
  N  N23  1  0.021642  0.479998  0.752306  1
