# generated using pymatgen
data_Dy4Tm4B24IrRh3
_symmetry_space_group_name_H-M   'P 1'
_cell_length_a   3.63353100
_cell_length_b   9.13107899
_cell_length_c   11.47364024
_cell_angle_alpha   90.05335178
_cell_angle_beta   90.00000000
_cell_angle_gamma   90.00000000
_symmetry_Int_Tables_number   1
_chemical_formula_structural   Dy4Tm4B24IrRh3
_chemical_formula_sum   'Dy4 Tm4 B24 Ir1 Rh3'
_cell_volume   380.67294300
_cell_formula_units_Z   1
loop_
 _symmetry_equiv_pos_site_id
 _symmetry_equiv_pos_as_xyz
  1  'x, y, z'
loop_
 _atom_site_type_symbol
 _atom_site_label
 _atom_site_symmetry_multiplicity
 _atom_site_fract_x
 _atom_site_fract_y
 _atom_site_fract_z
 _atom_site_occupancy
  Dy  Dy0  1  0.500000  0.322485  0.414180  1
  Dy  Dy1  1  0.500000  0.677669  0.586424  1
  Dy  Dy2  1  0.500000  0.178284  0.912926  1
  Dy  Dy3  1  0.500000  0.821380  0.086263  1
  Tm  Tm4  1  0.500000  0.445303  0.126511  1
  Tm  Tm5  1  0.500000  0.555607  0.873030  1
  Tm  Tm6  1  0.500000  0.055766  0.626821  1
  Tm  Tm7  1  0.500000  0.943687  0.374035  1
  B  B8  1  0.000000  0.107667  0.470812  1
  B  B9  1  0.000000  0.892066  0.529293  1
  B  B10  1  0.000000  0.392390  0.970818  1
  B  B11  1  0.000000  0.607823  0.029069  1
  B  B12  1  0.000000  0.132301  0.316396  1
  B  B13  1  0.000000  0.867388  0.683660  1
  B  B14  1  0.000000  0.367235  0.816252  1
  B  B15  1  0.000000  0.632891  0.183492  1
  B  B16  1  0.000000  0.054410  0.065839  1
  B  B17  1  0.000000  0.945725  0.934127  1
  B  B18  1  0.000000  0.445854  0.565681  1
  B  B19  1  0.000000  0.553968  0.434392  1
  B  B20  1  0.000000  0.482932  0.286434  1
  B  B21  1  0.000000  0.517082  0.713644  1
  B  B22  1  0.000000  0.017210  0.786245  1
  B  B23  1  0.000000  0.982946  0.214006  1
  B  B24  1  0.000000  0.250547  0.079608  1
  B  B25  1  0.000000  0.749528  0.920176  1
  B  B26  1  0.000000  0.249898  0.579764  1
  B  B27  1  0.000000  0.750059  0.420269  1
  B  B28  1  0.000000  0.294335  0.235253  1
  B  B29  1  0.000000  0.705582  0.764368  1
  B  B30  1  0.000000  0.205562  0.735627  1
  B  B31  1  0.000000  0.794261  0.264322  1
  Ir  Ir32  1  0.500000  0.139941  0.179335  1
  Rh  Rh33  1  0.500000  0.860428  0.821142  1
  Rh  Rh34  1  0.500000  0.359853  0.679734  1
  Rh  Rh35  1  0.500000  0.639937  0.320054  1
