# generated using pymatgen
data_Lu8ZrTi7(Si4Mo)4
_symmetry_space_group_name_H-M   'P 1'
_cell_length_a   6.74459059
_cell_length_b   6.93000192
_cell_length_c   13.22473537
_cell_angle_alpha   89.95389854
_cell_angle_beta   90.05386973
_cell_angle_gamma   90.15404731
_symmetry_Int_Tables_number   1
_chemical_formula_structural   Lu8ZrTi7(Si4Mo)4
_chemical_formula_sum   'Lu8 Zr1 Ti7 Si16 Mo4'
_cell_volume   618.12176554
_cell_formula_units_Z   1
loop_
 _symmetry_equiv_pos_site_id
 _symmetry_equiv_pos_as_xyz
  1  'x, y, z'
loop_
 _atom_site_type_symbol
 _atom_site_label
 _atom_site_symmetry_multiplicity
 _atom_site_fract_x
 _atom_site_fract_y
 _atom_site_fract_z
 _atom_site_occupancy
  Lu  Lu0  1  0.503085  0.326748  0.096626  1
  Lu  Lu1  1  0.004687  0.173040  0.402633  1
  Lu  Lu2  1  0.497057  0.674403  0.597060  1
  Lu  Lu3  1  0.995996  0.826104  0.905292  1
  Lu  Lu4  1  0.497772  0.673503  0.905604  1
  Lu  Lu5  1  0.995471  0.826635  0.597627  1
  Lu  Lu6  1  0.503900  0.327215  0.400754  1
  Lu  Lu7  1  0.002992  0.173091  0.096111  1
  Zr  Zr8  1  0.331973  0.173394  0.624700  1
  Ti  Ti9  1  0.831651  0.327291  0.627956  1
  Ti  Ti10  1  0.331199  0.172461  0.874840  1
  Ti  Ti11  1  0.167802  0.672713  0.126692  1
  Ti  Ti12  1  0.670467  0.825303  0.371343  1
  Ti  Ti13  1  0.166021  0.671496  0.371089  1
  Ti  Ti14  1  0.667947  0.827575  0.126421  1
  Ti  Ti15  1  0.832596  0.328512  0.875296  1
  Si  Si16  1  0.669923  0.037812  0.537775  1
  Si  Si17  1  0.161254  0.461146  0.958647  1
  Si  Si18  1  0.339062  0.961306  0.042531  1
  Si  Si19  1  0.837299  0.539167  0.457802  1
  Si  Si20  1  0.342350  0.957787  0.452172  1
  Si  Si21  1  0.838872  0.538727  0.042953  1
  Si  Si22  1  0.660665  0.039302  0.958454  1
  Si  Si23  1  0.155395  0.469590  0.539537  1
  Si  Si24  1  0.537183  0.381228  0.754086  1
  Si  Si25  1  0.028971  0.121191  0.753627  1
  Si  Si26  1  0.465440  0.622728  0.248805  1
  Si  Si27  1  0.965968  0.877488  0.248859  1
  Si  Si28  1  0.795154  0.630874  0.751416  1
  Si  Si29  1  0.293242  0.865031  0.752764  1
  Si  Si30  1  0.204224  0.369768  0.248920  1
  Si  Si31  1  0.705663  0.128893  0.249145  1
  Mo  Mo32  1  0.660196  0.008489  0.752161  1
  Mo  Mo33  1  0.158302  0.491718  0.752351  1
  Mo  Mo34  1  0.340584  0.988936  0.248462  1
  Mo  Mo35  1  0.839639  0.509337  0.249485  1
