# generated using pymatgen
data_LiEuAs2Pd
_symmetry_space_group_name_H-M   'P 1'
_cell_length_a   6.20572680
_cell_length_b   6.20572667
_cell_length_c   6.20572714
_cell_angle_alpha   140.31249770
_cell_angle_beta   140.31249579
_cell_angle_gamma   57.37912137
_symmetry_Int_Tables_number   1
_chemical_formula_structural   LiEuAs2Pd
_chemical_formula_sum   'Li1 Eu1 As2 Pd1'
_cell_volume   96.63199772
_cell_formula_units_Z   1
loop_
 _symmetry_equiv_pos_site_id
 _symmetry_equiv_pos_as_xyz
  1  'x, y, z'
loop_
 _atom_site_type_symbol
 _atom_site_label
 _atom_site_symmetry_multiplicity
 _atom_site_fract_x
 _atom_site_fract_y
 _atom_site_fract_z
 _atom_site_occupancy
  Li  Li0  1  0.750000  0.250000  0.500000  1
  Eu  Eu1  1  0.000000  0.000000  0.000000  1
  As  As2  1  0.616693  0.616693  0.000000  1
  As  As3  1  0.383307  0.383307  0.000000  1
  Pd  Pd4  1  0.250000  0.750000  0.500000  1
