# generated using pymatgen
data_In11Ir4Au
_symmetry_space_group_name_H-M   'P 1'
_cell_length_a   7.12453277
_cell_length_b   7.13735753
_cell_length_c   7.22914800
_cell_angle_alpha   90.00000000
_cell_angle_beta   90.00000000
_cell_angle_gamma   90.09247891
_symmetry_Int_Tables_number   1
_chemical_formula_structural   In11Ir4Au
_chemical_formula_sum   'In11 Ir4 Au1'
_cell_volume   367.60413774
_cell_formula_units_Z   1
loop_
 _symmetry_equiv_pos_site_id
 _symmetry_equiv_pos_as_xyz
  1  'x, y, z'
loop_
 _atom_site_type_symbol
 _atom_site_label
 _atom_site_symmetry_multiplicity
 _atom_site_fract_x
 _atom_site_fract_y
 _atom_site_fract_z
 _atom_site_occupancy
  In  In0  1  0.341738  0.351971  0.253313  1
  In  In1  1  0.147662  0.828055  0.770190  1
  In  In2  1  0.147662  0.828055  0.229810  1
  In  In3  1  0.852338  0.171945  0.229810  1
  In  In4  1  0.852338  0.171945  0.770190  1
  In  In5  1  0.500000  0.000000  0.000000  1
  In  In6  1  0.658262  0.648029  0.253313  1
  In  In7  1  0.658262  0.648029  0.746687  1
  In  In8  1  0.000000  0.500000  0.500000  1
  In  In9  1  0.341738  0.351971  0.746687  1
  In  In10  1  0.500000  0.000000  0.500000  1
  Ir  Ir11  1  0.161595  0.142105  0.000000  1
  Ir  Ir12  1  0.656564  0.342432  0.500000  1
  Ir  Ir13  1  0.343436  0.657568  0.500000  1
  Ir  Ir14  1  0.838405  0.857895  0.000000  1
  Au  Au15  1  0.000000  0.500000  0.000000  1
