# generated using pymatgen
data_Lu5ZrSbO12
_symmetry_space_group_name_H-M   'P 1'
_cell_length_a   6.29466294
_cell_length_b   6.27881098
_cell_length_c   6.30283500
_cell_angle_alpha   99.40804856
_cell_angle_beta   98.62990540
_cell_angle_gamma   98.73935940
_symmetry_Int_Tables_number   1
_chemical_formula_structural   Lu5ZrSbO12
_chemical_formula_sum   'Lu5 Zr1 Sb1 O12'
_cell_volume   238.96414920
_cell_formula_units_Z   1
loop_
 _symmetry_equiv_pos_site_id
 _symmetry_equiv_pos_as_xyz
  1  'x, y, z'
loop_
 _atom_site_type_symbol
 _atom_site_label
 _atom_site_symmetry_multiplicity
 _atom_site_fract_x
 _atom_site_fract_y
 _atom_site_fract_z
 _atom_site_occupancy
  Lu  Lu0  1  0.389325  0.687248  0.855391  1
  Lu  Lu1  1  0.860134  0.389113  0.691210  1
  Lu  Lu2  1  0.314855  0.144689  0.609701  1
  Lu  Lu3  1  0.609453  0.311850  0.138135  1
  Lu  Lu4  1  0.140337  0.609183  0.310251  1
  Zr  Zr5  1  0.685090  0.856900  0.387542  1
  Sb  Sb6  1  0.999929  0.998050  0.001423  1
  O  O7  1  0.436614  0.597459  0.181227  1
  O  O8  1  0.176696  0.431078  0.582990  1
  O  O9  1  0.593666  0.173253  0.426950  1
  O  O10  1  0.568413  0.412038  0.820771  1
  O  O11  1  0.818657  0.579018  0.415974  1
  O  O12  1  0.426669  0.823638  0.567994  1
  O  O13  1  0.913684  0.032697  0.689155  1
  O  O14  1  0.955379  0.309112  0.071754  1
  O  O15  1  0.307135  0.075656  0.953490  1
  O  O16  1  0.069606  0.956966  0.313143  1
  O  O17  1  0.044402  0.688375  0.929117  1
  O  O18  1  0.689956  0.923674  0.053784  1
