# generated using pymatgen
data_Hf6FePdN2
_symmetry_space_group_name_H-M   'P 1'
_cell_length_a   5.89498147
_cell_length_b   5.89498212
_cell_length_c   8.74926900
_cell_angle_alpha   90.00000000
_cell_angle_beta   90.00000000
_cell_angle_gamma   148.02953232
_symmetry_Int_Tables_number   1
_chemical_formula_structural   Hf6FePdN2
_chemical_formula_sum   'Hf6 Fe1 Pd1 N2'
_cell_volume   160.98594868
_cell_formula_units_Z   1
loop_
 _symmetry_equiv_pos_site_id
 _symmetry_equiv_pos_as_xyz
  1  'x, y, z'
loop_
 _atom_site_type_symbol
 _atom_site_label
 _atom_site_symmetry_multiplicity
 _atom_site_fract_x
 _atom_site_fract_y
 _atom_site_fract_z
 _atom_site_occupancy
  Hf  Hf0  1  0.633359  0.366639  0.067144  1
  Hf  Hf1  1  0.938393  0.061605  0.250000  1
  Hf  Hf2  1  0.633359  0.366639  0.432856  1
  Hf  Hf3  1  0.370195  0.629803  0.549199  1
  Hf  Hf4  1  0.050939  0.949059  0.750000  1
  Hf  Hf5  1  0.370195  0.629803  0.950801  1
  Fe  Fe6  1  0.254898  0.745100  0.250000  1
  Pd  Pd7  1  0.748356  0.251642  0.750000  1
  N  N8  1  0.000148  0.999852  0.001092  1
  N  N9  1  0.000148  0.999852  0.498908  1
