# generated using pymatgen
data_PrSm7(GeI6)2
_symmetry_space_group_name_H-M   'P 1'
_cell_length_a   4.33629600
_cell_length_b   14.34298250
_cell_length_c   15.12324800
_cell_angle_alpha   90.21555402
_cell_angle_beta   90.00000000
_cell_angle_gamma   90.00000000
_symmetry_Int_Tables_number   1
_chemical_formula_structural   PrSm7(GeI6)2
_chemical_formula_sum   'Pr1 Sm7 Ge2 I12'
_cell_volume   940.59006922
_cell_formula_units_Z   1
loop_
 _symmetry_equiv_pos_site_id
 _symmetry_equiv_pos_as_xyz
  1  'x, y, z'
loop_
 _atom_site_type_symbol
 _atom_site_label
 _atom_site_symmetry_multiplicity
 _atom_site_fract_x
 _atom_site_fract_y
 _atom_site_fract_z
 _atom_site_occupancy
  Pr  Pr0  1  0.500000  0.383412  0.844453  1
  Sm  Sm1  1  0.500000  0.115321  0.346720  1
  Sm  Sm2  1  0.500000  0.885167  0.653558  1
  Sm  Sm3  1  0.500000  0.615944  0.154726  1
  Sm  Sm4  1  0.000000  0.111781  0.575388  1
  Sm  Sm5  1  0.000000  0.887834  0.424348  1
  Sm  Sm6  1  0.000000  0.612472  0.924201  1
  Sm  Sm7  1  0.000000  0.387210  0.075628  1
  Ge  Ge8  1  0.500000  0.000028  0.500017  1
  Ge  Ge9  1  0.500000  0.500921  0.001319  1
  I  I10  1  0.500000  0.245455  0.162587  1
  I  I11  1  0.500000  0.754109  0.837518  1
  I  I12  1  0.500000  0.746067  0.338124  1
  I  I13  1  0.500000  0.252802  0.659862  1
  I  I14  1  0.000000  0.257354  0.415363  1
  I  I15  1  0.000000  0.743308  0.584707  1
  I  I16  1  0.000000  0.757352  0.085643  1
  I  I17  1  0.000000  0.238583  0.917933  1
  I  I18  1  0.000000  0.999501  0.241886  1
  I  I19  1  0.000000  0.000761  0.758574  1
  I  I20  1  0.000000  0.499727  0.258551  1
  I  I21  1  0.000000  0.504893  0.738897  1
