# generated using pymatgen
data_Tb5Yb4DyRh4
_symmetry_space_group_name_H-M   'P 1'
_cell_length_a   6.54374280
_cell_length_b   7.28709778
_cell_length_c   8.53868600
_cell_angle_alpha   97.05093268
_cell_angle_beta   112.53093752
_cell_angle_gamma   89.99999806
_symmetry_Int_Tables_number   1
_chemical_formula_structural   Tb5Yb4DyRh4
_chemical_formula_sum   'Tb5 Yb4 Dy1 Rh4'
_cell_volume   372.75258842
_cell_formula_units_Z   1
loop_
 _symmetry_equiv_pos_site_id
 _symmetry_equiv_pos_as_xyz
  1  'x, y, z'
loop_
 _atom_site_type_symbol
 _atom_site_label
 _atom_site_symmetry_multiplicity
 _atom_site_fract_x
 _atom_site_fract_y
 _atom_site_fract_z
 _atom_site_occupancy
  Tb  Tb0  1  0.209908  0.185476  0.562273  1
  Tb  Tb1  1  0.647634  0.314524  0.437727  1
  Tb  Tb2  1  0.790009  0.814360  0.437502  1
  Tb  Tb3  1  0.352508  0.685640  0.562498  1
  Tb  Tb4  1  0.428991  0.250000  0.000000  1
  Yb  Yb5  1  0.793190  0.081881  0.813344  1
  Yb  Yb6  1  0.979846  0.418119  0.186656  1
  Yb  Yb7  1  0.206469  0.917738  0.186681  1
  Yb  Yb8  1  0.019788  0.582262  0.813319  1
  Dy  Dy9  1  0.570566  0.750000  0.000000  1
  Rh  Rh10  1  0.593808  0.429624  0.775763  1
  Rh  Rh11  1  0.818045  0.070376  0.224237  1
  Rh  Rh12  1  0.407224  0.571600  0.225210  1
  Rh  Rh13  1  0.182014  0.928400  0.774790  1
