# generated using pymatgen
data_DyEr9(InSb2)2
_symmetry_space_group_name_H-M   'P 1'
_cell_length_a   8.90526681
_cell_length_b   8.87784313
_cell_length_c   6.41806700
_cell_angle_alpha   90.00000000
_cell_angle_beta   90.00000000
_cell_angle_gamma   119.90332103
_symmetry_Int_Tables_number   1
_chemical_formula_structural   DyEr9(InSb2)2
_chemical_formula_sum   'Dy1 Er9 In2 Sb4'
_cell_volume   439.85704000
_cell_formula_units_Z   1
loop_
 _symmetry_equiv_pos_site_id
 _symmetry_equiv_pos_as_xyz
  1  'x, y, z'
loop_
 _atom_site_type_symbol
 _atom_site_label
 _atom_site_symmetry_multiplicity
 _atom_site_fract_x
 _atom_site_fract_y
 _atom_site_fract_z
 _atom_site_occupancy
  Dy  Dy0  1  0.002226  0.760612  0.750000  1
  Er  Er1  1  0.002458  0.241534  0.250000  1
  Er  Er2  1  0.758010  0.759746  0.250000  1
  Er  Er3  1  0.758120  0.998435  0.750000  1
  Er  Er4  1  0.241055  0.237379  0.750000  1
  Er  Er5  1  0.241049  0.003947  0.250000  1
  Er  Er6  1  0.334203  0.667072  0.499979  1
  Er  Er7  1  0.663088  0.331527  0.000019  1
  Er  Er8  1  0.663088  0.331527  0.499981  1
  Er  Er9  1  0.334203  0.667072  0.000021  1
  In  In10  1  0.394986  0.998867  0.750000  1
  In  In11  1  0.394209  0.395844  0.250000  1
  Sb  Sb12  1  0.999075  0.607946  0.250000  1
  Sb  Sb13  1  0.999058  0.390817  0.750000  1
  Sb  Sb14  1  0.607241  0.607158  0.750000  1
  Sb  Sb15  1  0.607930  0.000519  0.250000  1
