# generated using pymatgen
data_Lu3Hf(Ta3Ge4)2
_symmetry_space_group_name_H-M   'P 1'
_cell_length_a   6.91694400
_cell_length_b   7.06075876
_cell_length_c   13.37786100
_cell_angle_alpha   89.77390833
_cell_angle_beta   90.00000000
_cell_angle_gamma   90.00000000
_symmetry_Int_Tables_number   1
_chemical_formula_structural   Lu3Hf(Ta3Ge4)2
_chemical_formula_sum   'Lu6 Hf2 Ta12 Ge16'
_cell_volume   653.35456711
_cell_formula_units_Z   2
loop_
 _symmetry_equiv_pos_site_id
 _symmetry_equiv_pos_as_xyz
  1  'x, y, z'
loop_
 _atom_site_type_symbol
 _atom_site_label
 _atom_site_symmetry_multiplicity
 _atom_site_fract_x
 _atom_site_fract_y
 _atom_site_fract_z
 _atom_site_occupancy
  Lu  Lu0  1  0.506841  0.324676  0.093208  1
  Lu  Lu1  1  0.006841  0.175324  0.406792  1
  Lu  Lu2  1  0.506877  0.325818  0.407039  1
  Lu  Lu3  1  0.006877  0.174182  0.092961  1
  Lu  Lu4  1  0.492002  0.676122  0.907018  1
  Lu  Lu5  1  0.992002  0.823878  0.592982  1
  Hf  Hf6  1  0.490523  0.677230  0.595220  1
  Hf  Hf7  1  0.990523  0.822770  0.904780  1
  Ta  Ta8  1  0.659079  0.167332  0.625699  1
  Ta  Ta9  1  0.159079  0.332668  0.874301  1
  Ta  Ta10  1  0.341148  0.831770  0.125898  1
  Ta  Ta11  1  0.841148  0.668230  0.374102  1
  Ta  Ta12  1  0.343202  0.829874  0.375657  1
  Ta  Ta13  1  0.843202  0.670126  0.124343  1
  Ta  Ta14  1  0.660801  0.165831  0.873678  1
  Ta  Ta15  1  0.160801  0.334169  0.626322  1
  Ta  Ta16  1  0.835905  0.490203  0.750523  1
  Ta  Ta17  1  0.335905  0.009797  0.749477  1
  Ta  Ta18  1  0.164784  0.512446  0.249989  1
  Ta  Ta19  1  0.664784  0.987554  0.250011  1
  Ge  Ge20  1  0.678827  0.960780  0.459434  1
  Ge  Ge21  1  0.178827  0.539220  0.040566  1
  Ge  Ge22  1  0.315311  0.035653  0.957989  1
  Ge  Ge23  1  0.815311  0.464347  0.542011  1
  Ge  Ge24  1  0.322193  0.036410  0.542211  1
  Ge  Ge25  1  0.822193  0.463590  0.957789  1
  Ge  Ge26  1  0.681446  0.962392  0.040538  1
  Ge  Ge27  1  0.181446  0.537608  0.459462  1
  Ge  Ge28  1  0.460593  0.384747  0.749765  1
  Ge  Ge29  1  0.960593  0.115253  0.750235  1
  Ge  Ge30  1  0.540571  0.616721  0.249535  1
  Ge  Ge31  1  0.040571  0.883279  0.250465  1
  Ge  Ge32  1  0.693919  0.852634  0.749368  1
  Ge  Ge33  1  0.193919  0.647366  0.750632  1
  Ge  Ge34  1  0.305977  0.145682  0.250152  1
  Ge  Ge35  1  0.805977  0.354318  0.249848  1
