# generated using pymatgen
data_La6Sc8Al8Ir7
_symmetry_space_group_name_H-M   'P 1'
_cell_length_a   9.38755875
_cell_length_b   9.38755943
_cell_length_c   9.38755900
_cell_angle_alpha   59.99999800
_cell_angle_beta   59.99999561
_cell_angle_gamma   59.99999743
_symmetry_Int_Tables_number   1
_chemical_formula_structural   La6Sc8Al8Ir7
_chemical_formula_sum   'La6 Sc8 Al8 Ir7'
_cell_volume   584.98269632
_cell_formula_units_Z   1
loop_
 _symmetry_equiv_pos_site_id
 _symmetry_equiv_pos_as_xyz
  1  'x, y, z'
loop_
 _atom_site_type_symbol
 _atom_site_label
 _atom_site_symmetry_multiplicity
 _atom_site_fract_x
 _atom_site_fract_y
 _atom_site_fract_z
 _atom_site_occupancy
  La  La0  1  0.684832  0.684832  0.315168  1
  La  La1  1  0.315168  0.684832  0.315168  1
  La  La2  1  0.684832  0.315168  0.315168  1
  La  La3  1  0.315168  0.315168  0.684832  1
  La  La4  1  0.684832  0.315168  0.684832  1
  La  La5  1  0.315168  0.684832  0.684832  1
  Sc  Sc6  1  0.878315  0.878315  0.365057  1
  Sc  Sc7  1  0.878315  0.365057  0.878315  1
  Sc  Sc8  1  0.365057  0.878315  0.878315  1
  Sc  Sc9  1  0.878315  0.878315  0.878315  1
  Sc  Sc10  1  0.121685  0.121685  0.634943  1
  Sc  Sc11  1  0.121685  0.634943  0.121685  1
  Sc  Sc12  1  0.634943  0.121685  0.121685  1
  Sc  Sc13  1  0.121685  0.121685  0.121685  1
  Al  Al14  1  0.670204  0.670204  0.989386  1
  Al  Al15  1  0.670204  0.989386  0.670204  1
  Al  Al16  1  0.989386  0.670204  0.670204  1
  Al  Al17  1  0.670204  0.670204  0.670204  1
  Al  Al18  1  0.329796  0.329796  0.010614  1
  Al  Al19  1  0.329796  0.010614  0.329796  1
  Al  Al20  1  0.010614  0.329796  0.329796  1
  Al  Al21  1  0.329796  0.329796  0.329796  1
  Ir  Ir22  1  0.000000  0.000000  0.000000  1
  Ir  Ir23  1  0.000000  0.000000  0.500000  1
  Ir  Ir24  1  0.500000  0.000000  0.500000  1
  Ir  Ir25  1  0.000000  0.500000  0.500000  1
  Ir  Ir26  1  0.500000  0.500000  0.000000  1
  Ir  Ir27  1  0.000000  0.500000  0.000000  1
  Ir  Ir28  1  0.500000  0.000000  0.000000  1
