# generated using pymatgen
data_CaNd2Mg2(GeO4)3
_symmetry_space_group_name_H-M   'P 1'
_cell_length_a   10.93552438
_cell_length_b   10.93552586
_cell_length_c   10.93552476
_cell_angle_alpha   109.29037974
_cell_angle_beta   109.29038643
_cell_angle_gamma   109.83350791
_symmetry_Int_Tables_number   1
_chemical_formula_structural   CaNd2Mg2(GeO4)3
_chemical_formula_sum   'Ca4 Nd8 Mg8 Ge12 O48'
_cell_volume   1006.66268500
_cell_formula_units_Z   4
loop_
 _symmetry_equiv_pos_site_id
 _symmetry_equiv_pos_as_xyz
  1  'x, y, z'
loop_
 _atom_site_type_symbol
 _atom_site_label
 _atom_site_symmetry_multiplicity
 _atom_site_fract_x
 _atom_site_fract_y
 _atom_site_fract_z
 _atom_site_occupancy
  Ca  Ca0  1  0.500000  0.000000  0.500000  1
  Ca  Ca1  1  0.250000  0.250000  0.000000  1
  Ca  Ca2  1  0.750000  0.750000  0.000000  1
  Ca  Ca3  1  0.000000  0.500000  0.500000  1
  Nd  Nd4  1  0.496704  0.125000  0.871704  1
  Nd  Nd5  1  0.253296  0.625000  0.128296  1
  Nd  Nd6  1  0.875000  0.246704  0.871704  1
  Nd  Nd7  1  0.375000  0.003296  0.128296  1
  Nd  Nd8  1  0.753296  0.625000  0.628296  1
  Nd  Nd9  1  0.996704  0.125000  0.371704  1
  Nd  Nd10  1  0.375000  0.503296  0.628296  1
  Nd  Nd11  1  0.875000  0.746704  0.371704  1
  Mg  Mg12  1  0.625000  0.875000  0.250000  1
  Mg  Mg13  1  0.125000  0.375000  0.250000  1
  Mg  Mg14  1  0.125000  0.875000  0.750000  1
  Mg  Mg15  1  0.625000  0.375000  0.750000  1
  Mg  Mg16  1  0.125000  0.875000  0.250000  1
  Mg  Mg17  1  0.625000  0.375000  0.250000  1
  Mg  Mg18  1  0.125000  0.375000  0.750000  1
  Mg  Mg19  1  0.625000  0.875000  0.750000  1
  Ge  Ge20  1  0.250000  0.750000  0.500000  1
  Ge  Ge21  1  0.500000  0.500000  0.000000  1
  Ge  Ge22  1  0.749068  0.125000  0.124068  1
  Ge  Ge23  1  0.000932  0.625000  0.875932  1
  Ge  Ge24  1  0.875000  0.999068  0.624068  1
  Ge  Ge25  1  0.375000  0.250932  0.375932  1
  Ge  Ge26  1  0.000000  0.000000  0.000000  1
  Ge  Ge27  1  0.750000  0.250000  0.500000  1
  Ge  Ge28  1  0.500932  0.625000  0.375932  1
  Ge  Ge29  1  0.249068  0.125000  0.624068  1
  Ge  Ge30  1  0.375000  0.750932  0.875932  1
  Ge  Ge31  1  0.875000  0.499068  0.124068  1
  O  O32  1  0.507204  0.772410  0.337350  1
  O  O33  1  0.314939  0.477590  0.234793  1
  O  O34  1  0.242796  0.080145  0.765207  1
  O  O35  1  0.435061  0.169855  0.662650  1
  O  O36  1  0.333827  0.896248  0.872758  1
  O  O37  1  0.416173  0.788931  0.062422  1
  O  O38  1  0.023491  0.461069  0.127242  1
  O  O39  1  0.726509  0.353752  0.937578  1
  O  O40  1  0.035115  0.185211  0.038257  1
  O  O41  1  0.146955  0.996858  0.961743  1
  O  O42  1  0.603045  0.064789  0.349902  1
  O  O43  1  0.714885  0.253142  0.650098  1
  O  O44  1  0.742796  0.977590  0.162650  1
  O  O45  1  0.935061  0.272410  0.265207  1
  O  O46  1  0.007204  0.669855  0.734793  1
  O  O47  1  0.814939  0.580145  0.837350  1
  O  O48  1  0.916173  0.853752  0.627242  1
  O  O49  1  0.833827  0.961069  0.437578  1
  O  O50  1  0.226509  0.288931  0.372758  1
  O  O51  1  0.523491  0.396248  0.562422  1
  O  O52  1  0.214885  0.564789  0.461743  1
  O  O53  1  0.103045  0.753142  0.538257  1
  O  O54  1  0.646955  0.685211  0.150098  1
  O  O55  1  0.535115  0.496858  0.849902  1
  O  O56  1  0.919855  0.685061  0.162650  1
  O  O57  1  0.830145  0.492796  0.265207  1
  O  O58  1  0.227590  0.564939  0.734793  1
  O  O59  1  0.522410  0.757204  0.837350  1
  O  O60  1  0.211069  0.273491  0.627242  1
  O  O61  1  0.103752  0.976509  0.437578  1
  O  O62  1  0.646248  0.583827  0.372758  1
  O  O63  1  0.538931  0.666173  0.562422  1
  O  O64  1  0.746858  0.396955  0.461743  1
  O  O65  1  0.935211  0.285115  0.538257  1
  O  O66  1  0.003142  0.964885  0.150098  1
  O  O67  1  0.814789  0.853045  0.849902  1
  O  O68  1  0.330145  0.064939  0.337350  1
  O  O69  1  0.419855  0.257204  0.234793  1
  O  O70  1  0.022410  0.185061  0.765207  1
  O  O71  1  0.727590  0.992796  0.662650  1
  O  O72  1  0.038931  0.476509  0.872758  1
  O  O73  1  0.146248  0.773491  0.062422  1
  O  O74  1  0.603752  0.166173  0.127242  1
  O  O75  1  0.711069  0.083827  0.937578  1
  O  O76  1  0.503142  0.353045  0.038257  1
  O  O77  1  0.314789  0.464885  0.961743  1
  O  O78  1  0.246858  0.785115  0.349902  1
  O  O79  1  0.435211  0.896955  0.650098  1
