# generated using pymatgen
data_TePdPbO6
_symmetry_space_group_name_H-M   'P 1'
_cell_length_a   5.17977400
_cell_length_b   5.17983733
_cell_length_c   11.38032100
_cell_angle_alpha   89.99976771
_cell_angle_beta   90.00046458
_cell_angle_gamma   119.99959554
_symmetry_Int_Tables_number   1
_chemical_formula_structural   TePdPbO6
_chemical_formula_sum   'Te2 Pd2 Pb2 O12'
_cell_volume   264.43190068
_cell_formula_units_Z   2
loop_
 _symmetry_equiv_pos_site_id
 _symmetry_equiv_pos_as_xyz
  1  'x, y, z'
loop_
 _atom_site_type_symbol
 _atom_site_label
 _atom_site_symmetry_multiplicity
 _atom_site_fract_x
 _atom_site_fract_y
 _atom_site_fract_z
 _atom_site_occupancy
  Te  Te0  1  0.666667  0.333330  0.000005  1
  Te  Te1  1  0.666665  0.333352  0.499993  1
  Pd  Pd2  1  0.333333  0.666669  0.000005  1
  Pd  Pd3  1  0.333348  0.666653  0.499994  1
  Pb  Pb4  1  0.999996  0.000003  0.249976  1
  Pb  Pb5  1  0.000003  0.000004  0.750022  1
  O  O6  1  0.373906  0.008636  0.099224  1
  O  O7  1  0.634732  0.626092  0.099226  1
  O  O8  1  0.991368  0.365270  0.099225  1
  O  O9  1  0.991363  0.365300  0.400775  1
  O  O10  1  0.634700  0.626060  0.400777  1
  O  O11  1  0.373930  0.008638  0.400774  1
  O  O12  1  0.634708  0.008636  0.599229  1
  O  O13  1  0.991357  0.626065  0.599229  1
  O  O14  1  0.373931  0.365295  0.599227  1
  O  O15  1  0.373899  0.365268  0.900773  1
  O  O16  1  0.991361  0.626096  0.900772  1
  O  O17  1  0.634734  0.008638  0.900773  1
