# generated using pymatgen
data_LiSc6Zn22Ga
_symmetry_space_group_name_H-M   'P 1'
_cell_length_a   8.80289278
_cell_length_b   8.80289292
_cell_length_c   8.80289300
_cell_angle_alpha   60.00000344
_cell_angle_beta   60.00000293
_cell_angle_gamma   59.99999812
_symmetry_Int_Tables_number   1
_chemical_formula_structural   LiSc6Zn22Ga
_chemical_formula_sum   'Li1 Sc6 Zn22 Ga1'
_cell_volume   482.34887612
_cell_formula_units_Z   1
loop_
 _symmetry_equiv_pos_site_id
 _symmetry_equiv_pos_as_xyz
  1  'x, y, z'
loop_
 _atom_site_type_symbol
 _atom_site_label
 _atom_site_symmetry_multiplicity
 _atom_site_fract_x
 _atom_site_fract_y
 _atom_site_fract_z
 _atom_site_occupancy
  Li  Li0  1  0.000000  0.000000  0.000000  1
  Sc  Sc1  1  0.717802  0.282198  0.282198  1
  Sc  Sc2  1  0.282198  0.717802  0.717802  1
  Sc  Sc3  1  0.282198  0.717802  0.282198  1
  Sc  Sc4  1  0.717802  0.282198  0.717802  1
  Sc  Sc5  1  0.282198  0.282198  0.717802  1
  Sc  Sc6  1  0.717802  0.717802  0.282198  1
  Zn  Zn7  1  0.122719  0.122719  0.122719  1
  Zn  Zn8  1  0.877281  0.877281  0.877281  1
  Zn  Zn9  1  0.122719  0.122719  0.631845  1
  Zn  Zn10  1  0.122719  0.631845  0.122719  1
  Zn  Zn11  1  0.877281  0.877281  0.368155  1
  Zn  Zn12  1  0.877281  0.368155  0.877281  1
  Zn  Zn13  1  0.631845  0.122719  0.122719  1
  Zn  Zn14  1  0.368155  0.877281  0.877281  1
  Zn  Zn15  1  0.500000  0.000000  0.000000  1
  Zn  Zn16  1  0.000000  0.500000  0.500000  1
  Zn  Zn17  1  0.000000  0.500000  0.000000  1
  Zn  Zn18  1  0.500000  0.000000  0.500000  1
  Zn  Zn19  1  0.000000  0.000000  0.500000  1
  Zn  Zn20  1  0.500000  0.500000  0.000000  1
  Zn  Zn21  1  0.339477  0.339477  0.339477  1
  Zn  Zn22  1  0.660523  0.660523  0.660523  1
  Zn  Zn23  1  0.339477  0.339477  0.981571  1
  Zn  Zn24  1  0.339477  0.981571  0.339477  1
  Zn  Zn25  1  0.660523  0.660523  0.018429  1
  Zn  Zn26  1  0.660523  0.018429  0.660523  1
  Zn  Zn27  1  0.981571  0.339477  0.339477  1
  Zn  Zn28  1  0.018429  0.660523  0.660523  1
  Ga  Ga29  1  0.500000  0.500000  0.500000  1
