# generated using pymatgen
data_DyEr2Cu4Si3Ge
_symmetry_space_group_name_H-M   'P 1'
_cell_length_a   7.85657349
_cell_length_b   7.85657265
_cell_length_c   7.85657306
_cell_angle_alpha   149.49479173
_cell_angle_beta   130.65410345
_cell_angle_gamma   59.13120194
_symmetry_Int_Tables_number   1
_chemical_formula_structural   DyEr2Cu4Si3Ge
_chemical_formula_sum   'Dy1 Er2 Cu4 Si3 Ge1'
_cell_volume   185.28756626
_cell_formula_units_Z   1
loop_
 _symmetry_equiv_pos_site_id
 _symmetry_equiv_pos_as_xyz
  1  'x, y, z'
loop_
 _atom_site_type_symbol
 _atom_site_label
 _atom_site_symmetry_multiplicity
 _atom_site_fract_x
 _atom_site_fract_y
 _atom_site_fract_z
 _atom_site_occupancy
  Dy  Dy0  1  0.497748  0.500000  0.997748  1
  Er  Er1  1  0.871428  0.370579  0.500849  1
  Er  Er2  1  0.130270  0.629421  0.500849  1
  Cu  Cu3  1  0.517149  0.826029  0.691121  1
  Cu  Cu4  1  0.865092  0.173971  0.691121  1
  Cu  Cu5  1  0.140596  0.831139  0.309457  1
  Cu  Cu6  1  0.478320  0.168861  0.309457  1
  Si  Si7  1  0.187944  0.000000  0.187944  1
  Si  Si8  1  0.283797  0.283818  0.999979  1
  Si  Si9  1  0.716162  0.716182  0.999979  1
  Ge  Ge10  1  0.811494  0.000000  0.811494  1
