# generated using pymatgen
data_CaTbDyGa8Ag3
_symmetry_space_group_name_H-M   'P 1'
_cell_length_a   4.36974108
_cell_length_b   8.42890425
_cell_length_c   8.42890446
_cell_angle_alpha   69.64125881
_cell_angle_beta   74.97670386
_cell_angle_gamma   74.97670226
_symmetry_Int_Tables_number   1
_chemical_formula_structural   CaTbDyGa8Ag3
_chemical_formula_sum   'Ca1 Tb1 Dy1 Ga8 Ag3'
_cell_volume   276.17141046
_cell_formula_units_Z   1
loop_
 _symmetry_equiv_pos_site_id
 _symmetry_equiv_pos_as_xyz
  1  'x, y, z'
loop_
 _atom_site_type_symbol
 _atom_site_label
 _atom_site_symmetry_multiplicity
 _atom_site_fract_x
 _atom_site_fract_y
 _atom_site_fract_z
 _atom_site_occupancy
  Ca  Ca0  1  0.499902  0.500098  0.500098  1
  Tb  Tb1  1  0.798598  0.201402  0.201402  1
  Dy  Dy2  1  0.201265  0.798735  0.798735  1
  Ga  Ga3  1  0.355461  0.362492  0.926584  1
  Ga  Ga4  1  0.644545  0.637849  0.073062  1
  Ga  Ga5  1  0.355461  0.926584  0.362492  1
  Ga  Ga6  1  0.644545  0.073062  0.637849  1
  Ga  Ga7  1  0.160458  0.471812  0.207270  1
  Ga  Ga8  1  0.839412  0.528451  0.792725  1
  Ga  Ga9  1  0.160458  0.207270  0.471812  1
  Ga  Ga10  1  0.839412  0.792725  0.528451  1
  Ag  Ag11  1  0.500162  0.999838  0.999838  1
  Ag  Ag12  1  0.000159  0.808240  0.191442  1
  Ag  Ag13  1  0.000159  0.191442  0.808240  1
