# generated using pymatgen
data_Y4ReB12Ir
_symmetry_space_group_name_H-M   'P 1'
_cell_length_a   3.67580700
_cell_length_b   9.17992960
_cell_length_c   11.57356156
_cell_angle_alpha   89.68959654
_cell_angle_beta   90.00000000
_cell_angle_gamma   90.00000000
_symmetry_Int_Tables_number   1
_chemical_formula_structural   Y4ReB12Ir
_chemical_formula_sum   'Y8 Re2 B24 Ir2'
_cell_volume   390.52847348
_cell_formula_units_Z   2
loop_
 _symmetry_equiv_pos_site_id
 _symmetry_equiv_pos_as_xyz
  1  'x, y, z'
loop_
 _atom_site_type_symbol
 _atom_site_label
 _atom_site_symmetry_multiplicity
 _atom_site_fract_x
 _atom_site_fract_y
 _atom_site_fract_z
 _atom_site_occupancy
  Y  Y0  1  0.000000  0.817425  0.090276  1
  Y  Y1  1  0.000000  0.182575  0.909724  1
  Y  Y2  1  0.000000  0.326885  0.417488  1
  Y  Y3  1  0.000000  0.673115  0.582512  1
  Y  Y4  1  0.000000  0.445921  0.127645  1
  Y  Y5  1  0.000000  0.554079  0.872355  1
  Y  Y6  1  0.000000  0.941546  0.374301  1
  Y  Y7  1  0.000000  0.058454  0.625699  1
  Re  Re8  1  0.000000  0.637880  0.320324  1
  Re  Re9  1  0.000000  0.362120  0.679676  1
  B  B10  1  0.500000  0.053998  0.066189  1
  B  B11  1  0.500000  0.946002  0.933812  1
  B  B12  1  0.500000  0.553118  0.432586  1
  B  B13  1  0.500000  0.446882  0.567413  1
  B  B14  1  0.500000  0.248679  0.078907  1
  B  B15  1  0.500000  0.751321  0.921093  1
  B  B16  1  0.500000  0.747189  0.419125  1
  B  B17  1  0.500000  0.252811  0.580875  1
  B  B18  1  0.500000  0.290381  0.233735  1
  B  B19  1  0.500000  0.709619  0.766265  1
  B  B20  1  0.500000  0.791694  0.265837  1
  B  B21  1  0.500000  0.208306  0.734163  1
  B  B22  1  0.500000  0.131765  0.315571  1
  B  B23  1  0.500000  0.868235  0.684429  1
  B  B24  1  0.500000  0.631801  0.185667  1
  B  B25  1  0.500000  0.368199  0.814333  1
  B  B26  1  0.500000  0.483134  0.286985  1
  B  B27  1  0.500000  0.516866  0.713015  1
  B  B28  1  0.500000  0.982581  0.212608  1
  B  B29  1  0.500000  0.017419  0.787392  1
  B  B30  1  0.500000  0.107715  0.469635  1
  B  B31  1  0.500000  0.892285  0.530365  1
  B  B32  1  0.500000  0.608695  0.029516  1
  B  B33  1  0.500000  0.391305  0.970484  1
  Ir  Ir34  1  0.000000  0.136361  0.177542  1
  Ir  Ir35  1  0.000000  0.863639  0.822458  1
