# generated using pymatgen
data_U3Tc2NiSn3
_symmetry_space_group_name_H-M   'P 1'
_cell_length_a   7.38148200
_cell_length_b   7.38148256
_cell_length_c   3.90812200
_cell_angle_alpha   90.00000000
_cell_angle_beta   90.00000000
_cell_angle_gamma   120.00000645
_symmetry_Int_Tables_number   1
_chemical_formula_structural   U3Tc2NiSn3
_chemical_formula_sum   'U3 Tc2 Ni1 Sn3'
_cell_volume   184.41059930
_cell_formula_units_Z   1
loop_
 _symmetry_equiv_pos_site_id
 _symmetry_equiv_pos_as_xyz
  1  'x, y, z'
loop_
 _atom_site_type_symbol
 _atom_site_label
 _atom_site_symmetry_multiplicity
 _atom_site_fract_x
 _atom_site_fract_y
 _atom_site_fract_z
 _atom_site_occupancy
  U  U0  1  0.418704  0.418704  0.500000  1
  U  U1  1  0.581296  0.000000  0.500000  1
  U  U2  1  0.000000  0.581296  0.500000  1
  Tc  Tc3  1  0.666667  0.333333  0.000000  1
  Tc  Tc4  1  0.333333  0.666667  0.000000  1
  Ni  Ni5  1  0.000000  0.000000  0.500000  1
  Sn  Sn6  1  0.754254  0.754254  0.000000  1
  Sn  Sn7  1  0.245746  0.000000  0.000000  1
  Sn  Sn8  1  0.000000  0.245746  0.000000  1
