# generated using pymatgen
data_Dy5Co19Si11B
_symmetry_space_group_name_H-M   'P 1'
_cell_length_a   12.09561339
_cell_length_b   12.05958350
_cell_length_c   3.71837700
_cell_angle_alpha   90.00000000
_cell_angle_beta   90.00000000
_cell_angle_gamma   119.90149917
_symmetry_Int_Tables_number   1
_chemical_formula_structural   Dy5Co19Si11B
_chemical_formula_sum   'Dy5 Co19 Si11 B1'
_cell_volume   470.19116665
_cell_formula_units_Z   1
loop_
 _symmetry_equiv_pos_site_id
 _symmetry_equiv_pos_as_xyz
  1  'x, y, z'
loop_
 _atom_site_type_symbol
 _atom_site_label
 _atom_site_symmetry_multiplicity
 _atom_site_fract_x
 _atom_site_fract_y
 _atom_site_fract_z
 _atom_site_occupancy
  Dy  Dy0  1  0.669655  0.331319  0.000000  1
  Dy  Dy1  1  0.330345  0.661666  0.000000  1
  Dy  Dy2  1  0.178993  0.187608  0.500000  1
  Dy  Dy3  1  0.821007  0.008615  0.500000  1
  Dy  Dy4  1  0.000000  0.815357  0.500000  1
  Co  Co5  1  0.558990  0.558755  0.000000  1
  Co  Co6  1  0.441010  0.999764  0.000000  1
  Co  Co7  1  0.000000  0.437461  0.000000  1
  Co  Co8  1  0.827977  0.194646  0.000000  1
  Co  Co9  1  0.803863  0.623924  0.000000  1
  Co  Co10  1  0.377558  0.180728  0.000000  1
  Co  Co11  1  0.196137  0.820062  0.000000  1
  Co  Co12  1  0.622442  0.803171  0.000000  1
  Co  Co13  1  0.172023  0.366670  0.000000  1
  Co  Co14  1  0.645989  0.123592  0.500000  1
  Co  Co15  1  0.877065  0.518177  0.500000  1
  Co  Co16  1  0.479481  0.356422  0.500000  1
  Co  Co17  1  0.122935  0.641112  0.500000  1
  Co  Co18  1  0.520519  0.876941  0.500000  1
  Co  Co19  1  0.354011  0.477603  0.500000  1
  Co  Co20  1  0.719928  0.720567  0.500000  1
  Co  Co21  1  0.280072  0.000639  0.500000  1
  Co  Co22  1  0.000000  0.269885  0.500000  1
  Co  Co23  1  0.000000  0.019167  0.000000  1
  Si  Si24  1  0.370614  0.371244  0.000000  1
  Si  Si25  1  0.629386  0.000631  0.000000  1
  Si  Si26  1  0.000000  0.626663  0.000000  1
  Si  Si27  1  0.843824  0.314915  0.500000  1
  Si  Si28  1  0.683013  0.522387  0.500000  1
  Si  Si29  1  0.478159  0.160058  0.500000  1
  Si  Si30  1  0.316987  0.839374  0.500000  1
  Si  Si31  1  0.521841  0.681900  0.500000  1
  Si  Si32  1  0.156176  0.471090  0.500000  1
  Si  Si33  1  0.819362  0.821492  0.000000  1
  Si  Si34  1  0.180638  0.002131  0.000000  1
  B  B35  1  0.000000  0.194269  0.000000  1
