# generated using pymatgen
data_YbAlNi3B
_symmetry_space_group_name_H-M   'P 1'
_cell_length_a   5.14978000
_cell_length_b   5.14977974
_cell_length_c   6.71207700
_cell_angle_alpha   90.00000000
_cell_angle_beta   90.00000000
_cell_angle_gamma   120.00000169
_symmetry_Int_Tables_number   1
_chemical_formula_structural   YbAlNi3B
_chemical_formula_sum   'Yb2 Al2 Ni6 B2'
_cell_volume   154.15758021
_cell_formula_units_Z   2
loop_
 _symmetry_equiv_pos_site_id
 _symmetry_equiv_pos_as_xyz
  1  'x, y, z'
loop_
 _atom_site_type_symbol
 _atom_site_label
 _atom_site_symmetry_multiplicity
 _atom_site_fract_x
 _atom_site_fract_y
 _atom_site_fract_z
 _atom_site_occupancy
  Yb  Yb0  1  0.000000  0.000000  0.000000  1
  Yb  Yb1  1  0.000000  0.000000  0.500000  1
  Al  Al2  1  0.666667  0.333333  0.500000  1
  Al  Al3  1  0.333333  0.666667  0.500000  1
  Ni  Ni4  1  0.500000  0.500000  0.798896  1
  Ni  Ni5  1  0.500000  0.000000  0.798896  1
  Ni  Ni6  1  0.000000  0.500000  0.798896  1
  Ni  Ni7  1  0.500000  0.500000  0.201104  1
  Ni  Ni8  1  0.500000  0.000000  0.201104  1
  Ni  Ni9  1  0.000000  0.500000  0.201104  1
  B  B10  1  0.666667  0.333333  0.000000  1
  B  B11  1  0.333333  0.666667  0.000000  1
