# generated using pymatgen
data_Dy4MnAlRu6
_symmetry_space_group_name_H-M   'P 1'
_cell_length_a   5.46886853
_cell_length_b   5.18765967
_cell_length_c   8.88163200
_cell_angle_alpha   90.00000000
_cell_angle_beta   90.00000000
_cell_angle_gamma   121.75946816
_symmetry_Int_Tables_number   1
_chemical_formula_structural   Dy4MnAlRu6
_chemical_formula_sum   'Dy4 Mn1 Al1 Ru6'
_cell_volume   214.24769984
_cell_formula_units_Z   1
loop_
 _symmetry_equiv_pos_site_id
 _symmetry_equiv_pos_as_xyz
  1  'x, y, z'
loop_
 _atom_site_type_symbol
 _atom_site_label
 _atom_site_symmetry_multiplicity
 _atom_site_fract_x
 _atom_site_fract_y
 _atom_site_fract_z
 _atom_site_occupancy
  Dy  Dy0  1  0.672203  0.344011  0.567750  1
  Dy  Dy1  1  0.331147  0.662412  0.436201  1
  Dy  Dy2  1  0.331147  0.662412  0.063799  1
  Dy  Dy3  1  0.672203  0.344011  0.932250  1
  Mn  Mn4  1  0.152011  0.303685  0.750000  1
  Al  Al5  1  0.838062  0.675771  0.250000  1
  Ru  Ru6  1  0.007913  0.015083  0.503210  1
  Ru  Ru7  1  0.007913  0.015083  0.996790  1
  Ru  Ru8  1  0.179059  0.821985  0.750000  1
  Ru  Ru9  1  0.641946  0.821608  0.750000  1
  Ru  Ru10  1  0.818788  0.167001  0.250000  1
  Ru  Ru11  1  0.347608  0.166939  0.250000  1
