# generated using pymatgen
data_Ti4V3ReTc8
_symmetry_space_group_name_H-M   'P 1'
_cell_length_a   6.16814377
_cell_length_b   4.34832300
_cell_length_c   8.69182731
_cell_angle_alpha   90.00000000
_cell_angle_beta   90.12665813
_cell_angle_gamma   90.00000000
_symmetry_Int_Tables_number   1
_chemical_formula_structural   Ti4V3ReTc8
_chemical_formula_sum   'Ti4 V3 Re1 Tc8'
_cell_volume   233.12363828
_cell_formula_units_Z   1
loop_
 _symmetry_equiv_pos_site_id
 _symmetry_equiv_pos_as_xyz
  1  'x, y, z'
loop_
 _atom_site_type_symbol
 _atom_site_label
 _atom_site_symmetry_multiplicity
 _atom_site_fract_x
 _atom_site_fract_y
 _atom_site_fract_z
 _atom_site_occupancy
  Ti  Ti0  1  0.750072  0.249999  0.125006  1
  Ti  Ti1  1  0.250086  0.750000  0.377716  1
  Ti  Ti2  1  0.749996  0.249999  0.625030  1
  Ti  Ti3  1  0.249874  0.750000  0.872247  1
  V  V4  1  0.750421  0.750000  0.376957  1
  V  V5  1  0.249715  0.249999  0.624971  1
  V  V6  1  0.749807  0.750000  0.873010  1
  Re  Re7  1  0.249996  0.249999  0.124965  1
  Tc  Tc8  1  0.997802  0.750000  0.124961  1
  Tc  Tc9  1  0.502272  0.750000  0.125017  1
  Tc  Tc10  1  0.999279  0.249999  0.375249  1
  Tc  Tc11  1  0.500864  0.249999  0.375219  1
  Tc  Tc12  1  0.500559  0.750000  0.625036  1
  Tc  Tc13  1  0.999381  0.750000  0.625012  1
  Tc  Tc14  1  0.500744  0.249999  0.874760  1
  Tc  Tc15  1  0.999132  0.249999  0.874844  1
