# generated using pymatgen
data_YTm5Co2(P3Ir4)4
_symmetry_space_group_name_H-M   'P 1'
_cell_length_a   3.91756600
_cell_length_b   11.08320400
_cell_length_c   12.76612100
_cell_angle_alpha   90.00000000
_cell_angle_beta   90.00000000
_cell_angle_gamma   90.00000000
_symmetry_Int_Tables_number   1
_chemical_formula_structural   YTm5Co2(P3Ir4)4
_chemical_formula_sum   'Y1 Tm5 Co2 P12 Ir16'
_cell_volume   554.29454596
_cell_formula_units_Z   1
loop_
 _symmetry_equiv_pos_site_id
 _symmetry_equiv_pos_as_xyz
  1  'x, y, z'
loop_
 _atom_site_type_symbol
 _atom_site_label
 _atom_site_symmetry_multiplicity
 _atom_site_fract_x
 _atom_site_fract_y
 _atom_site_fract_z
 _atom_site_occupancy
  Y  Y0  1  0.500000  0.000000  0.477572  1
  Tm  Tm1  1  0.000000  0.500000  0.522728  1
  Tm  Tm2  1  0.500000  0.815740  0.200469  1
  Tm  Tm3  1  0.500000  0.184260  0.200469  1
  Tm  Tm4  1  0.000000  0.684171  0.799518  1
  Tm  Tm5  1  0.000000  0.315829  0.799518  1
  Co  Co6  1  0.000000  0.500000  0.975962  1
  Co  Co7  1  0.500000  0.000000  0.023767  1
  P  P8  1  0.500000  0.500000  0.879798  1
  P  P9  1  0.000000  0.000000  0.119662  1
  P  P10  1  0.500000  0.500000  0.359123  1
  P  P11  1  0.000000  0.000000  0.642001  1
  P  P12  1  0.500000  0.316161  0.619411  1
  P  P13  1  0.500000  0.683839  0.619411  1
  P  P14  1  0.000000  0.184198  0.380095  1
  P  P15  1  0.000000  0.815802  0.380095  1
  P  P16  1  0.500000  0.851420  0.896456  1
  P  P17  1  0.500000  0.148580  0.896456  1
  P  P18  1  0.000000  0.648404  0.103635  1
  P  P19  1  0.000000  0.351596  0.103635  1
  Ir  Ir20  1  0.500000  0.500000  0.178288  1
  Ir  Ir21  1  0.000000  0.000000  0.822251  1
  Ir  Ir22  1  0.500000  0.500000  0.702100  1
  Ir  Ir23  1  0.000000  0.000000  0.296570  1
  Ir  Ir24  1  0.500000  0.339109  0.997714  1
  Ir  Ir25  1  0.500000  0.660891  0.997714  1
  Ir  Ir26  1  0.000000  0.161171  0.002292  1
  Ir  Ir27  1  0.000000  0.838829  0.002292  1
  Ir  Ir28  1  0.500000  0.293670  0.429432  1
  Ir  Ir29  1  0.500000  0.706330  0.429432  1
  Ir  Ir30  1  0.000000  0.207869  0.570906  1
  Ir  Ir31  1  0.000000  0.792131  0.570906  1
  Ir  Ir32  1  0.500000  0.869052  0.715281  1
  Ir  Ir33  1  0.500000  0.130948  0.715281  1
  Ir  Ir34  1  0.000000  0.630796  0.284880  1
  Ir  Ir35  1  0.000000  0.369204  0.284880  1
