# generated using pymatgen
data_Tb2PaGa3(CoNi2)4
_symmetry_space_group_name_H-M   'P 1'
_cell_length_a   8.50342033
_cell_length_b   8.47165028
_cell_length_c   4.06811000
_cell_angle_alpha   90.00000000
_cell_angle_beta   90.00000000
_cell_angle_gamma   120.55264542
_symmetry_Int_Tables_number   1
_chemical_formula_structural   Tb2PaGa3(CoNi2)4
_chemical_formula_sum   'Tb2 Pa1 Ga3 Co4 Ni8'
_cell_volume   252.37099494
_cell_formula_units_Z   1
loop_
 _symmetry_equiv_pos_site_id
 _symmetry_equiv_pos_as_xyz
  1  'x, y, z'
loop_
 _atom_site_type_symbol
 _atom_site_label
 _atom_site_symmetry_multiplicity
 _atom_site_fract_x
 _atom_site_fract_y
 _atom_site_fract_z
 _atom_site_occupancy
  Tb  Tb0  1  0.335046  0.665341  0.000000  1
  Tb  Tb1  1  0.667118  0.335537  0.000000  1
  Pa  Pa2  1  0.005025  0.006653  0.000000  1
  Ga  Ga3  1  0.501764  0.002301  0.500000  1
  Ga  Ga4  1  0.001333  0.501843  0.500000  1
  Ga  Ga5  1  0.498818  0.497109  0.500000  1
  Co  Co6  1  0.310645  0.303552  0.000000  1
  Co  Co7  1  0.323990  0.160122  0.500000  1
  Co  Co8  1  0.165619  0.839057  0.500000  1
  Co  Co9  1  0.834990  0.165858  0.500000  1
  Ni  Ni10  1  0.324767  0.998158  0.000000  1
  Ni  Ni11  1  0.681523  0.003687  0.000000  1
  Ni  Ni12  1  0.996651  0.322924  0.000000  1
  Ni  Ni13  1  0.004019  0.682020  0.000000  1
  Ni  Ni14  1  0.681430  0.681284  0.000000  1
  Ni  Ni15  1  0.164409  0.330215  0.500000  1
  Ni  Ni16  1  0.835667  0.670427  0.500000  1
  Ni  Ni17  1  0.667188  0.833913  0.500000  1
