# generated using pymatgen
data_Th3Al3RuAu2
_symmetry_space_group_name_H-M   'P 1'
_cell_length_a   7.39633800
_cell_length_b   7.39633834
_cell_length_c   4.20753700
_cell_angle_alpha   90.00000000
_cell_angle_beta   90.00000000
_cell_angle_gamma   119.99999846
_symmetry_Int_Tables_number   1
_chemical_formula_structural   Th3Al3RuAu2
_chemical_formula_sum   'Th3 Al3 Ru1 Au2'
_cell_volume   199.33892014
_cell_formula_units_Z   1
loop_
 _symmetry_equiv_pos_site_id
 _symmetry_equiv_pos_as_xyz
  1  'x, y, z'
loop_
 _atom_site_type_symbol
 _atom_site_label
 _atom_site_symmetry_multiplicity
 _atom_site_fract_x
 _atom_site_fract_y
 _atom_site_fract_z
 _atom_site_occupancy
  Th  Th0  1  0.431304  0.416880  0.500000  1
  Th  Th1  1  0.583120  0.014424  0.500000  1
  Th  Th2  1  0.985576  0.568696  0.500000  1
  Al  Al3  1  0.765193  0.755797  0.000000  1
  Al  Al4  1  0.244203  0.009395  0.000000  1
  Al  Al5  1  0.990605  0.234807  0.000000  1
  Ru  Ru6  1  0.666667  0.333333  0.000000  1
  Au  Au7  1  0.333333  0.666667  0.000000  1
  Au  Au8  1  0.000000  0.000000  0.500000  1
