# generated using pymatgen
data_SrLa6RuBr12
_symmetry_space_group_name_H-M   'P 1'
_cell_length_a   9.85436784
_cell_length_b   9.87035461
_cell_length_c   9.52849920
_cell_angle_alpha   105.94211239
_cell_angle_beta   106.14654466
_cell_angle_gamma   106.89997708
_symmetry_Int_Tables_number   1
_chemical_formula_structural   SrLa6RuBr12
_chemical_formula_sum   'Sr1 La6 Ru1 Br12'
_cell_volume   785.48947553
_cell_formula_units_Z   1
loop_
 _symmetry_equiv_pos_site_id
 _symmetry_equiv_pos_as_xyz
  1  'x, y, z'
loop_
 _atom_site_type_symbol
 _atom_site_label
 _atom_site_symmetry_multiplicity
 _atom_site_fract_x
 _atom_site_fract_y
 _atom_site_fract_z
 _atom_site_occupancy
  Sr  Sr0  1  0.500000  0.500000  0.500000  1
  La  La1  1  0.110222  0.320617  0.017198  1
  La  La2  1  0.319180  0.021360  0.110156  1
  La  La3  1  0.019741  0.098760  0.295479  1
  La  La4  1  0.980258  0.901240  0.704521  1
  La  La5  1  0.680820  0.978639  0.889843  1
  La  La6  1  0.889778  0.679383  0.982802  1
  Ru  Ru7  1  0.000000  0.000000  0.000000  1
  Br  Br8  1  0.214521  0.682398  0.071541  1
  Br  Br9  1  0.449946  0.364758  0.149209  1
  Br  Br10  1  0.681493  0.071493  0.217810  1
  Br  Br11  1  0.931187  0.785725  0.324428  1
  Br  Br12  1  0.157252  0.447807  0.367179  1
  Br  Br13  1  0.368843  0.159585  0.455114  1
  Br  Br14  1  0.631157  0.840415  0.544886  1
  Br  Br15  1  0.842747  0.552193  0.632821  1
  Br  Br16  1  0.068814  0.214276  0.675573  1
  Br  Br17  1  0.318508  0.928508  0.782190  1
  Br  Br18  1  0.550053  0.635241  0.850791  1
  Br  Br19  1  0.785479  0.317603  0.928459  1
