# generated using pymatgen
data_TbYb6Y3Ge8
_symmetry_space_group_name_H-M   'P 1'
_cell_length_a   7.45413600
_cell_length_b   7.90300800
_cell_length_c   15.22807000
_cell_angle_alpha   89.99925777
_cell_angle_beta   90.00000000
_cell_angle_gamma   90.00000000
_symmetry_Int_Tables_number   1
_chemical_formula_structural   TbYb6Y3Ge8
_chemical_formula_sum   'Tb2 Yb12 Y6 Ge16'
_cell_volume   897.08707227
_cell_formula_units_Z   2
loop_
 _symmetry_equiv_pos_site_id
 _symmetry_equiv_pos_as_xyz
  1  'x, y, z'
loop_
 _atom_site_type_symbol
 _atom_site_label
 _atom_site_symmetry_multiplicity
 _atom_site_fract_x
 _atom_site_fract_y
 _atom_site_fract_z
 _atom_site_occupancy
  Tb  Tb0  1  0.317618  0.172595  0.121321  1
  Tb  Tb1  1  0.817618  0.327405  0.378679  1
  Yb  Yb2  1  0.977985  0.812777  0.404502  1
  Yb  Yb3  1  0.477985  0.687223  0.095498  1
  Yb  Yb4  1  0.522021  0.312769  0.595498  1
  Yb  Yb5  1  0.022021  0.187231  0.904502  1
  Yb  Yb6  1  0.022032  0.187224  0.595499  1
  Yb  Yb7  1  0.522032  0.312776  0.904501  1
  Yb  Yb8  1  0.477966  0.687228  0.404506  1
  Yb  Yb9  1  0.977966  0.812772  0.095494  1
  Yb  Yb10  1  0.346321  0.019901  0.749998  1
  Yb  Yb11  1  0.846321  0.480099  0.750002  1
  Yb  Yb12  1  0.153680  0.519907  0.250003  1
  Yb  Yb13  1  0.653680  0.980093  0.249997  1
  Y  Y14  1  0.182405  0.672577  0.878681  1
  Y  Y15  1  0.682405  0.827423  0.621319  1
  Y  Y16  1  0.317578  0.172555  0.378702  1
  Y  Y17  1  0.817578  0.327445  0.121298  1
  Y  Y18  1  0.182411  0.672573  0.621321  1
  Y  Y19  1  0.682411  0.827427  0.878679  1
  Ge  Ge20  1  0.846460  0.532872  0.540361  1
  Ge  Ge21  1  0.346460  0.967128  0.959639  1
  Ge  Ge22  1  0.653518  0.032881  0.459652  1
  Ge  Ge23  1  0.153518  0.467119  0.040348  1
  Ge  Ge24  1  0.153573  0.467143  0.459652  1
  Ge  Ge25  1  0.653573  0.032857  0.040348  1
  Ge  Ge26  1  0.346445  0.967131  0.540351  1
  Ge  Ge27  1  0.846445  0.532869  0.959649  1
  Ge  Ge28  1  0.978616  0.882173  0.750002  1
  Ge  Ge29  1  0.478616  0.617827  0.749998  1
  Ge  Ge30  1  0.521383  0.382189  0.249976  1
  Ge  Ge31  1  0.021383  0.117811  0.250024  1
  Ge  Ge32  1  0.236708  0.384828  0.750000  1
  Ge  Ge33  1  0.736708  0.115172  0.750000  1
  Ge  Ge34  1  0.263280  0.884827  0.249999  1
  Ge  Ge35  1  0.763280  0.615173  0.250001  1
