# generated using pymatgen
data_Tb4Tm4B24RuW3
_symmetry_space_group_name_H-M   'P 1'
_cell_length_a   3.60365200
_cell_length_b   9.24699055
_cell_length_c   11.65707047
_cell_angle_alpha   89.89959945
_cell_angle_beta   90.00000000
_cell_angle_gamma   90.00000000
_symmetry_Int_Tables_number   1
_chemical_formula_structural   Tb4Tm4B24RuW3
_chemical_formula_sum   'Tb4 Tm4 B24 Ru1 W3'
_cell_volume   388.44721682
_cell_formula_units_Z   1
loop_
 _symmetry_equiv_pos_site_id
 _symmetry_equiv_pos_as_xyz
  1  'x, y, z'
loop_
 _atom_site_type_symbol
 _atom_site_label
 _atom_site_symmetry_multiplicity
 _atom_site_fract_x
 _atom_site_fract_y
 _atom_site_fract_z
 _atom_site_occupancy
  Tb  Tb0  1  0.000000  0.320325  0.414493  1
  Tb  Tb1  1  0.000000  0.678867  0.586461  1
  Tb  Tb2  1  0.000000  0.820925  0.085117  1
  Tb  Tb3  1  0.000000  0.178443  0.913310  1
  Tm  Tm4  1  0.000000  0.944315  0.373214  1
  Tm  Tm5  1  0.000000  0.054662  0.630367  1
  Tm  Tm6  1  0.000000  0.444582  0.126883  1
  Tm  Tm7  1  0.000000  0.559174  0.870927  1
  B  B8  1  0.500000  0.551565  0.434757  1
  B  B9  1  0.500000  0.448090  0.566027  1
  B  B10  1  0.500000  0.050430  0.063862  1
  B  B11  1  0.500000  0.944467  0.931043  1
  B  B12  1  0.500000  0.752524  0.421546  1
  B  B13  1  0.500000  0.246696  0.580146  1
  B  B14  1  0.500000  0.253523  0.078340  1
  B  B15  1  0.500000  0.751085  0.917158  1
  B  B16  1  0.500000  0.795547  0.264813  1
  B  B17  1  0.500000  0.204040  0.736973  1
  B  B18  1  0.500000  0.294750  0.234839  1
  B  B19  1  0.500000  0.709586  0.765816  1
  B  B20  1  0.500000  0.631530  0.182217  1
  B  B21  1  0.500000  0.369240  0.818182  1
  B  B22  1  0.500000  0.130035  0.316691  1
  B  B23  1  0.500000  0.869132  0.686126  1
  B  B24  1  0.500000  0.978619  0.213012  1
  B  B25  1  0.500000  0.015046  0.787566  1
  B  B26  1  0.500000  0.479093  0.286039  1
  B  B27  1  0.500000  0.522000  0.713477  1
  B  B28  1  0.500000  0.602196  0.026503  1
  B  B29  1  0.500000  0.401600  0.971688  1
  B  B30  1  0.500000  0.099748  0.473368  1
  B  B31  1  0.500000  0.899158  0.529779  1
  Ru  Ru32  1  0.000000  0.860266  0.819940  1
  W  W33  1  0.000000  0.639614  0.319541  1
  W  W34  1  0.000000  0.360391  0.681031  1
  W  W35  1  0.000000  0.138737  0.178747  1
