# generated using pymatgen
data_YPuF7
_symmetry_space_group_name_H-M   'P 1'
_cell_length_a   5.94143400
_cell_length_b   6.25776672
_cell_length_c   8.53503225
_cell_angle_alpha   103.20958193
_cell_angle_beta   90.00000000
_cell_angle_gamma   90.00000000
_symmetry_Int_Tables_number   1
_chemical_formula_structural   YPuF7
_chemical_formula_sum   'Y2 Pu2 F14'
_cell_volume   308.93700060
_cell_formula_units_Z   2
loop_
 _symmetry_equiv_pos_site_id
 _symmetry_equiv_pos_as_xyz
  1  'x, y, z'
loop_
 _atom_site_type_symbol
 _atom_site_label
 _atom_site_symmetry_multiplicity
 _atom_site_fract_x
 _atom_site_fract_y
 _atom_site_fract_z
 _atom_site_occupancy
  Y  Y0  1  0.699807  0.650317  0.683767  1
  Y  Y1  1  0.199807  0.349683  0.316233  1
  Pu  Pu2  1  0.706624  0.814084  0.226729  1
  Pu  Pu3  1  0.206624  0.185916  0.773271  1
  F  F4  1  0.914013  0.476778  0.483697  1
  F  F5  1  0.414013  0.523222  0.516303  1
  F  F6  1  0.433620  0.913551  0.763307  1
  F  F7  1  0.933620  0.086449  0.236693  1
  F  F8  1  0.942767  0.940201  0.757158  1
  F  F9  1  0.442767  0.059799  0.242842  1
  F  F10  1  0.978497  0.459405  0.789542  1
  F  F11  1  0.478497  0.540595  0.210458  1
  F  F12  1  0.698012  0.759890  0.969821  1
  F  F13  1  0.198012  0.240110  0.030179  1
  F  F14  1  0.697957  0.866442  0.483895  1
  F  F15  1  0.197957  0.133558  0.516105  1
  F  F16  1  0.505061  0.390777  0.783174  1
  F  F17  1  0.005061  0.609223  0.216826  1
