# generated using pymatgen
data_Dy7LuSc12Si15P
_symmetry_space_group_name_H-M   'P 1'
_cell_length_a   7.08495842
_cell_length_b   7.36718670
_cell_length_c   13.96264205
_cell_angle_alpha   89.94561215
_cell_angle_beta   89.96435929
_cell_angle_gamma   90.09546739
_symmetry_Int_Tables_number   1
_chemical_formula_structural   Dy7LuSc12Si15P
_chemical_formula_sum   'Dy7 Lu1 Sc12 Si15 P1'
_cell_volume   728.79553502
_cell_formula_units_Z   1
loop_
 _symmetry_equiv_pos_site_id
 _symmetry_equiv_pos_as_xyz
  1  'x, y, z'
loop_
 _atom_site_type_symbol
 _atom_site_label
 _atom_site_symmetry_multiplicity
 _atom_site_fract_x
 _atom_site_fract_y
 _atom_site_fract_z
 _atom_site_occupancy
  Dy  Dy0  1  0.991111  0.826681  0.901413  1
  Dy  Dy1  1  0.489334  0.674920  0.904733  1
  Dy  Dy2  1  0.990769  0.826773  0.599512  1
  Dy  Dy3  1  0.511253  0.323878  0.096423  1
  Dy  Dy4  1  0.010390  0.174964  0.403579  1
  Dy  Dy5  1  0.511431  0.324323  0.402684  1
  Dy  Dy6  1  0.490034  0.675139  0.596038  1
  Lu  Lu7  1  0.010111  0.176057  0.097133  1
  Sc  Sc8  1  0.160187  0.502096  0.750306  1
  Sc  Sc9  1  0.838932  0.497480  0.249553  1
  Sc  Sc10  1  0.339131  0.002817  0.249510  1
  Sc  Sc11  1  0.662748  0.999094  0.750186  1
  Sc  Sc12  1  0.327554  0.173002  0.627239  1
  Sc  Sc13  1  0.668436  0.823954  0.374588  1
  Sc  Sc14  1  0.167923  0.677410  0.374366  1
  Sc  Sc15  1  0.668636  0.824746  0.124475  1
  Sc  Sc16  1  0.832541  0.323017  0.626449  1
  Sc  Sc17  1  0.326972  0.172582  0.873006  1
  Sc  Sc18  1  0.833271  0.321920  0.874050  1
  Sc  Sc19  1  0.167216  0.677836  0.125012  1
  Si  Si20  1  0.965588  0.885440  0.249368  1
  Si  Si21  1  0.466107  0.615901  0.249480  1
  Si  Si22  1  0.531804  0.382069  0.750404  1
  Si  Si23  1  0.296189  0.863466  0.750285  1
  Si  Si24  1  0.715294  0.127154  0.248881  1
  Si  Si25  1  0.213291  0.372376  0.249033  1
  Si  Si26  1  0.787007  0.628029  0.750379  1
  Si  Si27  1  0.157806  0.463780  0.539699  1
  Si  Si28  1  0.841920  0.536213  0.461290  1
  Si  Si29  1  0.341035  0.965040  0.460403  1
  Si  Si30  1  0.842775  0.534003  0.039405  1
  Si  Si31  1  0.659436  0.036880  0.539993  1
  Si  Si32  1  0.157395  0.461764  0.961084  1
  Si  Si33  1  0.659647  0.036616  0.959942  1
  Si  Si34  1  0.337513  0.966542  0.039880  1
  P  P35  1  0.029213  0.126041  0.750215  1
