# generated using pymatgen
data_Tb5Dy4YSi6
_symmetry_space_group_name_H-M   'P 1'
_cell_length_a   8.47190083
_cell_length_b   8.47837910
_cell_length_c   6.38785100
_cell_angle_alpha   90.00000000
_cell_angle_beta   90.00000000
_cell_angle_gamma   120.02529623
_symmetry_Int_Tables_number   1
_chemical_formula_structural   Tb5Dy4YSi6
_chemical_formula_sum   'Tb5 Dy4 Y1 Si6'
_cell_volume   397.25406053
_cell_formula_units_Z   1
loop_
 _symmetry_equiv_pos_site_id
 _symmetry_equiv_pos_as_xyz
  1  'x, y, z'
loop_
 _atom_site_type_symbol
 _atom_site_label
 _atom_site_symmetry_multiplicity
 _atom_site_fract_x
 _atom_site_fract_y
 _atom_site_fract_z
 _atom_site_occupancy
  Tb  Tb0  1  0.000000  0.243691  0.250000  1
  Tb  Tb1  1  0.756472  0.756454  0.250000  1
  Tb  Tb2  1  0.756368  0.000037  0.750000  1
  Tb  Tb3  1  0.243632  0.243669  0.750000  1
  Tb  Tb4  1  0.243528  0.999981  0.250000  1
  Dy  Dy5  1  0.666697  0.333385  0.999975  1
  Dy  Dy6  1  0.333303  0.666689  0.500025  1
  Dy  Dy7  1  0.333303  0.666689  0.999975  1
  Dy  Dy8  1  0.666697  0.333385  0.500025  1
  Y  Y9  1  0.000000  0.756251  0.750000  1
  Si  Si10  1  0.394088  0.999760  0.750000  1
  Si  Si11  1  0.394499  0.394387  0.250000  1
  Si  Si12  1  0.000000  0.605448  0.250000  1
  Si  Si13  1  0.000000  0.394614  0.750000  1
  Si  Si14  1  0.605912  0.605672  0.750000  1
  Si  Si15  1  0.605501  0.999888  0.250000  1
