# generated using pymatgen
data_TbNd7(InRu)2
_symmetry_space_group_name_H-M   'P 1'
_cell_length_a   9.91059877
_cell_length_b   9.90865326
_cell_length_c   9.90865330
_cell_angle_alpha   59.97495739
_cell_angle_beta   59.96631605
_cell_angle_gamma   59.96632060
_symmetry_Int_Tables_number   1
_chemical_formula_structural   TbNd7(InRu)2
_chemical_formula_sum   'Tb2 Nd14 In4 Ru4'
_cell_volume   687.56014672
_cell_formula_units_Z   2
loop_
 _symmetry_equiv_pos_site_id
 _symmetry_equiv_pos_as_xyz
  1  'x, y, z'
loop_
 _atom_site_type_symbol
 _atom_site_label
 _atom_site_symmetry_multiplicity
 _atom_site_fract_x
 _atom_site_fract_y
 _atom_site_fract_z
 _atom_site_occupancy
  Tb  Tb0  1  0.707811  0.097483  0.097483  1
  Tb  Tb1  1  0.556500  0.944205  0.944205  1
  Nd  Nd2  1  0.097588  0.709338  0.097289  1
  Nd  Nd3  1  0.940868  0.942725  0.558651  1
  Nd  Nd4  1  0.940868  0.558651  0.942725  1
  Nd  Nd5  1  0.313132  0.689947  0.306823  1
  Nd  Nd6  1  0.943111  0.555414  0.555414  1
  Nd  Nd7  1  0.313132  0.306823  0.689947  1
  Nd  Nd8  1  0.096274  0.097402  0.097402  1
  Nd  Nd9  1  0.557302  0.556874  0.941929  1
  Nd  Nd10  1  0.097588  0.097289  0.709338  1
  Nd  Nd11  1  0.692401  0.305844  0.694478  1
  Nd  Nd12  1  0.692401  0.694478  0.305844  1
  Nd  Nd13  1  0.691538  0.308655  0.308655  1
  Nd  Nd14  1  0.311965  0.689423  0.689423  1
  Nd  Nd15  1  0.557302  0.941929  0.556874  1
  In  In16  1  0.331649  0.329984  0.329984  1
  In  In17  1  0.007576  0.329979  0.329979  1
  In  In18  1  0.332289  0.007225  0.329153  1
  In  In19  1  0.332289  0.329153  0.007225  1
  Ru  Ru20  1  0.880713  0.891305  0.891305  1
  Ru  Ru21  1  0.883771  0.890522  0.335727  1
  Ru  Ru22  1  0.338162  0.889626  0.889626  1
  Ru  Ru23  1  0.883771  0.335727  0.890522  1
