# generated using pymatgen
data_SmY(OsO3)6
_symmetry_space_group_name_H-M   'P 1'
_cell_length_a   7.41046300
_cell_length_b   5.24820796
_cell_length_c   8.22407633
_cell_angle_alpha   85.43977707
_cell_angle_beta   90.00000000
_cell_angle_gamma   90.00000000
_symmetry_Int_Tables_number   1
_chemical_formula_structural   SmY(OsO3)6
_chemical_formula_sum   'Sm1 Y1 Os6 O18'
_cell_volume   318.83536813
_cell_formula_units_Z   1
loop_
 _symmetry_equiv_pos_site_id
 _symmetry_equiv_pos_as_xyz
  1  'x, y, z'
loop_
 _atom_site_type_symbol
 _atom_site_label
 _atom_site_symmetry_multiplicity
 _atom_site_fract_x
 _atom_site_fract_y
 _atom_site_fract_z
 _atom_site_occupancy
  Sm  Sm0  1  0.250000  0.972897  0.426955  1
  Y  Y1  1  0.750000  0.031073  0.573366  1
  Os  Os2  1  0.999584  0.000754  0.999238  1
  Os  Os3  1  0.500416  0.000754  0.999238  1
  Os  Os4  1  0.496486  0.538608  0.693253  1
  Os  Os5  1  0.003514  0.538608  0.693253  1
  Os  Os6  1  0.994207  0.463521  0.307151  1
  Os  Os7  1  0.505793  0.463521  0.307151  1
  O  O8  1  0.250000  0.906989  0.984014  1
  O  O9  1  0.935080  0.851093  0.788717  1
  O  O10  1  0.564920  0.851093  0.788717  1
  O  O11  1  0.958008  0.737514  0.472337  1
  O  O12  1  0.541992  0.737514  0.472337  1
  O  O13  1  0.250000  0.651961  0.669471  1
  O  O14  1  0.958216  0.688990  0.122655  1
  O  O15  1  0.541784  0.688990  0.122655  1
  O  O16  1  0.250000  0.574878  0.312641  1
  O  O17  1  0.750000  0.416406  0.689159  1
  O  O18  1  0.041787  0.312957  0.877128  1
  O  O19  1  0.458213  0.312957  0.877128  1
  O  O20  1  0.750000  0.336318  0.334020  1
  O  O21  1  0.035222  0.262195  0.529204  1
  O  O22  1  0.464778  0.262195  0.529204  1
  O  O23  1  0.061838  0.152608  0.208371  1
  O  O24  1  0.438162  0.152608  0.208371  1
  O  O25  1  0.750000  0.093000  0.014268  1
