# generated using pymatgen
data_Sr3Pd7Au2
_symmetry_space_group_name_H-M   'P 1'
_cell_length_a   9.67454523
_cell_length_b   9.67454473
_cell_length_c   9.65757837
_cell_angle_alpha   33.63526282
_cell_angle_beta   33.63526551
_cell_angle_gamma   33.50579307
_symmetry_Int_Tables_number   1
_chemical_formula_structural   Sr3Pd7Au2
_chemical_formula_sum   'Sr3 Pd7 Au2'
_cell_volume   246.47770348
_cell_formula_units_Z   1
loop_
 _symmetry_equiv_pos_site_id
 _symmetry_equiv_pos_as_xyz
  1  'x, y, z'
loop_
 _atom_site_type_symbol
 _atom_site_label
 _atom_site_symmetry_multiplicity
 _atom_site_fract_x
 _atom_site_fract_y
 _atom_site_fract_z
 _atom_site_occupancy
  Sr  Sr0  1  0.998799  0.998799  0.999529  1
  Sr  Sr1  1  0.141325  0.141325  0.141516  1
  Sr  Sr2  1  0.861658  0.861658  0.859691  1
  Pd  Pd3  1  0.914054  0.417173  0.417245  1
  Pd  Pd4  1  0.417173  0.914054  0.417245  1
  Pd  Pd5  1  0.499472  0.499472  0.502271  1
  Pd  Pd6  1  0.082927  0.584396  0.583255  1
  Pd  Pd7  1  0.584396  0.082927  0.583255  1
  Pd  Pd8  1  0.669138  0.669138  0.662629  1
  Pd  Pd9  1  0.416543  0.416543  0.915746  1
  Au  Au10  1  0.585929  0.585929  0.079016  1
  Au  Au11  1  0.328587  0.328587  0.338602  1
