# generated using pymatgen
data_Ta2SiRu4Pt
_symmetry_space_group_name_H-M   'P 1'
_cell_length_a   4.06068600
_cell_length_b   5.44982591
_cell_length_c   10.71156008
_cell_angle_alpha   88.20298048
_cell_angle_beta   90.00000000
_cell_angle_gamma   90.00000000
_symmetry_Int_Tables_number   1
_chemical_formula_structural   Ta2SiRu4Pt
_chemical_formula_sum   'Ta4 Si2 Ru8 Pt2'
_cell_volume   236.93058369
_cell_formula_units_Z   2
loop_
 _symmetry_equiv_pos_site_id
 _symmetry_equiv_pos_as_xyz
  1  'x, y, z'
loop_
 _atom_site_type_symbol
 _atom_site_label
 _atom_site_symmetry_multiplicity
 _atom_site_fract_x
 _atom_site_fract_y
 _atom_site_fract_z
 _atom_site_occupancy
  Ta  Ta0  1  0.500000  0.842789  0.363031  1
  Ta  Ta1  1  0.500000  0.157211  0.636969  1
  Ta  Ta2  1  0.500000  0.320241  0.135971  1
  Ta  Ta3  1  0.500000  0.679759  0.864029  1
  Si  Si4  1  0.000000  0.500000  0.500000  1
  Si  Si5  1  0.000000  0.000000  0.000000  1
  Ru  Ru6  1  0.000000  0.500000  0.000000  1
  Ru  Ru7  1  0.000000  0.000000  0.500000  1
  Ru  Ru8  1  0.000000  0.081412  0.245247  1
  Ru  Ru9  1  0.000000  0.918588  0.754753  1
  Ru  Ru10  1  0.500000  0.821804  0.106729  1
  Ru  Ru11  1  0.500000  0.178196  0.893271  1
  Ru  Ru12  1  0.500000  0.326723  0.394318  1
  Ru  Ru13  1  0.500000  0.673277  0.605682  1
  Pt  Pt14  1  0.000000  0.579061  0.252801  1
  Pt  Pt15  1  0.000000  0.420939  0.747199  1
