# generated using pymatgen
data_Pr2Sm3Er5(In2Pd)4
_symmetry_space_group_name_H-M   'P 1'
_cell_length_a   3.67241900
_cell_length_b   8.26661721
_cell_length_c   18.38046551
_cell_angle_alpha   89.77905954
_cell_angle_beta   90.00000000
_cell_angle_gamma   90.00000000
_symmetry_Int_Tables_number   1
_chemical_formula_structural   Pr2Sm3Er5(In2Pd)4
_chemical_formula_sum   'Pr2 Sm3 Er5 In8 Pd4'
_cell_volume   557.99888467
_cell_formula_units_Z   1
loop_
 _symmetry_equiv_pos_site_id
 _symmetry_equiv_pos_as_xyz
  1  'x, y, z'
loop_
 _atom_site_type_symbol
 _atom_site_label
 _atom_site_symmetry_multiplicity
 _atom_site_fract_x
 _atom_site_fract_y
 _atom_site_fract_z
 _atom_site_occupancy
  Pr  Pr0  1  0.000000  0.501189  0.498933  1
  Pr  Pr1  1  0.000000  0.998105  0.999579  1
  Sm  Sm2  1  0.000000  0.736887  0.285296  1
  Sm  Sm3  1  0.000000  0.264646  0.713941  1
  Sm  Sm4  1  0.000000  0.764103  0.785697  1
  Er  Er5  1  0.000000  0.237117  0.215823  1
  Er  Er6  1  0.000000  0.618565  0.086830  1
  Er  Er7  1  0.000000  0.378134  0.915692  1
  Er  Er8  1  0.000000  0.880256  0.584833  1
  Er  Er9  1  0.000000  0.121630  0.413534  1
  In  In10  1  0.500000  0.690824  0.937467  1
  In  In11  1  0.500000  0.302106  0.066376  1
  In  In12  1  0.500000  0.809258  0.436311  1
  In  In13  1  0.500000  0.193888  0.562487  1
  In  In14  1  0.500000  0.590003  0.653532  1
  In  In15  1  0.500000  0.409041  0.345162  1
  In  In16  1  0.500000  0.916610  0.153620  1
  In  In17  1  0.500000  0.089624  0.846215  1
  Pd  Pd18  1  0.500000  0.516959  0.194687  1
  Pd  Pd19  1  0.500000  0.474403  0.806657  1
  Pd  Pd20  1  0.500000  0.975581  0.693820  1
  Pd  Pd21  1  0.500000  0.031070  0.303506  1
