# generated using pymatgen
data_Yb2Zr(AsPd)3
_symmetry_space_group_name_H-M   'P 1'
_cell_length_a   7.00078502
_cell_length_b   7.06080791
_cell_length_c   3.94906700
_cell_angle_alpha   90.00000000
_cell_angle_beta   90.00000000
_cell_angle_gamma   120.28402582
_symmetry_Int_Tables_number   1
_chemical_formula_structural   Yb2Zr(AsPd)3
_chemical_formula_sum   'Yb2 Zr1 As3 Pd3'
_cell_volume   168.56840543
_cell_formula_units_Z   1
loop_
 _symmetry_equiv_pos_site_id
 _symmetry_equiv_pos_as_xyz
  1  'x, y, z'
loop_
 _atom_site_type_symbol
 _atom_site_label
 _atom_site_symmetry_multiplicity
 _atom_site_fract_x
 _atom_site_fract_y
 _atom_site_fract_z
 _atom_site_occupancy
  Yb  Yb0  1  0.407069  0.411582  0.500000  1
  Yb  Yb1  1  0.592931  0.004513  0.500000  1
  Zr  Zr2  1  0.000000  0.592999  0.500000  1
  As  As3  1  0.689066  0.352332  0.000000  1
  As  As4  1  0.310934  0.663266  0.000000  1
  As  As5  1  0.000000  0.977334  0.500000  1
  Pd  Pd6  1  0.265613  0.011786  0.000000  1
  Pd  Pd7  1  0.734387  0.746173  0.000000  1
  Pd  Pd8  1  0.000000  0.240015  0.000000  1
