# generated using pymatgen
data_Dy7Y(ErBi)12
_symmetry_space_group_name_H-M   'P 1'
_cell_length_a   8.23207805
_cell_length_b   9.47280100
_cell_length_c   12.03468407
_cell_angle_alpha   90.00000000
_cell_angle_beta   89.98786545
_cell_angle_gamma   90.00000000
_symmetry_Int_Tables_number   1
_chemical_formula_structural   Dy7Y(ErBi)12
_chemical_formula_sum   'Dy7 Y1 Er12 Bi12'
_cell_volume   938.47471734
_cell_formula_units_Z   1
loop_
 _symmetry_equiv_pos_site_id
 _symmetry_equiv_pos_as_xyz
  1  'x, y, z'
loop_
 _atom_site_type_symbol
 _atom_site_label
 _atom_site_symmetry_multiplicity
 _atom_site_fract_x
 _atom_site_fract_y
 _atom_site_fract_z
 _atom_site_occupancy
  Dy  Dy0  1  0.186399  0.750000  0.718887  1
  Dy  Dy1  1  0.686422  0.750000  0.781100  1
  Dy  Dy2  1  0.813573  0.250000  0.281114  1
  Dy  Dy3  1  0.313598  0.250000  0.218882  1
  Dy  Dy4  1  0.353846  0.750000  0.215711  1
  Dy  Dy5  1  0.853866  0.750000  0.284285  1
  Dy  Dy6  1  0.646150  0.250000  0.784291  1
  Y  Y7  1  0.146197  0.250000  0.715567  1
  Er  Er8  1  0.025810  0.750000  0.988931  1
  Er  Er9  1  0.525776  0.750000  0.511078  1
  Er  Er10  1  0.974214  0.250000  0.011097  1
  Er  Er11  1  0.474157  0.250000  0.488915  1
  Er  Er12  1  0.306268  0.435981  0.940166  1
  Er  Er13  1  0.806246  0.064042  0.559903  1
  Er  Er14  1  0.693756  0.935930  0.059895  1
  Er  Er15  1  0.193747  0.564060  0.440119  1
  Er  Er16  1  0.693756  0.564070  0.059895  1
  Er  Er17  1  0.193747  0.935940  0.440119  1
  Er  Er18  1  0.306268  0.064019  0.940166  1
  Er  Er19  1  0.806246  0.435958  0.559903  1
  Bi  Bi20  1  0.433740  0.003764  0.673343  1
  Bi  Bi21  1  0.933650  0.496254  0.826673  1
  Bi  Bi22  1  0.566317  0.503789  0.326648  1
  Bi  Bi23  1  0.066321  0.996231  0.173333  1
  Bi  Bi24  1  0.566317  0.996211  0.326648  1
  Bi  Bi25  1  0.066321  0.503769  0.173333  1
  Bi  Bi26  1  0.433740  0.496236  0.673343  1
  Bi  Bi27  1  0.933650  0.003746  0.826673  1
  Bi  Bi28  1  0.408789  0.750000  0.958024  1
  Bi  Bi29  1  0.908754  0.750000  0.541962  1
  Bi  Bi30  1  0.591223  0.250000  0.041944  1
  Bi  Bi31  1  0.091135  0.250000  0.458053  1
