# generated using pymatgen
data_Ca5Rh2Au
_symmetry_space_group_name_H-M   'P 1'
_cell_length_a   8.90166210
_cell_length_b   8.90166222
_cell_length_c   8.90166167
_cell_angle_alpha   128.41184864
_cell_angle_beta   128.41184979
_cell_angle_gamma   75.95879473
_symmetry_Int_Tables_number   1
_chemical_formula_structural   Ca5Rh2Au
_chemical_formula_sum   'Ca10 Rh4 Au2'
_cell_volume   421.09629781
_cell_formula_units_Z   2
loop_
 _symmetry_equiv_pos_site_id
 _symmetry_equiv_pos_as_xyz
  1  'x, y, z'
loop_
 _atom_site_type_symbol
 _atom_site_label
 _atom_site_symmetry_multiplicity
 _atom_site_fract_x
 _atom_site_fract_y
 _atom_site_fract_z
 _atom_site_occupancy
  Ca  Ca0  1  0.467655  0.967655  0.163780  1
  Ca  Ca1  1  0.196126  0.696126  0.163780  1
  Ca  Ca2  1  0.532345  0.032345  0.836220  1
  Ca  Ca3  1  0.032345  0.196126  0.500000  1
  Ca  Ca4  1  0.696126  0.532345  0.500000  1
  Ca  Ca5  1  0.967655  0.803874  0.500000  1
  Ca  Ca6  1  0.000000  0.000000  0.000000  1
  Ca  Ca7  1  0.500000  0.500000  0.000000  1
  Ca  Ca8  1  0.803874  0.303874  0.836220  1
  Ca  Ca9  1  0.303874  0.467655  0.500000  1
  Rh  Rh10  1  0.124129  0.624129  0.748258  1
  Rh  Rh11  1  0.624129  0.875871  0.500000  1
  Rh  Rh12  1  0.375871  0.124129  0.500000  1
  Rh  Rh13  1  0.875871  0.375871  0.251742  1
  Au  Au14  1  0.750000  0.750000  0.000000  1
  Au  Au15  1  0.250000  0.250000  0.000000  1
