# generated using pymatgen
data_Tm12GaCo4Ir
_symmetry_space_group_name_H-M   'P 1'
_cell_length_a   8.13734845
_cell_length_b   8.13734876
_cell_length_c   8.13734870
_cell_angle_alpha   111.14032949
_cell_angle_beta   110.82262996
_cell_angle_gamma   106.49134542
_symmetry_Int_Tables_number   1
_chemical_formula_structural   Tm12GaCo4Ir
_chemical_formula_sum   'Tm12 Ga1 Co4 Ir1'
_cell_volume   413.94936136
_cell_formula_units_Z   1
loop_
 _symmetry_equiv_pos_site_id
 _symmetry_equiv_pos_as_xyz
  1  'x, y, z'
loop_
 _atom_site_type_symbol
 _atom_site_label
 _atom_site_symmetry_multiplicity
 _atom_site_fract_x
 _atom_site_fract_y
 _atom_site_fract_z
 _atom_site_occupancy
  Tm  Tm0  1  0.581018  0.273580  0.307439  1
  Tm  Tm1  1  0.182089  0.219469  0.401557  1
  Tm  Tm2  1  0.182089  0.780531  0.962621  1
  Tm  Tm3  1  0.681819  0.487316  0.805497  1
  Tm  Tm4  1  0.681819  0.876323  0.194503  1
  Tm  Tm5  1  0.966141  0.273580  0.692561  1
  Tm  Tm6  1  0.033859  0.726420  0.307439  1
  Tm  Tm7  1  0.318181  0.123677  0.805497  1
  Tm  Tm8  1  0.318181  0.512684  0.194503  1
  Tm  Tm9  1  0.817911  0.219469  0.037379  1
  Tm  Tm10  1  0.817911  0.780531  0.598443  1
  Tm  Tm11  1  0.418982  0.726420  0.692561  1
  Ga  Ga12  1  0.500000  0.000000  0.500000  1
  Co  Co13  1  0.886698  0.886698  0.000000  1
  Co  Co14  1  0.371338  0.500000  0.871338  1
  Co  Co15  1  0.628662  0.500000  0.128662  1
  Co  Co16  1  0.113302  0.113302  0.000000  1
  Ir  Ir17  1  0.000000  0.500000  0.500000  1
