# generated using pymatgen
data_Y7Er3OsPt5
_symmetry_space_group_name_H-M   'P 1'
_cell_length_a   11.05948234
_cell_length_b   11.04957200
_cell_length_c   6.42020900
_cell_angle_alpha   90.00000000
_cell_angle_beta   89.96268865
_cell_angle_gamma   90.00000000
_symmetry_Int_Tables_number   1
_chemical_formula_structural   Y7Er3OsPt5
_chemical_formula_sum   'Y14 Er6 Os2 Pt10'
_cell_volume   784.56572221
_cell_formula_units_Z   2
loop_
 _symmetry_equiv_pos_site_id
 _symmetry_equiv_pos_as_xyz
  1  'x, y, z'
loop_
 _atom_site_type_symbol
 _atom_site_label
 _atom_site_symmetry_multiplicity
 _atom_site_fract_x
 _atom_site_fract_y
 _atom_site_fract_z
 _atom_site_occupancy
  Y  Y0  1  0.291158  0.088648  0.374678  1
  Y  Y1  1  0.291158  0.911352  0.874678  1
  Y  Y2  1  0.708119  0.087885  0.875280  1
  Y  Y3  1  0.708119  0.912115  0.375280  1
  Y  Y4  1  0.587867  0.792057  0.874868  1
  Y  Y5  1  0.587867  0.207943  0.374868  1
  Y  Y6  1  0.411858  0.791948  0.375224  1
  Y  Y7  1  0.411858  0.208052  0.875224  1
  Y  Y8  1  0.202725  0.414370  0.626004  1
  Y  Y9  1  0.202725  0.585630  0.126004  1
  Y  Y10  1  0.798109  0.414056  0.125710  1
  Y  Y11  1  0.798109  0.585944  0.625710  1
  Y  Y12  1  0.914894  0.702604  0.125904  1
  Y  Y13  1  0.914894  0.297396  0.625904  1
  Er  Er14  1  0.085394  0.700965  0.624443  1
  Er  Er15  1  0.085394  0.299035  0.124443  1
  Er  Er16  1  0.000441  0.999298  0.502400  1
  Er  Er17  1  0.000441  0.000702  0.002400  1
  Er  Er18  1  0.499818  0.500171  0.001328  1
  Er  Er19  1  0.499818  0.499829  0.501328  1
  Os  Os20  1  0.000926  0.499881  0.875986  1
  Os  Os21  1  0.000926  0.500119  0.375986  1
  Pt  Pt22  1  0.848673  0.150364  0.249405  1
  Pt  Pt23  1  0.848673  0.849636  0.749405  1
  Pt  Pt24  1  0.151886  0.150935  0.752677  1
  Pt  Pt25  1  0.151886  0.849065  0.252677  1
  Pt  Pt26  1  0.649808  0.347523  0.749870  1
  Pt  Pt27  1  0.649808  0.652477  0.249870  1
  Pt  Pt28  1  0.348513  0.347470  0.249044  1
  Pt  Pt29  1  0.348513  0.652530  0.749044  1
  Pt  Pt30  1  0.499811  0.999930  0.117172  1
  Pt  Pt31  1  0.499811  0.000070  0.617172  1
