# generated using pymatgen
data_Np3(H6Os)2
_symmetry_space_group_name_H-M   'P 1'
_cell_length_a   4.78041400
_cell_length_b   4.78041403
_cell_length_c   8.30993700
_cell_angle_alpha   90.00000000
_cell_angle_beta   90.00000000
_cell_angle_gamma   119.99999979
_symmetry_Int_Tables_number   1
_chemical_formula_structural   Np3(H6Os)2
_chemical_formula_sum   'Np3 H12 Os2'
_cell_volume   164.45965918
_cell_formula_units_Z   1
loop_
 _symmetry_equiv_pos_site_id
 _symmetry_equiv_pos_as_xyz
  1  'x, y, z'
loop_
 _atom_site_type_symbol
 _atom_site_label
 _atom_site_symmetry_multiplicity
 _atom_site_fract_x
 _atom_site_fract_y
 _atom_site_fract_z
 _atom_site_occupancy
  Np  Np0  1  0.000000  0.000000  0.000000  1
  Np  Np1  1  0.666667  0.333333  0.368503  1
  Np  Np2  1  0.333333  0.666667  0.631497  1
  H  H3  1  0.165056  0.834944  0.373270  1
  H  H4  1  0.669889  0.834944  0.373270  1
  H  H5  1  0.165056  0.330111  0.373270  1
  H  H6  1  0.834944  0.165056  0.626730  1
  H  H7  1  0.330111  0.165056  0.626730  1
  H  H8  1  0.834944  0.669889  0.626730  1
  H  H9  1  0.496143  0.992285  0.873361  1
  H  H10  1  0.496143  0.503857  0.873361  1
  H  H11  1  0.007715  0.503857  0.873361  1
  H  H12  1  0.503857  0.007715  0.126639  1
  H  H13  1  0.503857  0.496143  0.126639  1
  H  H14  1  0.992285  0.496143  0.126639  1
  Os  Os15  1  0.666667  0.333333  0.754114  1
  Os  Os16  1  0.333333  0.666667  0.245886  1
