# generated using pymatgen
data_Tb3VCo7NiP6
_symmetry_space_group_name_H-M   'P 1'
_cell_length_a   3.71996500
_cell_length_b   10.55084300
_cell_length_c   12.23775800
_cell_angle_alpha   90.00000000
_cell_angle_beta   90.00000000
_cell_angle_gamma   90.00000000
_symmetry_Int_Tables_number   1
_chemical_formula_structural   Tb3VCo7NiP6
_chemical_formula_sum   'Tb6 V2 Co14 Ni2 P12'
_cell_volume   480.31690843
_cell_formula_units_Z   2
loop_
 _symmetry_equiv_pos_site_id
 _symmetry_equiv_pos_as_xyz
  1  'x, y, z'
loop_
 _atom_site_type_symbol
 _atom_site_label
 _atom_site_symmetry_multiplicity
 _atom_site_fract_x
 _atom_site_fract_y
 _atom_site_fract_z
 _atom_site_occupancy
  Tb  Tb0  1  0.000000  0.500000  0.520409  1
  Tb  Tb1  1  0.500000  0.000000  0.479591  1
  Tb  Tb2  1  0.500000  0.817149  0.203549  1
  Tb  Tb3  1  0.500000  0.182851  0.203549  1
  Tb  Tb4  1  0.000000  0.682851  0.796451  1
  Tb  Tb5  1  0.000000  0.317149  0.796451  1
  V  V6  1  0.500000  0.500000  0.154042  1
  V  V7  1  0.000000  0.000000  0.845958  1
  Co  Co8  1  0.000000  0.500000  0.986999  1
  Co  Co9  1  0.500000  0.000000  0.013001  1
  Co  Co10  1  0.500000  0.332797  0.992543  1
  Co  Co11  1  0.500000  0.667203  0.992543  1
  Co  Co12  1  0.000000  0.167203  0.007457  1
  Co  Co13  1  0.000000  0.832797  0.007457  1
  Co  Co14  1  0.500000  0.296257  0.431391  1
  Co  Co15  1  0.500000  0.703743  0.431391  1
  Co  Co16  1  0.000000  0.203743  0.568609  1
  Co  Co17  1  0.000000  0.796257  0.568609  1
  Co  Co18  1  0.500000  0.879023  0.708753  1
  Co  Co19  1  0.500000  0.120977  0.708753  1
  Co  Co20  1  0.000000  0.620977  0.291247  1
  Co  Co21  1  0.000000  0.379023  0.291247  1
  Ni  Ni22  1  0.500000  0.500000  0.701453  1
  Ni  Ni23  1  0.000000  0.000000  0.298547  1
  P  P24  1  0.500000  0.500000  0.883201  1
  P  P25  1  0.000000  0.000000  0.116799  1
  P  P26  1  0.500000  0.500000  0.344183  1
  P  P27  1  0.000000  0.000000  0.655817  1
  P  P28  1  0.500000  0.309620  0.615458  1
  P  P29  1  0.500000  0.690380  0.615458  1
  P  P30  1  0.000000  0.190380  0.384542  1
  P  P31  1  0.000000  0.809620  0.384542  1
  P  P32  1  0.500000  0.846645  0.892719  1
  P  P33  1  0.500000  0.153355  0.892719  1
  P  P34  1  0.000000  0.653355  0.107281  1
  P  P35  1  0.000000  0.346645  0.107281  1
