# generated using pymatgen
data_K12Li8Ta(TiP4)3
_symmetry_space_group_name_H-M   'P 1'
_cell_length_a   9.91340427
_cell_length_b   9.91340250
_cell_length_c   14.73266282
_cell_angle_alpha   89.97351949
_cell_angle_beta   89.97351974
_cell_angle_gamma   143.10063995
_symmetry_Int_Tables_number   1
_chemical_formula_structural   K12Li8Ta(TiP4)3
_chemical_formula_sum   'K12 Li8 Ta1 Ti3 P12'
_cell_volume   869.31104180
_cell_formula_units_Z   1
loop_
 _symmetry_equiv_pos_site_id
 _symmetry_equiv_pos_as_xyz
  1  'x, y, z'
loop_
 _atom_site_type_symbol
 _atom_site_label
 _atom_site_symmetry_multiplicity
 _atom_site_fract_x
 _atom_site_fract_y
 _atom_site_fract_z
 _atom_site_occupancy
  K  K0  1  0.106235  0.444942  0.672142  1
  K  K1  1  0.712424  0.715795  0.681918  1
  K  K2  1  0.216455  0.216377  0.820891  1
  K  K3  1  0.783623  0.783545  0.179109  1
  K  K4  1  0.947951  0.605837  0.828634  1
  K  K5  1  0.555058  0.893765  0.327858  1
  K  K6  1  0.394163  0.052049  0.171366  1
  K  K7  1  0.052631  0.394340  0.172178  1
  K  K8  1  0.892969  0.550538  0.325959  1
  K  K9  1  0.449462  0.107031  0.674041  1
  K  K10  1  0.605660  0.947370  0.827822  1
  K  K11  1  0.284205  0.287576  0.318082  1
  Li  Li12  1  0.918185  0.081815  0.000000  1
  Li  Li13  1  0.581685  0.418315  0.500000  1
  Li  Li14  1  0.081745  0.918255  0.000000  1
  Li  Li15  1  0.416815  0.583185  0.500000  1
  Li  Li16  1  0.750439  0.249561  0.000000  1
  Li  Li17  1  0.750935  0.249065  0.500000  1
  Li  Li18  1  0.249766  0.750234  0.000000  1
  Li  Li19  1  0.251794  0.748206  0.500000  1
  Ta  Ta20  1  0.084184  0.915816  0.500000  1
  Ti  Ti21  1  0.413243  0.586757  0.000000  1
  Ti  Ti22  1  0.913510  0.086490  0.500000  1
  Ti  Ti23  1  0.586693  0.413307  0.000000  1
  P  P24  1  0.886274  0.566494  0.089021  1
  P  P25  1  0.433506  0.113726  0.910979  1
  P  P26  1  0.612053  0.933180  0.590150  1
  P  P27  1  0.933489  0.614986  0.590933  1
  P  P28  1  0.113701  0.433480  0.910977  1
  P  P29  1  0.566520  0.886299  0.089023  1
  P  P30  1  0.385014  0.066511  0.409067  1
  P  P31  1  0.221867  0.219144  0.587230  1
  P  P32  1  0.718186  0.718114  0.916335  1
  P  P33  1  0.281886  0.281814  0.083665  1
  P  P34  1  0.066820  0.387947  0.409850  1
  P  P35  1  0.780856  0.778133  0.412770  1
