# generated using pymatgen
data_HoMg4(SbPt)5
_symmetry_space_group_name_H-M   'P 1'
_cell_length_a   18.85437973
_cell_length_b   18.85437971
_cell_length_c   18.85437941
_cell_angle_alpha   13.73718534
_cell_angle_beta   13.73718535
_cell_angle_gamma   13.73718766
_symmetry_Int_Tables_number   1
_chemical_formula_structural   HoMg4(SbPt)5
_chemical_formula_sum   'Ho1 Mg4 Sb5 Pt5'
_cell_volume   328.89349364
_cell_formula_units_Z   1
loop_
 _symmetry_equiv_pos_site_id
 _symmetry_equiv_pos_as_xyz
  1  'x, y, z'
loop_
 _atom_site_type_symbol
 _atom_site_label
 _atom_site_symmetry_multiplicity
 _atom_site_fract_x
 _atom_site_fract_y
 _atom_site_fract_z
 _atom_site_occupancy
  Ho  Ho0  1  0.299412  0.299412  0.299412  1
  Mg  Mg1  1  0.700552  0.700552  0.700552  1
  Mg  Mg2  1  0.100236  0.100236  0.100236  1
  Mg  Mg3  1  0.499429  0.499429  0.499429  1
  Mg  Mg4  1  0.898514  0.898514  0.898514  1
  Sb  Sb5  1  0.598138  0.598138  0.598138  1
  Sb  Sb6  1  0.800795  0.800795  0.800795  1
  Sb  Sb7  1  0.199641  0.199641  0.199641  1
  Sb  Sb8  1  0.002200  0.002200  0.002200  1
  Sb  Sb9  1  0.401763  0.401763  0.401763  1
  Pt  Pt10  1  0.050911  0.050911  0.050911  1
  Pt  Pt11  1  0.449976  0.449976  0.449976  1
  Pt  Pt12  1  0.849136  0.849136  0.849136  1
  Pt  Pt13  1  0.248139  0.248139  0.248139  1
  Pt  Pt14  1  0.651156  0.651156  0.651156  1
