# generated using pymatgen
data_Gd4Tc3B16Os
_symmetry_space_group_name_H-M   'P 1'
_cell_length_a   3.60816900
_cell_length_b   5.99773985
_cell_length_c   11.60472051
_cell_angle_alpha   89.93184031
_cell_angle_beta   90.00000000
_cell_angle_gamma   90.00000000
_symmetry_Int_Tables_number   1
_chemical_formula_structural   Gd4Tc3B16Os
_chemical_formula_sum   'Gd4 Tc3 B16 Os1'
_cell_volume   251.13594248
_cell_formula_units_Z   1
loop_
 _symmetry_equiv_pos_site_id
 _symmetry_equiv_pos_as_xyz
  1  'x, y, z'
loop_
 _atom_site_type_symbol
 _atom_site_label
 _atom_site_symmetry_multiplicity
 _atom_site_fract_x
 _atom_site_fract_y
 _atom_site_fract_z
 _atom_site_occupancy
  Gd  Gd0  1  0.000000  0.626766  0.349905  1
  Gd  Gd1  1  0.000000  0.373238  0.650840  1
  Gd  Gd2  1  0.000000  0.127671  0.149067  1
  Gd  Gd3  1  0.000000  0.872144  0.850083  1
  Tc  Tc4  1  0.000000  0.362476  0.910157  1
  Tc  Tc5  1  0.000000  0.132012  0.412440  1
  Tc  Tc6  1  0.000000  0.868495  0.586529  1
  B  B7  1  0.500000  0.786389  0.184895  1
  B  B8  1  0.500000  0.213806  0.815016  1
  B  B9  1  0.500000  0.286134  0.315074  1
  B  B10  1  0.500000  0.714526  0.684786  1
  B  B11  1  0.500000  0.862607  0.031005  1
  B  B12  1  0.500000  0.136470  0.969213  1
  B  B13  1  0.500000  0.363519  0.468112  1
  B  B14  1  0.500000  0.636705  0.531901  1
  B  B15  1  0.500000  0.887101  0.453185  1
  B  B16  1  0.500000  0.113238  0.546678  1
  B  B17  1  0.500000  0.387423  0.046679  1
  B  B18  1  0.500000  0.612609  0.953477  1
  B  B19  1  0.500000  0.976735  0.308337  1
  B  B20  1  0.500000  0.022610  0.691600  1
  B  B21  1  0.500000  0.474594  0.191105  1
  B  B22  1  0.500000  0.525177  0.808789  1
  Os  Os23  1  0.000000  0.637552  0.091126  1
