# generated using pymatgen
data_Er3Lu2Ru3
_symmetry_space_group_name_H-M   'P 1'
_cell_length_a   8.11050200
_cell_length_b   8.11050183
_cell_length_c   6.25539600
_cell_angle_alpha   90.00000000
_cell_angle_beta   90.00000000
_cell_angle_gamma   120.00000884
_symmetry_Int_Tables_number   1
_chemical_formula_structural   Er3Lu2Ru3
_chemical_formula_sum   'Er6 Lu4 Ru6'
_cell_volume   356.35336458
_cell_formula_units_Z   2
loop_
 _symmetry_equiv_pos_site_id
 _symmetry_equiv_pos_as_xyz
  1  'x, y, z'
loop_
 _atom_site_type_symbol
 _atom_site_label
 _atom_site_symmetry_multiplicity
 _atom_site_fract_x
 _atom_site_fract_y
 _atom_site_fract_z
 _atom_site_occupancy
  Er  Er0  1  0.742539  0.000000  0.750000  1
  Er  Er1  1  0.742539  0.742539  0.250000  1
  Er  Er2  1  0.000000  0.257461  0.250000  1
  Er  Er3  1  0.000000  0.742539  0.750000  1
  Er  Er4  1  0.257461  0.257461  0.750000  1
  Er  Er5  1  0.257461  0.000000  0.250000  1
  Lu  Lu6  1  0.666667  0.333333  0.000000  1
  Lu  Lu7  1  0.333333  0.666667  0.500000  1
  Lu  Lu8  1  0.333333  0.666667  0.000000  1
  Lu  Lu9  1  0.666667  0.333333  0.500000  1
  Ru  Ru10  1  0.398933  0.000000  0.750000  1
  Ru  Ru11  1  0.398933  0.398933  0.250000  1
  Ru  Ru12  1  0.000000  0.601067  0.250000  1
  Ru  Ru13  1  0.000000  0.398933  0.750000  1
  Ru  Ru14  1  0.601067  0.601067  0.750000  1
  Ru  Ru15  1  0.601067  0.000000  0.250000  1
