# generated using pymatgen
data_Yb(AlAu)3
_symmetry_space_group_name_H-M   'P 1'
_cell_length_a   4.35366100
_cell_length_b   7.23149600
_cell_length_c   8.60265700
_cell_angle_alpha   90.00000000
_cell_angle_beta   90.00000000
_cell_angle_gamma   90.00000000
_symmetry_Int_Tables_number   1
_chemical_formula_structural   Yb(AlAu)3
_chemical_formula_sum   'Yb2 Al6 Au6'
_cell_volume   270.84159773
_cell_formula_units_Z   2
loop_
 _symmetry_equiv_pos_site_id
 _symmetry_equiv_pos_as_xyz
  1  'x, y, z'
loop_
 _atom_site_type_symbol
 _atom_site_label
 _atom_site_symmetry_multiplicity
 _atom_site_fract_x
 _atom_site_fract_y
 _atom_site_fract_z
 _atom_site_occupancy
  Yb  Yb0  1  0.500000  0.000000  0.734847  1
  Yb  Yb1  1  0.000000  0.500000  0.265153  1
  Al  Al2  1  0.000000  0.308154  0.893340  1
  Al  Al3  1  0.500000  0.191846  0.106660  1
  Al  Al4  1  0.000000  0.691846  0.893340  1
  Al  Al5  1  0.000000  0.000000  0.363519  1
  Al  Al6  1  0.500000  0.808154  0.106660  1
  Al  Al7  1  0.500000  0.500000  0.636481  1
  Au  Au8  1  0.000000  0.725862  0.602307  1
  Au  Au9  1  0.500000  0.774138  0.397693  1
  Au  Au10  1  0.500000  0.500000  0.957528  1
  Au  Au11  1  0.000000  0.000000  0.042472  1
  Au  Au12  1  0.500000  0.225862  0.397693  1
  Au  Au13  1  0.000000  0.274138  0.602307  1
