# generated using pymatgen
data_Ce2TcRu3
_symmetry_space_group_name_H-M   'P 1'
_cell_length_a   5.14255639
_cell_length_b   5.14255665
_cell_length_c   5.14255585
_cell_angle_alpha   66.91258107
_cell_angle_beta   66.91258411
_cell_angle_gamma   66.91258826
_symmetry_Int_Tables_number   1
_chemical_formula_structural   Ce2TcRu3
_chemical_formula_sum   'Ce2 Tc1 Ru3'
_cell_volume   110.42681678
_cell_formula_units_Z   1
loop_
 _symmetry_equiv_pos_site_id
 _symmetry_equiv_pos_as_xyz
  1  'x, y, z'
loop_
 _atom_site_type_symbol
 _atom_site_label
 _atom_site_symmetry_multiplicity
 _atom_site_fract_x
 _atom_site_fract_y
 _atom_site_fract_z
 _atom_site_occupancy
  Ce  Ce0  1  0.626299  0.626299  0.626299  1
  Ce  Ce1  1  0.373701  0.373701  0.373701  1
  Tc  Tc2  1  0.000000  0.000000  0.000000  1
  Ru  Ru3  1  0.000000  0.500000  0.000000  1
  Ru  Ru4  1  0.500000  0.000000  0.000000  1
  Ru  Ru5  1  0.000000  0.000000  0.500000  1
