# generated using pymatgen
data_TmPa3OsPt3
_symmetry_space_group_name_H-M   'P 1'
_cell_length_a   4.34320200
_cell_length_b   5.65973269
_cell_length_c   7.15033150
_cell_angle_alpha   90.18979783
_cell_angle_beta   90.00000000
_cell_angle_gamma   90.00000000
_symmetry_Int_Tables_number   1
_chemical_formula_structural   TmPa3OsPt3
_chemical_formula_sum   'Tm1 Pa3 Os1 Pt3'
_cell_volume   175.76392496
_cell_formula_units_Z   1
loop_
 _symmetry_equiv_pos_site_id
 _symmetry_equiv_pos_as_xyz
  1  'x, y, z'
loop_
 _atom_site_type_symbol
 _atom_site_label
 _atom_site_symmetry_multiplicity
 _atom_site_fract_x
 _atom_site_fract_y
 _atom_site_fract_z
 _atom_site_occupancy
  Tm  Tm0  1  0.250000  0.849654  0.678344  1
  Pa  Pa1  1  0.250000  0.653305  0.176271  1
  Pa  Pa2  1  0.750000  0.340505  0.823572  1
  Pa  Pa3  1  0.750000  0.148792  0.314460  1
  Os  Os4  1  0.250000  0.185045  0.059081  1
  Pt  Pt5  1  0.750000  0.833333  0.947648  1
  Pt  Pt6  1  0.750000  0.657786  0.450710  1
  Pt  Pt7  1  0.250000  0.331580  0.549915  1
