# generated using pymatgen
data_Dy9Tm8Lu3Pb16
_symmetry_space_group_name_H-M   'P 1'
_cell_length_a   8.15694625
_cell_length_b   8.23045387
_cell_length_c   15.54118706
_cell_angle_alpha   90.00075336
_cell_angle_beta   90.01642902
_cell_angle_gamma   90.08616101
_symmetry_Int_Tables_number   1
_chemical_formula_structural   Dy9Tm8Lu3Pb16
_chemical_formula_sum   'Dy9 Tm8 Lu3 Pb16'
_cell_volume   1043.36211840
_cell_formula_units_Z   1
loop_
 _symmetry_equiv_pos_site_id
 _symmetry_equiv_pos_as_xyz
  1  'x, y, z'
loop_
 _atom_site_type_symbol
 _atom_site_label
 _atom_site_symmetry_multiplicity
 _atom_site_fract_x
 _atom_site_fract_y
 _atom_site_fract_z
 _atom_site_occupancy
  Dy  Dy0  1  0.876356  0.659190  0.879085  1
  Dy  Dy1  1  0.536516  0.322836  0.900500  1
  Dy  Dy2  1  0.036719  0.176683  0.599356  1
  Dy  Dy3  1  0.463374  0.676870  0.400366  1
  Dy  Dy4  1  0.963336  0.823578  0.100128  1
  Dy  Dy5  1  0.463688  0.676605  0.099702  1
  Dy  Dy6  1  0.963293  0.823208  0.400374  1
  Dy  Dy7  1  0.536515  0.322958  0.599506  1
  Dy  Dy8  1  0.036615  0.176475  0.900334  1
  Tm  Tm9  1  0.376164  0.841281  0.878537  1
  Tm  Tm10  1  0.875996  0.658525  0.621255  1
  Tm  Tm11  1  0.623904  0.158456  0.378612  1
  Tm  Tm12  1  0.123697  0.341613  0.121345  1
  Tm  Tm13  1  0.623488  0.158470  0.121926  1
  Tm  Tm14  1  0.123779  0.341337  0.378577  1
  Tm  Tm15  1  0.376508  0.841592  0.621080  1
  Tm  Tm16  1  0.207933  0.504823  0.749747  1
  Lu  Lu17  1  0.707507  0.995069  0.749710  1
  Lu  Lu18  1  0.792176  0.494642  0.250245  1
  Lu  Lu19  1  0.292131  0.004981  0.250017  1
  Pb  Pb20  1  0.282699  0.034354  0.043016  1
  Pb  Pb21  1  0.782927  0.465633  0.456989  1
  Pb  Pb22  1  0.717126  0.965597  0.542873  1
  Pb  Pb23  1  0.219170  0.533620  0.957360  1
  Pb  Pb24  1  0.716149  0.967482  0.957130  1
  Pb  Pb25  1  0.216941  0.534388  0.542700  1
  Pb  Pb26  1  0.282787  0.034473  0.456920  1
  Pb  Pb27  1  0.782543  0.465040  0.043942  1
  Pb  Pb28  1  0.570480  0.627588  0.749494  1
  Pb  Pb29  1  0.070948  0.873850  0.749231  1
  Pb  Pb30  1  0.429351  0.372574  0.250162  1
  Pb  Pb31  1  0.929745  0.127475  0.250053  1
  Pb  Pb32  1  0.347670  0.153705  0.749945  1
  Pb  Pb33  1  0.847486  0.344911  0.749626  1
  Pb  Pb34  1  0.652122  0.845590  0.250070  1
  Pb  Pb35  1  0.152158  0.654529  0.250085  1
