# generated using pymatgen
data_Ba2Ni(RhN)2
_symmetry_space_group_name_H-M   'P 1'
_cell_length_a   6.52886122
_cell_length_b   6.52886149
_cell_length_c   7.43566600
_cell_angle_alpha   90.00000000
_cell_angle_beta   90.00000000
_cell_angle_gamma   108.14135523
_symmetry_Int_Tables_number   1
_chemical_formula_structural   Ba2Ni(RhN)2
_chemical_formula_sum   'Ba4 Ni2 Rh4 N4'
_cell_volume   301.19759043
_cell_formula_units_Z   2
loop_
 _symmetry_equiv_pos_site_id
 _symmetry_equiv_pos_as_xyz
  1  'x, y, z'
loop_
 _atom_site_type_symbol
 _atom_site_label
 _atom_site_symmetry_multiplicity
 _atom_site_fract_x
 _atom_site_fract_y
 _atom_site_fract_z
 _atom_site_occupancy
  Ba  Ba0  1  0.668672  0.330382  0.406882  1
  Ba  Ba1  1  0.330382  0.668672  0.593118  1
  Ba  Ba2  1  0.830382  0.168672  0.906882  1
  Ba  Ba3  1  0.168672  0.830382  0.093118  1
  Ni  Ni4  1  0.026698  0.026698  0.500000  1
  Ni  Ni5  1  0.526698  0.526698  0.000000  1
  Rh  Rh6  1  0.175428  0.323645  0.254658  1
  Rh  Rh7  1  0.323645  0.175428  0.745342  1
  Rh  Rh8  1  0.823645  0.675428  0.754658  1
  Rh  Rh9  1  0.675428  0.823645  0.245342  1
  N  N10  1  0.926093  0.069584  0.274948  1
  N  N11  1  0.069584  0.926093  0.725052  1
  N  N12  1  0.569584  0.426093  0.774948  1
  N  N13  1  0.426093  0.569584  0.225052  1
