# generated using pymatgen
data_ThMg2ScRh4
_symmetry_space_group_name_H-M   'P 1'
_cell_length_a   6.31783200
_cell_length_b   6.31825000
_cell_length_c   6.99826600
_cell_angle_alpha   89.99967303
_cell_angle_beta   89.99883654
_cell_angle_gamma   90.00000000
_symmetry_Int_Tables_number   1
_chemical_formula_structural   ThMg2ScRh4
_chemical_formula_sum   'Th2 Mg4 Sc2 Rh8'
_cell_volume   279.35427702
_cell_formula_units_Z   2
loop_
 _symmetry_equiv_pos_site_id
 _symmetry_equiv_pos_as_xyz
  1  'x, y, z'
loop_
 _atom_site_type_symbol
 _atom_site_label
 _atom_site_symmetry_multiplicity
 _atom_site_fract_x
 _atom_site_fract_y
 _atom_site_fract_z
 _atom_site_occupancy
  Th  Th0  1  0.250010  0.250002  0.999999  1
  Th  Th1  1  0.749980  0.749998  0.000006  1
  Mg  Mg2  1  0.750025  0.250001  0.000001  1
  Mg  Mg3  1  0.249975  0.749999  0.000005  1
  Mg  Mg4  1  0.749986  0.249999  0.499999  1
  Mg  Mg5  1  0.250014  0.750002  0.500006  1
  Sc  Sc6  1  0.249983  0.250000  0.500003  1
  Sc  Sc7  1  0.750019  0.750000  0.500002  1
  Rh  Rh8  1  0.999999  0.999997  0.260077  1
  Rh  Rh9  1  0.000006  0.500006  0.260081  1
  Rh  Rh10  1  0.500002  0.999999  0.260087  1
  Rh  Rh11  1  0.500014  0.500002  0.260086  1
  Rh  Rh12  1  0.500001  0.999996  0.739892  1
  Rh  Rh13  1  0.499995  0.500002  0.739921  1
  Rh  Rh14  1  0.999993  0.999998  0.739922  1
  Rh  Rh15  1  0.000002  0.500003  0.739919  1
