# generated using pymatgen
data_Na3BiCl6
_symmetry_space_group_name_H-M   'P 1'
_cell_length_a   7.05118963
_cell_length_b   7.05118988
_cell_length_c   7.63534268
_cell_angle_alpha   117.49988700
_cell_angle_beta   62.50011695
_cell_angle_gamma   119.99999970
_symmetry_Int_Tables_number   1
_chemical_formula_structural   Na3BiCl6
_chemical_formula_sum   'Na3 Bi1 Cl6'
_cell_volume   278.13490288
_cell_formula_units_Z   1
loop_
 _symmetry_equiv_pos_site_id
 _symmetry_equiv_pos_as_xyz
  1  'x, y, z'
loop_
 _atom_site_type_symbol
 _atom_site_label
 _atom_site_symmetry_multiplicity
 _atom_site_fract_x
 _atom_site_fract_y
 _atom_site_fract_z
 _atom_site_occupancy
  Na  Na0  1  0.655036  0.344964  0.034889  1
  Na  Na1  1  0.847469  0.152531  0.457592  1
  Na  Na2  1  0.149795  0.850206  0.550616  1
  Bi  Bi3  1  0.342353  0.657647  0.972941  1
  Cl  Cl4  1  0.553352  0.746634  0.241887  1
  Cl  Cl5  1  0.951395  0.446649  0.241887  1
  Cl  Cl6  1  0.253367  0.048605  0.241887  1
  Cl  Cl7  1  0.735400  0.929812  0.752766  1
  Cl  Cl8  1  0.070188  0.558355  0.752766  1
  Cl  Cl9  1  0.441645  0.264599  0.752766  1
