# generated using pymatgen
data_Ta2Fe5GeB2
_symmetry_space_group_name_H-M   'P 1'
_cell_length_a   8.66926200
_cell_length_b   8.66926200
_cell_length_c   2.92582400
_cell_angle_alpha   90.00000000
_cell_angle_beta   90.00000000
_cell_angle_gamma   90.00000000
_symmetry_Int_Tables_number   1
_chemical_formula_structural   Ta2Fe5GeB2
_chemical_formula_sum   'Ta4 Fe10 Ge2 B4'
_cell_volume   219.89353173
_cell_formula_units_Z   2
loop_
 _symmetry_equiv_pos_site_id
 _symmetry_equiv_pos_as_xyz
  1  'x, y, z'
loop_
 _atom_site_type_symbol
 _atom_site_label
 _atom_site_symmetry_multiplicity
 _atom_site_fract_x
 _atom_site_fract_y
 _atom_site_fract_z
 _atom_site_occupancy
  Ta  Ta0  1  0.824529  0.675471  0.000000  1
  Ta  Ta1  1  0.175471  0.324529  0.000000  1
  Ta  Ta2  1  0.324529  0.824529  0.000000  1
  Ta  Ta3  1  0.675471  0.175471  0.000000  1
  Fe  Fe4  1  0.568378  0.717579  0.500000  1
  Fe  Fe5  1  0.431622  0.282421  0.500000  1
  Fe  Fe6  1  0.068378  0.782421  0.500000  1
  Fe  Fe7  1  0.931622  0.217579  0.500000  1
  Fe  Fe8  1  0.282421  0.568378  0.500000  1
  Fe  Fe9  1  0.717579  0.431622  0.500000  1
  Fe  Fe10  1  0.217579  0.068378  0.500000  1
  Fe  Fe11  1  0.782421  0.931622  0.500000  1
  Fe  Fe12  1  0.500000  0.000000  0.500000  1
  Fe  Fe13  1  0.000000  0.500000  0.500000  1
  Ge  Ge14  1  0.500000  0.500000  0.000000  1
  Ge  Ge15  1  0.000000  0.000000  0.000000  1
  B  B16  1  0.621204  0.878796  0.000000  1
  B  B17  1  0.378796  0.121204  0.000000  1
  B  B18  1  0.121204  0.621204  0.000000  1
  B  B19  1  0.878796  0.378796  0.000000  1
