# generated using pymatgen
data_CaNd3Tm4(B6Ru)4
_symmetry_space_group_name_H-M   'P 1'
_cell_length_a   3.68058300
_cell_length_b   9.17308010
_cell_length_c   11.60204308
_cell_angle_alpha   89.92610055
_cell_angle_beta   90.00000000
_cell_angle_gamma   90.00000000
_symmetry_Int_Tables_number   1
_chemical_formula_structural   CaNd3Tm4(B6Ru)4
_chemical_formula_sum   'Ca1 Nd3 Tm4 B24 Ru4'
_cell_volume   391.71113251
_cell_formula_units_Z   1
loop_
 _symmetry_equiv_pos_site_id
 _symmetry_equiv_pos_as_xyz
  1  'x, y, z'
loop_
 _atom_site_type_symbol
 _atom_site_label
 _atom_site_symmetry_multiplicity
 _atom_site_fract_x
 _atom_site_fract_y
 _atom_site_fract_z
 _atom_site_occupancy
  Ca  Ca0  1  0.000000  0.322064  0.414343  1
  Nd  Nd1  1  0.000000  0.675780  0.584435  1
  Nd  Nd2  1  0.000000  0.822624  0.086464  1
  Nd  Nd3  1  0.000000  0.177804  0.914722  1
  Tm  Tm4  1  0.000000  0.944788  0.371238  1
  Tm  Tm5  1  0.000000  0.058145  0.627537  1
  Tm  Tm6  1  0.000000  0.443016  0.130461  1
  Tm  Tm7  1  0.000000  0.555708  0.871318  1
  B  B8  1  0.500000  0.554494  0.430429  1
  B  B9  1  0.500000  0.443380  0.568392  1
  B  B10  1  0.500000  0.056139  0.069792  1
  B  B11  1  0.500000  0.943628  0.929940  1
  B  B12  1  0.500000  0.749595  0.416664  1
  B  B13  1  0.500000  0.250686  0.581460  1
  B  B14  1  0.500000  0.249937  0.083685  1
  B  B15  1  0.500000  0.749620  0.917031  1
  B  B16  1  0.500000  0.790861  0.266786  1
  B  B17  1  0.500000  0.209980  0.732877  1
  B  B18  1  0.500000  0.290945  0.234874  1
  B  B19  1  0.500000  0.709431  0.766306  1
  B  B20  1  0.500000  0.629637  0.186261  1
  B  B21  1  0.500000  0.370002  0.814833  1
  B  B22  1  0.500000  0.131144  0.315384  1
  B  B23  1  0.500000  0.870211  0.684700  1
  B  B24  1  0.500000  0.985760  0.213941  1
  B  B25  1  0.500000  0.015029  0.785521  1
  B  B26  1  0.500000  0.483444  0.287336  1
  B  B27  1  0.500000  0.514483  0.713484  1
  B  B28  1  0.500000  0.600912  0.027954  1
  B  B29  1  0.500000  0.398828  0.972913  1
  B  B30  1  0.500000  0.102155  0.472001  1
  B  B31  1  0.500000  0.899630  0.527304  1
  Ru  Ru32  1  0.000000  0.640018  0.319034  1
  Ru  Ru33  1  0.000000  0.360403  0.681216  1
  Ru  Ru34  1  0.000000  0.139215  0.180582  1
  Ru  Ru35  1  0.000000  0.860508  0.818780  1
