# generated using pymatgen
data_Ho3Sc2In4CuRh
_symmetry_space_group_name_H-M   'P 1'
_cell_length_a   3.57708600
_cell_length_b   7.89364157
_cell_length_c   17.82348151
_cell_angle_alpha   89.89930116
_cell_angle_beta   90.00000000
_cell_angle_gamma   90.00000000
_symmetry_Int_Tables_number   1
_chemical_formula_structural   Ho3Sc2In4CuRh
_chemical_formula_sum   'Ho6 Sc4 In8 Cu2 Rh2'
_cell_volume   503.26723098
_cell_formula_units_Z   2
loop_
 _symmetry_equiv_pos_site_id
 _symmetry_equiv_pos_as_xyz
  1  'x, y, z'
loop_
 _atom_site_type_symbol
 _atom_site_label
 _atom_site_symmetry_multiplicity
 _atom_site_fract_x
 _atom_site_fract_y
 _atom_site_fract_z
 _atom_site_occupancy
  Ho  Ho0  1  0.000000  0.000000  0.000000  1
  Ho  Ho1  1  0.000000  0.500000  0.500000  1
  Ho  Ho2  1  0.000000  0.743694  0.782647  1
  Ho  Ho3  1  0.000000  0.256306  0.217353  1
  Ho  Ho4  1  0.000000  0.254595  0.719336  1
  Ho  Ho5  1  0.000000  0.745405  0.280664  1
  Sc  Sc6  1  0.000000  0.876544  0.586898  1
  Sc  Sc7  1  0.000000  0.123456  0.413102  1
  Sc  Sc8  1  0.000000  0.379070  0.910710  1
  Sc  Sc9  1  0.000000  0.620930  0.089290  1
  In  In10  1  0.500000  0.810032  0.438895  1
  In  In11  1  0.500000  0.189968  0.561105  1
  In  In12  1  0.500000  0.309970  0.061721  1
  In  In13  1  0.500000  0.690030  0.938279  1
  In  In14  1  0.500000  0.921236  0.149712  1
  In  In15  1  0.500000  0.078764  0.850288  1
  In  In16  1  0.500000  0.424715  0.350355  1
  In  In17  1  0.500000  0.575285  0.649645  1
  Cu  Cu18  1  0.500000  0.963911  0.693251  1
  Cu  Cu19  1  0.500000  0.036089  0.306749  1
  Rh  Rh20  1  0.500000  0.463646  0.807623  1
  Rh  Rh21  1  0.500000  0.536354  0.192377  1
