# generated using pymatgen
data_Sr20Si11Se
_symmetry_space_group_name_H-M   'P 1'
_cell_length_a   8.11516800
_cell_length_b   8.11516800
_cell_length_c   15.75353900
_cell_angle_alpha   90.00000000
_cell_angle_beta   90.00000000
_cell_angle_gamma   90.00000000
_symmetry_Int_Tables_number   1
_chemical_formula_structural   Sr20Si11Se
_chemical_formula_sum   'Sr20 Si11 Se1'
_cell_volume   1037.46430299
_cell_formula_units_Z   1
loop_
 _symmetry_equiv_pos_site_id
 _symmetry_equiv_pos_as_xyz
  1  'x, y, z'
loop_
 _atom_site_type_symbol
 _atom_site_label
 _atom_site_symmetry_multiplicity
 _atom_site_fract_x
 _atom_site_fract_y
 _atom_site_fract_z
 _atom_site_occupancy
  Sr  Sr0  1  0.322132  0.674430  0.109030  1
  Sr  Sr1  1  0.174430  0.177868  0.109030  1
  Sr  Sr2  1  0.500000  0.000000  0.732902  1
  Sr  Sr3  1  0.329989  0.686768  0.390426  1
  Sr  Sr4  1  0.664761  0.687531  0.890751  1
  Sr  Sr5  1  0.186768  0.170011  0.390426  1
  Sr  Sr6  1  0.670011  0.313232  0.390426  1
  Sr  Sr7  1  0.171876  0.813959  0.609548  1
  Sr  Sr8  1  0.335239  0.312469  0.890751  1
  Sr  Sr9  1  0.187531  0.835239  0.890751  1
  Sr  Sr10  1  0.500000  0.000000  0.238711  1
  Sr  Sr11  1  0.828124  0.186041  0.609548  1
  Sr  Sr12  1  0.313959  0.328124  0.609548  1
  Sr  Sr13  1  0.813232  0.829989  0.390426  1
  Sr  Sr14  1  0.812469  0.164761  0.890751  1
  Sr  Sr15  1  0.825570  0.822132  0.109030  1
  Sr  Sr16  1  0.000000  0.500000  0.271288  1
  Sr  Sr17  1  0.000000  0.500000  0.758898  1
  Sr  Sr18  1  0.677868  0.325570  0.109030  1
  Sr  Sr19  1  0.686041  0.671876  0.609548  1
  Si  Si20  1  0.107723  0.110575  0.751969  1
  Si  Si21  1  0.389425  0.607723  0.751969  1
  Si  Si22  1  0.610584  0.607475  0.248077  1
  Si  Si23  1  0.500000  0.000000  0.006839  1
  Si  Si24  1  0.107475  0.889416  0.248077  1
  Si  Si25  1  0.610575  0.392277  0.751969  1
  Si  Si26  1  0.892277  0.889425  0.751969  1
  Si  Si27  1  0.389416  0.392525  0.248077  1
  Si  Si28  1  0.892525  0.110584  0.248077  1
  Si  Si29  1  0.500000  0.000000  0.505363  1
  Si  Si30  1  0.000000  0.500000  0.495714  1
  Se  Se31  1  0.000000  0.500000  0.991085  1
