# generated using pymatgen
data_YbEr6Tm(B6Os)4
_symmetry_space_group_name_H-M   'P 1'
_cell_length_a   3.63011800
_cell_length_b   9.10440400
_cell_length_c   11.48714806
_cell_angle_alpha   89.91815313
_cell_angle_beta   90.00000000
_cell_angle_gamma   90.00000000
_symmetry_Int_Tables_number   1
_chemical_formula_structural   YbEr6Tm(B6Os)4
_chemical_formula_sum   'Yb1 Er6 Tm1 B24 Os4'
_cell_volume   379.65055485
_cell_formula_units_Z   1
loop_
 _symmetry_equiv_pos_site_id
 _symmetry_equiv_pos_as_xyz
  1  'x, y, z'
loop_
 _atom_site_type_symbol
 _atom_site_label
 _atom_site_symmetry_multiplicity
 _atom_site_fract_x
 _atom_site_fract_y
 _atom_site_fract_z
 _atom_site_occupancy
  Yb  Yb0  1  0.000000  0.322720  0.413463  1
  Er  Er1  1  0.000000  0.676627  0.585235  1
  Er  Er2  1  0.000000  0.821780  0.086466  1
  Er  Er3  1  0.000000  0.178795  0.914366  1
  Er  Er4  1  0.000000  0.944130  0.371867  1
  Er  Er5  1  0.000000  0.057622  0.627434  1
  Er  Er6  1  0.000000  0.443267  0.128480  1
  Tm  Tm7  1  0.000000  0.556041  0.872898  1
  B  B8  1  0.500000  0.553792  0.432865  1
  B  B9  1  0.500000  0.446239  0.567204  1
  B  B10  1  0.500000  0.052963  0.066227  1
  B  B11  1  0.500000  0.946147  0.932869  1
  B  B12  1  0.500000  0.748608  0.419551  1
  B  B13  1  0.500000  0.251964  0.580858  1
  B  B14  1  0.500000  0.247777  0.080150  1
  B  B15  1  0.500000  0.751322  0.919921  1
  B  B16  1  0.500000  0.791711  0.266049  1
  B  B17  1  0.500000  0.209403  0.734354  1
  B  B18  1  0.500000  0.290184  0.233492  1
  B  B19  1  0.500000  0.708733  0.766372  1
  B  B20  1  0.500000  0.631832  0.185675  1
  B  B21  1  0.500000  0.368941  0.815398  1
  B  B22  1  0.500000  0.130898  0.313995  1
  B  B23  1  0.500000  0.868678  0.685127  1
  B  B24  1  0.500000  0.982406  0.211951  1
  B  B25  1  0.500000  0.017411  0.787136  1
  B  B26  1  0.500000  0.483158  0.287423  1
  B  B27  1  0.500000  0.517416  0.713150  1
  B  B28  1  0.500000  0.607214  0.029669  1
  B  B29  1  0.500000  0.393264  0.970561  1
  B  B30  1  0.500000  0.103435  0.471209  1
  B  B31  1  0.500000  0.895048  0.529080  1
  Os  Os32  1  0.000000  0.639281  0.320636  1
  Os  Os33  1  0.000000  0.362621  0.680275  1
  Os  Os34  1  0.000000  0.136258  0.177280  1
  Os  Os35  1  0.000000  0.862312  0.821312  1
