# generated using pymatgen
data_Nd8GePtBr12
_symmetry_space_group_name_H-M   'P 1'
_cell_length_a   4.20279800
_cell_length_b   13.81508290
_cell_length_c   14.67896387
_cell_angle_alpha   90.59091102
_cell_angle_beta   90.00000000
_cell_angle_gamma   90.00000000
_symmetry_Int_Tables_number   1
_chemical_formula_structural   Nd8GePtBr12
_chemical_formula_sum   'Nd8 Ge1 Pt1 Br12'
_cell_volume   852.24471473
_cell_formula_units_Z   1
loop_
 _symmetry_equiv_pos_site_id
 _symmetry_equiv_pos_as_xyz
  1  'x, y, z'
loop_
 _atom_site_type_symbol
 _atom_site_label
 _atom_site_symmetry_multiplicity
 _atom_site_fract_x
 _atom_site_fract_y
 _atom_site_fract_z
 _atom_site_occupancy
  Nd  Nd0  1  0.500000  0.121238  0.337036  1
  Nd  Nd1  1  0.500000  0.878762  0.662964  1
  Nd  Nd2  1  0.500000  0.619622  0.161080  1
  Nd  Nd3  1  0.500000  0.380378  0.838920  1
  Nd  Nd4  1  0.000000  0.116094  0.576750  1
  Nd  Nd5  1  0.000000  0.883906  0.423250  1
  Nd  Nd6  1  0.000000  0.619601  0.921529  1
  Nd  Nd7  1  0.000000  0.380399  0.078471  1
  Ge  Ge8  1  0.500000  0.500000  0.000000  1
  Pt  Pt9  1  0.500000  0.000000  0.500000  1
  Br  Br10  1  0.500000  0.245608  0.161976  1
  Br  Br11  1  0.500000  0.754392  0.838024  1
  Br  Br12  1  0.500000  0.742851  0.336055  1
  Br  Br13  1  0.500000  0.257149  0.663945  1
  Br  Br14  1  0.000000  0.255074  0.410597  1
  Br  Br15  1  0.000000  0.744926  0.589403  1
  Br  Br16  1  0.000000  0.753254  0.089281  1
  Br  Br17  1  0.000000  0.246746  0.910719  1
  Br  Br18  1  0.000000  0.002080  0.243450  1
  Br  Br19  1  0.000000  0.997920  0.756550  1
  Br  Br20  1  0.000000  0.501852  0.253867  1
  Br  Br21  1  0.000000  0.498148  0.746133  1
