# generated using pymatgen
data_Ho9Si16W11
_symmetry_space_group_name_H-M   'P 1'
_cell_length_a   6.92461773
_cell_length_b   6.92461704
_cell_length_c   12.85069581
_cell_angle_alpha   90.05517353
_cell_angle_beta   89.94482409
_cell_angle_gamma   89.93725695
_symmetry_Int_Tables_number   1
_chemical_formula_structural   Ho9Si16W11
_chemical_formula_sum   'Ho9 Si16 W11'
_cell_volume   616.19411102
_cell_formula_units_Z   1
loop_
 _symmetry_equiv_pos_site_id
 _symmetry_equiv_pos_as_xyz
  1  'x, y, z'
loop_
 _atom_site_type_symbol
 _atom_site_label
 _atom_site_symmetry_multiplicity
 _atom_site_fract_x
 _atom_site_fract_y
 _atom_site_fract_z
 _atom_site_occupancy
  Ho  Ho0  1  0.333745  0.001236  0.469021  1
  Ho  Ho1  1  0.498934  0.839479  0.720801  1
  Ho  Ho2  1  0.495973  0.162993  0.217106  1
  Ho  Ho3  1  0.839479  0.498934  0.279199  1
  Ho  Ho4  1  0.162993  0.495973  0.782894  1
  Ho  Ho5  1  0.663238  0.001994  0.969046  1
  Ho  Ho6  1  0.001236  0.333745  0.530979  1
  Ho  Ho7  1  0.001994  0.663238  0.030954  1
  Ho  Ho8  1  0.668294  0.668294  0.500000  1
  Si  Si9  1  0.200312  0.126096  0.683589  1
  Si  Si10  1  0.375088  0.700937  0.933257  1
  Si  Si11  1  0.626172  0.287229  0.431320  1
  Si  Si12  1  0.700937  0.375088  0.066743  1
  Si  Si13  1  0.287229  0.626172  0.568680  1
  Si  Si14  1  0.798063  0.875188  0.183606  1
  Si  Si15  1  0.126096  0.200312  0.316411  1
  Si  Si16  1  0.875188  0.798063  0.816394  1
  Si  Si17  1  0.287582  0.966014  0.062404  1
  Si  Si18  1  0.529696  0.792029  0.307938  1
  Si  Si19  1  0.463664  0.210759  0.813672  1
  Si  Si20  1  0.792029  0.529696  0.692062  1
  Si  Si21  1  0.210759  0.463664  0.186328  1
  Si  Si22  1  0.709996  0.048215  0.567996  1
  Si  Si23  1  0.966014  0.287582  0.937596  1
  Si  Si24  1  0.048215  0.709996  0.432004  1
  W  W25  1  0.332915  0.332915  0.000000  1
  W  W26  1  0.167325  0.836039  0.245338  1
  W  W27  1  0.836039  0.167325  0.754662  1
  W  W28  1  0.166036  0.998189  0.872962  1
  W  W29  1  0.497056  0.666270  0.122043  1
  W  W30  1  0.497285  0.338192  0.625265  1
  W  W31  1  0.666270  0.497056  0.877957  1
  W  W32  1  0.338192  0.497285  0.374735  1
  W  W33  1  0.838071  0.999692  0.372757  1
  W  W34  1  0.998189  0.166036  0.127038  1
  W  W35  1  0.999692  0.838071  0.627243  1
