# generated using pymatgen
data_Th3Co10GeB4
_symmetry_space_group_name_H-M   'P 1'
_cell_length_a   5.12805700
_cell_length_b   5.12805583
_cell_length_c   9.85657500
_cell_angle_alpha   90.00000000
_cell_angle_beta   90.00000000
_cell_angle_gamma   120.00001397
_symmetry_Int_Tables_number   1
_chemical_formula_structural   Th3Co10GeB4
_chemical_formula_sum   'Th3 Co10 Ge1 B4'
_cell_volume   224.47200746
_cell_formula_units_Z   1
loop_
 _symmetry_equiv_pos_site_id
 _symmetry_equiv_pos_as_xyz
  1  'x, y, z'
loop_
 _atom_site_type_symbol
 _atom_site_label
 _atom_site_symmetry_multiplicity
 _atom_site_fract_x
 _atom_site_fract_y
 _atom_site_fract_z
 _atom_site_occupancy
  Th  Th0  1  0.000000  0.000000  0.662377  1
  Th  Th1  1  0.000000  0.000000  0.337623  1
  Th  Th2  1  0.000000  0.000000  0.000000  1
  Co  Co3  1  0.500233  0.499767  0.500000  1
  Co  Co4  1  0.999534  0.499767  0.500000  1
  Co  Co5  1  0.501267  0.002535  0.204211  1
  Co  Co6  1  0.501267  0.498733  0.204211  1
  Co  Co7  1  0.997465  0.498733  0.204211  1
  Co  Co8  1  0.501267  0.002535  0.795789  1
  Co  Co9  1  0.501267  0.498733  0.795789  1
  Co  Co10  1  0.997465  0.498733  0.795789  1
  Co  Co11  1  0.666667  0.333333  0.000000  1
  Co  Co12  1  0.500233  0.000466  0.500000  1
  Ge  Ge13  1  0.333333  0.666667  0.000000  1
  B  B14  1  0.333333  0.666667  0.651587  1
  B  B15  1  0.666667  0.333333  0.651814  1
  B  B16  1  0.666667  0.333333  0.348186  1
  B  B17  1  0.333333  0.666667  0.348413  1
