# generated using pymatgen
data_La7Nd9Cd4RuPt3
_symmetry_space_group_name_H-M   'P 1'
_cell_length_a   10.07995806
_cell_length_b   10.08512333
_cell_length_c   10.12060434
_cell_angle_alpha   59.77674974
_cell_angle_beta   59.78566726
_cell_angle_gamma   59.80306252
_symmetry_Int_Tables_number   1
_chemical_formula_structural   La7Nd9Cd4RuPt3
_chemical_formula_sum   'La7 Nd9 Cd4 Ru1 Pt3'
_cell_volume   724.00397839
_cell_formula_units_Z   1
loop_
 _symmetry_equiv_pos_site_id
 _symmetry_equiv_pos_as_xyz
  1  'x, y, z'
loop_
 _atom_site_type_symbol
 _atom_site_label
 _atom_site_symmetry_multiplicity
 _atom_site_fract_x
 _atom_site_fract_y
 _atom_site_fract_z
 _atom_site_occupancy
  La  La0  1  0.350818  0.350589  0.351137  1
  La  La1  1  0.346184  0.344655  0.954547  1
  La  La2  1  0.347470  0.954157  0.346091  1
  La  La3  1  0.954830  0.346493  0.346932  1
  La  La4  1  0.818793  0.188865  0.186684  1
  La  La5  1  0.188442  0.809079  0.808496  1
  La  La6  1  0.188560  0.818261  0.189348  1
  Nd  Nd7  1  0.807192  0.190405  0.808199  1
  Nd  Nd8  1  0.190002  0.192934  0.811853  1
  Nd  Nd9  1  0.805736  0.807567  0.191172  1
  Nd  Nd10  1  0.933219  0.565235  0.566613  1
  Nd  Nd11  1  0.563280  0.935102  0.933346  1
  Nd  Nd12  1  0.565764  0.935330  0.564889  1
  Nd  Nd13  1  0.934863  0.561481  0.935138  1
  Nd  Nd14  1  0.565991  0.563763  0.935469  1
  Nd  Nd15  1  0.934381  0.936494  0.561440  1
  Cd  Cd16  1  0.581507  0.579140  0.579267  1
  Cd  Cd17  1  0.581869  0.581970  0.256595  1
  Cd  Cd18  1  0.580246  0.256723  0.582597  1
  Cd  Cd19  1  0.257164  0.579400  0.581730  1
  Ru  Ru20  1  0.138628  0.139606  0.147583  1
  Pt  Pt21  1  0.144815  0.143239  0.573834  1
  Pt  Pt22  1  0.145715  0.574322  0.142873  1
  Pt  Pt23  1  0.574528  0.145188  0.144169  1
