# generated using pymatgen
data_La2NdGaPd5
_symmetry_space_group_name_H-M   'P 1'
_cell_length_a   8.56936947
_cell_length_b   8.56936901
_cell_length_c   8.56936819
_cell_angle_alpha   128.12420532
_cell_angle_beta   126.02167886
_cell_angle_gamma   78.14359535
_symmetry_Int_Tables_number   1
_chemical_formula_structural   La2NdGaPd5
_chemical_formula_sum   'La4 Nd2 Ga2 Pd10'
_cell_volume   387.90806313
_cell_formula_units_Z   2
loop_
 _symmetry_equiv_pos_site_id
 _symmetry_equiv_pos_as_xyz
  1  'x, y, z'
loop_
 _atom_site_type_symbol
 _atom_site_label
 _atom_site_symmetry_multiplicity
 _atom_site_fract_x
 _atom_site_fract_y
 _atom_site_fract_z
 _atom_site_occupancy
  La  La0  1  0.181131  0.950466  0.230666  1
  La  La1  1  0.376958  0.250000  0.126958  1
  La  La2  1  0.780201  0.549534  0.230666  1
  La  La3  1  0.622791  0.750000  0.872791  1
  Nd  Nd4  1  0.818669  0.049845  0.768824  1
  Nd  Nd5  1  0.218978  0.450155  0.768824  1
  Ga  Ga6  1  0.221075  0.750000  0.471075  1
  Ga  Ga7  1  0.780340  0.250000  0.530340  1
  Pd  Pd8  1  0.832140  0.605016  0.643522  1
  Pd  Pd9  1  0.538507  0.311382  0.643522  1
  Pd  Pd10  1  0.460960  0.104678  0.772525  1
  Pd  Pd11  1  0.832140  0.188618  0.227124  1
  Pd  Pd12  1  0.167847  0.395322  0.356282  1
  Pd  Pd13  1  0.460960  0.688435  0.356282  1
  Pd  Pd14  1  0.538507  0.894984  0.227124  1
  Pd  Pd15  1  0.167847  0.811565  0.772525  1
  Pd  Pd16  1  0.000475  0.000685  0.501159  1
  Pd  Pd17  1  0.000475  0.499315  0.999790  1
