# generated using pymatgen
data_Ho2Tm3(In2Ni)2
_symmetry_space_group_name_H-M   'P 1'
_cell_length_a   3.56952300
_cell_length_b   7.96309228
_cell_length_c   17.83216814
_cell_angle_alpha   89.94097343
_cell_angle_beta   90.00000000
_cell_angle_gamma   90.00000000
_symmetry_Int_Tables_number   1
_chemical_formula_structural   Ho2Tm3(In2Ni)2
_chemical_formula_sum   'Ho4 Tm6 In8 Ni4'
_cell_volume   506.86914261
_cell_formula_units_Z   2
loop_
 _symmetry_equiv_pos_site_id
 _symmetry_equiv_pos_as_xyz
  1  'x, y, z'
loop_
 _atom_site_type_symbol
 _atom_site_label
 _atom_site_symmetry_multiplicity
 _atom_site_fract_x
 _atom_site_fract_y
 _atom_site_fract_z
 _atom_site_occupancy
  Ho  Ho0  1  0.000000  0.500000  0.500000  1
  Ho  Ho1  1  0.000000  0.000000  0.000000  1
  Ho  Ho2  1  0.000000  0.745942  0.277983  1
  Ho  Ho3  1  0.000000  0.254058  0.722017  1
  Tm  Tm4  1  0.000000  0.753920  0.777963  1
  Tm  Tm5  1  0.000000  0.246080  0.222037  1
  Tm  Tm6  1  0.000000  0.616569  0.088606  1
  Tm  Tm7  1  0.000000  0.383431  0.911394  1
  Tm  Tm8  1  0.000000  0.883103  0.588625  1
  Tm  Tm9  1  0.000000  0.116897  0.411375  1
  In  In10  1  0.500000  0.704807  0.930963  1
  In  In11  1  0.500000  0.295193  0.069037  1
  In  In12  1  0.500000  0.795615  0.431224  1
  In  In13  1  0.500000  0.204385  0.568776  1
  In  In14  1  0.500000  0.574298  0.652045  1
  In  In15  1  0.500000  0.425702  0.347955  1
  In  In16  1  0.500000  0.926898  0.151780  1
  In  In17  1  0.500000  0.073102  0.848220  1
  Ni  Ni18  1  0.500000  0.523531  0.195144  1
  Ni  Ni19  1  0.500000  0.476469  0.804856  1
  Ni  Ni20  1  0.500000  0.973981  0.695469  1
  Ni  Ni21  1  0.500000  0.026019  0.304531  1
