# generated using pymatgen
data_HfZrU2(NiP)6
_symmetry_space_group_name_H-M   'P 1'
_cell_length_a   3.71458000
_cell_length_b   10.12849903
_cell_length_c   12.45623261
_cell_angle_alpha   90.22260053
_cell_angle_beta   90.00000000
_cell_angle_gamma   90.00000000
_symmetry_Int_Tables_number   1
_chemical_formula_structural   HfZrU2(NiP)6
_chemical_formula_sum   'Hf2 Zr2 U4 Ni12 P12'
_cell_volume   468.63879611
_cell_formula_units_Z   2
loop_
 _symmetry_equiv_pos_site_id
 _symmetry_equiv_pos_as_xyz
  1  'x, y, z'
loop_
 _atom_site_type_symbol
 _atom_site_label
 _atom_site_symmetry_multiplicity
 _atom_site_fract_x
 _atom_site_fract_y
 _atom_site_fract_z
 _atom_site_occupancy
  Hf  Hf0  1  0.250000  0.162076  0.497077  1
  Hf  Hf1  1  0.750000  0.837924  0.502923  1
  Zr  Zr2  1  0.750000  0.661983  0.002933  1
  Zr  Zr3  1  0.250000  0.338017  0.997067  1
  U  U4  1  0.250000  0.068754  0.210151  1
  U  U5  1  0.750000  0.931246  0.789849  1
  U  U6  1  0.750000  0.568392  0.291919  1
  U  U7  1  0.250000  0.431608  0.708081  1
  Ni  Ni8  1  0.250000  0.726370  0.662137  1
  Ni  Ni9  1  0.750000  0.273630  0.337863  1
  Ni  Ni10  1  0.750000  0.225596  0.835592  1
  Ni  Ni11  1  0.250000  0.774404  0.164408  1
  Ni  Ni12  1  0.250000  0.361979  0.215734  1
  Ni  Ni13  1  0.750000  0.638021  0.784266  1
  Ni  Ni14  1  0.750000  0.862382  0.286768  1
  Ni  Ni15  1  0.250000  0.137618  0.713232  1
  Ni  Ni16  1  0.250000  0.598905  0.486386  1
  Ni  Ni17  1  0.750000  0.401095  0.513614  1
  Ni  Ni18  1  0.750000  0.098165  0.012059  1
  Ni  Ni19  1  0.250000  0.901835  0.987941  1
  P  P20  1  0.250000  0.944229  0.622209  1
  P  P21  1  0.750000  0.055771  0.377791  1
  P  P22  1  0.750000  0.444011  0.874684  1
  P  P23  1  0.250000  0.555989  0.125316  1
  P  P24  1  0.250000  0.394738  0.401238  1
  P  P25  1  0.750000  0.605262  0.598762  1
  P  P26  1  0.750000  0.896477  0.100587  1
  P  P27  1  0.250000  0.103523  0.899413  1
  P  P28  1  0.250000  0.763463  0.356097  1
  P  P29  1  0.750000  0.236537  0.643903  1
  P  P30  1  0.750000  0.261683  0.145954  1
  P  P31  1  0.250000  0.738317  0.854046  1
