# generated using pymatgen
data_NaNd(CuO2)4
_symmetry_space_group_name_H-M   'P 1'
_cell_length_a   6.29089570
_cell_length_b   6.29089631
_cell_length_c   6.29089574
_cell_angle_alpha   124.65467774
_cell_angle_beta   124.65467071
_cell_angle_gamma   82.11078817
_symmetry_Int_Tables_number   1
_chemical_formula_structural   NaNd(CuO2)4
_chemical_formula_sum   'Na1 Nd1 Cu4 O8'
_cell_volume   161.96940634
_cell_formula_units_Z   1
loop_
 _symmetry_equiv_pos_site_id
 _symmetry_equiv_pos_as_xyz
  1  'x, y, z'
loop_
 _atom_site_type_symbol
 _atom_site_label
 _atom_site_symmetry_multiplicity
 _atom_site_fract_x
 _atom_site_fract_y
 _atom_site_fract_z
 _atom_site_occupancy
  Na  Na0  1  0.000000  0.000000  0.000000  1
  Nd  Nd1  1  0.750000  0.250000  0.500000  1
  Cu  Cu2  1  0.381996  0.124118  0.755016  1
  Cu  Cu3  1  0.369101  0.626979  0.244984  1
  Cu  Cu4  1  0.875882  0.630899  0.257878  1
  Cu  Cu5  1  0.373021  0.618004  0.742122  1
  O  O6  1  0.174748  0.584133  0.859831  1
  O  O7  1  0.724303  0.314918  0.140169  1
  O  O8  1  0.567062  0.650544  0.619249  1
  O  O9  1  0.031295  0.947813  0.380751  1
  O  O10  1  0.349456  0.968705  0.916518  1
  O  O11  1  0.052187  0.432938  0.083482  1
  O  O12  1  0.685082  0.825252  0.409385  1
  O  O13  1  0.415867  0.275697  0.590615  1
