# generated using pymatgen
data_Ho5Bi2Ir
_symmetry_space_group_name_H-M   'P 1'
_cell_length_a   7.96649000
_cell_length_b   8.99259300
_cell_length_c   12.49623100
_cell_angle_alpha   90.00000000
_cell_angle_beta   90.00000000
_cell_angle_gamma   90.00000000
_symmetry_Int_Tables_number   1
_chemical_formula_structural   Ho5Bi2Ir
_chemical_formula_sum   'Ho20 Bi8 Ir4'
_cell_volume   895.22251870
_cell_formula_units_Z   4
loop_
 _symmetry_equiv_pos_site_id
 _symmetry_equiv_pos_as_xyz
  1  'x, y, z'
loop_
 _atom_site_type_symbol
 _atom_site_label
 _atom_site_symmetry_multiplicity
 _atom_site_fract_x
 _atom_site_fract_y
 _atom_site_fract_z
 _atom_site_occupancy
  Ho  Ho0  1  0.839332  0.750000  0.794381  1
  Ho  Ho1  1  0.160668  0.250000  0.205619  1
  Ho  Ho2  1  0.339332  0.250000  0.705619  1
  Ho  Ho3  1  0.660668  0.750000  0.294381  1
  Ho  Ho4  1  0.375407  0.750000  0.690720  1
  Ho  Ho5  1  0.624593  0.250000  0.309280  1
  Ho  Ho6  1  0.875407  0.250000  0.809280  1
  Ho  Ho7  1  0.124593  0.750000  0.190720  1
  Ho  Ho8  1  0.948293  0.750000  0.501764  1
  Ho  Ho9  1  0.051707  0.250000  0.498236  1
  Ho  Ho10  1  0.448293  0.250000  0.998236  1
  Ho  Ho11  1  0.551707  0.750000  0.001764  1
  Ho  Ho12  1  0.676020  0.041747  0.566087  1
  Ho  Ho13  1  0.323980  0.958253  0.433913  1
  Ho  Ho14  1  0.176020  0.958253  0.933913  1
  Ho  Ho15  1  0.323980  0.541747  0.433913  1
  Ho  Ho16  1  0.823980  0.041747  0.066087  1
  Ho  Ho17  1  0.676020  0.458253  0.566087  1
  Ho  Ho18  1  0.823980  0.458253  0.066087  1
  Ho  Ho19  1  0.176020  0.541747  0.933913  1
  Bi  Bi20  1  0.566365  0.491808  0.826341  1
  Bi  Bi21  1  0.433635  0.508192  0.173659  1
  Bi  Bi22  1  0.066365  0.508192  0.673659  1
  Bi  Bi23  1  0.433635  0.991808  0.173659  1
  Bi  Bi24  1  0.933635  0.491808  0.326341  1
  Bi  Bi25  1  0.566365  0.008192  0.826341  1
  Bi  Bi26  1  0.933635  0.008192  0.326341  1
  Bi  Bi27  1  0.066365  0.991808  0.673659  1
  Ir  Ir28  1  0.571558  0.750000  0.508569  1
  Ir  Ir29  1  0.428442  0.250000  0.491431  1
  Ir  Ir30  1  0.071558  0.250000  0.991431  1
  Ir  Ir31  1  0.928442  0.750000  0.008569  1
