# generated using pymatgen
data_Dy3Sc(Si5Pt3)2
_symmetry_space_group_name_H-M   'P 1'
_cell_length_a   8.13421350
_cell_length_b   8.13524924
_cell_length_c   8.13524872
_cell_angle_alpha   136.36405304
_cell_angle_beta   104.37418602
_cell_angle_gamma   91.60694339
_symmetry_Int_Tables_number   1
_chemical_formula_structural   Dy3Sc(Si5Pt3)2
_chemical_formula_sum   'Dy3 Sc1 Si10 Pt6'
_cell_volume   342.05134136
_cell_formula_units_Z   1
loop_
 _symmetry_equiv_pos_site_id
 _symmetry_equiv_pos_as_xyz
  1  'x, y, z'
loop_
 _atom_site_type_symbol
 _atom_site_label
 _atom_site_symmetry_multiplicity
 _atom_site_fract_x
 _atom_site_fract_y
 _atom_site_fract_z
 _atom_site_occupancy
  Dy  Dy0  1  0.858698  0.629204  0.229494  1
  Dy  Dy1  1  0.141440  0.370479  0.770963  1
  Dy  Dy2  1  0.401185  0.129776  0.271409  1
  Sc  Sc3  1  0.595169  0.870064  0.725103  1
  Si  Si4  1  0.500401  0.749731  0.250526  1
  Si  Si5  1  0.500401  0.249876  0.750671  1
  Si  Si6  1  0.229186  0.979646  0.751290  1
  Si  Si7  1  0.771599  0.521840  0.749686  1
  Si  Si8  1  0.771599  0.021914  0.249759  1
  Si  Si9  1  0.229186  0.477897  0.249541  1
  Si  Si10  1  0.038978  0.887895  0.151084  1
  Si  Si11  1  0.956281  0.108153  0.848127  1
  Si  Si12  1  0.736209  0.387355  0.348854  1
  Si  Si13  1  0.266867  0.615090  0.651778  1
  Pt  Pt14  1  0.000379  0.747994  0.748345  1
  Pt  Pt15  1  0.000379  0.252034  0.252385  1
  Pt  Pt16  1  0.249762  0.862532  0.387231  1
  Pt  Pt17  1  0.749939  0.136437  0.613501  1
  Pt  Pt18  1  0.477133  0.363091  0.114042  1
  Pt  Pt19  1  0.525208  0.638994  0.886214  1
