# generated using pymatgen
data_Th3B2C2N
_symmetry_space_group_name_H-M   'P 1'
_cell_length_a   3.77067900
_cell_length_b   3.59725658
_cell_length_c   9.19924610
_cell_angle_alpha   79.05217891
_cell_angle_beta   90.00000000
_cell_angle_gamma   90.00000000
_symmetry_Int_Tables_number   1
_chemical_formula_structural   Th3B2C2N
_chemical_formula_sum   'Th3 B2 C2 N1'
_cell_volume   122.50857382
_cell_formula_units_Z   1
loop_
 _symmetry_equiv_pos_site_id
 _symmetry_equiv_pos_as_xyz
  1  'x, y, z'
loop_
 _atom_site_type_symbol
 _atom_site_label
 _atom_site_symmetry_multiplicity
 _atom_site_fract_x
 _atom_site_fract_y
 _atom_site_fract_z
 _atom_site_occupancy
  Th  Th0  1  0.000000  0.000000  0.000000  1
  Th  Th1  1  0.500000  0.650135  0.692929  1
  Th  Th2  1  0.500000  0.349865  0.307071  1
  B  B3  1  0.000000  0.213939  0.551054  1
  B  B4  1  0.000000  0.786061  0.448946  1
  C  C5  1  0.000000  0.133424  0.725101  1
  C  C6  1  0.000000  0.866576  0.274899  1
  N  N7  1  0.500000  0.500000  0.000000  1
