# generated using pymatgen
data_DyHo3ZnCo
_symmetry_space_group_name_H-M   'P 1'
_cell_length_a   9.30384693
_cell_length_b   9.30408512
_cell_length_c   9.30420800
_cell_angle_alpha   60.00031654
_cell_angle_beta   59.99944219
_cell_angle_gamma   59.99918364
_symmetry_Int_Tables_number   1
_chemical_formula_structural   DyHo3ZnCo
_chemical_formula_sum   'Dy4 Ho12 Zn4 Co4'
_cell_volume   569.50451648
_cell_formula_units_Z   4
loop_
 _symmetry_equiv_pos_site_id
 _symmetry_equiv_pos_as_xyz
  1  'x, y, z'
loop_
 _atom_site_type_symbol
 _atom_site_label
 _atom_site_symmetry_multiplicity
 _atom_site_fract_x
 _atom_site_fract_y
 _atom_site_fract_z
 _atom_site_occupancy
  Dy  Dy0  1  0.350181  0.350132  0.350129  1
  Dy  Dy1  1  0.350157  0.350103  0.949593  1
  Dy  Dy2  1  0.350153  0.949598  0.350102  1
  Dy  Dy3  1  0.949578  0.350124  0.350125  1
  Ho  Ho4  1  0.809536  0.190405  0.190432  1
  Ho  Ho5  1  0.190416  0.809561  0.809571  1
  Ho  Ho6  1  0.190409  0.809573  0.190435  1
  Ho  Ho7  1  0.809535  0.190393  0.809638  1
  Ho  Ho8  1  0.190435  0.190431  0.809569  1
  Ho  Ho9  1  0.809529  0.809632  0.190413  1
  Ho  Ho10  1  0.937779  0.562232  0.562224  1
  Ho  Ho11  1  0.562268  0.937777  0.937763  1
  Ho  Ho12  1  0.562245  0.937786  0.562205  1
  Ho  Ho13  1  0.937765  0.562268  0.937753  1
  Ho  Ho14  1  0.562235  0.562209  0.937780  1
  Ho  Ho15  1  0.937763  0.937767  0.562259  1
  Zn  Zn16  1  0.577724  0.577731  0.577729  1
  Zn  Zn17  1  0.577730  0.577723  0.266817  1
  Zn  Zn18  1  0.577723  0.266818  0.577724  1
  Zn  Zn19  1  0.266825  0.577720  0.577728  1
  Co  Co20  1  0.141682  0.141682  0.141676  1
  Co  Co21  1  0.141681  0.141677  0.574979  1
  Co  Co22  1  0.141679  0.574979  0.141675  1
  Co  Co23  1  0.574971  0.141680  0.141680  1
