# generated using pymatgen
data_Tb4YBi2Os
_symmetry_space_group_name_H-M   'P 1'
_cell_length_a   8.00060900
_cell_length_b   9.05994500
_cell_length_c   12.53196700
_cell_angle_alpha   90.00000000
_cell_angle_beta   90.00000000
_cell_angle_gamma   90.00000000
_symmetry_Int_Tables_number   1
_chemical_formula_structural   Tb4YBi2Os
_chemical_formula_sum   'Tb16 Y4 Bi8 Os4'
_cell_volume   908.38059930
_cell_formula_units_Z   4
loop_
 _symmetry_equiv_pos_site_id
 _symmetry_equiv_pos_as_xyz
  1  'x, y, z'
loop_
 _atom_site_type_symbol
 _atom_site_label
 _atom_site_symmetry_multiplicity
 _atom_site_fract_x
 _atom_site_fract_y
 _atom_site_fract_z
 _atom_site_occupancy
  Tb  Tb0  1  0.374955  0.750000  0.694027  1
  Tb  Tb1  1  0.625045  0.250000  0.305973  1
  Tb  Tb2  1  0.874955  0.250000  0.805973  1
  Tb  Tb3  1  0.125045  0.750000  0.194027  1
  Tb  Tb4  1  0.942069  0.750000  0.503881  1
  Tb  Tb5  1  0.057931  0.250000  0.496119  1
  Tb  Tb6  1  0.442069  0.250000  0.996119  1
  Tb  Tb7  1  0.557931  0.750000  0.003881  1
  Tb  Tb8  1  0.674832  0.042410  0.563419  1
  Tb  Tb9  1  0.325168  0.957590  0.436581  1
  Tb  Tb10  1  0.174832  0.957590  0.936581  1
  Tb  Tb11  1  0.325168  0.542410  0.436581  1
  Tb  Tb12  1  0.825168  0.042410  0.063419  1
  Tb  Tb13  1  0.674832  0.457590  0.563419  1
  Tb  Tb14  1  0.825168  0.457590  0.063419  1
  Tb  Tb15  1  0.174832  0.542410  0.936581  1
  Y  Y16  1  0.841245  0.750000  0.790513  1
  Y  Y17  1  0.158755  0.250000  0.209487  1
  Y  Y18  1  0.341245  0.250000  0.709487  1
  Y  Y19  1  0.658755  0.750000  0.290513  1
  Bi  Bi20  1  0.569621  0.493087  0.828060  1
  Bi  Bi21  1  0.430379  0.506913  0.171940  1
  Bi  Bi22  1  0.069621  0.506913  0.671940  1
  Bi  Bi23  1  0.430379  0.993087  0.171940  1
  Bi  Bi24  1  0.930379  0.493087  0.328060  1
  Bi  Bi25  1  0.569621  0.006913  0.828060  1
  Bi  Bi26  1  0.930379  0.006913  0.328060  1
  Bi  Bi27  1  0.069621  0.993087  0.671940  1
  Os  Os28  1  0.576423  0.750000  0.511937  1
  Os  Os29  1  0.423577  0.250000  0.488063  1
  Os  Os30  1  0.076423  0.250000  0.988063  1
  Os  Os31  1  0.923577  0.750000  0.011937  1
