# generated using pymatgen
data_Ca2FeCo(SiO4)2
_symmetry_space_group_name_H-M   'P 1'
_cell_length_a   4.89675777
_cell_length_b   6.46968200
_cell_length_c   11.28101295
_cell_angle_alpha   90.00000000
_cell_angle_beta   89.51176551
_cell_angle_gamma   90.00000000
_symmetry_Int_Tables_number   1
_chemical_formula_structural   Ca2FeCo(SiO4)2
_chemical_formula_sum   'Ca4 Fe2 Co2 Si4 O16'
_cell_volume   357.37476774
_cell_formula_units_Z   2
loop_
 _symmetry_equiv_pos_site_id
 _symmetry_equiv_pos_as_xyz
  1  'x, y, z'
loop_
 _atom_site_type_symbol
 _atom_site_label
 _atom_site_symmetry_multiplicity
 _atom_site_fract_x
 _atom_site_fract_y
 _atom_site_fract_z
 _atom_site_occupancy
  Ca  Ca0  1  0.477443  0.749999  0.225411  1
  Ca  Ca1  1  0.980050  0.249999  0.278294  1
  Ca  Ca2  1  0.019951  0.749999  0.721707  1
  Ca  Ca3  1  0.522558  0.249999  0.774589  1
  Fe  Fe4  1  0.000000  0.000000  0.000000  1
  Fe  Fe5  1  0.000000  0.500000  0.000000  1
  Co  Co6  1  0.500001  0.000000  0.500000  1
  Co  Co7  1  0.500001  0.500000  0.500000  1
  Si  Si8  1  0.415384  0.249999  0.084129  1
  Si  Si9  1  0.911113  0.749999  0.419170  1
  Si  Si10  1  0.088886  0.249999  0.580830  1
  Si  Si11  1  0.584615  0.749999  0.915872  1
  O  O12  1  0.727409  0.749999  0.049646  1
  O  O13  1  0.751856  0.249999  0.080372  1
  O  O14  1  0.280656  0.046388  0.151395  1
  O  O15  1  0.280656  0.453611  0.151395  1
  O  O16  1  0.777723  0.546202  0.352229  1
  O  O17  1  0.777723  0.953799  0.352229  1
  O  O18  1  0.246676  0.749999  0.422380  1
  O  O19  1  0.244368  0.249999  0.448357  1
  O  O20  1  0.755633  0.749999  0.551643  1
  O  O21  1  0.753325  0.249999  0.577619  1
  O  O22  1  0.222278  0.046202  0.647771  1
  O  O23  1  0.222278  0.453797  0.647771  1
  O  O24  1  0.719345  0.546388  0.848605  1
  O  O25  1  0.719345  0.953613  0.848605  1
  O  O26  1  0.248146  0.749999  0.919628  1
  O  O27  1  0.272591  0.249999  0.950354  1
