# generated using pymatgen
data_ErTm9(InBi2)2
_symmetry_space_group_name_H-M   'P 1'
_cell_length_a   6.45062400
_cell_length_b   8.99660623
_cell_length_c   8.96582079
_cell_angle_alpha   120.11364826
_cell_angle_beta   89.99992894
_cell_angle_gamma   90.00013757
_symmetry_Int_Tables_number   1
_chemical_formula_structural   ErTm9(InBi2)2
_chemical_formula_sum   'Er1 Tm9 In2 Bi4'
_cell_volume   450.09338900
_cell_formula_units_Z   1
loop_
 _symmetry_equiv_pos_site_id
 _symmetry_equiv_pos_as_xyz
  1  'x, y, z'
loop_
 _atom_site_type_symbol
 _atom_site_label
 _atom_site_symmetry_multiplicity
 _atom_site_fract_x
 _atom_site_fract_y
 _atom_site_fract_z
 _atom_site_occupancy
  Er  Er0  1  0.750002  0.236277  0.000000  1
  Tm  Tm1  1  0.496754  0.331450  0.659821  1
  Tm  Tm2  1  0.496754  0.671629  0.340179  1
  Tm  Tm3  1  0.003244  0.671628  0.340180  1
  Tm  Tm4  1  0.003244  0.331447  0.659820  1
  Tm  Tm5  1  0.750000  0.766350  0.763847  1
  Tm  Tm6  1  0.750000  0.002503  0.236153  1
  Tm  Tm7  1  0.250002  0.767669  0.000000  1
  Tm  Tm8  1  0.249999  0.232360  0.242374  1
  Tm  Tm9  1  0.249999  0.989986  0.757626  1
  In  In10  1  0.250000  0.603568  0.605676  1
  In  In11  1  0.250000  0.997892  0.394324  1
  Bi  Bi12  1  0.750002  0.606716  0.000000  1
  Bi  Bi13  1  0.749998  0.397352  0.393937  1
  Bi  Bi14  1  0.749998  0.003414  0.606063  1
  Bi  Bi15  1  0.250003  0.389761  0.000000  1
