# generated using pymatgen
data_Nd4ThSiSe4
_symmetry_space_group_name_H-M   'P 1'
_cell_length_a   7.35675859
_cell_length_b   7.35675827
_cell_length_c   7.35675926
_cell_angle_alpha   99.53409630
_cell_angle_beta   99.53409966
_cell_angle_gamma   131.96920216
_symmetry_Int_Tables_number   1
_chemical_formula_structural   Nd4ThSiSe4
_chemical_formula_sum   'Nd4 Th1 Si1 Se4'
_cell_volume   270.40904679
_cell_formula_units_Z   1
loop_
 _symmetry_equiv_pos_site_id
 _symmetry_equiv_pos_as_xyz
  1  'x, y, z'
loop_
 _atom_site_type_symbol
 _atom_site_label
 _atom_site_symmetry_multiplicity
 _atom_site_fract_x
 _atom_site_fract_y
 _atom_site_fract_z
 _atom_site_occupancy
  Nd  Nd0  1  0.404660  0.789202  0.193861  1
  Nd  Nd1  1  0.595340  0.210798  0.806139  1
  Nd  Nd2  1  0.210798  0.404660  0.615458  1
  Nd  Nd3  1  0.789202  0.595340  0.384542  1
  Th  Th4  1  0.000000  0.000000  0.000000  1
  Si  Si5  1  0.500000  0.500000  0.000000  1
  Se  Se6  1  0.096927  0.699837  0.796763  1
  Se  Se7  1  0.699837  0.903073  0.602908  1
  Se  Se8  1  0.300163  0.096927  0.397092  1
  Se  Se9  1  0.903073  0.300163  0.203237  1
