# generated using pymatgen
data_Cs2HgTe2
_symmetry_space_group_name_H-M   'P 1'
_cell_length_a   7.72144279
_cell_length_b   8.01579439
_cell_length_c   9.55721626
_cell_angle_alpha   114.79408719
_cell_angle_beta   113.82589762
_cell_angle_gamma   89.99999576
_symmetry_Int_Tables_number   1
_chemical_formula_structural   Cs2HgTe2
_chemical_formula_sum   'Cs4 Hg2 Te4'
_cell_volume   480.90872892
_cell_formula_units_Z   2
loop_
 _symmetry_equiv_pos_site_id
 _symmetry_equiv_pos_as_xyz
  1  'x, y, z'
loop_
 _atom_site_type_symbol
 _atom_site_label
 _atom_site_symmetry_multiplicity
 _atom_site_fract_x
 _atom_site_fract_y
 _atom_site_fract_z
 _atom_site_occupancy
  Cs  Cs0  1  0.641328  0.461225  0.282655  1
  Cs  Cs1  1  0.141327  0.821430  0.282655  1
  Cs  Cs2  1  0.858674  0.178570  0.717346  1
  Cs  Cs3  1  0.358673  0.538776  0.717346  1
  Hg  Hg4  1  0.250000  0.000000  0.000000  1
  Hg  Hg5  1  0.750000  0.000000  0.000000  1
  Te  Te6  1  0.103802  0.292989  0.207604  1
  Te  Te7  1  0.603802  0.914615  0.207604  1
  Te  Te8  1  0.396198  0.085386  0.792395  1
  Te  Te9  1  0.896199  0.707010  0.792395  1
