# generated using pymatgen
data_Y7Ho(CdPt)2
_symmetry_space_group_name_H-M   'P 1'
_cell_length_a   9.71374904
_cell_length_b   9.71374897
_cell_length_c   9.71721700
_cell_angle_alpha   59.98819249
_cell_angle_beta   59.98819274
_cell_angle_gamma   59.96413881
_symmetry_Int_Tables_number   1
_chemical_formula_structural   Y7Ho(CdPt)2
_chemical_formula_sum   'Y14 Ho2 Cd4 Pt4'
_cell_volume   648.04524541
_cell_formula_units_Z   2
loop_
 _symmetry_equiv_pos_site_id
 _symmetry_equiv_pos_as_xyz
  1  'x, y, z'
loop_
 _atom_site_type_symbol
 _atom_site_label
 _atom_site_symmetry_multiplicity
 _atom_site_fract_x
 _atom_site_fract_y
 _atom_site_fract_z
 _atom_site_occupancy
  Y  Y0  1  0.354305  0.940121  0.352787  1
  Y  Y1  1  0.940121  0.354305  0.352787  1
  Y  Y2  1  0.810158  0.189948  0.190268  1
  Y  Y3  1  0.189948  0.810158  0.809626  1
  Y  Y4  1  0.189948  0.810158  0.190268  1
  Y  Y5  1  0.810158  0.189948  0.809626  1
  Y  Y6  1  0.190872  0.190872  0.809128  1
  Y  Y7  1  0.810725  0.810725  0.189275  1
  Y  Y8  1  0.936125  0.563893  0.564564  1
  Y  Y9  1  0.563893  0.936125  0.935418  1
  Y  Y10  1  0.563893  0.936125  0.564564  1
  Y  Y11  1  0.936125  0.563893  0.935418  1
  Y  Y12  1  0.564465  0.564465  0.935535  1
  Y  Y13  1  0.935995  0.935995  0.564005  1
  Ho  Ho14  1  0.351849  0.351849  0.350514  1
  Ho  Ho15  1  0.351849  0.351849  0.945788  1
  Cd  Cd16  1  0.581340  0.581340  0.582395  1
  Cd  Cd17  1  0.581340  0.581340  0.254925  1
  Cd  Cd18  1  0.581137  0.254500  0.582182  1
  Cd  Cd19  1  0.254500  0.581137  0.582182  1
  Pt  Pt20  1  0.144105  0.144105  0.143306  1
  Pt  Pt21  1  0.144105  0.144105  0.568483  1
  Pt  Pt22  1  0.144302  0.568742  0.143478  1
  Pt  Pt23  1  0.568742  0.144302  0.143478  1
