# generated using pymatgen
data_NdTm3MgP12Ru19
_symmetry_space_group_name_H-M   'P 1'
_cell_length_a   12.47882670
_cell_length_b   12.50126945
_cell_length_c   3.98927400
_cell_angle_alpha   90.00000000
_cell_angle_beta   90.00000000
_cell_angle_gamma   120.13857100
_symmetry_Int_Tables_number   1
_chemical_formula_structural   NdTm3MgP12Ru19
_chemical_formula_sum   'Nd1 Tm3 Mg1 P12 Ru19'
_cell_volume   538.20069312
_cell_formula_units_Z   1
loop_
 _symmetry_equiv_pos_site_id
 _symmetry_equiv_pos_as_xyz
  1  'x, y, z'
loop_
 _atom_site_type_symbol
 _atom_site_label
 _atom_site_symmetry_multiplicity
 _atom_site_fract_x
 _atom_site_fract_y
 _atom_site_fract_z
 _atom_site_occupancy
  Nd  Nd0  1  0.327278  0.660432  0.000000  1
  Tm  Tm1  1  0.817155  0.816171  0.500000  1
  Tm  Tm2  1  0.182856  0.998515  0.500000  1
  Tm  Tm3  1  0.671974  0.332491  0.000000  1
  Mg  Mg4  1  0.000011  0.188745  0.500000  1
  P  P5  1  0.998338  0.826400  0.000000  1
  P  P6  1  0.193565  0.178838  0.000000  1
  P  P7  1  0.808079  0.988392  0.000000  1
  P  P8  1  0.698596  0.170056  0.500000  1
  P  P9  1  0.829501  0.524111  0.500000  1
  P  P10  1  0.481330  0.306473  0.500000  1
  P  P11  1  0.166839  0.694512  0.500000  1
  P  P12  1  0.522100  0.829060  0.500000  1
  P  P13  1  0.302210  0.468696  0.500000  1
  P  P14  1  0.000373  0.381794  0.000000  1
  P  P15  1  0.624973  0.626489  0.000000  1
  P  P16  1  0.374579  0.000825  0.000000  1
  Ru  Ru17  1  0.999581  0.560771  0.000000  1
  Ru  Ru18  1  0.438930  0.445317  0.000000  1
  Ru  Ru19  1  0.560883  0.006765  0.000000  1
  Ru  Ru20  1  0.998397  0.722300  0.500000  1
  Ru  Ru21  1  0.282862  0.277207  0.500000  1
  Ru  Ru22  1  0.719966  0.998148  0.500000  1
  Ru  Ru23  1  0.825519  0.183994  0.000000  1
  Ru  Ru24  1  0.813890  0.627319  0.000000  1
  Ru  Ru25  1  0.383949  0.193392  0.000000  1
  Ru  Ru26  1  0.183294  0.814074  0.000000  1
  Ru  Ru27  1  0.618871  0.812347  0.000000  1
  Ru  Ru28  1  0.173113  0.354519  0.000000  1
  Ru  Ru29  1  0.872247  0.365043  0.500000  1
  Ru  Ru30  1  0.633532  0.507461  0.500000  1
  Ru  Ru31  1  0.498150  0.128692  0.500000  1
  Ru  Ru32  1  0.366307  0.877332  0.500000  1
  Ru  Ru33  1  0.506923  0.631833  0.500000  1
  Ru  Ru34  1  0.123900  0.488097  0.500000  1
  Ru  Ru35  1  0.999931  0.013391  0.000000  1
