# generated using pymatgen
data_Hf10Fe2SiAs5
_symmetry_space_group_name_H-M   'P 1'
_cell_length_a   3.68681600
_cell_length_b   10.43891904
_cell_length_c   17.40745007
_cell_angle_alpha   89.98983658
_cell_angle_beta   90.00000000
_cell_angle_gamma   90.00000000
_symmetry_Int_Tables_number   1
_chemical_formula_structural   Hf10Fe2SiAs5
_chemical_formula_sum   'Hf20 Fe4 Si2 As10'
_cell_volume   669.94961871
_cell_formula_units_Z   2
loop_
 _symmetry_equiv_pos_site_id
 _symmetry_equiv_pos_as_xyz
  1  'x, y, z'
loop_
 _atom_site_type_symbol
 _atom_site_label
 _atom_site_symmetry_multiplicity
 _atom_site_fract_x
 _atom_site_fract_y
 _atom_site_fract_z
 _atom_site_occupancy
  Hf  Hf0  1  0.250000  0.122213  0.477428  1
  Hf  Hf1  1  0.750000  0.877787  0.522572  1
  Hf  Hf2  1  0.750000  0.626670  0.022647  1
  Hf  Hf3  1  0.250000  0.373330  0.977353  1
  Hf  Hf4  1  0.250000  0.054111  0.075252  1
  Hf  Hf5  1  0.750000  0.945889  0.924748  1
  Hf  Hf6  1  0.750000  0.552305  0.422551  1
  Hf  Hf7  1  0.250000  0.447695  0.577449  1
  Hf  Hf8  1  0.250000  0.478020  0.274757  1
  Hf  Hf9  1  0.750000  0.521980  0.725243  1
  Hf  Hf10  1  0.750000  0.977758  0.225085  1
  Hf  Hf11  1  0.250000  0.022242  0.774915  1
  Hf  Hf12  1  0.250000  0.817068  0.367638  1
  Hf  Hf13  1  0.750000  0.182932  0.632362  1
  Hf  Hf14  1  0.750000  0.314546  0.130920  1
  Hf  Hf15  1  0.250000  0.685454  0.869080  1
  Hf  Hf16  1  0.250000  0.757832  0.164598  1
  Hf  Hf17  1  0.750000  0.242168  0.835402  1
  Hf  Hf18  1  0.750000  0.257336  0.333030  1
  Hf  Hf19  1  0.250000  0.742664  0.666970  1
  Fe  Fe20  1  0.250000  0.370305  0.407091  1
  Fe  Fe21  1  0.750000  0.629695  0.592909  1
  Fe  Fe22  1  0.750000  0.869549  0.090337  1
  Fe  Fe23  1  0.250000  0.130451  0.909663  1
  Si  Si24  1  0.250000  0.813399  0.007345  1
  Si  Si25  1  0.750000  0.186601  0.992655  1
  As  As26  1  0.750000  0.310269  0.493846  1
  As  As27  1  0.250000  0.689731  0.506154  1
  As  As28  1  0.250000  0.505402  0.116920  1
  As  As29  1  0.750000  0.494598  0.883080  1
  As  As30  1  0.750000  0.006826  0.382065  1
  As  As31  1  0.250000  0.993174  0.617935  1
  As  As32  1  0.250000  0.182360  0.218613  1
  As  As33  1  0.750000  0.817640  0.781387  1
  As  As34  1  0.750000  0.684204  0.280863  1
  As  As35  1  0.250000  0.315796  0.719137  1
