# generated using pymatgen
data_HoTm2Ta(Co4P3)2
_symmetry_space_group_name_H-M   'P 1'
_cell_length_a   3.68752300
_cell_length_b   10.59901500
_cell_length_c   12.29117700
_cell_angle_alpha   90.00000000
_cell_angle_beta   90.00000000
_cell_angle_gamma   90.00000000
_symmetry_Int_Tables_number   1
_chemical_formula_structural   HoTm2Ta(Co4P3)2
_chemical_formula_sum   'Ho2 Tm4 Ta2 Co16 P12'
_cell_volume   480.38973344
_cell_formula_units_Z   2
loop_
 _symmetry_equiv_pos_site_id
 _symmetry_equiv_pos_as_xyz
  1  'x, y, z'
loop_
 _atom_site_type_symbol
 _atom_site_label
 _atom_site_symmetry_multiplicity
 _atom_site_fract_x
 _atom_site_fract_y
 _atom_site_fract_z
 _atom_site_occupancy
  Ho  Ho0  1  0.000000  0.500000  0.527160  1
  Ho  Ho1  1  0.500000  0.000000  0.472840  1
  Tm  Tm2  1  0.500000  0.821035  0.205148  1
  Tm  Tm3  1  0.500000  0.178965  0.205148  1
  Tm  Tm4  1  0.000000  0.678965  0.794852  1
  Tm  Tm5  1  0.000000  0.321035  0.794852  1
  Ta  Ta6  1  0.500000  0.500000  0.157089  1
  Ta  Ta7  1  0.000000  0.000000  0.842911  1
  Co  Co8  1  0.000000  0.500000  0.986623  1
  Co  Co9  1  0.500000  0.000000  0.013377  1
  Co  Co10  1  0.500000  0.295371  0.432221  1
  Co  Co11  1  0.500000  0.704629  0.432221  1
  Co  Co12  1  0.000000  0.204629  0.567779  1
  Co  Co13  1  0.000000  0.795371  0.567779  1
  Co  Co14  1  0.500000  0.877126  0.705546  1
  Co  Co15  1  0.500000  0.122874  0.705546  1
  Co  Co16  1  0.000000  0.622874  0.294454  1
  Co  Co17  1  0.000000  0.377126  0.294454  1
  Co  Co18  1  0.500000  0.332573  0.992153  1
  Co  Co19  1  0.500000  0.667427  0.992153  1
  Co  Co20  1  0.000000  0.167427  0.007847  1
  Co  Co21  1  0.000000  0.832573  0.007847  1
  Co  Co22  1  0.500000  0.500000  0.702644  1
  Co  Co23  1  0.000000  0.000000  0.297356  1
  P  P24  1  0.500000  0.311648  0.616299  1
  P  P25  1  0.500000  0.688352  0.616299  1
  P  P26  1  0.000000  0.188352  0.383701  1
  P  P27  1  0.000000  0.811648  0.383701  1
  P  P28  1  0.500000  0.500000  0.880948  1
  P  P29  1  0.000000  0.000000  0.119052  1
  P  P30  1  0.500000  0.840154  0.892065  1
  P  P31  1  0.500000  0.159846  0.892065  1
  P  P32  1  0.000000  0.659846  0.107935  1
  P  P33  1  0.000000  0.340154  0.107935  1
  P  P34  1  0.500000  0.500000  0.357439  1
  P  P35  1  0.000000  0.000000  0.642561  1
