# generated using pymatgen
data_Ce6BiSb7Pt6
_symmetry_space_group_name_H-M   'P 1'
_cell_length_a   8.57942758
_cell_length_b   8.54273256
_cell_length_c   8.57942680
_cell_angle_alpha   109.38460167
_cell_angle_beta   109.55769855
_cell_angle_gamma   109.38460845
_symmetry_Int_Tables_number   1
_chemical_formula_structural   Ce6BiSb7Pt6
_chemical_formula_sum   'Ce6 Bi1 Sb7 Pt6'
_cell_volume   484.56787920
_cell_formula_units_Z   1
loop_
 _symmetry_equiv_pos_site_id
 _symmetry_equiv_pos_as_xyz
  1  'x, y, z'
loop_
 _atom_site_type_symbol
 _atom_site_label
 _atom_site_symmetry_multiplicity
 _atom_site_fract_x
 _atom_site_fract_y
 _atom_site_fract_z
 _atom_site_occupancy
  Ce  Ce0  1  0.621868  0.371851  0.248703  1
  Ce  Ce1  1  0.875140  0.126000  0.751223  1
  Ce  Ce2  1  0.376083  0.250860  0.624860  1
  Ce  Ce3  1  0.126835  0.749983  0.878132  1
  Ce  Ce4  1  0.251297  0.623148  0.373165  1
  Ce  Ce5  1  0.748777  0.874777  0.123917  1
  Bi  Bi6  1  0.000000  0.823932  0.500000  1
  Sb  Sb7  1  0.168691  0.171172  0.170722  1
  Sb  Sb8  1  0.329278  0.500451  0.997970  1
  Sb  Sb9  1  0.000000  0.329908  0.500000  1
  Sb  Sb10  1  0.670628  0.670817  0.670007  1
  Sb  Sb11  1  0.502030  0.002481  0.331309  1
  Sb  Sb12  1  0.829993  0.500809  0.000620  1
  Sb  Sb13  1  0.499380  0.000189  0.829372  1
  Pt  Pt14  1  0.126604  0.873830  0.242439  1
  Pt  Pt15  1  0.374825  0.624961  0.748883  1
  Pt  Pt16  1  0.874058  0.250136  0.125175  1
  Pt  Pt17  1  0.615835  0.747226  0.373396  1
  Pt  Pt18  1  0.257561  0.131391  0.884165  1
  Pt  Pt19  1  0.751117  0.376078  0.625942  1
