# generated using pymatgen
data_Ba2NaAlSb3
_symmetry_space_group_name_H-M   'P 1'
_cell_length_a   9.20241364
_cell_length_b   9.20241537
_cell_length_c   13.15436857
_cell_angle_alpha   76.77777626
_cell_angle_beta   76.77777339
_cell_angle_gamma   67.11475739
_symmetry_Int_Tables_number   1
_chemical_formula_structural   Ba2NaAlSb3
_chemical_formula_sum   'Ba8 Na4 Al4 Sb12'
_cell_volume   986.86965895
_cell_formula_units_Z   4
loop_
 _symmetry_equiv_pos_site_id
 _symmetry_equiv_pos_as_xyz
  1  'x, y, z'
loop_
 _atom_site_type_symbol
 _atom_site_label
 _atom_site_symmetry_multiplicity
 _atom_site_fract_x
 _atom_site_fract_y
 _atom_site_fract_z
 _atom_site_occupancy
  Ba  Ba0  1  0.741876  0.197326  0.687730  1
  Ba  Ba1  1  0.258124  0.802674  0.312270  1
  Ba  Ba2  1  0.197326  0.741876  0.687730  1
  Ba  Ba3  1  0.500000  0.000000  0.500000  1
  Ba  Ba4  1  0.802674  0.258124  0.312270  1
  Ba  Ba5  1  0.000000  0.500000  0.000000  1
  Ba  Ba6  1  0.500000  0.000000  0.000000  1
  Ba  Ba7  1  0.000000  0.500000  0.500000  1
  Na  Na8  1  0.293683  0.706317  0.000000  1
  Na  Na9  1  0.358197  0.358197  0.231547  1
  Na  Na10  1  0.641803  0.641803  0.768453  1
  Na  Na11  1  0.706317  0.293683  0.000000  1
  Al  Al12  1  0.698002  0.698002  0.267579  1
  Al  Al13  1  0.091589  0.091589  0.884745  1
  Al  Al14  1  0.908411  0.908411  0.115255  1
  Al  Al15  1  0.301998  0.301998  0.732421  1
  Sb  Sb16  1  0.023980  0.613326  0.229092  1
  Sb  Sb17  1  0.587776  0.587776  0.133584  1
  Sb  Sb18  1  0.976020  0.386674  0.770908  1
  Sb  Sb19  1  0.097002  0.097002  0.485496  1
  Sb  Sb20  1  0.597192  0.597192  0.487174  1
  Sb  Sb21  1  0.910893  0.910893  0.904626  1
  Sb  Sb22  1  0.089107  0.089107  0.095374  1
  Sb  Sb23  1  0.412224  0.412224  0.866416  1
  Sb  Sb24  1  0.613326  0.023980  0.229092  1
  Sb  Sb25  1  0.902998  0.902998  0.514504  1
  Sb  Sb26  1  0.386674  0.976020  0.770908  1
  Sb  Sb27  1  0.402808  0.402808  0.512826  1
