# generated using pymatgen
data_Lu3Si4Ge
_symmetry_space_group_name_H-M   'P 1'
_cell_length_a   6.62727403
_cell_length_b   6.62727291
_cell_length_c   8.06783100
_cell_angle_alpha   90.00000000
_cell_angle_beta   90.00000000
_cell_angle_gamma   119.94169705
_symmetry_Int_Tables_number   1
_chemical_formula_structural   Lu3Si4Ge
_chemical_formula_sum   'Lu6 Si8 Ge2'
_cell_volume   307.05208833
_cell_formula_units_Z   2
loop_
 _symmetry_equiv_pos_site_id
 _symmetry_equiv_pos_as_xyz
  1  'x, y, z'
loop_
 _atom_site_type_symbol
 _atom_site_label
 _atom_site_symmetry_multiplicity
 _atom_site_fract_x
 _atom_site_fract_y
 _atom_site_fract_z
 _atom_site_occupancy
  Lu  Lu0  1  0.672247  0.672247  0.000000  1
  Lu  Lu1  1  0.329573  0.993875  0.998974  1
  Lu  Lu2  1  0.993875  0.329573  0.001026  1
  Lu  Lu3  1  0.672247  0.672247  0.500000  1
  Lu  Lu4  1  0.329573  0.993875  0.501026  1
  Lu  Lu5  1  0.993875  0.329573  0.498974  1
  Si  Si6  1  0.667323  0.332012  0.750000  1
  Si  Si7  1  0.332012  0.667323  0.250000  1
  Si  Si8  1  0.997360  0.997323  0.750000  1
  Si  Si9  1  0.997323  0.997360  0.250000  1
  Si  Si10  1  0.618176  0.949226  0.750000  1
  Si  Si11  1  0.049821  0.668003  0.750000  1
  Si  Si12  1  0.949226  0.618176  0.250000  1
  Si  Si13  1  0.668003  0.049821  0.250000  1
  Ge  Ge14  1  0.329778  0.399589  0.750000  1
  Ge  Ge15  1  0.399589  0.329778  0.250000  1
