# generated using pymatgen
data_Ta4Be3Re2B
_symmetry_space_group_name_H-M   'P 1'
_cell_length_a   6.27302385
_cell_length_b   6.27302385
_cell_length_c   3.28411300
_cell_angle_alpha   90.00000000
_cell_angle_beta   90.00000000
_cell_angle_gamma   89.80751678
_symmetry_Int_Tables_number   1
_chemical_formula_structural   Ta4Be3Re2B
_chemical_formula_sum   'Ta4 Be3 Re2 B1'
_cell_volume   129.23183725
_cell_formula_units_Z   1
loop_
 _symmetry_equiv_pos_site_id
 _symmetry_equiv_pos_as_xyz
  1  'x, y, z'
loop_
 _atom_site_type_symbol
 _atom_site_label
 _atom_site_symmetry_multiplicity
 _atom_site_fract_x
 _atom_site_fract_y
 _atom_site_fract_z
 _atom_site_occupancy
  Ta  Ta0  1  0.679311  0.179311  0.500000  1
  Ta  Ta1  1  0.315819  0.815819  0.500000  1
  Ta  Ta2  1  0.175101  0.329528  0.500000  1
  Ta  Ta3  1  0.829528  0.675101  0.500000  1
  Be  Be4  1  0.884744  0.384744  0.000000  1
  Be  Be5  1  0.618289  0.881053  0.000000  1
  Be  Be6  1  0.381053  0.118289  0.000000  1
  Re  Re7  1  0.498406  0.501559  0.000000  1
  Re  Re8  1  0.001559  0.998406  0.000000  1
  B  B9  1  0.116190  0.616190  0.000000  1
