# generated using pymatgen
data_U2AlGaSi3Ge
_symmetry_space_group_name_H-M   'P 1'
_cell_length_a   4.19778800
_cell_length_b   4.24755600
_cell_length_c   7.87448500
_cell_angle_alpha   90.00000000
_cell_angle_beta   90.00000000
_cell_angle_gamma   90.00000000
_symmetry_Int_Tables_number   1
_chemical_formula_structural   U2AlGaSi3Ge
_chemical_formula_sum   'U2 Al1 Ga1 Si3 Ge1'
_cell_volume   140.40474177
_cell_formula_units_Z   1
loop_
 _symmetry_equiv_pos_site_id
 _symmetry_equiv_pos_as_xyz
  1  'x, y, z'
loop_
 _atom_site_type_symbol
 _atom_site_label
 _atom_site_symmetry_multiplicity
 _atom_site_fract_x
 _atom_site_fract_y
 _atom_site_fract_z
 _atom_site_occupancy
  U  U0  1  0.000000  0.000000  0.246682  1
  U  U1  1  0.000000  0.000000  0.753521  1
  Al  Al2  1  0.500000  0.500000  0.756627  1
  Ga  Ga3  1  0.500000  0.500000  0.243291  1
  Si  Si4  1  0.000000  0.500000  0.997263  1
  Si  Si5  1  0.500000  0.000000  0.503059  1
  Si  Si6  1  0.500000  0.000000  0.997131  1
  Ge  Ge7  1  0.000000  0.500000  0.502426  1
