# generated using pymatgen
data_DyYNp4(Sb4Au3)2
_symmetry_space_group_name_H-M   'P 1'
_cell_length_a   8.68896242
_cell_length_b   8.70548552
_cell_length_c   8.67030906
_cell_angle_alpha   109.33736005
_cell_angle_beta   109.29909500
_cell_angle_gamma   109.83312327
_symmetry_Int_Tables_number   1
_chemical_formula_structural   DyYNp4(Sb4Au3)2
_chemical_formula_sum   'Dy1 Y1 Np4 Sb8 Au6'
_cell_volume   504.50413164
_cell_formula_units_Z   1
loop_
 _symmetry_equiv_pos_site_id
 _symmetry_equiv_pos_as_xyz
  1  'x, y, z'
loop_
 _atom_site_type_symbol
 _atom_site_label
 _atom_site_symmetry_multiplicity
 _atom_site_fract_x
 _atom_site_fract_y
 _atom_site_fract_z
 _atom_site_occupancy
  Dy  Dy0  1  0.750701  0.373776  0.625351  1
  Y  Y1  1  0.873757  0.250726  0.125311  1
  Np  Np2  1  0.374839  0.625014  0.748662  1
  Np  Np3  1  0.124105  0.875623  0.248690  1
  Np  Np4  1  0.624740  0.750536  0.375850  1
  Np  Np5  1  0.251035  0.126464  0.876661  1
  Sb  Sb6  1  0.180037  0.499991  0.000657  1
  Sb  Sb7  1  0.324655  0.321129  0.319602  1
  Sb  Sb8  1  0.003648  0.178374  0.503748  1
  Sb  Sb9  1  0.495860  0.996389  0.175603  1
  Sb  Sb10  1  0.679913  0.502606  0.002858  1
  Sb  Sb11  1  0.820994  0.824135  0.819280  1
  Sb  Sb12  1  0.495960  0.997204  0.677216  1
  Sb  Sb13  1  0.999556  0.678926  0.500976  1
  Au  Au14  1  0.872436  0.132531  0.754846  1
  Au  Au15  1  0.632034  0.372431  0.255184  1
  Au  Au16  1  0.117278  0.741759  0.870376  1
  Au  Au17  1  0.243376  0.618307  0.370727  1
  Au  Au18  1  0.383304  0.252549  0.624223  1
  Au  Au19  1  0.751774  0.881534  0.124179  1
