# generated using pymatgen
data_Tb2Er2TcRu7
_symmetry_space_group_name_H-M   'P 1'
_cell_length_a   5.19950775
_cell_length_b   5.39221123
_cell_length_c   8.99808702
_cell_angle_alpha   89.99999756
_cell_angle_beta   90.00598207
_cell_angle_gamma   121.23376608
_symmetry_Int_Tables_number   1
_chemical_formula_structural   Tb2Er2TcRu7
_chemical_formula_sum   'Tb2 Er2 Tc1 Ru7'
_cell_volume   215.71249618
_cell_formula_units_Z   1
loop_
 _symmetry_equiv_pos_site_id
 _symmetry_equiv_pos_as_xyz
  1  'x, y, z'
loop_
 _atom_site_type_symbol
 _atom_site_label
 _atom_site_symmetry_multiplicity
 _atom_site_fract_x
 _atom_site_fract_y
 _atom_site_fract_z
 _atom_site_occupancy
  Tb  Tb0  1  0.327088  0.663544  0.432843  1
  Tb  Tb1  1  0.655604  0.327801  0.565663  1
  Er  Er2  1  0.654759  0.327378  0.934710  1
  Er  Er3  1  0.327986  0.663994  0.066647  1
  Tc  Tc4  1  0.687309  0.843654  0.751744  1
  Ru  Ru5  1  0.978293  0.989147  0.499428  1
  Ru  Ru6  1  0.978276  0.989138  0.000679  1
  Ru  Ru7  1  0.836784  0.167324  0.248095  1
  Ru  Ru8  1  0.836784  0.669462  0.248095  1
  Ru  Ru9  1  0.355776  0.177888  0.247873  1
  Ru  Ru10  1  0.180671  0.826928  0.752112  1
  Ru  Ru11  1  0.180671  0.353742  0.752112  1
