# generated using pymatgen
data_Tb2Nd3In4PtRh
_symmetry_space_group_name_H-M   'P 1'
_cell_length_a   3.75777100
_cell_length_b   8.22624942
_cell_length_c   18.47328057
_cell_angle_alpha   90.04789570
_cell_angle_beta   90.00000000
_cell_angle_gamma   90.00000000
_symmetry_Int_Tables_number   1
_chemical_formula_structural   Tb2Nd3In4PtRh
_chemical_formula_sum   'Tb4 Nd6 In8 Pt2 Rh2'
_cell_volume   571.05252754
_cell_formula_units_Z   2
loop_
 _symmetry_equiv_pos_site_id
 _symmetry_equiv_pos_as_xyz
  1  'x, y, z'
loop_
 _atom_site_type_symbol
 _atom_site_label
 _atom_site_symmetry_multiplicity
 _atom_site_fract_x
 _atom_site_fract_y
 _atom_site_fract_z
 _atom_site_occupancy
  Tb  Tb0  1  0.000000  0.115737  0.411918  1
  Tb  Tb1  1  0.000000  0.884263  0.588082  1
  Tb  Tb2  1  0.000000  0.382524  0.913823  1
  Tb  Tb3  1  0.000000  0.617476  0.086177  1
  Nd  Nd4  1  0.000000  0.238082  0.219534  1
  Nd  Nd5  1  0.000000  0.761918  0.780466  1
  Nd  Nd6  1  0.000000  0.251926  0.718766  1
  Nd  Nd7  1  0.000000  0.748074  0.281234  1
  Nd  Nd8  1  0.000000  0.000000  0.000000  1
  Nd  Nd9  1  0.000000  0.500000  0.500000  1
  In  In10  1  0.500000  0.420943  0.349778  1
  In  In11  1  0.500000  0.579057  0.650222  1
  In  In12  1  0.500000  0.075618  0.849647  1
  In  In13  1  0.500000  0.924382  0.150353  1
  In  In14  1  0.500000  0.299289  0.064447  1
  In  In15  1  0.500000  0.700711  0.935553  1
  In  In16  1  0.500000  0.199449  0.566130  1
  In  In17  1  0.500000  0.800551  0.433870  1
  Pt  Pt18  1  0.500000  0.477241  0.805431  1
  Pt  Pt19  1  0.500000  0.522759  0.194569  1
  Rh  Rh20  1  0.500000  0.020945  0.307205  1
  Rh  Rh21  1  0.500000  0.979055  0.692795  1
