# generated using pymatgen
data_TbNd(CuP2)2
_symmetry_space_group_name_H-M   'P 1'
_cell_length_a   3.75130200
_cell_length_b   3.82822000
_cell_length_c   19.80690600
_cell_angle_alpha   90.00000000
_cell_angle_beta   90.00000000
_cell_angle_gamma   90.00000000
_symmetry_Int_Tables_number   1
_chemical_formula_structural   TbNd(CuP2)2
_chemical_formula_sum   'Tb2 Nd2 Cu4 P8'
_cell_volume   284.44320073
_cell_formula_units_Z   2
loop_
 _symmetry_equiv_pos_site_id
 _symmetry_equiv_pos_as_xyz
  1  'x, y, z'
loop_
 _atom_site_type_symbol
 _atom_site_label
 _atom_site_symmetry_multiplicity
 _atom_site_fract_x
 _atom_site_fract_y
 _atom_site_fract_z
 _atom_site_occupancy
  Tb  Tb0  1  0.250000  0.721997  0.380877  1
  Tb  Tb1  1  0.250000  0.778003  0.880877  1
  Nd  Nd2  1  0.750000  0.277763  0.617484  1
  Nd  Nd3  1  0.750000  0.222237  0.117484  1
  Cu  Cu4  1  0.250000  0.225382  0.251502  1
  Cu  Cu5  1  0.750000  0.774373  0.752001  1
  Cu  Cu6  1  0.250000  0.274618  0.751502  1
  Cu  Cu7  1  0.750000  0.725627  0.252001  1
  P  P8  1  0.750000  0.811495  0.499018  1
  P  P9  1  0.750000  0.688505  0.999018  1
  P  P10  1  0.250000  0.186651  0.494869  1
  P  P11  1  0.250000  0.313349  0.994869  1
  P  P12  1  0.250000  0.723297  0.177076  1
  P  P13  1  0.750000  0.223767  0.327171  1
  P  P14  1  0.750000  0.276233  0.827171  1
  P  P15  1  0.250000  0.776703  0.677076  1
