# generated using pymatgen
data_Sc10CdHg2Ru
_symmetry_space_group_name_H-M   'P 1'
_cell_length_a   8.97116625
_cell_length_b   8.97116531
_cell_length_c   9.08291200
_cell_angle_alpha   90.00000000
_cell_angle_beta   90.00000000
_cell_angle_gamma   119.78190812
_symmetry_Int_Tables_number   1
_chemical_formula_structural   Sc10CdHg2Ru
_chemical_formula_sum   'Sc20 Cd2 Hg4 Ru2'
_cell_volume   634.45925368
_cell_formula_units_Z   2
loop_
 _symmetry_equiv_pos_site_id
 _symmetry_equiv_pos_as_xyz
  1  'x, y, z'
loop_
 _atom_site_type_symbol
 _atom_site_label
 _atom_site_symmetry_multiplicity
 _atom_site_fract_x
 _atom_site_fract_y
 _atom_site_fract_z
 _atom_site_occupancy
  Sc  Sc0  1  0.001347  0.998653  0.495063  1
  Sc  Sc1  1  0.001347  0.998653  0.004937  1
  Sc  Sc2  1  0.209644  0.790356  0.441957  1
  Sc  Sc3  1  0.209649  0.419607  0.441790  1
  Sc  Sc4  1  0.580393  0.790351  0.441790  1
  Sc  Sc5  1  0.789939  0.210061  0.557123  1
  Sc  Sc6  1  0.790073  0.580468  0.557574  1
  Sc  Sc7  1  0.419532  0.209927  0.557574  1
  Sc  Sc8  1  0.789939  0.210061  0.942877  1
  Sc  Sc9  1  0.790073  0.580468  0.942426  1
  Sc  Sc10  1  0.419532  0.209927  0.942426  1
  Sc  Sc11  1  0.209644  0.790356  0.058043  1
  Sc  Sc12  1  0.209649  0.419607  0.058210  1
  Sc  Sc13  1  0.580393  0.790351  0.058210  1
  Sc  Sc14  1  0.540307  0.459693  0.250000  1
  Sc  Sc15  1  0.540349  0.080556  0.250000  1
  Sc  Sc16  1  0.919444  0.459651  0.250000  1
  Sc  Sc17  1  0.459711  0.540289  0.750000  1
  Sc  Sc18  1  0.457274  0.919052  0.750000  1
  Sc  Sc19  1  0.080948  0.542726  0.750000  1
  Cd  Cd20  1  0.114807  0.230921  0.750000  1
  Cd  Cd21  1  0.769079  0.885193  0.750000  1
  Hg  Hg22  1  0.880455  0.119545  0.250000  1
  Hg  Hg23  1  0.880049  0.760123  0.250000  1
  Hg  Hg24  1  0.239877  0.119951  0.250000  1
  Hg  Hg25  1  0.116992  0.883008  0.750000  1
  Ru  Ru26  1  0.333331  0.666669  0.250000  1
  Ru  Ru27  1  0.666222  0.333778  0.750000  1
