# generated using pymatgen
data_Tm19Mg(Cd3Ru)2
_symmetry_space_group_name_H-M   'P 1'
_cell_length_a   9.44429800
_cell_length_b   9.44429801
_cell_length_c   9.62438000
_cell_angle_alpha   90.00000000
_cell_angle_beta   90.00000000
_cell_angle_gamma   119.99999997
_symmetry_Int_Tables_number   1
_chemical_formula_structural   Tm19Mg(Cd3Ru)2
_chemical_formula_sum   'Tm19 Mg1 Cd6 Ru2'
_cell_volume   743.43458086
_cell_formula_units_Z   1
loop_
 _symmetry_equiv_pos_site_id
 _symmetry_equiv_pos_as_xyz
  1  'x, y, z'
loop_
 _atom_site_type_symbol
 _atom_site_label
 _atom_site_symmetry_multiplicity
 _atom_site_fract_x
 _atom_site_fract_y
 _atom_site_fract_z
 _atom_site_occupancy
  Tm  Tm0  1  0.000000  0.000000  0.000000  1
  Tm  Tm1  1  0.208956  0.791044  0.441205  1
  Tm  Tm2  1  0.208956  0.417913  0.441205  1
  Tm  Tm3  1  0.582087  0.791044  0.441205  1
  Tm  Tm4  1  0.791044  0.208956  0.558795  1
  Tm  Tm5  1  0.791044  0.582087  0.558795  1
  Tm  Tm6  1  0.417913  0.208956  0.558795  1
  Tm  Tm7  1  0.789080  0.210920  0.942457  1
  Tm  Tm8  1  0.789080  0.578160  0.942457  1
  Tm  Tm9  1  0.421840  0.210920  0.942457  1
  Tm  Tm10  1  0.210920  0.789080  0.057543  1
  Tm  Tm11  1  0.210920  0.421840  0.057543  1
  Tm  Tm12  1  0.578160  0.789080  0.057543  1
  Tm  Tm13  1  0.540902  0.459098  0.250894  1
  Tm  Tm14  1  0.540902  0.081803  0.250894  1
  Tm  Tm15  1  0.918197  0.459098  0.250894  1
  Tm  Tm16  1  0.459098  0.540902  0.749106  1
  Tm  Tm17  1  0.459098  0.918197  0.749106  1
  Tm  Tm18  1  0.081803  0.540902  0.749106  1
  Mg  Mg19  1  0.000000  0.000000  0.500000  1
  Cd  Cd20  1  0.886954  0.113046  0.255038  1
  Cd  Cd21  1  0.886954  0.773909  0.255038  1
  Cd  Cd22  1  0.226091  0.113046  0.255038  1
  Cd  Cd23  1  0.113046  0.886954  0.744962  1
  Cd  Cd24  1  0.113046  0.226091  0.744962  1
  Cd  Cd25  1  0.773909  0.886954  0.744962  1
  Ru  Ru26  1  0.333333  0.666667  0.250389  1
  Ru  Ru27  1  0.666667  0.333333  0.749611  1
