# generated using pymatgen
data_Y2HoZn2Ga7Pd2
_symmetry_space_group_name_H-M   'P 1'
_cell_length_a   8.12019850
_cell_length_b   8.14364926
_cell_length_c   8.14364986
_cell_angle_alpha   149.23776490
_cell_angle_beta   108.65168153
_cell_angle_gamma   79.70565550
_symmetry_Int_Tables_number   1
_chemical_formula_structural   Y2HoZn2Ga7Pd2
_chemical_formula_sum   'Y2 Ho1 Zn2 Ga7 Pd2'
_cell_volume   255.79225780
_cell_formula_units_Z   1
loop_
 _symmetry_equiv_pos_site_id
 _symmetry_equiv_pos_as_xyz
  1  'x, y, z'
loop_
 _atom_site_type_symbol
 _atom_site_label
 _atom_site_symmetry_multiplicity
 _atom_site_fract_x
 _atom_site_fract_y
 _atom_site_fract_z
 _atom_site_occupancy
  Y  Y0  1  0.499650  0.499818  0.999831  1
  Y  Y1  1  0.203163  0.202286  0.000877  1
  Ho  Ho2  1  0.797366  0.799361  0.998004  1
  Zn  Zn3  1  0.644448  0.364262  0.280186  1
  Zn  Zn4  1  0.994647  0.496914  0.497733  1
  Ga  Ga5  1  0.349475  0.633637  0.715838  1
  Ga  Ga6  1  0.081469  0.364219  0.717251  1
  Ga  Ga7  1  0.917549  0.634112  0.283437  1
  Ga  Ga8  1  0.523413  0.159151  0.364262  1
  Ga  Ga9  1  0.483944  0.845417  0.638527  1
  Ga  Ga10  1  0.792548  0.157329  0.635218  1
  Ga  Ga11  1  0.209458  0.842937  0.366521  1
  Pd  Pd12  1  0.180446  0.998603  0.181844  1
  Pd  Pd13  1  0.822425  0.001952  0.820473  1
