# generated using pymatgen
data_LiMn2Rh3O8
_symmetry_space_group_name_H-M   'P 1'
_cell_length_a   6.04597653
_cell_length_b   6.04597541
_cell_length_c   6.04597570
_cell_angle_alpha   61.49042353
_cell_angle_beta   61.49042740
_cell_angle_gamma   61.49042920
_symmetry_Int_Tables_number   1
_chemical_formula_structural   LiMn2Rh3O8
_chemical_formula_sum   'Li1 Mn2 Rh3 O8'
_cell_volume   161.50176569
_cell_formula_units_Z   1
loop_
 _symmetry_equiv_pos_site_id
 _symmetry_equiv_pos_as_xyz
  1  'x, y, z'
loop_
 _atom_site_type_symbol
 _atom_site_label
 _atom_site_symmetry_multiplicity
 _atom_site_fract_x
 _atom_site_fract_y
 _atom_site_fract_z
 _atom_site_occupancy
  Li  Li0  1  0.248405  0.248405  0.248405  1
  Mn  Mn1  1  0.623170  0.623170  0.623170  1
  Mn  Mn2  1  0.004146  0.004146  0.004146  1
  Rh  Rh3  1  0.623943  0.623943  0.128001  1
  Rh  Rh4  1  0.128001  0.623943  0.623943  1
  Rh  Rh5  1  0.623943  0.128001  0.623943  1
  O  O6  1  0.386981  0.386981  0.386981  1
  O  O7  1  0.389058  0.389058  0.836579  1
  O  O8  1  0.836579  0.389058  0.389058  1
  O  O9  1  0.389058  0.836579  0.389058  1
  O  O10  1  0.863068  0.863068  0.863068  1
  O  O11  1  0.860326  0.860326  0.412995  1
  O  O12  1  0.412995  0.860326  0.860326  1
  O  O13  1  0.860326  0.412995  0.860326  1
