# generated using pymatgen
data_Rb4Nb2S11
_symmetry_space_group_name_H-M   'P 1'
_cell_length_a   7.84275018
_cell_length_b   11.94728981
_cell_length_c   12.36240932
_cell_angle_alpha   69.32802108
_cell_angle_beta   86.30507319
_cell_angle_gamma   85.50938397
_symmetry_Int_Tables_number   1
_chemical_formula_structural   Rb4Nb2S11
_chemical_formula_sum   'Rb8 Nb4 S22'
_cell_volume   1079.60602384
_cell_formula_units_Z   2
loop_
 _symmetry_equiv_pos_site_id
 _symmetry_equiv_pos_as_xyz
  1  'x, y, z'
loop_
 _atom_site_type_symbol
 _atom_site_label
 _atom_site_symmetry_multiplicity
 _atom_site_fract_x
 _atom_site_fract_y
 _atom_site_fract_z
 _atom_site_occupancy
  Rb  Rb0  1  0.228856  0.650631  0.947262  1
  Rb  Rb1  1  0.741770  0.366371  0.506699  1
  Rb  Rb2  1  0.258230  0.633629  0.493301  1
  Rb  Rb3  1  0.469815  0.190697  0.842845  1
  Rb  Rb4  1  0.786271  0.964222  0.388866  1
  Rb  Rb5  1  0.213729  0.035778  0.611134  1
  Rb  Rb6  1  0.530185  0.809303  0.157155  1
  Rb  Rb7  1  0.771144  0.349369  0.052738  1
  Nb  Nb8  1  0.265524  0.352391  0.340181  1
  Nb  Nb9  1  0.734476  0.647609  0.659819  1
  Nb  Nb10  1  0.354264  0.134474  0.204196  1
  Nb  Nb11  1  0.645736  0.865526  0.795804  1
  S  S12  1  0.169660  0.973122  0.204485  1
  S  S13  1  0.603144  0.085103  0.121884  1
  S  S14  1  0.396856  0.914897  0.878116  1
  S  S15  1  0.235583  0.339137  0.528013  1
  S  S16  1  0.929968  0.801114  0.667008  1
  S  S17  1  0.070032  0.198886  0.332992  1
  S  S18  1  0.655901  0.642202  0.894835  1
  S  S19  1  0.344099  0.357798  0.105165  1
  S  S20  1  0.711966  0.057948  0.640048  1
  S  S21  1  0.288034  0.942052  0.359952  1
  S  S22  1  0.028079  0.624401  0.729126  1
  S  S23  1  0.971921  0.375599  0.270874  1
  S  S24  1  0.731406  0.422000  0.757723  1
  S  S25  1  0.268594  0.578000  0.242277  1
  S  S26  1  0.484933  0.184041  0.362629  1
  S  S27  1  0.194071  0.265655  0.035090  1
  S  S28  1  0.830340  0.026878  0.795515  1
  S  S29  1  0.805929  0.734345  0.964910  1
  S  S30  1  0.494093  0.517832  0.744358  1
  S  S31  1  0.505907  0.482168  0.255642  1
  S  S32  1  0.515067  0.815959  0.637371  1
  S  S33  1  0.764417  0.660863  0.471987  1
