# generated using pymatgen
data_Dy13Er7Bi12
_symmetry_space_group_name_H-M   'P 1'
_cell_length_a   8.25520314
_cell_length_b   9.49884600
_cell_length_c   12.03706821
_cell_angle_alpha   89.99881878
_cell_angle_beta   90.02117047
_cell_angle_gamma   89.99850952
_symmetry_Int_Tables_number   1
_chemical_formula_structural   Dy13Er7Bi12
_chemical_formula_sum   'Dy13 Er7 Bi12'
_cell_volume   943.88547506
_cell_formula_units_Z   1
loop_
 _symmetry_equiv_pos_site_id
 _symmetry_equiv_pos_as_xyz
  1  'x, y, z'
loop_
 _atom_site_type_symbol
 _atom_site_label
 _atom_site_symmetry_multiplicity
 _atom_site_fract_x
 _atom_site_fract_y
 _atom_site_fract_z
 _atom_site_occupancy
  Dy  Dy0  1  0.352622  0.750129  0.215185  1
  Dy  Dy1  1  0.852386  0.750139  0.284673  1
  Dy  Dy2  1  0.647560  0.249975  0.784773  1
  Dy  Dy3  1  0.147573  0.250060  0.715219  1
  Dy  Dy4  1  0.192699  0.563918  0.441572  1
  Dy  Dy5  1  0.475762  0.250006  0.488261  1
  Dy  Dy6  1  0.975669  0.250081  0.011677  1
  Dy  Dy7  1  0.524555  0.750064  0.511769  1
  Dy  Dy8  1  0.024327  0.749964  0.988295  1
  Dy  Dy9  1  0.312520  0.250014  0.218599  1
  Dy  Dy10  1  0.812555  0.250004  0.281405  1
  Dy  Dy11  1  0.687477  0.750015  0.781427  1
  Dy  Dy12  1  0.187481  0.750067  0.718649  1
  Er  Er13  1  0.692727  0.564263  0.058432  1
  Er  Er14  1  0.192651  0.935867  0.441518  1
  Er  Er15  1  0.307277  0.064284  0.941576  1
  Er  Er16  1  0.807334  0.435661  0.558471  1
  Er  Er17  1  0.307294  0.435693  0.941567  1
  Er  Er18  1  0.807230  0.064243  0.558467  1
  Er  Er19  1  0.692776  0.935744  0.058412  1
  Bi  Bi20  1  0.407468  0.749990  0.956768  1
  Bi  Bi21  1  0.907236  0.750180  0.543288  1
  Bi  Bi22  1  0.592542  0.249996  0.043212  1
  Bi  Bi23  1  0.092384  0.249470  0.456869  1
  Bi  Bi24  1  0.564753  0.995538  0.325195  1
  Bi  Bi25  1  0.064678  0.504492  0.174689  1
  Bi  Bi26  1  0.435223  0.495541  0.674838  1
  Bi  Bi27  1  0.935208  0.004533  0.825233  1
  Bi  Bi28  1  0.435263  0.004527  0.674774  1
  Bi  Bi29  1  0.935196  0.495524  0.825280  1
  Bi  Bi30  1  0.564842  0.504479  0.325155  1
  Bi  Bi31  1  0.064734  0.995537  0.174752  1
