# generated using pymatgen
data_Tb7SmHg4
_symmetry_space_group_name_H-M   'P 1'
_cell_length_a   5.15104900
_cell_length_b   7.04662370
_cell_length_c   9.39868719
_cell_angle_alpha   90.00908559
_cell_angle_beta   90.00000000
_cell_angle_gamma   90.00000000
_symmetry_Int_Tables_number   1
_chemical_formula_structural   Tb7SmHg4
_chemical_formula_sum   'Tb7 Sm1 Hg4'
_cell_volume   341.14888117
_cell_formula_units_Z   1
loop_
 _symmetry_equiv_pos_site_id
 _symmetry_equiv_pos_as_xyz
  1  'x, y, z'
loop_
 _atom_site_type_symbol
 _atom_site_label
 _atom_site_symmetry_multiplicity
 _atom_site_fract_x
 _atom_site_fract_y
 _atom_site_fract_z
 _atom_site_occupancy
  Tb  Tb0  1  0.250000  0.480701  0.194990  1
  Tb  Tb1  1  0.750000  0.518302  0.805889  1
  Tb  Tb2  1  0.250000  0.980833  0.305054  1
  Tb  Tb3  1  0.750000  0.019773  0.693657  1
  Tb  Tb4  1  0.750000  0.668684  0.427011  1
  Tb  Tb5  1  0.250000  0.329359  0.574246  1
  Tb  Tb6  1  0.750000  0.172679  0.074781  1
  Sm  Sm7  1  0.250000  0.828313  0.924387  1
  Hg  Hg8  1  0.250000  0.270097  0.896886  1
  Hg  Hg9  1  0.750000  0.732426  0.106331  1
  Hg  Hg10  1  0.250000  0.767471  0.599939  1
  Hg  Hg11  1  0.750000  0.231364  0.396829  1
