# generated using pymatgen
data_Tb3Pr4Dy(GeO5)4
_symmetry_space_group_name_H-M   'P 1'
_cell_length_a   8.37377985
_cell_length_b   8.37587474
_cell_length_c   10.90129303
_cell_angle_alpha   61.24741885
_cell_angle_beta   61.24095513
_cell_angle_gamma   49.77491614
_symmetry_Int_Tables_number   1
_chemical_formula_structural   Tb3Pr4Dy(GeO5)4
_chemical_formula_sum   'Tb3 Pr4 Dy1 Ge4 O20'
_cell_volume   494.92190083
_cell_formula_units_Z   1
loop_
 _symmetry_equiv_pos_site_id
 _symmetry_equiv_pos_as_xyz
  1  'x, y, z'
loop_
 _atom_site_type_symbol
 _atom_site_label
 _atom_site_symmetry_multiplicity
 _atom_site_fract_x
 _atom_site_fract_y
 _atom_site_fract_z
 _atom_site_occupancy
  Tb  Tb0  1  0.986635  0.735215  0.837773  1
  Tb  Tb1  1  0.264881  0.013364  0.662158  1
  Tb  Tb2  1  0.013279  0.264740  0.162264  1
  Pr  Pr3  1  0.721890  0.207363  0.964158  1
  Pr  Pr4  1  0.792553  0.278041  0.535918  1
  Pr  Pr5  1  0.278014  0.792573  0.036008  1
  Pr  Pr6  1  0.207313  0.721972  0.464019  1
  Dy  Dy7  1  0.735770  0.986253  0.337758  1
  Ge  Ge8  1  0.777669  0.595595  0.690901  1
  Ge  Ge9  1  0.404588  0.222259  0.808905  1
  Ge  Ge10  1  0.222304  0.404648  0.308968  1
  Ge  Ge11  1  0.595498  0.777903  0.191151  1
  O  O12  1  0.784067  0.629868  0.057844  1
  O  O13  1  0.371004  0.215533  0.441788  1
  O  O14  1  0.215898  0.370173  0.942172  1
  O  O15  1  0.630181  0.784464  0.557387  1
  O  O16  1  0.585324  0.587858  0.359886  1
  O  O17  1  0.412042  0.414809  0.140084  1
  O  O18  1  0.414680  0.412119  0.640132  1
  O  O19  1  0.587882  0.585339  0.859833  1
  O  O20  1  0.948290  0.656219  0.682571  1
  O  O21  1  0.343731  0.051758  0.817478  1
  O  O22  1  0.051723  0.343704  0.317480  1
  O  O23  1  0.656378  0.948170  0.183003  1
  O  O24  1  0.886404  0.080164  0.391308  1
  O  O25  1  0.919163  0.112821  0.109076  1
  O  O26  1  0.113024  0.919588  0.608612  1
  O  O27  1  0.080436  0.886962  0.891371  1
  O  O28  1  0.078039  0.674520  0.325048  1
  O  O29  1  0.325980  0.921347  0.174949  1
  O  O30  1  0.921312  0.325991  0.674945  1
  O  O31  1  0.674046  0.078665  0.825051  1
