# generated using pymatgen
data_Si8Pt5RhW2
_symmetry_space_group_name_H-M   'P 1'
_cell_length_a   3.53083000
_cell_length_b   5.53015800
_cell_length_c   24.54745500
_cell_angle_alpha   90.00000000
_cell_angle_beta   90.00000000
_cell_angle_gamma   90.00000000
_symmetry_Int_Tables_number   1
_chemical_formula_structural   Si8Pt5RhW2
_chemical_formula_sum   'Si16 Pt10 Rh2 W4'
_cell_volume   479.31477899
_cell_formula_units_Z   2
loop_
 _symmetry_equiv_pos_site_id
 _symmetry_equiv_pos_as_xyz
  1  'x, y, z'
loop_
 _atom_site_type_symbol
 _atom_site_label
 _atom_site_symmetry_multiplicity
 _atom_site_fract_x
 _atom_site_fract_y
 _atom_site_fract_z
 _atom_site_occupancy
  Si  Si0  1  0.250000  0.175465  0.521664  1
  Si  Si1  1  0.750000  0.324535  0.021664  1
  Si  Si2  1  0.250000  0.671870  0.982395  1
  Si  Si3  1  0.750000  0.828130  0.482395  1
  Si  Si4  1  0.750000  0.320876  0.643660  1
  Si  Si5  1  0.250000  0.179124  0.143660  1
  Si  Si6  1  0.750000  0.821803  0.854706  1
  Si  Si7  1  0.250000  0.678197  0.354706  1
  Si  Si8  1  0.250000  0.669032  0.608410  1
  Si  Si9  1  0.750000  0.830968  0.108410  1
  Si  Si10  1  0.250000  0.162751  0.890872  1
  Si  Si11  1  0.750000  0.337249  0.390872  1
  Si  Si12  1  0.750000  0.828879  0.725203  1
  Si  Si13  1  0.250000  0.671121  0.225203  1
  Si  Si14  1  0.750000  0.330074  0.773977  1
  Si  Si15  1  0.250000  0.169926  0.273977  1
  Pt  Pt16  1  0.750000  0.502914  0.925428  1
  Pt  Pt17  1  0.250000  0.997086  0.425428  1
  Pt  Pt18  1  0.250000  0.006781  0.670267  1
  Pt  Pt19  1  0.750000  0.493219  0.170267  1
  Pt  Pt20  1  0.250000  0.505433  0.829774  1
  Pt  Pt21  1  0.750000  0.994567  0.329774  1
  Pt  Pt22  1  0.750000  0.500824  0.548777  1
  Pt  Pt23  1  0.250000  0.999176  0.048777  1
  Pt  Pt24  1  0.750000  0.004531  0.951463  1
  Pt  Pt25  1  0.250000  0.495469  0.451463  1
  Rh  Rh26  1  0.750000  0.000317  0.574004  1
  Rh  Rh27  1  0.250000  0.499683  0.074004  1
  W  W28  1  0.250000  0.502329  0.709926  1
  W  W29  1  0.750000  0.997671  0.209926  1
  W  W30  1  0.250000  0.004243  0.789475  1
  W  W31  1  0.750000  0.495757  0.289475  1
