# generated using pymatgen
data_Sc4Co16Si7Mo2
_symmetry_space_group_name_H-M   'P 1'
_cell_length_a   7.92816038
_cell_length_b   7.97602734
_cell_length_c   7.92739464
_cell_angle_alpha   59.78827800
_cell_angle_beta   60.15417338
_cell_angle_gamma   59.79127448
_symmetry_Int_Tables_number   1
_chemical_formula_structural   Sc4Co16Si7Mo2
_chemical_formula_sum   'Sc4 Co16 Si7 Mo2'
_cell_volume   353.74266360
_cell_formula_units_Z   1
loop_
 _symmetry_equiv_pos_site_id
 _symmetry_equiv_pos_as_xyz
  1  'x, y, z'
loop_
 _atom_site_type_symbol
 _atom_site_label
 _atom_site_symmetry_multiplicity
 _atom_site_fract_x
 _atom_site_fract_y
 _atom_site_fract_z
 _atom_site_occupancy
  Sc  Sc0  1  0.791512  0.205916  0.208464  1
  Sc  Sc1  1  0.208467  0.205927  0.791500  1
  Sc  Sc2  1  0.800373  0.198899  0.800388  1
  Sc  Sc3  1  0.199613  0.799728  0.199614  1
  Co  Co4  1  0.621684  0.623000  0.142136  1
  Co  Co5  1  0.164156  0.502273  0.164145  1
  Co  Co6  1  0.857753  0.386799  0.378341  1
  Co  Co7  1  0.509235  0.829033  0.829617  1
  Co  Co8  1  0.490710  0.167724  0.170471  1
  Co  Co9  1  0.829597  0.829034  0.509282  1
  Co  Co10  1  0.170489  0.167750  0.490671  1
  Co  Co11  1  0.142127  0.622997  0.621706  1
  Co  Co12  1  0.174545  0.173367  0.174548  1
  Co  Co13  1  0.378360  0.386774  0.857765  1
  Co  Co14  1  0.614487  0.621667  0.614500  1
  Co  Co15  1  0.385515  0.850544  0.385503  1
  Co  Co16  1  0.377037  0.379927  0.377011  1
  Co  Co17  1  0.835854  0.830828  0.835881  1
  Co  Co18  1  0.622970  0.133927  0.622975  1
  Co  Co19  1  0.825599  0.521984  0.825611  1
  Si  Si20  1  0.499974  0.993639  0.499929  1
  Si  Si21  1  0.498744  0.499756  0.997776  1
  Si  Si22  1  0.499966  0.490029  0.499966  1
  Si  Si23  1  0.002218  0.996265  0.501379  1
  Si  Si24  1  0.999908  0.496444  0.999890  1
  Si  Si25  1  0.997743  0.499814  0.498726  1
  Si  Si26  1  0.501345  0.996304  0.002215  1
  Mo  Mo27  1  0.198950  0.794825  0.801086  1
  Mo  Mo28  1  0.801072  0.794826  0.198904  1
