# generated using pymatgen
data_Cs2V5RhSe6
_symmetry_space_group_name_H-M   'P 1'
_cell_length_a   9.86049525
_cell_length_b   9.71873916
_cell_length_c   4.39866500
_cell_angle_alpha   90.00000000
_cell_angle_beta   90.00000000
_cell_angle_gamma   121.14487093
_symmetry_Int_Tables_number   1
_chemical_formula_structural   Cs2V5RhSe6
_chemical_formula_sum   'Cs2 V5 Rh1 Se6'
_cell_volume   360.77251091
_cell_formula_units_Z   1
loop_
 _symmetry_equiv_pos_site_id
 _symmetry_equiv_pos_as_xyz
  1  'x, y, z'
loop_
 _atom_site_type_symbol
 _atom_site_label
 _atom_site_symmetry_multiplicity
 _atom_site_fract_x
 _atom_site_fract_y
 _atom_site_fract_z
 _atom_site_occupancy
  Cs  Cs0  1  0.341757  0.675590  0.250000  1
  Cs  Cs1  1  0.660355  0.325339  0.750000  1
  V  V2  1  0.135375  0.161649  0.250000  1
  V  V3  1  0.848553  0.828116  0.750000  1
  V  V4  1  0.853063  0.982553  0.250000  1
  V  V5  1  0.023659  0.854820  0.250000  1
  V  V6  1  0.970133  0.145037  0.750000  1
  Rh  Rh7  1  0.168651  0.025802  0.750000  1
  Se  Se8  1  0.961201  0.285494  0.250000  1
  Se  Se9  1  0.041727  0.726565  0.750000  1
  Se  Se10  1  0.725101  0.672246  0.250000  1
  Se  Se11  1  0.322884  0.048704  0.250000  1
  Se  Se12  1  0.677110  0.948092  0.750000  1
  Se  Se13  1  0.270432  0.319993  0.750000  1
