# generated using pymatgen
data_Ho2ErSc2(In2Rh)2
_symmetry_space_group_name_H-M   'P 1'
_cell_length_a   3.53411300
_cell_length_b   7.87626049
_cell_length_c   17.92980212
_cell_angle_alpha   90.04055446
_cell_angle_beta   90.00000000
_cell_angle_gamma   90.00000000
_symmetry_Int_Tables_number   1
_chemical_formula_structural   Ho2ErSc2(In2Rh)2
_chemical_formula_sum   'Ho4 Er2 Sc4 In8 Rh4'
_cell_volume   499.08657814
_cell_formula_units_Z   2
loop_
 _symmetry_equiv_pos_site_id
 _symmetry_equiv_pos_as_xyz
  1  'x, y, z'
loop_
 _atom_site_type_symbol
 _atom_site_label
 _atom_site_symmetry_multiplicity
 _atom_site_fract_x
 _atom_site_fract_y
 _atom_site_fract_z
 _atom_site_occupancy
  Ho  Ho0  1  0.000000  0.000000  0.000000  1
  Ho  Ho1  1  0.000000  0.500000  0.500000  1
  Ho  Ho2  1  0.000000  0.748267  0.781946  1
  Ho  Ho3  1  0.000000  0.251733  0.218054  1
  Er  Er4  1  0.000000  0.248188  0.718120  1
  Er  Er5  1  0.000000  0.751812  0.281880  1
  Sc  Sc6  1  0.000000  0.877595  0.588709  1
  Sc  Sc7  1  0.000000  0.122405  0.411291  1
  Sc  Sc8  1  0.000000  0.377482  0.911279  1
  Sc  Sc9  1  0.000000  0.622518  0.088721  1
  In  In10  1  0.500000  0.809011  0.438084  1
  In  In11  1  0.500000  0.190989  0.561916  1
  In  In12  1  0.500000  0.309066  0.061819  1
  In  In13  1  0.500000  0.690934  0.938181  1
  In  In14  1  0.500000  0.925530  0.149607  1
  In  In15  1  0.500000  0.074470  0.850393  1
  In  In16  1  0.500000  0.425839  0.350466  1
  In  In17  1  0.500000  0.574161  0.649534  1
  Rh  Rh18  1  0.500000  0.963291  0.692702  1
  Rh  Rh19  1  0.500000  0.036709  0.307298  1
  Rh  Rh20  1  0.500000  0.462656  0.807214  1
  Rh  Rh21  1  0.500000  0.537344  0.192786  1
