# generated using pymatgen
data_Y4ErIrPt2
_symmetry_space_group_name_H-M   'P 1'
_cell_length_a   11.09723900
_cell_length_b   11.09723900
_cell_length_c   6.33432300
_cell_angle_alpha   90.00000000
_cell_angle_beta   90.00000000
_cell_angle_gamma   90.00000000
_symmetry_Int_Tables_number   1
_chemical_formula_structural   Y4ErIrPt2
_chemical_formula_sum   'Y16 Er4 Ir4 Pt8'
_cell_volume   780.06372786
_cell_formula_units_Z   4
loop_
 _symmetry_equiv_pos_site_id
 _symmetry_equiv_pos_as_xyz
  1  'x, y, z'
loop_
 _atom_site_type_symbol
 _atom_site_label
 _atom_site_symmetry_multiplicity
 _atom_site_fract_x
 _atom_site_fract_y
 _atom_site_fract_z
 _atom_site_occupancy
  Y  Y0  1  0.294193  0.087486  0.374415  1
  Y  Y1  1  0.294193  0.912514  0.874415  1
  Y  Y2  1  0.705807  0.087486  0.874415  1
  Y  Y3  1  0.705807  0.912514  0.374415  1
  Y  Y4  1  0.587486  0.794193  0.874415  1
  Y  Y5  1  0.587486  0.205807  0.374415  1
  Y  Y6  1  0.412514  0.794193  0.374415  1
  Y  Y7  1  0.412514  0.205807  0.874415  1
  Y  Y8  1  0.205807  0.412514  0.625585  1
  Y  Y9  1  0.205807  0.587486  0.125585  1
  Y  Y10  1  0.794193  0.412514  0.125585  1
  Y  Y11  1  0.794193  0.587486  0.625585  1
  Y  Y12  1  0.912514  0.705807  0.125585  1
  Y  Y13  1  0.912514  0.294193  0.625585  1
  Y  Y14  1  0.087486  0.705807  0.625585  1
  Y  Y15  1  0.087486  0.294193  0.125585  1
  Er  Er16  1  0.000000  0.000000  0.500000  1
  Er  Er17  1  0.000000  0.000000  0.000000  1
  Er  Er18  1  0.500000  0.500000  0.000000  1
  Er  Er19  1  0.500000  0.500000  0.500000  1
  Ir  Ir20  1  0.500000  0.000000  0.121974  1
  Ir  Ir21  1  0.500000  0.000000  0.621974  1
  Ir  Ir22  1  0.000000  0.500000  0.878026  1
  Ir  Ir23  1  0.000000  0.500000  0.378026  1
  Pt  Pt24  1  0.847991  0.152009  0.250000  1
  Pt  Pt25  1  0.847991  0.847991  0.750000  1
  Pt  Pt26  1  0.152009  0.152009  0.750000  1
  Pt  Pt27  1  0.152009  0.847991  0.250000  1
  Pt  Pt28  1  0.652009  0.347991  0.750000  1
  Pt  Pt29  1  0.652009  0.652009  0.250000  1
  Pt  Pt30  1  0.347991  0.347991  0.250000  1
  Pt  Pt31  1  0.347991  0.652009  0.750000  1
