# generated using pymatgen
data_Y5OsRh
_symmetry_space_group_name_H-M   'P 1'
_cell_length_a   6.45452814
_cell_length_b   7.33665505
_cell_length_c   8.54196611
_cell_angle_alpha   96.70802569
_cell_angle_beta   112.19826083
_cell_angle_gamma   90.00000210
_symmetry_Int_Tables_number   1
_chemical_formula_structural   Y5OsRh
_chemical_formula_sum   'Y10 Os2 Rh2'
_cell_volume   371.52845579
_cell_formula_units_Z   2
loop_
 _symmetry_equiv_pos_site_id
 _symmetry_equiv_pos_as_xyz
  1  'x, y, z'
loop_
 _atom_site_type_symbol
 _atom_site_label
 _atom_site_symmetry_multiplicity
 _atom_site_fract_x
 _atom_site_fract_y
 _atom_site_fract_z
 _atom_site_occupancy
  Y  Y0  1  0.980721  0.917379  0.187762  1
  Y  Y1  1  0.792959  0.582621  0.812238  1
  Y  Y2  1  0.025249  0.085244  0.817311  1
  Y  Y3  1  0.207938  0.414756  0.182689  1
  Y  Y4  1  0.644104  0.818466  0.435031  1
  Y  Y5  1  0.209073  0.681534  0.564969  1
  Y  Y6  1  0.352560  0.185725  0.561847  1
  Y  Y7  1  0.790713  0.314275  0.438153  1
  Y  Y8  1  0.422190  0.750000  0.000000  1
  Y  Y9  1  0.574262  0.250000  0.000000  1
  Os  Os10  1  0.176592  0.424528  0.780930  1
  Os  Os11  1  0.395662  0.075472  0.219070  1
  Rh  Rh12  1  0.824511  0.576889  0.221045  1
  Rh  Rh13  1  0.603467  0.923111  0.778955  1
