# generated using pymatgen
data_Ac10Sn6As
_symmetry_space_group_name_H-M   'P 1'
_cell_length_a   7.44187619
_cell_length_b   9.95225666
_cell_length_c   9.95112710
_cell_angle_alpha   120.00005806
_cell_angle_beta   90.00124590
_cell_angle_gamma   90.00643415
_symmetry_Int_Tables_number   1
_chemical_formula_structural   Ac10Sn6As
_chemical_formula_sum   'Ac10 Sn6 As1'
_cell_volume   638.27326544
_cell_formula_units_Z   1
loop_
 _symmetry_equiv_pos_site_id
 _symmetry_equiv_pos_as_xyz
  1  'x, y, z'
loop_
 _atom_site_type_symbol
 _atom_site_label
 _atom_site_symmetry_multiplicity
 _atom_site_fract_x
 _atom_site_fract_y
 _atom_site_fract_z
 _atom_site_occupancy
  Ac  Ac0  1  0.500000  0.333336  0.666730  1
  Ac  Ac1  1  0.499964  0.666503  0.333248  1
  Ac  Ac2  1  0.000061  0.666503  0.333241  1
  Ac  Ac3  1  0.999997  0.333377  0.666755  1
  Ac  Ac4  1  0.749832  0.248398  0.000040  1
  Ac  Ac5  1  0.749876  0.751754  0.751855  1
  Ac  Ac6  1  0.749879  0.999957  0.248134  1
  Ac  Ac7  1  0.250117  0.751573  0.999884  1
  Ac  Ac8  1  0.250154  0.248361  0.248237  1
  Ac  Ac9  1  0.250101  0.000117  0.751923  1
  Sn  Sn10  1  0.750347  0.603839  0.000072  1
  Sn  Sn11  1  0.750282  0.396219  0.396206  1
  Sn  Sn12  1  0.750406  0.000085  0.603851  1
  Sn  Sn13  1  0.249729  0.396108  0.000062  1
  Sn  Sn14  1  0.249650  0.603764  0.603761  1
  Sn  Sn15  1  0.249617  0.000113  0.395994  1
  As  As16  1  0.499990  0.999996  0.000006  1
