# generated using pymatgen
data_LuSi7Ir3
_symmetry_space_group_name_H-M   'P 1'
_cell_length_a   8.02555014
_cell_length_b   8.02555035
_cell_length_c   8.02555043
_cell_angle_alpha   56.49202001
_cell_angle_beta   56.49201950
_cell_angle_gamma   56.49201740
_symmetry_Int_Tables_number   1
_chemical_formula_structural   LuSi7Ir3
_chemical_formula_sum   'Lu2 Si14 Ir6'
_cell_volume   335.88050692
_cell_formula_units_Z   2
loop_
 _symmetry_equiv_pos_site_id
 _symmetry_equiv_pos_as_xyz
  1  'x, y, z'
loop_
 _atom_site_type_symbol
 _atom_site_label
 _atom_site_symmetry_multiplicity
 _atom_site_fract_x
 _atom_site_fract_y
 _atom_site_fract_z
 _atom_site_occupancy
  Lu  Lu0  1  0.000000  0.000000  0.000000  1
  Lu  Lu1  1  0.500000  0.500000  0.500000  1
  Si  Si2  1  0.750000  0.750000  0.750000  1
  Si  Si3  1  0.250000  0.250000  0.250000  1
  Si  Si4  1  0.850527  0.064616  0.672242  1
  Si  Si5  1  0.672242  0.850527  0.064616  1
  Si  Si6  1  0.064616  0.672242  0.850527  1
  Si  Si7  1  0.649473  0.827758  0.435384  1
  Si  Si8  1  0.435384  0.649473  0.827758  1
  Si  Si9  1  0.827758  0.435384  0.649473  1
  Si  Si10  1  0.172242  0.564616  0.350527  1
  Si  Si11  1  0.564616  0.350527  0.172242  1
  Si  Si12  1  0.350527  0.172242  0.564616  1
  Si  Si13  1  0.935384  0.327758  0.149473  1
  Si  Si14  1  0.327758  0.149473  0.935384  1
  Si  Si15  1  0.149473  0.935384  0.327758  1
  Ir  Ir16  1  0.072166  0.427834  0.750000  1
  Ir  Ir17  1  0.250000  0.927834  0.572166  1
  Ir  Ir18  1  0.572166  0.250000  0.927834  1
  Ir  Ir19  1  0.927834  0.572166  0.250000  1
  Ir  Ir20  1  0.427834  0.750000  0.072166  1
  Ir  Ir21  1  0.750000  0.072166  0.427834  1
