# generated using pymatgen
data_NdTmZn4Ru
_symmetry_space_group_name_H-M   'P 1'
_cell_length_a   6.99730000
_cell_length_b   6.99730000
_cell_length_c   5.32783700
_cell_angle_alpha   90.00000000
_cell_angle_beta   90.00000000
_cell_angle_gamma   90.00000000
_symmetry_Int_Tables_number   1
_chemical_formula_structural   NdTmZn4Ru
_chemical_formula_sum   'Nd2 Tm2 Zn8 Ru2'
_cell_volume   260.86265960
_cell_formula_units_Z   2
loop_
 _symmetry_equiv_pos_site_id
 _symmetry_equiv_pos_as_xyz
  1  'x, y, z'
loop_
 _atom_site_type_symbol
 _atom_site_label
 _atom_site_symmetry_multiplicity
 _atom_site_fract_x
 _atom_site_fract_y
 _atom_site_fract_z
 _atom_site_occupancy
  Nd  Nd0  1  0.000000  0.500000  0.773556  1
  Nd  Nd1  1  0.500000  0.000000  0.226444  1
  Tm  Tm2  1  0.000000  0.000000  0.000000  1
  Tm  Tm3  1  0.500000  0.500000  0.000000  1
  Zn  Zn4  1  0.187368  0.687368  0.290572  1
  Zn  Zn5  1  0.812632  0.687368  0.290572  1
  Zn  Zn6  1  0.812632  0.312632  0.290572  1
  Zn  Zn7  1  0.312632  0.187368  0.709428  1
  Zn  Zn8  1  0.187368  0.312632  0.290572  1
  Zn  Zn9  1  0.687368  0.187368  0.709428  1
  Zn  Zn10  1  0.687368  0.812632  0.709428  1
  Zn  Zn11  1  0.312632  0.812632  0.709428  1
  Ru  Ru12  1  0.500000  0.500000  0.500000  1
  Ru  Ru13  1  0.000000  0.000000  0.500000  1
