# generated using pymatgen
data_Ho5Co16Si7Tc3P5
_symmetry_space_group_name_H-M   'P 1'
_cell_length_a   12.13585109
_cell_length_b   12.13585143
_cell_length_c   3.73777700
_cell_angle_alpha   90.00000000
_cell_angle_beta   90.00000000
_cell_angle_gamma   120.16828536
_symmetry_Int_Tables_number   1
_chemical_formula_structural   Ho5Co16Si7Tc3P5
_chemical_formula_sum   'Ho5 Co16 Si7 Tc3 P5'
_cell_volume   475.93270700
_cell_formula_units_Z   1
loop_
 _symmetry_equiv_pos_site_id
 _symmetry_equiv_pos_as_xyz
  1  'x, y, z'
loop_
 _atom_site_type_symbol
 _atom_site_label
 _atom_site_symmetry_multiplicity
 _atom_site_fract_x
 _atom_site_fract_y
 _atom_site_fract_z
 _atom_site_occupancy
  Ho  Ho0  1  0.666879  0.333408  0.000000  1
  Ho  Ho1  1  0.333408  0.666879  0.000000  1
  Ho  Ho2  1  0.814476  0.814476  0.500000  1
  Ho  Ho3  1  0.185242  0.998777  0.500000  1
  Ho  Ho4  1  0.998777  0.185242  0.500000  1
  Co  Co5  1  0.877834  0.354192  0.500000  1
  Co  Co6  1  0.646026  0.523913  0.500000  1
  Co  Co7  1  0.476489  0.121361  0.500000  1
  Co  Co8  1  0.354192  0.877834  0.500000  1
  Co  Co9  1  0.523913  0.646026  0.500000  1
  Co  Co10  1  0.121361  0.476489  0.500000  1
  Co  Co11  1  0.806292  0.178715  0.000000  1
  Co  Co12  1  0.821205  0.627624  0.000000  1
  Co  Co13  1  0.375668  0.193432  0.000000  1
  Co  Co14  1  0.178715  0.806292  0.000000  1
  Co  Co15  1  0.627624  0.821205  0.000000  1
  Co  Co16  1  0.193432  0.375668  0.000000  1
  Co  Co17  1  0.279720  0.279720  0.500000  1
  Co  Co18  1  0.723455  0.000052  0.500000  1
  Co  Co19  1  0.000052  0.723455  0.500000  1
  Co  Co20  1  0.995956  0.995956  0.000000  1
  Si  Si21  1  0.683931  0.162725  0.500000  1
  Si  Si22  1  0.837097  0.521106  0.500000  1
  Si  Si23  1  0.478899  0.315277  0.500000  1
  Si  Si24  1  0.162725  0.683931  0.500000  1
  Si  Si25  1  0.521106  0.837097  0.500000  1
  Si  Si26  1  0.315277  0.478899  0.500000  1
  Si  Si27  1  0.181504  0.181504  0.000000  1
  Tc  Tc28  1  0.443377  0.443377  0.000000  1
  Tc  Tc29  1  0.556113  0.999800  0.000000  1
  Tc  Tc30  1  0.999800  0.556113  0.000000  1
  P  P31  1  0.818847  0.000282  0.000000  1
  P  P32  1  0.000282  0.818847  0.000000  1
  P  P33  1  0.635385  0.635385  0.000000  1
  P  P34  1  0.364936  0.000007  0.000000  1
  P  P35  1  0.000007  0.364936  0.000000  1
