# generated using pymatgen
data_Zr10In3Ga2Bi3
_symmetry_space_group_name_H-M   'P 1'
_cell_length_a   8.83048600
_cell_length_b   8.83048719
_cell_length_c   5.95241400
_cell_angle_alpha   90.00000000
_cell_angle_beta   90.00000000
_cell_angle_gamma   120.00000304
_symmetry_Int_Tables_number   1
_chemical_formula_structural   Zr10In3Ga2Bi3
_chemical_formula_sum   'Zr10 In3 Ga2 Bi3'
_cell_volume   401.96942356
_cell_formula_units_Z   1
loop_
 _symmetry_equiv_pos_site_id
 _symmetry_equiv_pos_as_xyz
  1  'x, y, z'
loop_
 _atom_site_type_symbol
 _atom_site_label
 _atom_site_symmetry_multiplicity
 _atom_site_fract_x
 _atom_site_fract_y
 _atom_site_fract_z
 _atom_site_occupancy
  Zr  Zr0  1  0.727757  0.000000  0.250000  1
  Zr  Zr1  1  0.000000  0.727757  0.250000  1
  Zr  Zr2  1  0.272243  0.272243  0.250000  1
  Zr  Zr3  1  0.255675  0.000000  0.750000  1
  Zr  Zr4  1  0.000000  0.255675  0.750000  1
  Zr  Zr5  1  0.744325  0.744325  0.750000  1
  Zr  Zr6  1  0.333333  0.666667  0.492025  1
  Zr  Zr7  1  0.666667  0.333333  0.492025  1
  Zr  Zr8  1  0.666667  0.333333  0.007975  1
  Zr  Zr9  1  0.333333  0.666667  0.007975  1
  In  In10  1  0.381345  0.000000  0.250000  1
  In  In11  1  0.000000  0.381345  0.250000  1
  In  In12  1  0.618655  0.618655  0.250000  1
  Ga  Ga13  1  0.000000  0.000000  0.481986  1
  Ga  Ga14  1  0.000000  0.000000  0.018014  1
  Bi  Bi15  1  0.605433  0.000000  0.750000  1
  Bi  Bi16  1  0.000000  0.605433  0.750000  1
  Bi  Bi17  1  0.394567  0.394567  0.750000  1
