# generated using pymatgen
data_Pt(SeF6)2
_symmetry_space_group_name_H-M   'P 1'
_cell_length_a   6.18194500
_cell_length_b   7.94099600
_cell_length_c   9.93806900
_cell_angle_alpha   90.00000000
_cell_angle_beta   90.00000000
_cell_angle_gamma   90.00000000
_symmetry_Int_Tables_number   1
_chemical_formula_structural   Pt(SeF6)2
_chemical_formula_sum   'Pt2 Se4 F24'
_cell_volume   487.86776281
_cell_formula_units_Z   2
loop_
 _symmetry_equiv_pos_site_id
 _symmetry_equiv_pos_as_xyz
  1  'x, y, z'
loop_
 _atom_site_type_symbol
 _atom_site_label
 _atom_site_symmetry_multiplicity
 _atom_site_fract_x
 _atom_site_fract_y
 _atom_site_fract_z
 _atom_site_occupancy
  Pt  Pt0  1  0.000000  0.500000  0.000000  1
  Pt  Pt1  1  0.500000  0.000000  0.500000  1
  Se  Se2  1  0.500000  0.581758  0.241079  1
  Se  Se3  1  0.500000  0.418242  0.758921  1
  Se  Se4  1  0.000000  0.081758  0.258921  1
  Se  Se5  1  0.000000  0.918242  0.741079  1
  F  F6  1  0.225009  0.364255  0.909108  1
  F  F7  1  0.225009  0.635745  0.090892  1
  F  F8  1  0.274991  0.864255  0.590892  1
  F  F9  1  0.274991  0.135745  0.409108  1
  F  F10  1  0.774991  0.635745  0.090892  1
  F  F11  1  0.774991  0.364255  0.909108  1
  F  F12  1  0.796999  0.972205  0.854275  1
  F  F13  1  0.796999  0.027795  0.145725  1
  F  F14  1  0.703001  0.472205  0.645725  1
  F  F15  1  0.703001  0.527795  0.354275  1
  F  F16  1  0.203001  0.027795  0.145725  1
  F  F17  1  0.203001  0.972205  0.854275  1
  F  F18  1  0.296999  0.527795  0.354275  1
  F  F19  1  0.296999  0.472205  0.645725  1
  F  F20  1  0.000000  0.656236  0.845062  1
  F  F21  1  0.000000  0.343764  0.154938  1
  F  F22  1  0.500000  0.156236  0.654938  1
  F  F23  1  0.500000  0.843764  0.345062  1
  F  F24  1  0.500000  0.618470  0.830208  1
  F  F25  1  0.500000  0.381530  0.169792  1
  F  F26  1  0.000000  0.118470  0.669792  1
  F  F27  1  0.000000  0.881530  0.330208  1
  F  F28  1  0.725009  0.864255  0.590892  1
  F  F29  1  0.725009  0.135745  0.409108  1
