# generated using pymatgen
data_Sc6B4Ir4RuRh5
_symmetry_space_group_name_H-M   'P 1'
_cell_length_a   3.08308800
_cell_length_b   9.60766429
_cell_length_c   9.54418231
_cell_angle_alpha   90.33249869
_cell_angle_beta   90.00000000
_cell_angle_gamma   90.00000000
_symmetry_Int_Tables_number   1
_chemical_formula_structural   Sc6B4Ir4RuRh5
_chemical_formula_sum   'Sc6 B4 Ir4 Ru1 Rh5'
_cell_volume   282.70608332
_cell_formula_units_Z   1
loop_
 _symmetry_equiv_pos_site_id
 _symmetry_equiv_pos_as_xyz
  1  'x, y, z'
loop_
 _atom_site_type_symbol
 _atom_site_label
 _atom_site_symmetry_multiplicity
 _atom_site_fract_x
 _atom_site_fract_y
 _atom_site_fract_z
 _atom_site_occupancy
  Sc  Sc0  1  0.000000  0.172581  0.672863  1
  Sc  Sc1  1  0.000000  0.825551  0.328734  1
  Sc  Sc2  1  0.000000  0.324771  0.175612  1
  Sc  Sc3  1  0.000000  0.675549  0.823826  1
  Sc  Sc4  1  0.000000  0.998310  0.001003  1
  Sc  Sc5  1  0.000000  0.498905  0.502153  1
  B  B6  1  0.000000  0.622314  0.123847  1
  B  B7  1  0.000000  0.375806  0.878473  1
  B  B8  1  0.000000  0.880029  0.618660  1
  B  B9  1  0.000000  0.120840  0.380480  1
  Ir  Ir10  1  0.500000  0.223169  0.927411  1
  Ir  Ir11  1  0.500000  0.572096  0.277608  1
  Ir  Ir12  1  0.500000  0.722589  0.572909  1
  Ir  Ir13  1  0.500000  0.278401  0.426104  1
  Ru  Ru14  1  0.500000  0.000615  0.499285  1
  Rh  Rh15  1  0.500000  0.071992  0.220039  1
  Rh  Rh16  1  0.500000  0.928853  0.778907  1
  Rh  Rh17  1  0.500000  0.776803  0.070567  1
  Rh  Rh18  1  0.500000  0.429782  0.722581  1
  Rh  Rh19  1  0.500000  0.501044  0.998940  1
