# generated using pymatgen
data_Fe7Tc3Mo2W
_symmetry_space_group_name_H-M   'P 1'
_cell_length_a   8.97605419
_cell_length_b   8.97605388
_cell_length_c   8.97605312
_cell_angle_alpha   30.48362175
_cell_angle_beta   30.48362286
_cell_angle_gamma   30.48363030
_symmetry_Int_Tables_number   1
_chemical_formula_structural   Fe7Tc3Mo2W
_chemical_formula_sum   'Fe7 Tc3 Mo2 W1'
_cell_volume   164.97306953
_cell_formula_units_Z   1
loop_
 _symmetry_equiv_pos_site_id
 _symmetry_equiv_pos_as_xyz
  1  'x, y, z'
loop_
 _atom_site_type_symbol
 _atom_site_label
 _atom_site_symmetry_multiplicity
 _atom_site_fract_x
 _atom_site_fract_y
 _atom_site_fract_z
 _atom_site_occupancy
  Fe  Fe0  1  0.587136  0.091997  0.091997  1
  Fe  Fe1  1  0.091997  0.091997  0.587136  1
  Fe  Fe2  1  0.909765  0.909765  0.408704  1
  Fe  Fe3  1  0.909765  0.408704  0.909765  1
  Fe  Fe4  1  0.000094  0.000094  0.000094  1
  Fe  Fe5  1  0.091997  0.587136  0.091997  1
  Fe  Fe6  1  0.408704  0.909765  0.909765  1
  Tc  Tc7  1  0.347650  0.347650  0.347650  1
  Tc  Tc8  1  0.166060  0.166060  0.166060  1
  Tc  Tc9  1  0.548346  0.548346  0.548346  1
  Mo  Mo10  1  0.451751  0.451751  0.451751  1
  Mo  Mo11  1  0.834117  0.834117  0.834117  1
  W  W12  1  0.652620  0.652620  0.652620  1
