# generated using pymatgen
data_Ca2DyGa8Ag3
_symmetry_space_group_name_H-M   'P 1'
_cell_length_a   4.40663301
_cell_length_b   8.40254734
_cell_length_c   8.40254666
_cell_angle_alpha   70.67328890
_cell_angle_beta   74.79816538
_cell_angle_gamma   74.79816847
_symmetry_Int_Tables_number   1
_chemical_formula_structural   Ca2DyGa8Ag3
_chemical_formula_sum   'Ca2 Dy1 Ga8 Ag3'
_cell_volume   278.00727521
_cell_formula_units_Z   1
loop_
 _symmetry_equiv_pos_site_id
 _symmetry_equiv_pos_as_xyz
  1  'x, y, z'
loop_
 _atom_site_type_symbol
 _atom_site_label
 _atom_site_symmetry_multiplicity
 _atom_site_fract_x
 _atom_site_fract_y
 _atom_site_fract_z
 _atom_site_occupancy
  Ca  Ca0  1  0.500153  0.499847  0.499847  1
  Ca  Ca1  1  0.799383  0.200617  0.200617  1
  Dy  Dy2  1  0.203235  0.796765  0.796765  1
  Ga  Ga3  1  0.642146  0.074341  0.641368  1
  Ga  Ga4  1  0.355671  0.924124  0.364534  1
  Ga  Ga5  1  0.642146  0.641368  0.074341  1
  Ga  Ga6  1  0.355671  0.364534  0.924124  1
  Ga  Ga7  1  0.840027  0.790585  0.529362  1
  Ga  Ga8  1  0.160914  0.205401  0.472771  1
  Ga  Ga9  1  0.840027  0.529362  0.790585  1
  Ga  Ga10  1  0.160914  0.472771  0.205401  1
  Ag  Ag11  1  0.500479  0.999521  0.999521  1
  Ag  Ag12  1  0.999618  0.808324  0.192441  1
  Ag  Ag13  1  0.999618  0.192441  0.808324  1
