# generated using pymatgen
data_Pr9Bi4PbO5
_symmetry_space_group_name_H-M   'P 1'
_cell_length_a   10.44378600
_cell_length_b   10.44378600
_cell_length_c   9.42874700
_cell_angle_alpha   90.00000000
_cell_angle_beta   90.00000000
_cell_angle_gamma   90.00000000
_symmetry_Int_Tables_number   1
_chemical_formula_structural   Pr9Bi4PbO5
_chemical_formula_sum   'Pr18 Bi8 Pb2 O10'
_cell_volume   1028.41857246
_cell_formula_units_Z   2
loop_
 _symmetry_equiv_pos_site_id
 _symmetry_equiv_pos_as_xyz
  1  'x, y, z'
loop_
 _atom_site_type_symbol
 _atom_site_label
 _atom_site_symmetry_multiplicity
 _atom_site_fract_x
 _atom_site_fract_y
 _atom_site_fract_z
 _atom_site_occupancy
  Pr  Pr0  1  0.725434  0.918137  0.003085  1
  Pr  Pr1  1  0.581863  0.225434  0.003085  1
  Pr  Pr2  1  0.000000  0.500000  0.327288  1
  Pr  Pr3  1  0.774566  0.581863  0.996915  1
  Pr  Pr4  1  0.225434  0.418137  0.996915  1
  Pr  Pr5  1  0.207506  0.897058  0.338304  1
  Pr  Pr6  1  0.274566  0.081863  0.003085  1
  Pr  Pr7  1  0.897058  0.792494  0.661696  1
  Pr  Pr8  1  0.918137  0.274566  0.996915  1
  Pr  Pr9  1  0.292494  0.602942  0.661696  1
  Pr  Pr10  1  0.418137  0.774566  0.003085  1
  Pr  Pr11  1  0.102942  0.207506  0.661696  1
  Pr  Pr12  1  0.792494  0.102942  0.338304  1
  Pr  Pr13  1  0.500000  0.000000  0.672712  1
  Pr  Pr14  1  0.081863  0.725434  0.996915  1
  Pr  Pr15  1  0.397058  0.292494  0.338304  1
  Pr  Pr16  1  0.707506  0.397058  0.661696  1
  Pr  Pr17  1  0.602942  0.707506  0.338304  1
  Bi  Bi18  1  0.195224  0.903782  0.699351  1
  Bi  Bi19  1  0.403782  0.304776  0.699351  1
  Bi  Bi20  1  0.695224  0.403782  0.300649  1
  Bi  Bi21  1  0.096218  0.195224  0.300649  1
  Bi  Bi22  1  0.596218  0.695224  0.699351  1
  Bi  Bi23  1  0.304776  0.596218  0.300649  1
  Bi  Bi24  1  0.804776  0.096218  0.699351  1
  Bi  Bi25  1  0.903782  0.804776  0.300649  1
  Pb  Pb26  1  0.500000  0.000000  0.315973  1
  Pb  Pb27  1  0.000000  0.500000  0.684027  1
  O  O28  1  0.500000  0.000000  0.932431  1
  O  O29  1  0.724037  0.378271  0.913293  1
  O  O30  1  0.621729  0.724037  0.086707  1
  O  O31  1  0.378271  0.275963  0.086707  1
  O  O32  1  0.121729  0.224037  0.913293  1
  O  O33  1  0.275963  0.621729  0.913293  1
  O  O34  1  0.000000  0.500000  0.067569  1
  O  O35  1  0.224037  0.878271  0.086707  1
  O  O36  1  0.878271  0.775963  0.913293  1
  O  O37  1  0.775963  0.121729  0.086707  1
