# generated using pymatgen
data_CeY(ThH5)6
_symmetry_space_group_name_H-M   'P 1'
_cell_length_a   7.86972439
_cell_length_b   7.87258170
_cell_length_c   7.84612227
_cell_angle_alpha   109.41799612
_cell_angle_beta   109.39172215
_cell_angle_gamma   109.53316860
_symmetry_Int_Tables_number   1
_chemical_formula_structural   CeY(ThH5)6
_chemical_formula_sum   'Ce1 Y1 Th6 H30'
_cell_volume   374.53126564
_cell_formula_units_Z   1
loop_
 _symmetry_equiv_pos_site_id
 _symmetry_equiv_pos_as_xyz
  1  'x, y, z'
loop_
 _atom_site_type_symbol
 _atom_site_label
 _atom_site_symmetry_multiplicity
 _atom_site_fract_x
 _atom_site_fract_y
 _atom_site_fract_z
 _atom_site_occupancy
  Ce  Ce0  1  0.917960  0.918333  0.918693  1
  Y  Y1  1  0.499795  0.999367  0.084804  1
  Th  Th2  1  0.994287  0.080502  0.495924  1
  Th  Th3  1  0.085653  0.504941  0.000742  1
  Th  Th4  1  0.000002  0.583938  0.502224  1
  Th  Th5  1  0.583755  0.501480  0.000236  1
  Th  Th6  1  0.501665  0.999915  0.586722  1
  Th  Th7  1  0.418142  0.412953  0.414178  1
  H  H8  1  0.651957  0.966039  0.371899  1
  H  H9  1  0.217276  0.315500  0.845274  1
  H  H10  1  0.185907  0.402892  0.533215  1
  H  H11  1  0.100513  0.288280  0.131587  1
  H  H12  1  0.289179  0.128170  0.097450  1
  H  H13  1  0.131541  0.098554  0.285858  1
  H  H14  1  0.470485  0.155201  0.874134  1
  H  H15  1  0.718970  0.349149  0.814309  1
  H  H16  1  0.628618  0.381537  0.252354  1
  H  H17  1  0.250414  0.625168  0.375721  1
  H  H18  1  0.749457  0.871066  0.128613  1
  H  H19  1  0.123194  0.743837  0.870480  1
  H  H20  1  0.374316  0.249052  0.624886  1
  H  H21  1  0.874255  0.130137  0.747509  1
  H  H22  1  0.778783  0.590359  0.624838  1
  H  H23  1  0.316344  0.847356  0.220579  1
  H  H24  1  0.373776  0.657376  0.968406  1
  H  H25  1  0.965917  0.370129  0.651851  1
  H  H26  1  0.535434  0.185783  0.406173  1
  H  H27  1  0.404601  0.535358  0.185760  1
  H  H28  1  0.841384  0.217163  0.312329  1
  H  H29  1  0.903577  0.682947  0.034009  1
  H  H30  1  0.813930  0.717925  0.347772  1
  H  H31  1  0.152350  0.870057  0.466290  1
  H  H32  1  0.680858  0.030941  0.904331  1
  H  H33  1  0.346137  0.816099  0.720911  1
  H  H34  1  0.872469  0.470388  0.154041  1
  H  H35  1  0.624963  0.777492  0.589555  1
  H  H36  1  0.591846  0.622147  0.776666  1
  H  H37  1  0.030293  0.902468  0.679677  1
