# generated using pymatgen
data_Er9Zr11Sn16
_symmetry_space_group_name_H-M   'P 1'
_cell_length_a   7.75474796
_cell_length_b   7.82038897
_cell_length_c   14.73217101
_cell_angle_alpha   90.05374510
_cell_angle_beta   90.12447107
_cell_angle_gamma   90.15912456
_symmetry_Int_Tables_number   1
_chemical_formula_structural   Er9Zr11Sn16
_chemical_formula_sum   'Er9 Zr11 Sn16'
_cell_volume   893.42870186
_cell_formula_units_Z   1
loop_
 _symmetry_equiv_pos_site_id
 _symmetry_equiv_pos_as_xyz
  1  'x, y, z'
loop_
 _atom_site_type_symbol
 _atom_site_label
 _atom_site_symmetry_multiplicity
 _atom_site_fract_x
 _atom_site_fract_y
 _atom_site_fract_z
 _atom_site_occupancy
  Er  Er0  1  0.850722  0.661292  0.875803  1
  Er  Er1  1  0.513566  0.319448  0.906369  1
  Er  Er2  1  0.014294  0.177609  0.590852  1
  Er  Er3  1  0.486275  0.678014  0.407501  1
  Er  Er4  1  0.984758  0.823419  0.096685  1
  Er  Er5  1  0.488314  0.679400  0.094010  1
  Er  Er6  1  0.986840  0.822169  0.406667  1
  Er  Er7  1  0.513467  0.321204  0.591299  1
  Er  Er8  1  0.014245  0.178901  0.906094  1
  Zr  Zr9  1  0.350186  0.837008  0.869986  1
  Zr  Zr10  1  0.848598  0.663655  0.627373  1
  Zr  Zr11  1  0.650725  0.163354  0.371136  1
  Zr  Zr12  1  0.150071  0.336468  0.129013  1
  Zr  Zr13  1  0.648565  0.158644  0.131331  1
  Zr  Zr14  1  0.150470  0.337359  0.371526  1
  Zr  Zr15  1  0.349830  0.838792  0.626802  1
  Zr  Zr16  1  0.173955  0.509174  0.748498  1
  Zr  Zr17  1  0.670057  0.992943  0.748945  1
  Zr  Zr18  1  0.827997  0.490988  0.252044  1
  Zr  Zr19  1  0.327626  0.009592  0.249019  1
  Sn  Sn20  1  0.307149  0.038795  0.041556  1
  Sn  Sn21  1  0.809463  0.460635  0.458188  1
  Sn  Sn22  1  0.690066  0.960332  0.541128  1
  Sn  Sn23  1  0.200123  0.538940  0.959277  1
  Sn  Sn24  1  0.685929  0.967180  0.958854  1
  Sn  Sn25  1  0.189058  0.539729  0.541534  1
  Sn  Sn26  1  0.310563  0.039970  0.456490  1
  Sn  Sn27  1  0.808724  0.455335  0.048036  1
  Sn  Sn28  1  0.542567  0.615094  0.746921  1
  Sn  Sn29  1  0.043918  0.886158  0.747546  1
  Sn  Sn30  1  0.455207  0.384969  0.250440  1
  Sn  Sn31  1  0.955421  0.115633  0.250760  1
  Sn  Sn32  1  0.317625  0.155870  0.748183  1
  Sn  Sn33  1  0.819416  0.343713  0.747247  1
  Sn  Sn34  1  0.681185  0.843964  0.252013  1
  Sn  Sn35  1  0.183025  0.654248  0.250875  1
