# generated using pymatgen
data_Hf8ReOsPt2
_symmetry_space_group_name_H-M   'P 1'
_cell_length_a   8.82234809
_cell_length_b   8.82234824
_cell_length_c   8.81852800
_cell_angle_alpha   60.01433060
_cell_angle_beta   60.01433005
_cell_angle_gamma   60.04641336
_symmetry_Int_Tables_number   1
_chemical_formula_structural   Hf8ReOsPt2
_chemical_formula_sum   'Hf16 Re2 Os2 Pt4'
_cell_volume   485.61902522
_cell_formula_units_Z   2
loop_
 _symmetry_equiv_pos_site_id
 _symmetry_equiv_pos_as_xyz
  1  'x, y, z'
loop_
 _atom_site_type_symbol
 _atom_site_label
 _atom_site_symmetry_multiplicity
 _atom_site_fract_x
 _atom_site_fract_y
 _atom_site_fract_z
 _atom_site_occupancy
  Hf  Hf0  1  0.158277  0.614424  0.613650  1
  Hf  Hf1  1  0.614424  0.158277  0.613650  1
  Hf  Hf2  1  0.613659  0.613659  0.159481  1
  Hf  Hf3  1  0.613659  0.613659  0.613201  1
  Hf  Hf4  1  0.818100  0.818100  0.181900  1
  Hf  Hf5  1  0.181637  0.181637  0.818363  1
  Hf  Hf6  1  0.818066  0.183429  0.818383  1
  Hf  Hf7  1  0.183429  0.818066  0.180123  1
  Hf  Hf8  1  0.183429  0.818066  0.818383  1
  Hf  Hf9  1  0.818066  0.183429  0.180123  1
  Hf  Hf10  1  0.459772  0.459772  0.040228  1
  Hf  Hf11  1  0.040886  0.040886  0.459114  1
  Hf  Hf12  1  0.458728  0.040773  0.459774  1
  Hf  Hf13  1  0.040773  0.458728  0.040725  1
  Hf  Hf14  1  0.040773  0.458728  0.459774  1
  Hf  Hf15  1  0.458728  0.040773  0.040725  1
  Re  Re16  1  0.496010  0.834003  0.834993  1
  Re  Re17  1  0.834003  0.496010  0.834993  1
  Os  Os18  1  0.833919  0.833919  0.497152  1
  Os  Os19  1  0.833919  0.833919  0.835011  1
  Pt  Pt20  1  0.817417  0.394096  0.394243  1
  Pt  Pt21  1  0.394096  0.817417  0.394243  1
  Pt  Pt22  1  0.394115  0.394115  0.817365  1
  Pt  Pt23  1  0.394115  0.394115  0.394404  1
