# generated using pymatgen
data_Er4Tm16Fe3CoSb8
_symmetry_space_group_name_H-M   'P 1'
_cell_length_a   7.73779998
_cell_length_b   8.73189400
_cell_length_c   12.02038962
_cell_angle_alpha   90.00000000
_cell_angle_beta   90.10054458
_cell_angle_gamma   90.00000000
_symmetry_Int_Tables_number   1
_chemical_formula_structural   Er4Tm16Fe3CoSb8
_chemical_formula_sum   'Er4 Tm16 Fe3 Co1 Sb8'
_cell_volume   812.16417835
_cell_formula_units_Z   1
loop_
 _symmetry_equiv_pos_site_id
 _symmetry_equiv_pos_as_xyz
  1  'x, y, z'
loop_
 _atom_site_type_symbol
 _atom_site_label
 _atom_site_symmetry_multiplicity
 _atom_site_fract_x
 _atom_site_fract_y
 _atom_site_fract_z
 _atom_site_occupancy
  Er  Er0  1  0.624324  0.750000  0.307453  1
  Er  Er1  1  0.124585  0.250000  0.191774  1
  Er  Er2  1  0.377544  0.250000  0.691708  1
  Er  Er3  1  0.875824  0.750000  0.808451  1
  Tm  Tm4  1  0.158538  0.750000  0.206640  1
  Tm  Tm5  1  0.657280  0.250000  0.293368  1
  Tm  Tm6  1  0.842751  0.250000  0.795824  1
  Tm  Tm7  1  0.344250  0.750000  0.703482  1
  Tm  Tm8  1  0.447886  0.750000  0.996564  1
  Tm  Tm9  1  0.945801  0.250000  0.504321  1
  Tm  Tm10  1  0.549462  0.250000  0.003657  1
  Tm  Tm11  1  0.049896  0.750000  0.496341  1
  Tm  Tm12  1  0.825603  0.965841  0.064530  1
  Tm  Tm13  1  0.325448  0.034488  0.436235  1
  Tm  Tm14  1  0.176951  0.460579  0.934393  1
  Tm  Tm15  1  0.676052  0.537744  0.564707  1
  Tm  Tm16  1  0.176951  0.039421  0.934393  1
  Tm  Tm17  1  0.676052  0.962256  0.564707  1
  Tm  Tm18  1  0.825603  0.534159  0.064530  1
  Tm  Tm19  1  0.325448  0.465512  0.436235  1
  Fe  Fe20  1  0.426512  0.750000  0.487816  1
  Fe  Fe21  1  0.929075  0.250000  0.010700  1
  Fe  Fe22  1  0.570069  0.250000  0.508851  1
  Co  Co23  1  0.068291  0.750000  0.991969  1
  Sb  Sb24  1  0.931380  0.993535  0.328314  1
  Sb  Sb25  1  0.431162  0.006784  0.171733  1
  Sb  Sb26  1  0.068960  0.492786  0.672350  1
  Sb  Sb27  1  0.568399  0.507617  0.828279  1
  Sb  Sb28  1  0.068960  0.007214  0.672350  1
  Sb  Sb29  1  0.568399  0.992383  0.828279  1
  Sb  Sb30  1  0.931380  0.506465  0.328314  1
  Sb  Sb31  1  0.431162  0.493216  0.171733  1
