# generated using pymatgen
data_Sm3IO8
_symmetry_space_group_name_H-M   'P 1'
_cell_length_a   5.51846058
_cell_length_b   5.51875202
_cell_length_c   5.51844142
_cell_angle_alpha   85.38901359
_cell_angle_beta   85.44481753
_cell_angle_gamma   85.43603408
_symmetry_Int_Tables_number   1
_chemical_formula_structural   Sm3IO8
_chemical_formula_sum   'Sm3 I1 O8'
_cell_volume   166.53751171
_cell_formula_units_Z   1
loop_
 _symmetry_equiv_pos_site_id
 _symmetry_equiv_pos_as_xyz
  1  'x, y, z'
loop_
 _atom_site_type_symbol
 _atom_site_label
 _atom_site_symmetry_multiplicity
 _atom_site_fract_x
 _atom_site_fract_y
 _atom_site_fract_z
 _atom_site_occupancy
  Sm  Sm0  1  0.508779  0.261624  0.261147  1
  Sm  Sm1  1  0.509484  0.760460  0.761602  1
  Sm  Sm2  1  0.011511  0.760751  0.260036  1
  I  I3  1  0.007919  0.258096  0.758142  1
  O  O4  1  0.156597  0.032746  0.532435  1
  O  O5  1  0.842111  0.481002  0.981280  1
  O  O6  1  0.231353  0.482259  0.592875  1
  O  O7  1  0.783128  0.031197  0.903660  1
  O  O8  1  0.231501  0.092897  0.982167  1
  O  O9  1  0.782724  0.403791  0.531585  1
  O  O10  1  0.315153  0.565830  0.065778  1
  O  O11  1  0.619741  0.869347  0.369293  1
