# generated using pymatgen
data_Yb4IrO6
_symmetry_space_group_name_H-M   'P 1'
_cell_length_a   6.46243213
_cell_length_b   6.46243203
_cell_length_c   6.46243293
_cell_angle_alpha   90.67750249
_cell_angle_beta   90.67750470
_cell_angle_gamma   90.67750890
_symmetry_Int_Tables_number   1
_chemical_formula_structural   Yb4IrO6
_chemical_formula_sum   'Yb8 Ir2 O12'
_cell_volume   269.83371497
_cell_formula_units_Z   2
loop_
 _symmetry_equiv_pos_site_id
 _symmetry_equiv_pos_as_xyz
  1  'x, y, z'
loop_
 _atom_site_type_symbol
 _atom_site_label
 _atom_site_symmetry_multiplicity
 _atom_site_fract_x
 _atom_site_fract_y
 _atom_site_fract_z
 _atom_site_occupancy
  Yb  Yb0  1  0.613185  0.886815  0.250000  1
  Yb  Yb1  1  0.886815  0.250000  0.613185  1
  Yb  Yb2  1  0.750000  0.750000  0.750000  1
  Yb  Yb3  1  0.250000  0.250000  0.250000  1
  Yb  Yb4  1  0.750000  0.386815  0.113185  1
  Yb  Yb5  1  0.113185  0.750000  0.386815  1
  Yb  Yb6  1  0.386815  0.113185  0.750000  1
  Yb  Yb7  1  0.250000  0.613185  0.886815  1
  Ir  Ir8  1  0.000000  0.000000  0.000000  1
  Ir  Ir9  1  0.500000  0.500000  0.500000  1
  O  O10  1  0.574265  0.443023  0.800972  1
  O  O11  1  0.800972  0.574265  0.443023  1
  O  O12  1  0.443023  0.800972  0.574265  1
  O  O13  1  0.925735  0.699028  0.056977  1
  O  O14  1  0.056977  0.925735  0.699028  1
  O  O15  1  0.699028  0.056977  0.925735  1
  O  O16  1  0.425735  0.556977  0.199028  1
  O  O17  1  0.199028  0.425735  0.556977  1
  O  O18  1  0.556977  0.199028  0.425735  1
  O  O19  1  0.074265  0.300972  0.943023  1
  O  O20  1  0.300972  0.943023  0.074265  1
  O  O21  1  0.943023  0.074265  0.300972  1
