# generated using pymatgen
data_Sr12Zn7Co5TeW7O48
_symmetry_space_group_name_H-M   'P 1'
_cell_length_a   11.28850073
_cell_length_b   11.26465471
_cell_length_c   11.26465400
_cell_angle_alpha   109.42829445
_cell_angle_beta   109.51410796
_cell_angle_gamma   109.51410758
_symmetry_Int_Tables_number   1
_chemical_formula_structural   Sr12Zn7Co5TeW7O48
_chemical_formula_sum   'Sr12 Zn7 Co5 Te1 W7 O48'
_cell_volume   1102.09746441
_cell_formula_units_Z   1
loop_
 _symmetry_equiv_pos_site_id
 _symmetry_equiv_pos_as_xyz
  1  'x, y, z'
loop_
 _atom_site_type_symbol
 _atom_site_label
 _atom_site_symmetry_multiplicity
 _atom_site_fract_x
 _atom_site_fract_y
 _atom_site_fract_z
 _atom_site_occupancy
  Sr  Sr0  1  0.376962  0.750650  0.124969  1
  Sr  Sr1  1  0.251962  0.374932  0.125637  1
  Sr  Sr2  1  0.873767  0.625743  0.250769  1
  Sr  Sr3  1  0.374864  0.124938  0.250031  1
  Sr  Sr4  1  0.124946  0.250023  0.375004  1
  Sr  Sr5  1  0.750012  0.125100  0.375138  1
  Sr  Sr6  1  0.875180  0.750121  0.625218  1
  Sr  Sr7  1  0.250178  0.874987  0.625037  1
  Sr  Sr8  1  0.126331  0.374264  0.749250  1
  Sr  Sr9  1  0.625053  0.875068  0.749918  1
  Sr  Sr10  1  0.622845  0.249108  0.874808  1
  Sr  Sr11  1  0.748000  0.625068  0.874224  1
  Zn  Zn12  1  0.246804  0.623696  0.373137  1
  Zn  Zn13  1  0.374753  0.249595  0.624509  1
  Zn  Zn14  1  0.753241  0.376384  0.626949  1
  Zn  Zn15  1  0.873622  0.126923  0.750496  1
  Zn  Zn16  1  0.374842  0.625080  0.749594  1
  Zn  Zn17  1  0.123079  0.749478  0.876357  1
  Zn  Zn18  1  0.249770  0.124482  0.874865  1
  Co  Co19  1  0.750233  0.875476  0.125080  1
  Co  Co20  1  0.876483  0.250466  0.123870  1
  Co  Co21  1  0.625056  0.374866  0.250418  1
  Co  Co22  1  0.126085  0.873440  0.249547  1
  Co  Co23  1  0.625247  0.750344  0.375502  1
  Te  Te24  1  0.999955  0.500022  0.000005  1
  W  W25  1  0.000036  0.000132  0.000163  1
  W  W26  1  0.500085  0.000033  0.000121  1
  W  W27  1  0.500108  0.500030  0.000119  1
  W  W28  1  0.999964  0.999854  0.499869  1
  W  W29  1  0.500061  0.500067  0.499964  1
  W  W30  1  0.499925  0.999922  0.499734  1
  W  W31  1  0.999912  0.499972  0.499981  1
  O  O32  1  0.329405  0.904783  0.015397  1
  O  O33  1  0.186781  0.109980  0.016339  1
  O  O34  1  0.686065  0.670994  0.076391  1
  O  O35  1  0.888422  0.407285  0.076751  1
  O  O36  1  0.981081  0.669415  0.092629  1
  O  O37  1  0.609750  0.423638  0.094683  1
  O  O38  1  0.594775  0.923995  0.110180  1
  O  O39  1  0.017091  0.186575  0.111224  1
  O  O40  1  0.188668  0.576906  0.169144  1
  O  O41  1  0.485056  0.594640  0.171000  1
  O  O42  1  0.575653  0.170381  0.186493  1
  O  O43  1  0.109730  0.013837  0.185533  1
  O  O44  1  0.330587  0.924638  0.313461  1
  O  O45  1  0.484717  0.389951  0.313941  1
  O  O46  1  0.905230  0.016063  0.329564  1
  O  O47  1  0.924177  0.314446  0.328289  1
  O  O48  1  0.576761  0.905931  0.390306  1
  O  O49  1  0.314034  0.484674  0.389446  1
  O  O50  1  0.829184  0.515530  0.405867  1
  O  O51  1  0.075351  0.889771  0.404371  1
  O  O52  1  0.829237  0.813860  0.423966  1
  O  O53  1  0.093738  0.611428  0.424517  1
  O  O54  1  0.595389  0.171297  0.485250  1
  O  O55  1  0.388854  0.313220  0.483139  1
  O  O56  1  0.610795  0.686396  0.516079  1
  O  O57  1  0.404659  0.828723  0.514567  1
  O  O58  1  0.170374  0.186395  0.575999  1
  O  O59  1  0.906166  0.388493  0.575336  1
  O  O60  1  0.924593  0.110453  0.595137  1
  O  O61  1  0.170348  0.483743  0.593590  1
  O  O62  1  0.685881  0.515261  0.610456  1
  O  O63  1  0.423237  0.093634  0.609795  1
  O  O64  1  0.094302  0.983120  0.669934  1
  O  O65  1  0.075882  0.685851  0.671173  1
  O  O66  1  0.516069  0.610391  0.686419  1
  O  O67  1  0.669163  0.075376  0.686848  1
  O  O68  1  0.889991  0.985287  0.814095  1
  O  O69  1  0.424358  0.830042  0.813252  1
  O  O70  1  0.515821  0.405842  0.829463  1
  O  O71  1  0.811311  0.423127  0.830860  1
  O  O72  1  0.982351  0.813104  0.888533  1
  O  O73  1  0.405715  0.076027  0.889702  1
  O  O74  1  0.019515  0.330981  0.907855  1
  O  O75  1  0.390154  0.576433  0.905863  1
  O  O76  1  0.111732  0.592239  0.923128  1
  O  O77  1  0.313720  0.329445  0.923649  1
  O  O78  1  0.671090  0.095698  0.985563  1
  O  O79  1  0.813670  0.890426  0.984532  1
