# generated using pymatgen
data_Th3Al3CuPt2
_symmetry_space_group_name_H-M   'P 1'
_cell_length_a   7.20758000
_cell_length_b   7.20757967
_cell_length_c   4.24350500
_cell_angle_alpha   90.00000000
_cell_angle_beta   90.00000000
_cell_angle_gamma   120.00000151
_symmetry_Int_Tables_number   1
_chemical_formula_structural   Th3Al3CuPt2
_chemical_formula_sum   'Th3 Al3 Cu1 Pt2'
_cell_volume   190.91245681
_cell_formula_units_Z   1
loop_
 _symmetry_equiv_pos_site_id
 _symmetry_equiv_pos_as_xyz
  1  'x, y, z'
loop_
 _atom_site_type_symbol
 _atom_site_label
 _atom_site_symmetry_multiplicity
 _atom_site_fract_x
 _atom_site_fract_y
 _atom_site_fract_z
 _atom_site_occupancy
  Th  Th0  1  0.422215  0.420852  0.500000  1
  Th  Th1  1  0.579148  0.001363  0.500000  1
  Th  Th2  1  0.998637  0.577785  0.500000  1
  Al  Al3  1  0.766121  0.766474  0.000000  1
  Al  Al4  1  0.233526  0.999647  0.000000  1
  Al  Al5  1  0.000353  0.233879  0.000000  1
  Cu  Cu6  1  0.666667  0.333333  0.000000  1
  Pt  Pt7  1  0.333333  0.666667  0.000000  1
  Pt  Pt8  1  0.000000  0.000000  0.500000  1
