# generated using pymatgen
data_Hf4Al4Cr2CuMo
_symmetry_space_group_name_H-M   'P 1'
_cell_length_a   5.15061427
_cell_length_b   5.15061261
_cell_length_c   8.56241400
_cell_angle_alpha   90.00000000
_cell_angle_beta   90.00000000
_cell_angle_gamma   119.49972197
_symmetry_Int_Tables_number   1
_chemical_formula_structural   Hf4Al4Cr2CuMo
_chemical_formula_sum   'Hf4 Al4 Cr2 Cu1 Mo1'
_cell_volume   197.70247403
_cell_formula_units_Z   1
loop_
 _symmetry_equiv_pos_site_id
 _symmetry_equiv_pos_as_xyz
  1  'x, y, z'
loop_
 _atom_site_type_symbol
 _atom_site_label
 _atom_site_symmetry_multiplicity
 _atom_site_fract_x
 _atom_site_fract_y
 _atom_site_fract_z
 _atom_site_occupancy
  Hf  Hf0  1  0.335341  0.664659  0.192528  1
  Hf  Hf1  1  0.665064  0.334936  0.320321  1
  Hf  Hf2  1  0.665064  0.334936  0.679679  1
  Hf  Hf3  1  0.335341  0.664659  0.807472  1
  Al  Al4  1  0.991300  0.008700  0.251719  1
  Al  Al5  1  0.991300  0.008700  0.748281  1
  Al  Al6  1  0.835019  0.650191  0.000000  1
  Al  Al7  1  0.349809  0.164981  0.000000  1
  Cr  Cr8  1  0.173277  0.348679  0.500000  1
  Cr  Cr9  1  0.651321  0.826723  0.500000  1
  Cu  Cu10  1  0.835285  0.164715  0.000000  1
  Mo  Mo11  1  0.171969  0.828031  0.500000  1
