# generated using pymatgen
data_Er2TmGa5Rh
_symmetry_space_group_name_H-M   'P 1'
_cell_length_a   6.86488659
_cell_length_b   6.86488596
_cell_length_c   4.30327100
_cell_angle_alpha   90.00000000
_cell_angle_beta   90.00000000
_cell_angle_gamma   120.00904651
_symmetry_Int_Tables_number   1
_chemical_formula_structural   Er2TmGa5Rh
_chemical_formula_sum   'Er2 Tm1 Ga5 Rh1'
_cell_volume   175.61290446
_cell_formula_units_Z   1
loop_
 _symmetry_equiv_pos_site_id
 _symmetry_equiv_pos_as_xyz
  1  'x, y, z'
loop_
 _atom_site_type_symbol
 _atom_site_label
 _atom_site_symmetry_multiplicity
 _atom_site_fract_x
 _atom_site_fract_y
 _atom_site_fract_z
 _atom_site_occupancy
  Er  Er0  1  0.589388  0.999600  0.000000  1
  Er  Er1  1  0.999600  0.589388  0.000000  1
  Tm  Tm2  1  0.409262  0.409262  0.000000  1
  Ga  Ga3  1  0.238926  0.999960  0.500000  1
  Ga  Ga4  1  0.999960  0.238926  0.500000  1
  Ga  Ga5  1  0.761022  0.761022  0.500000  1
  Ga  Ga6  1  0.333580  0.666312  0.500000  1
  Ga  Ga7  1  0.666312  0.333580  0.500000  1
  Rh  Rh8  1  0.001951  0.001951  0.000000  1
