# generated using pymatgen
data_CaPr20Fe8Bi7C12
_symmetry_space_group_name_H-M   'P 1'
_cell_length_a   11.56335236
_cell_length_b   11.56335356
_cell_length_c   11.56335300
_cell_angle_alpha   60.00000447
_cell_angle_beta   60.00000103
_cell_angle_gamma   60.00000082
_symmetry_Int_Tables_number   1
_chemical_formula_structural   CaPr20Fe8Bi7C12
_chemical_formula_sum   'Ca1 Pr20 Fe8 Bi7 C12'
_cell_volume   1093.29250596
_cell_formula_units_Z   1
loop_
 _symmetry_equiv_pos_site_id
 _symmetry_equiv_pos_as_xyz
  1  'x, y, z'
loop_
 _atom_site_type_symbol
 _atom_site_label
 _atom_site_symmetry_multiplicity
 _atom_site_fract_x
 _atom_site_fract_y
 _atom_site_fract_z
 _atom_site_occupancy
  Ca  Ca0  1  0.500000  0.500000  0.500000  1
  Pr  Pr1  1  0.363059  0.910823  0.363059  1
  Pr  Pr2  1  0.000000  0.657669  0.342331  1
  Pr  Pr3  1  0.363059  0.363059  0.363059  1
  Pr  Pr4  1  0.636941  0.089177  0.636941  1
  Pr  Pr5  1  0.910823  0.363059  0.363059  1
  Pr  Pr6  1  0.657669  0.342331  0.000000  1
  Pr  Pr7  1  0.000000  0.342331  0.000000  1
  Pr  Pr8  1  0.636941  0.636941  0.636941  1
  Pr  Pr9  1  0.000000  0.000000  0.342331  1
  Pr  Pr10  1  0.636941  0.636941  0.089177  1
  Pr  Pr11  1  0.363059  0.363059  0.910823  1
  Pr  Pr12  1  0.657669  0.000000  0.000000  1
  Pr  Pr13  1  0.000000  0.000000  0.657669  1
  Pr  Pr14  1  0.657669  0.000000  0.342331  1
  Pr  Pr15  1  0.089177  0.636941  0.636941  1
  Pr  Pr16  1  0.342331  0.000000  0.000000  1
  Pr  Pr17  1  0.000000  0.342331  0.657669  1
  Pr  Pr18  1  0.342331  0.000000  0.657669  1
  Pr  Pr19  1  0.342331  0.657669  0.000000  1
  Pr  Pr20  1  0.000000  0.657669  0.000000  1
  Fe  Fe21  1  0.195668  0.412994  0.195668  1
  Fe  Fe22  1  0.195668  0.195668  0.412994  1
  Fe  Fe23  1  0.587006  0.804332  0.804332  1
  Fe  Fe24  1  0.195668  0.195668  0.195668  1
  Fe  Fe25  1  0.412994  0.195668  0.195668  1
  Fe  Fe26  1  0.804332  0.804332  0.804332  1
  Fe  Fe27  1  0.804332  0.804332  0.587006  1
  Fe  Fe28  1  0.804332  0.587006  0.804332  1
  Bi  Bi29  1  0.288517  0.711483  0.711483  1
  Bi  Bi30  1  0.711483  0.711483  0.288517  1
  Bi  Bi31  1  0.711483  0.288517  0.288517  1
  Bi  Bi32  1  0.711483  0.288517  0.711483  1
  Bi  Bi33  1  0.288517  0.711483  0.288517  1
  Bi  Bi34  1  0.000000  0.000000  0.000000  1
  Bi  Bi35  1  0.288517  0.288517  0.711483  1
  C  C36  1  0.108831  0.108831  0.391169  1
  C  C37  1  0.891169  0.891169  0.608831  1
  C  C38  1  0.108831  0.391169  0.391169  1
  C  C39  1  0.108831  0.391169  0.108831  1
  C  C40  1  0.608831  0.608831  0.891169  1
  C  C41  1  0.891169  0.608831  0.891169  1
  C  C42  1  0.391169  0.391169  0.108831  1
  C  C43  1  0.391169  0.108831  0.391169  1
  C  C44  1  0.891169  0.608831  0.608831  1
  C  C45  1  0.608831  0.891169  0.608831  1
  C  C46  1  0.391169  0.108831  0.108831  1
  C  C47  1  0.608831  0.891169  0.891169  1
