# generated using pymatgen
data_LiTmH6Os
_symmetry_space_group_name_H-M   'P 1'
_cell_length_a   4.81608273
_cell_length_b   4.81605727
_cell_length_c   4.81606000
_cell_angle_alpha   59.99992196
_cell_angle_beta   59.99958393
_cell_angle_gamma   60.00025460
_symmetry_Int_Tables_number   1
_chemical_formula_structural   LiTmH6Os
_chemical_formula_sum   'Li1 Tm1 H6 Os1'
_cell_volume   78.98810341
_cell_formula_units_Z   1
loop_
 _symmetry_equiv_pos_site_id
 _symmetry_equiv_pos_as_xyz
  1  'x, y, z'
loop_
 _atom_site_type_symbol
 _atom_site_label
 _atom_site_symmetry_multiplicity
 _atom_site_fract_x
 _atom_site_fract_y
 _atom_site_fract_z
 _atom_site_occupancy
  Li  Li0  1  0.749996  0.750007  0.749995  1
  Tm  Tm1  1  0.250004  0.250002  0.250003  1
  H  H2  1  0.748680  0.748679  0.251321  1
  H  H3  1  0.748683  0.251319  0.251314  1
  H  H4  1  0.251314  0.748683  0.251320  1
  H  H5  1  0.251317  0.748682  0.748681  1
  H  H6  1  0.251315  0.251317  0.748683  1
  H  H7  1  0.748686  0.251314  0.748684  1
  Os  Os8  1  0.000001  0.000001  0.999999  1
