# generated using pymatgen
data_Ho16Th4IrRu11
_symmetry_space_group_name_H-M   'P 1'
_cell_length_a   10.95386896
_cell_length_b   10.82828255
_cell_length_c   6.36817062
_cell_angle_alpha   89.92397885
_cell_angle_beta   89.99254677
_cell_angle_gamma   89.95022662
_symmetry_Int_Tables_number   1
_chemical_formula_structural   Ho16Th4IrRu11
_chemical_formula_sum   'Ho16 Th4 Ir1 Ru11'
_cell_volume   755.33787381
_cell_formula_units_Z   1
loop_
 _symmetry_equiv_pos_site_id
 _symmetry_equiv_pos_as_xyz
  1  'x, y, z'
loop_
 _atom_site_type_symbol
 _atom_site_label
 _atom_site_symmetry_multiplicity
 _atom_site_fract_x
 _atom_site_fract_y
 _atom_site_fract_z
 _atom_site_occupancy
  Ho  Ho0  1  0.588484  0.786546  0.878296  1
  Ho  Ho1  1  0.588326  0.213194  0.377556  1
  Ho  Ho2  1  0.412209  0.787256  0.378241  1
  Ho  Ho3  1  0.411965  0.214722  0.878154  1
  Ho  Ho4  1  0.206611  0.414646  0.622672  1
  Ho  Ho5  1  0.206687  0.585061  0.122212  1
  Ho  Ho6  1  0.793521  0.414648  0.123482  1
  Ho  Ho7  1  0.792427  0.585562  0.622753  1
  Ho  Ho8  1  0.915731  0.704102  0.118852  1
  Ho  Ho9  1  0.915718  0.295728  0.618872  1
  Ho  Ho10  1  0.083507  0.703868  0.619581  1
  Ho  Ho11  1  0.084235  0.295787  0.119277  1
  Ho  Ho12  1  0.000340  0.999828  0.499212  1
  Ho  Ho13  1  0.999592  0.999695  0.999657  1
  Ho  Ho14  1  0.501420  0.499516  0.007445  1
  Ho  Ho15  1  0.500177  0.498848  0.505997  1
  Th  Th16  1  0.291032  0.093980  0.379616  1
  Th  Th17  1  0.290676  0.910276  0.880139  1
  Th  Th18  1  0.709249  0.093403  0.878880  1
  Th  Th19  1  0.709454  0.906673  0.379273  1
  Ir  Ir20  1  0.345859  0.653297  0.752827  1
  Ru  Ru21  1  0.841037  0.146997  0.244325  1
  Ru  Ru22  1  0.841032  0.852716  0.744022  1
  Ru  Ru23  1  0.158617  0.147420  0.743985  1
  Ru  Ru24  1  0.159663  0.851996  0.242181  1
  Ru  Ru25  1  0.654418  0.343948  0.756108  1
  Ru  Ru26  1  0.653260  0.656049  0.256462  1
  Ru  Ru27  1  0.345434  0.344694  0.255597  1
  Ru  Ru28  1  0.500048  0.999759  0.122167  1
  Ru  Ru29  1  0.499725  0.000177  0.623106  1
  Ru  Ru30  1  0.999405  0.499659  0.874367  1
  Ru  Ru31  1  0.000136  0.499950  0.374688  1
