# generated using pymatgen
data_Nd19YSn9Sb7
_symmetry_space_group_name_H-M   'P 1'
_cell_length_a   8.36669894
_cell_length_b   8.38719522
_cell_length_c   15.97166175
_cell_angle_alpha   90.10116764
_cell_angle_beta   89.70740039
_cell_angle_gamma   89.78424063
_symmetry_Int_Tables_number   1
_chemical_formula_structural   Nd19YSn9Sb7
_chemical_formula_sum   'Nd19 Y1 Sn9 Sb7'
_cell_volume   1120.75726619
_cell_formula_units_Z   1
loop_
 _symmetry_equiv_pos_site_id
 _symmetry_equiv_pos_as_xyz
  1  'x, y, z'
loop_
 _atom_site_type_symbol
 _atom_site_label
 _atom_site_symmetry_multiplicity
 _atom_site_fract_x
 _atom_site_fract_y
 _atom_site_fract_z
 _atom_site_occupancy
  Nd  Nd0  1  0.390189  0.837437  0.882833  1
  Nd  Nd1  1  0.893018  0.664204  0.617083  1
  Nd  Nd2  1  0.608011  0.161912  0.382681  1
  Nd  Nd3  1  0.111324  0.336891  0.118991  1
  Nd  Nd4  1  0.610643  0.162566  0.117958  1
  Nd  Nd5  1  0.108050  0.336440  0.382413  1
  Nd  Nd6  1  0.391361  0.837925  0.617089  1
  Nd  Nd7  1  0.889307  0.664027  0.881760  1
  Nd  Nd8  1  0.550388  0.329465  0.893275  1
  Nd  Nd9  1  0.052373  0.172499  0.606601  1
  Nd  Nd10  1  0.447250  0.670898  0.392928  1
  Nd  Nd11  1  0.950712  0.824644  0.106055  1
  Nd  Nd12  1  0.452817  0.669905  0.105840  1
  Nd  Nd13  1  0.947332  0.828008  0.392798  1
  Nd  Nd14  1  0.552759  0.328557  0.607416  1
  Nd  Nd15  1  0.044459  0.178407  0.896343  1
  Nd  Nd16  1  0.220277  0.498960  0.750534  1
  Nd  Nd17  1  0.719767  0.004063  0.750607  1
  Nd  Nd18  1  0.780148  0.501189  0.247578  1
  Y  Y19  1  0.278699  0.996985  0.249427  1
  Sn  Sn20  1  0.772553  0.474738  0.044607  1
  Sn  Sn21  1  0.590268  0.625689  0.749086  1
  Sn  Sn22  1  0.090328  0.878345  0.750325  1
  Sn  Sn23  1  0.409574  0.372832  0.251122  1
  Sn  Sn24  1  0.912098  0.122101  0.250552  1
  Sn  Sn25  1  0.350980  0.139083  0.750692  1
  Sn  Sn26  1  0.853263  0.362849  0.749642  1
  Sn  Sn27  1  0.644281  0.861140  0.250146  1
  Sn  Sn28  1  0.148770  0.640876  0.250231  1
  Sb  Sb29  1  0.268623  0.017712  0.049334  1
  Sb  Sb30  1  0.767203  0.481774  0.452471  1
  Sb  Sb31  1  0.732714  0.982870  0.547678  1
  Sb  Sb32  1  0.230035  0.521834  0.953769  1
  Sb  Sb33  1  0.729406  0.979795  0.953097  1
  Sb  Sb34  1  0.233624  0.517702  0.547379  1
  Sb  Sb35  1  0.267393  0.015677  0.449664  1
