# generated using pymatgen
data_ErTm2Sc3Bi2Ir
_symmetry_space_group_name_H-M   'P 1'
_cell_length_a   7.96617900
_cell_length_b   7.95917207
_cell_length_c   4.16936000
_cell_angle_alpha   90.00000000
_cell_angle_beta   90.00000000
_cell_angle_gamma   120.02913049
_symmetry_Int_Tables_number   1
_chemical_formula_structural   ErTm2Sc3Bi2Ir
_chemical_formula_sum   'Er1 Tm2 Sc3 Bi2 Ir1'
_cell_volume   228.87081963
_cell_formula_units_Z   1
loop_
 _symmetry_equiv_pos_site_id
 _symmetry_equiv_pos_as_xyz
  1  'x, y, z'
loop_
 _atom_site_type_symbol
 _atom_site_label
 _atom_site_symmetry_multiplicity
 _atom_site_fract_x
 _atom_site_fract_y
 _atom_site_fract_z
 _atom_site_occupancy
  Er  Er0  1  0.616682  0.000000  0.000000  1
  Tm  Tm1  1  0.999963  0.617213  0.000000  1
  Tm  Tm2  1  0.382750  0.382787  0.000000  1
  Sc  Sc3  1  0.227954  0.000000  0.500000  1
  Sc  Sc4  1  0.000213  0.228101  0.500000  1
  Sc  Sc5  1  0.772112  0.771899  0.500000  1
  Bi  Bi6  1  0.333074  0.666399  0.500000  1
  Bi  Bi7  1  0.666676  0.333601  0.500000  1
  Ir  Ir8  1  0.000575  0.000000  0.000000  1
