# generated using pymatgen
data_IrOsRhSe8
_symmetry_space_group_name_H-M   'P 1'
_cell_length_a   6.03348313
_cell_length_b   6.05973803
_cell_length_c   6.03506406
_cell_angle_alpha   89.89957178
_cell_angle_beta   90.34834336
_cell_angle_gamma   90.01676213
_symmetry_Int_Tables_number   1
_chemical_formula_structural   IrOsRhSe8
_chemical_formula_sum   'Ir1 Os1 Rh1 Se8'
_cell_volume   220.64552622
_cell_formula_units_Z   1
loop_
 _symmetry_equiv_pos_site_id
 _symmetry_equiv_pos_as_xyz
  1  'x, y, z'
loop_
 _atom_site_type_symbol
 _atom_site_label
 _atom_site_symmetry_multiplicity
 _atom_site_fract_x
 _atom_site_fract_y
 _atom_site_fract_z
 _atom_site_occupancy
  Ir  Ir0  1  0.000000  0.500000  0.500000  1
  Os  Os1  1  0.500000  0.000000  0.500000  1
  Rh  Rh2  1  0.500000  0.500000  0.000000  1
  Se  Se3  1  0.386896  0.882192  0.119984  1
  Se  Se4  1  0.114079  0.381749  0.882423  1
  Se  Se5  1  0.878844  0.115398  0.381821  1
  Se  Se6  1  0.613104  0.117808  0.880016  1
  Se  Se7  1  0.885921  0.618251  0.117577  1
  Se  Se8  1  0.121156  0.884602  0.618179  1
  Se  Se9  1  0.621866  0.626005  0.619068  1
  Se  Se10  1  0.378134  0.373995  0.380932  1
