# generated using pymatgen
data_KCa(FeP)4
_symmetry_space_group_name_H-M   'P 1'
_cell_length_a   3.80735900
_cell_length_b   3.80735900
_cell_length_c   11.33502700
_cell_angle_alpha   90.00000000
_cell_angle_beta   90.00000000
_cell_angle_gamma   90.00000000
_symmetry_Int_Tables_number   1
_chemical_formula_structural   KCa(FeP)4
_chemical_formula_sum   'K1 Ca1 Fe4 P4'
_cell_volume   164.31235365
_cell_formula_units_Z   1
loop_
 _symmetry_equiv_pos_site_id
 _symmetry_equiv_pos_as_xyz
  1  'x, y, z'
loop_
 _atom_site_type_symbol
 _atom_site_label
 _atom_site_symmetry_multiplicity
 _atom_site_fract_x
 _atom_site_fract_y
 _atom_site_fract_z
 _atom_site_occupancy
  K  K0  1  0.500000  0.500000  0.500000  1
  Ca  Ca1  1  0.000000  0.000000  0.000000  1
  Fe  Fe2  1  0.500000  0.000000  0.781193  1
  Fe  Fe3  1  0.000000  0.500000  0.781193  1
  Fe  Fe4  1  0.500000  0.000000  0.218807  1
  Fe  Fe5  1  0.000000  0.500000  0.218807  1
  P  P6  1  0.000000  0.000000  0.683858  1
  P  P7  1  0.000000  0.000000  0.316142  1
  P  P8  1  0.500000  0.500000  0.876044  1
  P  P9  1  0.500000  0.500000  0.123956  1
