# generated using pymatgen
data_Dy19Lu(Bi2Ir)4
_symmetry_space_group_name_H-M   'P 1'
_cell_length_a   8.00616914
_cell_length_b   9.01159785
_cell_length_c   12.50314146
_cell_angle_alpha   89.97197022
_cell_angle_beta   90.09268107
_cell_angle_gamma   89.95872610
_symmetry_Int_Tables_number   1
_chemical_formula_structural   Dy19Lu(Bi2Ir)4
_chemical_formula_sum   'Dy19 Lu1 Bi8 Ir4'
_cell_volume   902.07983677
_cell_formula_units_Z   1
loop_
 _symmetry_equiv_pos_site_id
 _symmetry_equiv_pos_as_xyz
  1  'x, y, z'
loop_
 _atom_site_type_symbol
 _atom_site_label
 _atom_site_symmetry_multiplicity
 _atom_site_fract_x
 _atom_site_fract_y
 _atom_site_fract_z
 _atom_site_occupancy
  Dy  Dy0  1  0.840509  0.750171  0.793117  1
  Dy  Dy1  1  0.159275  0.249953  0.206721  1
  Dy  Dy2  1  0.341236  0.249730  0.706619  1
  Dy  Dy3  1  0.659189  0.750073  0.293560  1
  Dy  Dy4  1  0.377582  0.750212  0.692802  1
  Dy  Dy5  1  0.623362  0.249561  0.307209  1
  Dy  Dy6  1  0.876819  0.249953  0.806769  1
  Dy  Dy7  1  0.123055  0.750037  0.193138  1
  Dy  Dy8  1  0.945210  0.750559  0.501457  1
  Dy  Dy9  1  0.053539  0.249581  0.498639  1
  Dy  Dy10  1  0.446249  0.249936  0.998678  1
  Dy  Dy11  1  0.553807  0.749975  0.001347  1
  Dy  Dy12  1  0.324366  0.958332  0.434254  1
  Dy  Dy13  1  0.176424  0.958053  0.933899  1
  Dy  Dy14  1  0.323673  0.541585  0.434072  1
  Dy  Dy15  1  0.823588  0.041855  0.066109  1
  Dy  Dy16  1  0.676258  0.458016  0.566067  1
  Dy  Dy17  1  0.823618  0.458084  0.066040  1
  Dy  Dy18  1  0.176460  0.541906  0.933908  1
  Lu  Lu19  1  0.673174  0.041894  0.565469  1
  Bi  Bi20  1  0.569193  0.490999  0.827399  1
  Bi  Bi21  1  0.430859  0.508946  0.172693  1
  Bi  Bi22  1  0.069221  0.508950  0.672578  1
  Bi  Bi23  1  0.430816  0.991082  0.172604  1
  Bi  Bi24  1  0.930896  0.491019  0.327411  1
  Bi  Bi25  1  0.569384  0.009037  0.827141  1
  Bi  Bi26  1  0.931193  0.009011  0.327320  1
  Bi  Bi27  1  0.068314  0.991203  0.672354  1
  Ir  Ir28  1  0.571529  0.751282  0.509263  1
  Ir  Ir29  1  0.431226  0.249015  0.491445  1
  Ir  Ir30  1  0.070455  0.249996  0.990884  1
  Ir  Ir31  1  0.929522  0.749994  0.009035  1
