# generated using pymatgen
data_Nd2Al9Ir2Pd
_symmetry_space_group_name_H-M   'P 1'
_cell_length_a   7.64438102
_cell_length_b   7.64438163
_cell_length_c   9.59344500
_cell_angle_alpha   90.00000000
_cell_angle_beta   90.00000000
_cell_angle_gamma   119.43554886
_symmetry_Int_Tables_number   1
_chemical_formula_structural   Nd2Al9Ir2Pd
_chemical_formula_sum   'Nd4 Al18 Ir4 Pd2'
_cell_volume   488.23857229
_cell_formula_units_Z   2
loop_
 _symmetry_equiv_pos_site_id
 _symmetry_equiv_pos_as_xyz
  1  'x, y, z'
loop_
 _atom_site_type_symbol
 _atom_site_label
 _atom_site_symmetry_multiplicity
 _atom_site_fract_x
 _atom_site_fract_y
 _atom_site_fract_z
 _atom_site_occupancy
  Nd  Nd0  1  0.995525  0.672401  0.250000  1
  Nd  Nd1  1  0.004475  0.327599  0.750000  1
  Nd  Nd2  1  0.672401  0.995525  0.250000  1
  Nd  Nd3  1  0.327599  0.004475  0.750000  1
  Al  Al4  1  0.134290  0.134290  0.250000  1
  Al  Al5  1  0.865710  0.865710  0.750000  1
  Al  Al6  1  0.002494  0.339487  0.074713  1
  Al  Al7  1  0.997506  0.660513  0.925287  1
  Al  Al8  1  0.997506  0.660513  0.574713  1
  Al  Al9  1  0.339487  0.002494  0.425287  1
  Al  Al10  1  0.002494  0.339487  0.425287  1
  Al  Al11  1  0.660513  0.997506  0.574713  1
  Al  Al12  1  0.660513  0.997506  0.925287  1
  Al  Al13  1  0.339487  0.002494  0.074713  1
  Al  Al14  1  0.337804  0.337804  0.550382  1
  Al  Al15  1  0.662196  0.662196  0.449618  1
  Al  Al16  1  0.662196  0.662196  0.050382  1
  Al  Al17  1  0.337804  0.337804  0.949618  1
  Al  Al18  1  0.339003  0.547459  0.250000  1
  Al  Al19  1  0.660997  0.452541  0.750000  1
  Al  Al20  1  0.547459  0.339003  0.250000  1
  Al  Al21  1  0.452541  0.660997  0.750000  1
  Ir  Ir22  1  0.671290  0.328710  0.000000  1
  Ir  Ir23  1  0.328710  0.671290  0.000000  1
  Ir  Ir24  1  0.328710  0.671290  0.500000  1
  Ir  Ir25  1  0.671290  0.328710  0.500000  1
  Pd  Pd26  1  0.000000  0.000000  0.000000  1
  Pd  Pd27  1  0.000000  0.000000  0.500000  1
