# generated using pymatgen
data_Cs3Rb3V(RhBr6)3
_symmetry_space_group_name_H-M   'P 1'
_cell_length_a   7.67447200
_cell_length_b   7.67447311
_cell_length_c   19.36451000
_cell_angle_alpha   90.00000000
_cell_angle_beta   90.00000000
_cell_angle_gamma   119.99999519
_symmetry_Int_Tables_number   1
_chemical_formula_structural   Cs3Rb3V(RhBr6)3
_chemical_formula_sum   'Cs3 Rb3 V1 Rh3 Br18'
_cell_volume   987.72089152
_cell_formula_units_Z   1
loop_
 _symmetry_equiv_pos_site_id
 _symmetry_equiv_pos_as_xyz
  1  'x, y, z'
loop_
 _atom_site_type_symbol
 _atom_site_label
 _atom_site_symmetry_multiplicity
 _atom_site_fract_x
 _atom_site_fract_y
 _atom_site_fract_z
 _atom_site_occupancy
  Cs  Cs0  1  0.666667  0.333333  0.566057  1
  Cs  Cs1  1  0.333333  0.666667  0.067718  1
  Cs  Cs2  1  0.333333  0.666667  0.430244  1
  Rb  Rb3  1  0.666667  0.333333  0.936579  1
  Rb  Rb4  1  0.000000  0.000000  0.252891  1
  Rb  Rb5  1  0.000000  0.000000  0.749670  1
  V  V6  1  0.666667  0.333333  0.164067  1
  Rh  Rh7  1  0.333333  0.666667  0.666004  1
  Rh  Rh8  1  0.666667  0.333333  0.330432  1
  Rh  Rh9  1  0.333333  0.666667  0.834582  1
  Br  Br10  1  0.821508  0.643014  0.403731  1
  Br  Br11  1  0.177994  0.822006  0.594069  1
  Br  Br12  1  0.644011  0.822006  0.594069  1
  Br  Br13  1  0.821508  0.178492  0.403731  1
  Br  Br14  1  0.356986  0.178492  0.403731  1
  Br  Br15  1  0.177920  0.355840  0.906481  1
  Br  Br16  1  0.036908  0.518454  0.750392  1
  Br  Br17  1  0.644160  0.822080  0.906481  1
  Br  Br18  1  0.824748  0.649497  0.094652  1
  Br  Br19  1  0.177994  0.355989  0.594069  1
  Br  Br20  1  0.481546  0.963092  0.750392  1
  Br  Br21  1  0.513559  0.486441  0.251261  1
  Br  Br22  1  0.481546  0.518454  0.750392  1
  Br  Br23  1  0.177920  0.822080  0.906481  1
  Br  Br24  1  0.350503  0.175252  0.094652  1
  Br  Br25  1  0.972880  0.486441  0.251261  1
  Br  Br26  1  0.513559  0.027120  0.251261  1
  Br  Br27  1  0.824748  0.175252  0.094652  1
