# generated using pymatgen
data_Cu3RhSe8
_symmetry_space_group_name_H-M   'P 1'
_cell_length_a   6.14974171
_cell_length_b   6.14974255
_cell_length_c   6.14974301
_cell_angle_alpha   89.05890388
_cell_angle_beta   89.05889728
_cell_angle_gamma   89.05889926
_symmetry_Int_Tables_number   1
_chemical_formula_structural   Cu3RhSe8
_chemical_formula_sum   'Cu3 Rh1 Se8'
_cell_volume   232.48604870
_cell_formula_units_Z   1
loop_
 _symmetry_equiv_pos_site_id
 _symmetry_equiv_pos_as_xyz
  1  'x, y, z'
loop_
 _atom_site_type_symbol
 _atom_site_label
 _atom_site_symmetry_multiplicity
 _atom_site_fract_x
 _atom_site_fract_y
 _atom_site_fract_z
 _atom_site_occupancy
  Cu  Cu0  1  0.500000  0.000000  0.500000  1
  Cu  Cu1  1  0.500000  0.500000  0.000000  1
  Cu  Cu2  1  0.000000  0.500000  0.500000  1
  Rh  Rh3  1  0.000000  0.000000  0.000000  1
  Se  Se4  1  0.390034  0.390034  0.390034  1
  Se  Se5  1  0.111757  0.619072  0.888599  1
  Se  Se6  1  0.888599  0.111757  0.619072  1
  Se  Se7  1  0.619072  0.888599  0.111757  1
  Se  Se8  1  0.609966  0.609966  0.609966  1
  Se  Se9  1  0.888243  0.380928  0.111401  1
  Se  Se10  1  0.111401  0.888243  0.380928  1
  Se  Se11  1  0.380928  0.111401  0.888243  1
