# generated using pymatgen
data_Tb7Er5Fe2I17
_symmetry_space_group_name_H-M   'P 1'
_cell_length_a   9.73916531
_cell_length_b   11.67905372
_cell_length_c   11.69131268
_cell_angle_alpha   93.36365199
_cell_angle_beta   104.88359409
_cell_angle_gamma   114.03735875
_symmetry_Int_Tables_number   1
_chemical_formula_structural   Tb7Er5Fe2I17
_chemical_formula_sum   'Tb7 Er5 Fe2 I17'
_cell_volume   1153.48742959
_cell_formula_units_Z   1
loop_
 _symmetry_equiv_pos_site_id
 _symmetry_equiv_pos_as_xyz
  1  'x, y, z'
loop_
 _atom_site_type_symbol
 _atom_site_label
 _atom_site_symmetry_multiplicity
 _atom_site_fract_x
 _atom_site_fract_y
 _atom_site_fract_z
 _atom_site_occupancy
  Tb  Tb0  1  0.052238  0.503807  0.319163  1
  Tb  Tb1  1  0.992658  0.806058  0.590559  1
  Tb  Tb2  1  0.654587  0.241577  0.279673  1
  Tb  Tb3  1  0.008038  0.190241  0.412329  1
  Tb  Tb4  1  0.217036  0.671037  0.980432  1
  Tb  Tb5  1  0.254640  0.979061  0.889952  1
  Tb  Tb6  1  0.349569  0.757984  0.717822  1
  Er  Er7  1  0.949852  0.499830  0.681913  1
  Er  Er8  1  0.747523  0.025866  0.112375  1
  Er  Er9  1  0.134577  0.284994  0.152715  1
  Er  Er10  1  0.780967  0.327217  0.018806  1
  Er  Er11  1  0.858840  0.713104  0.846698  1
  Fe  Fe12  1  0.105123  0.738353  0.785647  1
  Fe  Fe13  1  0.894993  0.262410  0.214599  1
  I  I14  1  0.784476  0.528317  0.418986  1
  I  I15  1  0.646766  0.420443  0.763675  1
  I  I16  1  0.840588  0.895073  0.326138  1
  I  I17  1  0.326480  0.213965  0.365002  1
  I  I18  1  0.156086  0.102684  0.671947  1
  I  I19  1  0.586310  0.053767  0.842687  1
  I  I20  1  0.761452  0.193219  0.541764  1
  I  I21  1  0.555316  0.713756  0.957071  1
  I  I22  1  0.354827  0.576247  0.236217  1
  I  I23  1  0.216234  0.470362  0.582907  1
  I  I24  1  0.054126  0.366906  0.896292  1
  I  I25  1  0.447297  0.289183  0.043400  1
  I  I26  1  0.998876  0.000025  0.000402  1
  I  I27  1  0.241736  0.812092  0.459904  1
  I  I28  1  0.415341  0.945423  0.156533  1
  I  I29  1  0.671924  0.784925  0.632722  1
  I  I30  1  0.941524  0.632075  0.101672  1
