# generated using pymatgen
data_Tm8B24Mo2IrRu
_symmetry_space_group_name_H-M   'P 1'
_cell_length_a   3.62199000
_cell_length_b   9.14072312
_cell_length_c   11.51808000
_cell_angle_alpha   90.02790830
_cell_angle_beta   90.00000000
_cell_angle_gamma   90.00000000
_symmetry_Int_Tables_number   1
_chemical_formula_structural   Tm8B24Mo2IrRu
_chemical_formula_sum   'Tm8 B24 Mo2 Ir1 Ru1'
_cell_volume   381.33602922
_cell_formula_units_Z   1
loop_
 _symmetry_equiv_pos_site_id
 _symmetry_equiv_pos_as_xyz
  1  'x, y, z'
loop_
 _atom_site_type_symbol
 _atom_site_label
 _atom_site_symmetry_multiplicity
 _atom_site_fract_x
 _atom_site_fract_y
 _atom_site_fract_z
 _atom_site_occupancy
  Tm  Tm0  1  0.000000  0.317585  0.415033  1
  Tm  Tm1  1  0.000000  0.678237  0.589593  1
  Tm  Tm2  1  0.000000  0.824637  0.083579  1
  Tm  Tm3  1  0.000000  0.178933  0.913441  1
  Tm  Tm4  1  0.000000  0.943605  0.372555  1
  Tm  Tm5  1  0.000000  0.054672  0.628926  1
  Tm  Tm6  1  0.000000  0.443118  0.127248  1
  Tm  Tm7  1  0.000000  0.558283  0.872474  1
  B  B8  1  0.500000  0.553629  0.433271  1
  B  B9  1  0.500000  0.448950  0.563868  1
  B  B10  1  0.500000  0.051073  0.063842  1
  B  B11  1  0.500000  0.946510  0.931912  1
  B  B12  1  0.500000  0.748910  0.420756  1
  B  B13  1  0.500000  0.248132  0.578695  1
  B  B14  1  0.500000  0.251460  0.078482  1
  B  B15  1  0.500000  0.752267  0.919407  1
  B  B16  1  0.500000  0.791933  0.265467  1
  B  B17  1  0.500000  0.205619  0.735930  1
  B  B18  1  0.500000  0.294641  0.236147  1
  B  B19  1  0.500000  0.708674  0.766175  1
  B  B20  1  0.500000  0.632468  0.183921  1
  B  B21  1  0.500000  0.369465  0.816588  1
  B  B22  1  0.500000  0.130639  0.316926  1
  B  B23  1  0.500000  0.867808  0.685489  1
  B  B24  1  0.500000  0.977729  0.212442  1
  B  B25  1  0.500000  0.016491  0.786962  1
  B  B26  1  0.500000  0.482864  0.286894  1
  B  B27  1  0.500000  0.522607  0.712640  1
  B  B28  1  0.500000  0.606419  0.029559  1
  B  B29  1  0.500000  0.398300  0.971519  1
  B  B30  1  0.500000  0.101135  0.471787  1
  B  B31  1  0.500000  0.893499  0.529353  1
  Mo  Mo32  1  0.000000  0.362779  0.678431  1
  Mo  Mo33  1  0.000000  0.137617  0.179176  1
  Ir  Ir34  1  0.000000  0.638476  0.320970  1
  Ru  Ru35  1  0.000000  0.860838  0.820547  1
