# generated using pymatgen
data_YAl7ZnCu4
_symmetry_space_group_name_H-M   'P 1'
_cell_length_a   6.75488707
_cell_length_b   6.75488711
_cell_length_c   6.75488800
_cell_angle_alpha   98.20596162
_cell_angle_beta   98.67481810
_cell_angle_gamma   134.94614090
_symmetry_Int_Tables_number   1
_chemical_formula_structural   YAl7ZnCu4
_chemical_formula_sum   'Y1 Al7 Zn1 Cu4'
_cell_volume   201.49906962
_cell_formula_units_Z   1
loop_
 _symmetry_equiv_pos_site_id
 _symmetry_equiv_pos_as_xyz
  1  'x, y, z'
loop_
 _atom_site_type_symbol
 _atom_site_label
 _atom_site_symmetry_multiplicity
 _atom_site_fract_x
 _atom_site_fract_y
 _atom_site_fract_z
 _atom_site_occupancy
  Y  Y0  1  0.999099  0.000000  0.999099  1
  Al  Al1  1  0.502447  0.282685  0.785132  1
  Al  Al2  1  0.347523  0.000000  0.347523  1
  Al  Al3  1  0.997757  0.651845  0.649601  1
  Al  Al4  1  0.650760  0.000000  0.650760  1
  Al  Al5  1  0.997757  0.348155  0.345912  1
  Al  Al6  1  0.277996  0.500000  0.777996  1
  Al  Al7  1  0.502447  0.717315  0.219763  1
  Zn  Zn8  1  0.719223  0.500000  0.219223  1
  Cu  Cu9  1  0.500903  0.501702  0.503294  1
  Cu  Cu10  1  0.001593  0.002392  0.503294  1
  Cu  Cu11  1  0.001593  0.498298  0.999201  1
  Cu  Cu12  1  0.500903  0.997608  0.999201  1
