# generated using pymatgen
data_DyMg4(SbPt)5
_symmetry_space_group_name_H-M   'P 1'
_cell_length_a   18.86842538
_cell_length_b   18.86842547
_cell_length_c   18.86842531
_cell_angle_alpha   13.73808370
_cell_angle_beta   13.73808131
_cell_angle_gamma   13.73808436
_symmetry_Int_Tables_number   1
_chemical_formula_structural   DyMg4(SbPt)5
_chemical_formula_sum   'Dy1 Mg4 Sb5 Pt5'
_cell_volume   329.67150588
_cell_formula_units_Z   1
loop_
 _symmetry_equiv_pos_site_id
 _symmetry_equiv_pos_as_xyz
  1  'x, y, z'
loop_
 _atom_site_type_symbol
 _atom_site_label
 _atom_site_symmetry_multiplicity
 _atom_site_fract_x
 _atom_site_fract_y
 _atom_site_fract_z
 _atom_site_occupancy
  Dy  Dy0  1  0.299402  0.299402  0.299402  1
  Mg  Mg1  1  0.700607  0.700607  0.700607  1
  Mg  Mg2  1  0.100241  0.100241  0.100241  1
  Mg  Mg3  1  0.499488  0.499488  0.499488  1
  Mg  Mg4  1  0.898570  0.898570  0.898570  1
  Sb  Sb5  1  0.597921  0.597921  0.597921  1
  Sb  Sb6  1  0.800841  0.800841  0.800841  1
  Sb  Sb7  1  0.199528  0.199528  0.199528  1
  Sb  Sb8  1  0.002240  0.002240  0.002240  1
  Sb  Sb9  1  0.401753  0.401753  0.401753  1
  Pt  Pt10  1  0.050897  0.050897  0.050897  1
  Pt  Pt11  1  0.449939  0.449939  0.449939  1
  Pt  Pt12  1  0.849188  0.849188  0.849188  1
  Pt  Pt13  1  0.247999  0.247999  0.247999  1
  Pt  Pt14  1  0.651387  0.651387  0.651387  1
