# generated using pymatgen
data_Tb2Dy2Sn2Sb4Rh7
_symmetry_space_group_name_H-M   'P 1'
_cell_length_a   7.62303398
_cell_length_b   7.62303657
_cell_length_c   7.61409614
_cell_angle_alpha   109.50866011
_cell_angle_beta   109.50865611
_cell_angle_gamma   109.44393966
_symmetry_Int_Tables_number   1
_chemical_formula_structural   Tb2Dy2Sn2Sb4Rh7
_chemical_formula_sum   'Tb2 Dy2 Sn2 Sb4 Rh7'
_cell_volume   340.40570507
_cell_formula_units_Z   1
loop_
 _symmetry_equiv_pos_site_id
 _symmetry_equiv_pos_as_xyz
  1  'x, y, z'
loop_
 _atom_site_type_symbol
 _atom_site_label
 _atom_site_symmetry_multiplicity
 _atom_site_fract_x
 _atom_site_fract_y
 _atom_site_fract_z
 _atom_site_occupancy
  Tb  Tb0  1  0.999300  0.000700  0.500000  1
  Tb  Tb1  1  0.499300  0.500700  0.500000  1
  Dy  Dy2  1  0.495533  0.000254  0.000000  1
  Dy  Dy3  1  0.999746  0.504467  0.000000  1
  Sn  Sn4  1  0.997795  0.314025  0.311820  1
  Sn  Sn5  1  0.685975  0.002205  0.688180  1
  Sb  Sb6  1  0.681657  0.685058  0.000000  1
  Sb  Sb7  1  0.998445  0.677499  0.675943  1
  Sb  Sb8  1  0.322501  0.001555  0.324057  1
  Sb  Sb9  1  0.314942  0.318343  0.000000  1
  Rh  Rh10  1  0.005647  0.994353  0.000000  1
  Rh  Rh11  1  0.500045  0.750153  0.250199  1
  Rh  Rh12  1  0.747489  0.499069  0.246558  1
  Rh  Rh13  1  0.250423  0.749577  0.500000  1
  Rh  Rh14  1  0.249847  0.499955  0.749801  1
  Rh  Rh15  1  0.500931  0.252511  0.753442  1
  Rh  Rh16  1  0.750423  0.249577  0.500000  1
