# generated using pymatgen
data_Tb3Nd(OsO4)4
_symmetry_space_group_name_H-M   'P 1'
_cell_length_a   5.42278287
_cell_length_b   7.72323504
_cell_length_c   7.48865096
_cell_angle_alpha   79.48657216
_cell_angle_beta   91.01831679
_cell_angle_gamma   93.81842652
_symmetry_Int_Tables_number   1
_chemical_formula_structural   Tb3Nd(OsO4)4
_chemical_formula_sum   'Tb3 Nd1 Os4 O16'
_cell_volume   307.68052894
_cell_formula_units_Z   1
loop_
 _symmetry_equiv_pos_site_id
 _symmetry_equiv_pos_as_xyz
  1  'x, y, z'
loop_
 _atom_site_type_symbol
 _atom_site_label
 _atom_site_symmetry_multiplicity
 _atom_site_fract_x
 _atom_site_fract_y
 _atom_site_fract_z
 _atom_site_occupancy
  Tb  Tb0  1  0.189553  0.670558  0.100702  1
  Tb  Tb1  1  0.802667  0.325755  0.899077  1
  Tb  Tb2  1  0.733925  0.381190  0.391044  1
  Nd  Nd3  1  0.259286  0.626468  0.608191  1
  Os  Os4  1  0.755952  0.838701  0.796251  1
  Os  Os5  1  0.714472  0.837230  0.297562  1
  Os  Os6  1  0.284120  0.164535  0.703388  1
  Os  Os7  1  0.243704  0.163195  0.208481  1
  O  O8  1  0.062508  0.960769  0.704859  1
  O  O9  1  0.405025  0.939655  0.202936  1
  O  O10  1  0.635077  0.826162  0.551220  1
  O  O11  1  0.846341  0.832909  0.051080  1
  O  O12  1  0.453800  0.704584  0.874351  1
  O  O13  1  0.941217  0.611189  0.833234  1
  O  O14  1  0.968072  0.660073  0.372562  1
  O  O15  1  0.494329  0.612782  0.315429  1
  O  O16  1  0.511589  0.389049  0.675679  1
  O  O17  1  0.020610  0.332218  0.620807  1
  O  O18  1  0.050888  0.383740  0.178338  1
  O  O19  1  0.547528  0.297797  0.133664  1
  O  O20  1  0.162288  0.176546  0.946899  1
  O  O21  1  0.375864  0.171109  0.451007  1
  O  O22  1  0.595814  0.061283  0.796237  1
  O  O23  1  0.945370  0.032504  0.287002  1
