# generated using pymatgen
data_La11Nd(Si2Ni)4
_symmetry_space_group_name_H-M   'P 1'
_cell_length_a   4.30130900
_cell_length_b   11.79021078
_cell_length_c   11.92505360
_cell_angle_alpha   90.18464238
_cell_angle_beta   90.00000000
_cell_angle_gamma   90.00000000
_symmetry_Int_Tables_number   1
_chemical_formula_structural   La11Nd(Si2Ni)4
_chemical_formula_sum   'La11 Nd1 Si8 Ni4'
_cell_volume   604.75615422
_cell_formula_units_Z   1
loop_
 _symmetry_equiv_pos_site_id
 _symmetry_equiv_pos_as_xyz
  1  'x, y, z'
loop_
 _atom_site_type_symbol
 _atom_site_label
 _atom_site_symmetry_multiplicity
 _atom_site_fract_x
 _atom_site_fract_y
 _atom_site_fract_z
 _atom_site_occupancy
  La  La0  1  0.250000  0.375105  0.558318  1
  La  La1  1  0.750000  0.557574  0.116496  1
  La  La2  1  0.750000  0.196659  0.786766  1
  La  La3  1  0.250000  0.696864  0.712428  1
  La  La4  1  0.750000  0.623084  0.441185  1
  La  La5  1  0.750000  0.877113  0.941417  1
  La  La6  1  0.250000  0.804158  0.212716  1
  La  La7  1  0.250000  0.442392  0.883085  1
  La  La8  1  0.750000  0.302407  0.286855  1
  La  La9  1  0.250000  0.123640  0.059746  1
  La  La10  1  0.750000  0.941847  0.616599  1
  Nd  Nd11  1  0.250000  0.055890  0.384532  1
  Si  Si12  1  0.250000  0.490730  0.299631  1
  Si  Si13  1  0.250000  0.815570  0.468263  1
  Si  Si14  1  0.250000  0.686175  0.968799  1
  Si  Si15  1  0.750000  0.993642  0.203942  1
  Si  Si16  1  0.750000  0.509216  0.700206  1
  Si  Si17  1  0.250000  0.009292  0.799623  1
  Si  Si18  1  0.750000  0.184070  0.529367  1
  Si  Si19  1  0.750000  0.313703  0.030994  1
  Ni  Ni20  1  0.250000  0.134200  0.628209  1
  Ni  Ni21  1  0.750000  0.865464  0.371711  1
  Ni  Ni22  1  0.250000  0.365796  0.127949  1
  Ni  Ni23  1  0.750000  0.635405  0.871161  1
