# generated using pymatgen
data_Zr3ScCo5Si2Ni
_symmetry_space_group_name_H-M   'P 1'
_cell_length_a   5.01082615
_cell_length_b   5.01025228
_cell_length_c   7.63039368
_cell_angle_alpha   90.06477670
_cell_angle_beta   89.93283747
_cell_angle_gamma   119.78313503
_symmetry_Int_Tables_number   1
_chemical_formula_structural   Zr3ScCo5Si2Ni
_chemical_formula_sum   'Zr3 Sc1 Co5 Si2 Ni1'
_cell_volume   166.26124672
_cell_formula_units_Z   1
loop_
 _symmetry_equiv_pos_site_id
 _symmetry_equiv_pos_as_xyz
  1  'x, y, z'
loop_
 _atom_site_type_symbol
 _atom_site_label
 _atom_site_symmetry_multiplicity
 _atom_site_fract_x
 _atom_site_fract_y
 _atom_site_fract_z
 _atom_site_occupancy
  Zr  Zr0  1  0.332533  0.667444  0.563433  1
  Zr  Zr1  1  0.664357  0.335609  0.434975  1
  Zr  Zr2  1  0.663430  0.336557  0.055019  1
  Sc  Sc3  1  0.332611  0.667436  0.947665  1
  Co  Co4  1  0.663354  0.830775  0.250850  1
  Co  Co5  1  0.170425  0.829577  0.251047  1
  Co  Co6  1  0.833405  0.664301  0.748608  1
  Co  Co7  1  0.169267  0.336686  0.250856  1
  Co  Co8  1  0.335702  0.166603  0.748601  1
  Si  Si9  1  0.000806  0.999126  0.496903  1
  Si  Si10  1  0.001197  0.998784  0.002318  1
  Ni  Ni11  1  0.832914  0.167104  0.749727  1
