# generated using pymatgen
data_ErTm7Ti11Si16Mo
_symmetry_space_group_name_H-M   'P 1'
_cell_length_a   6.99513617
_cell_length_b   6.99545121
_cell_length_c   12.84763702
_cell_angle_alpha   89.96847995
_cell_angle_beta   90.02983503
_cell_angle_gamma   90.01022462
_symmetry_Int_Tables_number   1
_chemical_formula_structural   ErTm7Ti11Si16Mo
_chemical_formula_sum   'Er1 Tm7 Ti11 Si16 Mo1'
_cell_volume   628.68779916
_cell_formula_units_Z   1
loop_
 _symmetry_equiv_pos_site_id
 _symmetry_equiv_pos_as_xyz
  1  'x, y, z'
loop_
 _atom_site_type_symbol
 _atom_site_label
 _atom_site_symmetry_multiplicity
 _atom_site_fract_x
 _atom_site_fract_y
 _atom_site_fract_z
 _atom_site_occupancy
  Er  Er0  1  0.998986  0.657684  0.032638  1
  Tm  Tm1  1  0.340725  0.002595  0.467205  1
  Tm  Tm2  1  0.497854  0.839989  0.717603  1
  Tm  Tm3  1  0.500078  0.159405  0.215581  1
  Tm  Tm4  1  0.839928  0.497869  0.282411  1
  Tm  Tm5  1  0.159412  0.500103  0.784484  1
  Tm  Tm6  1  0.657569  0.999373  0.967268  1
  Tm  Tm7  1  0.002596  0.340764  0.532787  1
  Ti  Ti8  1  0.173798  0.827587  0.249513  1
  Ti  Ti9  1  0.827447  0.173759  0.750508  1
  Ti  Ti10  1  0.672992  0.673033  0.499981  1
  Ti  Ti11  1  0.153093  0.008128  0.875964  1
  Ti  Ti12  1  0.492490  0.651247  0.124137  1
  Ti  Ti13  1  0.506701  0.349440  0.626022  1
  Ti  Ti14  1  0.651237  0.492328  0.875775  1
  Ti  Ti15  1  0.349460  0.506738  0.374029  1
  Ti  Ti16  1  0.848662  0.993054  0.375473  1
  Ti  Ti17  1  0.008236  0.153028  0.123971  1
  Ti  Ti18  1  0.992987  0.848693  0.624547  1
  Si  Si19  1  0.203266  0.131358  0.683421  1
  Si  Si20  1  0.369618  0.702445  0.933126  1
  Si  Si21  1  0.631599  0.296583  0.433261  1
  Si  Si22  1  0.702055  0.368924  0.066807  1
  Si  Si23  1  0.296613  0.631610  0.566724  1
  Si  Si24  1  0.796595  0.869168  0.183493  1
  Si  Si25  1  0.131359  0.203188  0.316589  1
  Si  Si26  1  0.868782  0.796881  0.816631  1
  Si  Si27  1  0.291473  0.953597  0.064640  1
  Si  Si28  1  0.545866  0.792869  0.314737  1
  Si  Si29  1  0.453173  0.207443  0.815257  1
  Si  Si30  1  0.792857  0.546049  0.685268  1
  Si  Si31  1  0.207699  0.453037  0.184889  1
  Si  Si32  1  0.707729  0.046972  0.565009  1
  Si  Si33  1  0.953306  0.290789  0.935327  1
  Si  Si34  1  0.046991  0.707738  0.434926  1
  Mo  Mo35  1  0.326773  0.326536  0.999999  1
