# generated using pymatgen
data_Ca8V(PN4)3
_symmetry_space_group_name_H-M   'P 1'
_cell_length_a   5.85090643
_cell_length_b   5.85121105
_cell_length_c   11.45249589
_cell_angle_alpha   89.51541475
_cell_angle_beta   90.14019450
_cell_angle_gamma   125.85451055
_symmetry_Int_Tables_number   1
_chemical_formula_structural   Ca8V(PN4)3
_chemical_formula_sum   'Ca8 V1 P3 N12'
_cell_volume   317.76655263
_cell_formula_units_Z   1
loop_
 _symmetry_equiv_pos_site_id
 _symmetry_equiv_pos_as_xyz
  1  'x, y, z'
loop_
 _atom_site_type_symbol
 _atom_site_label
 _atom_site_symmetry_multiplicity
 _atom_site_fract_x
 _atom_site_fract_y
 _atom_site_fract_z
 _atom_site_occupancy
  Ca  Ca0  1  0.632441  0.854190  0.071298  1
  Ca  Ca1  1  0.446080  0.061614  0.360140  1
  Ca  Ca2  1  0.050100  0.446280  0.857702  1
  Ca  Ca3  1  0.546917  0.953291  0.647559  1
  Ca  Ca4  1  0.360755  0.132459  0.923127  1
  Ca  Ca5  1  0.864891  0.639337  0.580319  1
  Ca  Ca6  1  0.147823  0.368692  0.430288  1
  Ca  Ca7  1  0.943879  0.541767  0.140806  1
  V  V8  1  0.759231  0.753890  0.334620  1
  P  P9  1  0.743324  0.753663  0.834694  1
  P  P10  1  0.242548  0.256978  0.667678  1
  P  P11  1  0.251710  0.239211  0.156000  1
  N  N12  1  0.039561  0.959477  0.751057  1
  N  N13  1  0.970931  0.068315  0.243387  1
  N  N14  1  0.536629  0.461887  0.750775  1
  N  N15  1  0.467109  0.515707  0.239632  1
  N  N16  1  0.391840  0.067738  0.135241  1
  N  N17  1  0.940804  0.602642  0.368662  1
  N  N18  1  0.590887  0.910806  0.859282  1
  N  N19  1  0.084570  0.409195  0.643527  1
  N  N20  1  0.836633  0.654416  0.947934  1
  N  N21  1  0.647639  0.842135  0.460430  1
  N  N22  1  0.163982  0.340627  0.041882  1
  N  N23  1  0.339716  0.165683  0.553962  1
