# generated using pymatgen
data_Sr2YUO6
_symmetry_space_group_name_H-M   'P 1'
_cell_length_a   6.13132800
_cell_length_b   5.99954475
_cell_length_c   10.45585674
_cell_angle_alpha   55.00538163
_cell_angle_beta   90.00000000
_cell_angle_gamma   90.00000000
_symmetry_Int_Tables_number   1
_chemical_formula_structural   Sr2YUO6
_chemical_formula_sum   'Sr4 Y2 U2 O12'
_cell_volume   315.08341952
_cell_formula_units_Z   2
loop_
 _symmetry_equiv_pos_site_id
 _symmetry_equiv_pos_as_xyz
  1  'x, y, z'
loop_
 _atom_site_type_symbol
 _atom_site_label
 _atom_site_symmetry_multiplicity
 _atom_site_fract_x
 _atom_site_fract_y
 _atom_site_fract_z
 _atom_site_occupancy
  Sr  Sr0  1  0.457719  0.259668  0.750732  1
  Sr  Sr1  1  0.957719  0.740332  0.749268  1
  Sr  Sr2  1  0.042281  0.259668  0.250732  1
  Sr  Sr3  1  0.542281  0.740332  0.249268  1
  Y  Y4  1  0.500000  0.000000  0.500000  1
  Y  Y5  1  0.000000  0.000000  0.000000  1
  U  U6  1  0.000000  0.500000  0.500000  1
  U  U7  1  0.500000  0.500000  0.000000  1
  O  O8  1  0.197451  0.739375  0.550417  1
  O  O9  1  0.697451  0.260625  0.949583  1
  O  O10  1  0.802549  0.260625  0.449583  1
  O  O11  1  0.302549  0.739375  0.050417  1
  O  O12  1  0.711790  0.641076  0.554846  1
  O  O13  1  0.211790  0.358924  0.945154  1
  O  O14  1  0.288210  0.358924  0.445154  1
  O  O15  1  0.788210  0.641076  0.054846  1
  O  O16  1  0.036560  0.158444  0.743032  1
  O  O17  1  0.536560  0.841556  0.756968  1
  O  O18  1  0.963440  0.841556  0.256968  1
  O  O19  1  0.463440  0.158444  0.243032  1
