# generated using pymatgen
data_Pr20Ir7Ru4Au
_symmetry_space_group_name_H-M   'P 1'
_cell_length_a   11.33937083
_cell_length_b   11.33937083
_cell_length_c   6.69117815
_cell_angle_alpha   90.10053473
_cell_angle_beta   90.10053473
_cell_angle_gamma   89.87742520
_symmetry_Int_Tables_number   1
_chemical_formula_structural   Pr20Ir7Ru4Au
_chemical_formula_sum   'Pr20 Ir7 Ru4 Au1'
_cell_volume   860.35598033
_cell_formula_units_Z   1
loop_
 _symmetry_equiv_pos_site_id
 _symmetry_equiv_pos_as_xyz
  1  'x, y, z'
loop_
 _atom_site_type_symbol
 _atom_site_label
 _atom_site_symmetry_multiplicity
 _atom_site_fract_x
 _atom_site_fract_y
 _atom_site_fract_z
 _atom_site_occupancy
  Pr  Pr0  1  0.291995  0.087763  0.382015  1
  Pr  Pr1  1  0.294931  0.910925  0.881158  1
  Pr  Pr2  1  0.701379  0.085232  0.868078  1
  Pr  Pr3  1  0.704249  0.905390  0.383809  1
  Pr  Pr4  1  0.588269  0.792486  0.883407  1
  Pr  Pr5  1  0.579944  0.207558  0.382824  1
  Pr  Pr6  1  0.410335  0.793276  0.382290  1
  Pr  Pr7  1  0.410690  0.206682  0.883427  1
  Pr  Pr8  1  0.207514  0.411731  0.616593  1
  Pr  Pr9  1  0.206724  0.589665  0.117710  1
  Pr  Pr10  1  0.792442  0.420056  0.117176  1
  Pr  Pr11  1  0.793318  0.589310  0.616573  1
  Pr  Pr12  1  0.912237  0.708005  0.117985  1
  Pr  Pr13  1  0.914768  0.298621  0.631922  1
  Pr  Pr14  1  0.089075  0.705069  0.618842  1
  Pr  Pr15  1  0.094610  0.295751  0.116191  1
  Pr  Pr16  1  0.003928  0.995866  0.502790  1
  Pr  Pr17  1  0.004134  0.996072  0.997210  1
  Pr  Pr18  1  0.499282  0.500270  0.999177  1
  Pr  Pr19  1  0.499730  0.500718  0.500823  1
  Ir  Ir20  1  0.848141  0.848235  0.749900  1
  Ir  Ir21  1  0.151765  0.151859  0.750100  1
  Ir  Ir22  1  0.153424  0.846576  0.250000  1
  Ir  Ir23  1  0.653726  0.346274  0.750000  1
  Ir  Ir24  1  0.652699  0.652329  0.250114  1
  Ir  Ir25  1  0.347671  0.347301  0.249886  1
  Ir  Ir26  1  0.346966  0.653034  0.750000  1
  Ru  Ru27  1  0.501340  0.000345  0.117759  1
  Ru  Ru28  1  0.500791  0.000451  0.616052  1
  Ru  Ru29  1  0.999549  0.499209  0.883948  1
  Ru  Ru30  1  0.999655  0.498660  0.382241  1
  Au  Au31  1  0.844721  0.155279  0.250000  1
