# generated using pymatgen
data_Ho4Tm6(InBi)3
_symmetry_space_group_name_H-M   'P 1'
_cell_length_a   6.50369400
_cell_length_b   8.97708998
_cell_length_c   8.98438475
_cell_angle_alpha   119.97313572
_cell_angle_beta   89.99956646
_cell_angle_gamma   90.00085443
_symmetry_Int_Tables_number   1
_chemical_formula_structural   Ho4Tm6(InBi)3
_chemical_formula_sum   'Ho4 Tm6 In3 Bi3'
_cell_volume   454.39354418
_cell_formula_units_Z   1
loop_
 _symmetry_equiv_pos_site_id
 _symmetry_equiv_pos_as_xyz
  1  'x, y, z'
loop_
 _atom_site_type_symbol
 _atom_site_label
 _atom_site_symmetry_multiplicity
 _atom_site_fract_x
 _atom_site_fract_y
 _atom_site_fract_z
 _atom_site_occupancy
  Ho  Ho0  1  0.749995  0.236223  0.000000  1
  Ho  Ho1  1  0.750002  0.763390  0.763351  1
  Ho  Ho2  1  0.750002  0.000039  0.236649  1
  Ho  Ho3  1  0.249998  0.762219  0.000000  1
  Tm  Tm4  1  0.492287  0.333231  0.666577  1
  Tm  Tm5  1  0.492287  0.666655  0.333423  1
  Tm  Tm6  1  0.007716  0.666651  0.333426  1
  Tm  Tm7  1  0.007716  0.333225  0.666574  1
  Tm  Tm8  1  0.249997  0.238211  0.238014  1
  Tm  Tm9  1  0.249997  0.000197  0.761986  1
  In  In10  1  0.249999  0.393534  0.000000  1
  In  In11  1  0.250001  0.606262  0.605979  1
  In  In12  1  0.250001  0.000282  0.394021  1
  Bi  Bi13  1  0.750002  0.603451  0.000000  1
  Bi  Bi14  1  0.749998  0.396425  0.396420  1
  Bi  Bi15  1  0.749998  0.000006  0.603580  1
