# generated using pymatgen
data_TbTm2Al12Ir3Ru
_symmetry_space_group_name_H-M   'P 1'
_cell_length_a   8.81276610
_cell_length_b   8.81045761
_cell_length_c   9.47635500
_cell_angle_alpha   90.00000000
_cell_angle_beta   90.00000000
_cell_angle_gamma   119.99134152
_symmetry_Int_Tables_number   1
_chemical_formula_structural   TbTm2Al12Ir3Ru
_chemical_formula_sum   'Tb2 Tm4 Al24 Ir6 Ru2'
_cell_volume   637.26570656
_cell_formula_units_Z   2
loop_
 _symmetry_equiv_pos_site_id
 _symmetry_equiv_pos_as_xyz
  1  'x, y, z'
loop_
 _atom_site_type_symbol
 _atom_site_label
 _atom_site_symmetry_multiplicity
 _atom_site_fract_x
 _atom_site_fract_y
 _atom_site_fract_z
 _atom_site_occupancy
  Tb  Tb0  1  0.192596  0.807527  0.750000  1
  Tb  Tb1  1  0.192596  0.385069  0.750000  1
  Tm  Tm2  1  0.388854  0.194426  0.250000  1
  Tm  Tm3  1  0.805858  0.194513  0.250000  1
  Tm  Tm4  1  0.805858  0.611345  0.250000  1
  Tm  Tm5  1  0.612334  0.806168  0.750000  1
  Al  Al6  1  0.437850  0.875574  0.250000  1
  Al  Al7  1  0.124312  0.562156  0.250000  1
  Al  Al8  1  0.437850  0.562275  0.250000  1
  Al  Al9  1  0.563195  0.125008  0.750000  1
  Al  Al10  1  0.874311  0.437156  0.750000  1
  Al  Al11  1  0.563195  0.438187  0.750000  1
  Al  Al12  1  0.162693  0.837074  0.422935  1
  Al  Al13  1  0.162693  0.325620  0.422935  1
  Al  Al14  1  0.674495  0.837248  0.423597  1
  Al  Al15  1  0.836674  0.162607  0.575338  1
  Al  Al16  1  0.836674  0.674065  0.575338  1
  Al  Al17  1  0.326325  0.163162  0.575020  1
  Al  Al18  1  0.836674  0.162607  0.924662  1
  Al  Al19  1  0.836674  0.674065  0.924662  1
  Al  Al20  1  0.326325  0.163162  0.924980  1
  Al  Al21  1  0.162693  0.837074  0.077065  1
  Al  Al22  1  0.162693  0.325620  0.077065  1
  Al  Al23  1  0.674495  0.837248  0.076403  1
  Al  Al24  1  0.334020  0.667010  0.529356  1
  Al  Al25  1  0.666855  0.333427  0.469017  1
  Al  Al26  1  0.666855  0.333427  0.030983  1
  Al  Al27  1  0.334020  0.667010  0.970644  1
  Al  Al28  1  0.999946  0.999973  0.250000  1
  Al  Al29  1  0.998214  0.999107  0.750000  1
  Ir  Ir30  1  0.500837  0.000700  0.499365  1
  Ir  Ir31  1  0.999374  0.499687  0.498967  1
  Ir  Ir32  1  0.500837  0.500137  0.499365  1
  Ir  Ir33  1  0.500837  0.000700  0.000635  1
  Ir  Ir34  1  0.999374  0.499687  0.001033  1
  Ir  Ir35  1  0.500837  0.500137  0.000635  1
  Ru  Ru36  1  0.000040  0.000020  0.499924  1
  Ru  Ru37  1  0.000040  0.000020  0.000076  1
