# generated using pymatgen
data_TbDy2In3Rh2Au
_symmetry_space_group_name_H-M   'P 1'
_cell_length_a   7.77184617
_cell_length_b   7.76939564
_cell_length_c   3.80697600
_cell_angle_alpha   90.00000000
_cell_angle_beta   90.00000000
_cell_angle_gamma   119.98680322
_symmetry_Int_Tables_number   1
_chemical_formula_structural   TbDy2In3Rh2Au
_chemical_formula_sum   'Tb1 Dy2 In3 Rh2 Au1'
_cell_volume   199.10397970
_cell_formula_units_Z   1
loop_
 _symmetry_equiv_pos_site_id
 _symmetry_equiv_pos_as_xyz
  1  'x, y, z'
loop_
 _atom_site_type_symbol
 _atom_site_label
 _atom_site_symmetry_multiplicity
 _atom_site_fract_x
 _atom_site_fract_y
 _atom_site_fract_z
 _atom_site_occupancy
  Tb  Tb0  1  0.019399  0.605976  0.500000  1
  Dy  Dy1  1  0.586709  0.980397  0.500000  1
  Dy  Dy2  1  0.393753  0.413404  0.500000  1
  In  In3  1  0.002339  0.258260  0.000000  1
  In  In4  1  0.256603  0.998159  0.000000  1
  In  In5  1  0.741181  0.743757  0.000000  1
  Rh  Rh6  1  0.999997  0.000334  0.500000  1
  Rh  Rh7  1  0.333995  0.666849  0.000000  1
  Au  Au8  1  0.666023  0.332864  0.000000  1
