# generated using pymatgen
data_Sm2Dy3(OsO6)2
_symmetry_space_group_name_H-M   'P 1'
_cell_length_a   6.93148919
_cell_length_b   6.93148891
_cell_length_c   7.56361484
_cell_angle_alpha   74.18105556
_cell_angle_beta   74.18105347
_cell_angle_gamma   48.51549071
_symmetry_Int_Tables_number   1
_chemical_formula_structural   Sm2Dy3(OsO6)2
_chemical_formula_sum   'Sm2 Dy3 Os2 O12'
_cell_volume   259.78038640
_cell_formula_units_Z   1
loop_
 _symmetry_equiv_pos_site_id
 _symmetry_equiv_pos_as_xyz
  1  'x, y, z'
loop_
 _atom_site_type_symbol
 _atom_site_label
 _atom_site_symmetry_multiplicity
 _atom_site_fract_x
 _atom_site_fract_y
 _atom_site_fract_z
 _atom_site_occupancy
  Sm  Sm0  1  0.302607  0.302607  0.355761  1
  Sm  Sm1  1  0.697393  0.697393  0.644239  1
  Dy  Dy2  1  0.311860  0.311860  0.832038  1
  Dy  Dy3  1  0.688140  0.688140  0.167962  1
  Dy  Dy4  1  0.000000  0.000000  0.500000  1
  Os  Os5  1  0.781598  0.218402  0.000000  1
  Os  Os6  1  0.218402  0.781598  0.000000  1
  O  O7  1  0.915823  0.414379  0.919814  1
  O  O8  1  0.414379  0.915823  0.919814  1
  O  O9  1  0.084177  0.585621  0.080186  1
  O  O10  1  0.585621  0.084177  0.080186  1
  O  O11  1  0.100479  0.597256  0.578150  1
  O  O12  1  0.597256  0.100479  0.578150  1
  O  O13  1  0.899521  0.402744  0.421850  1
  O  O14  1  0.402744  0.899521  0.421850  1
  O  O15  1  0.001141  0.001141  0.796436  1
  O  O16  1  0.998859  0.998859  0.203564  1
  O  O17  1  0.499757  0.499757  0.830133  1
  O  O18  1  0.500243  0.500243  0.169867  1
