# generated using pymatgen
data_Dy6InSiTc
_symmetry_space_group_name_H-M   'P 1'
_cell_length_a   8.53380035
_cell_length_b   8.53380051
_cell_length_c   8.53380000
_cell_angle_alpha   112.84088295
_cell_angle_beta   111.11906642
_cell_angle_gamma   104.56744324
_symmetry_Int_Tables_number   1
_chemical_formula_structural   Dy6InSiTc
_chemical_formula_sum   'Dy12 In2 Si2 Tc2'
_cell_volume   475.69941858
_cell_formula_units_Z   2
loop_
 _symmetry_equiv_pos_site_id
 _symmetry_equiv_pos_as_xyz
  1  'x, y, z'
loop_
 _atom_site_type_symbol
 _atom_site_label
 _atom_site_symmetry_multiplicity
 _atom_site_fract_x
 _atom_site_fract_y
 _atom_site_fract_z
 _atom_site_occupancy
  Dy  Dy0  1  0.442736  0.240806  0.201932  1
  Dy  Dy1  1  0.557264  0.759194  0.798068  1
  Dy  Dy2  1  0.038873  0.240806  0.798068  1
  Dy  Dy3  1  0.961127  0.759194  0.201932  1
  Dy  Dy4  1  0.187036  0.275797  0.462833  1
  Dy  Dy5  1  0.812964  0.724203  0.537167  1
  Dy  Dy6  1  0.187036  0.724203  0.911239  1
  Dy  Dy7  1  0.812964  0.275797  0.088761  1
  Dy  Dy8  1  0.333643  0.645614  0.311971  1
  Dy  Dy9  1  0.666357  0.354386  0.688029  1
  Dy  Dy10  1  0.333643  0.021670  0.688029  1
  Dy  Dy11  1  0.666357  0.978330  0.311971  1
  In  In12  1  0.500000  0.500000  0.000000  1
  In  In13  1  0.000000  0.000000  0.000000  1
  Si  Si14  1  0.113509  0.613509  0.500000  1
  Si  Si15  1  0.886491  0.386491  0.500000  1
  Tc  Tc16  1  0.329171  0.000000  0.329171  1
  Tc  Tc17  1  0.670829  0.000000  0.670829  1
