# generated using pymatgen
data_Gd6ErTm(MoO6)4
_symmetry_space_group_name_H-M   'P 1'
_cell_length_a   10.03443540
_cell_length_b   10.03443553
_cell_length_c   5.42215008
_cell_angle_alpha   75.02823649
_cell_angle_beta   75.02823525
_cell_angle_gamma   68.29944281
_symmetry_Int_Tables_number   1
_chemical_formula_structural   Gd6ErTm(MoO6)4
_chemical_formula_sum   'Gd6 Er1 Tm1 Mo4 O24'
_cell_volume   481.91356199
_cell_formula_units_Z   1
loop_
 _symmetry_equiv_pos_site_id
 _symmetry_equiv_pos_as_xyz
  1  'x, y, z'
loop_
 _atom_site_type_symbol
 _atom_site_label
 _atom_site_symmetry_multiplicity
 _atom_site_fract_x
 _atom_site_fract_y
 _atom_site_fract_z
 _atom_site_occupancy
  Gd  Gd0  1  0.551334  0.784270  0.622173  1
  Gd  Gd1  1  0.784289  0.551161  0.122268  1
  Gd  Gd2  1  0.448839  0.215711  0.377732  1
  Gd  Gd3  1  0.215730  0.448666  0.877827  1
  Gd  Gd4  1  0.861775  0.138225  0.250000  1
  Gd  Gd5  1  0.138048  0.861952  0.750000  1
  Er  Er6  1  0.397261  0.602739  0.250000  1
  Tm  Tm7  1  0.602382  0.397618  0.750000  1
  Mo  Mo8  1  0.296889  0.010190  0.065386  1
  Mo  Mo9  1  0.989810  0.703111  0.434614  1
  Mo  Mo10  1  0.703087  0.989958  0.934436  1
  Mo  Mo11  1  0.010042  0.296913  0.565564  1
  O  O12  1  0.607720  0.569855  0.924054  1
  O  O13  1  0.430145  0.392280  0.575946  1
  O  O14  1  0.392857  0.429401  0.074750  1
  O  O15  1  0.570599  0.607143  0.425250  1
  O  O16  1  0.337925  0.803922  0.933447  1
  O  O17  1  0.196078  0.662075  0.566553  1
  O  O18  1  0.661917  0.196781  0.065308  1
  O  O19  1  0.803219  0.338083  0.434692  1
  O  O20  1  0.328232  0.887550  0.379276  1
  O  O21  1  0.112450  0.671768  0.120724  1
  O  O22  1  0.671812  0.112364  0.620674  1
  O  O23  1  0.887636  0.328188  0.879326  1
  O  O24  1  0.182207  0.289384  0.634348  1
  O  O25  1  0.710616  0.817793  0.865652  1
  O  O26  1  0.817833  0.710649  0.365626  1
  O  O27  1  0.289351  0.182167  0.134374  1
  O  O28  1  0.045795  0.113649  0.517849  1
  O  O29  1  0.886351  0.954205  0.982151  1
  O  O30  1  0.430015  0.022826  0.759430  1
  O  O31  1  0.113611  0.045820  0.017895  1
  O  O32  1  0.022772  0.429981  0.259420  1
  O  O33  1  0.570019  0.977228  0.240580  1
  O  O34  1  0.977174  0.569985  0.740570  1
  O  O35  1  0.954180  0.886389  0.482105  1
