# generated using pymatgen
data_TbSm7(SiBr6)2
_symmetry_space_group_name_H-M   'P 1'
_cell_length_a   4.15156000
_cell_length_b   13.51230693
_cell_length_c   14.33906526
_cell_angle_alpha   89.89277824
_cell_angle_beta   90.00000000
_cell_angle_gamma   90.00000000
_symmetry_Int_Tables_number   1
_chemical_formula_structural   TbSm7(SiBr6)2
_chemical_formula_sum   'Tb1 Sm7 Si2 Br12'
_cell_volume   804.37932875
_cell_formula_units_Z   1
loop_
 _symmetry_equiv_pos_site_id
 _symmetry_equiv_pos_as_xyz
  1  'x, y, z'
loop_
 _atom_site_type_symbol
 _atom_site_label
 _atom_site_symmetry_multiplicity
 _atom_site_fract_x
 _atom_site_fract_y
 _atom_site_fract_z
 _atom_site_occupancy
  Tb  Tb0  1  0.000000  0.382420  0.077832  1
  Sm  Sm1  1  0.500000  0.118907  0.340264  1
  Sm  Sm2  1  0.500000  0.881435  0.659379  1
  Sm  Sm3  1  0.500000  0.617954  0.159380  1
  Sm  Sm4  1  0.500000  0.381268  0.841119  1
  Sm  Sm5  1  0.000000  0.118930  0.578653  1
  Sm  Sm6  1  0.000000  0.881150  0.421218  1
  Sm  Sm7  1  0.000000  0.617634  0.922052  1
  Si  Si8  1  0.500000  0.000193  0.499724  1
  Si  Si9  1  0.500000  0.498404  0.001062  1
  Br  Br10  1  0.500000  0.249252  0.160415  1
  Br  Br11  1  0.500000  0.754861  0.837714  1
  Br  Br12  1  0.500000  0.743911  0.336879  1
  Br  Br13  1  0.500000  0.255803  0.663296  1
  Br  Br14  1  0.000000  0.255099  0.411063  1
  Br  Br15  1  0.000000  0.745018  0.588693  1
  Br  Br16  1  0.000000  0.754461  0.088435  1
  Br  Br17  1  0.000000  0.246248  0.914891  1
  Br  Br18  1  0.000000  0.002223  0.243542  1
  Br  Br19  1  0.000000  0.998184  0.756237  1
  Br  Br20  1  0.000000  0.498394  0.253834  1
  Br  Br21  1  0.000000  0.498249  0.744318  1
