# generated using pymatgen
data_TiNb2Al2RhC
_symmetry_space_group_name_H-M   'P 1'
_cell_length_a   8.29645760
_cell_length_b   8.30958608
_cell_length_c   8.29377300
_cell_angle_alpha   60.06293453
_cell_angle_beta   60.01070747
_cell_angle_gamma   59.93724847
_symmetry_Int_Tables_number   1
_chemical_formula_structural   TiNb2Al2RhC
_chemical_formula_sum   'Ti4 Nb8 Al8 Rh4 C4'
_cell_volume   404.33740870
_cell_formula_units_Z   4
loop_
 _symmetry_equiv_pos_site_id
 _symmetry_equiv_pos_as_xyz
  1  'x, y, z'
loop_
 _atom_site_type_symbol
 _atom_site_label
 _atom_site_symmetry_multiplicity
 _atom_site_fract_x
 _atom_site_fract_y
 _atom_site_fract_z
 _atom_site_occupancy
  Ti  Ti0  1  0.939046  0.563349  0.560671  1
  Ti  Ti1  1  0.939046  0.563349  0.936934  1
  Ti  Ti2  1  0.309521  0.314428  0.688025  1
  Ti  Ti3  1  0.560032  0.564505  0.937732  1
  Nb  Nb4  1  0.939567  0.936413  0.562010  1
  Nb  Nb5  1  0.690279  0.312381  0.309451  1
  Nb  Nb6  1  0.311219  0.687701  0.688101  1
  Nb  Nb7  1  0.688473  0.686365  0.312581  1
  Nb  Nb8  1  0.690279  0.312381  0.687888  1
  Nb  Nb9  1  0.311219  0.687701  0.312979  1
  Nb  Nb10  1  0.560834  0.937986  0.562072  1
  Nb  Nb11  1  0.560834  0.937986  0.939109  1
  Al  Al12  1  0.915964  0.254033  0.915002  1
  Al  Al13  1  0.332665  0.333758  0.998446  1
  Al  Al14  1  0.000996  0.333874  0.332564  1
  Al  Al15  1  0.332665  0.333758  0.335129  1
  Al  Al16  1  0.250350  0.915306  0.917173  1
  Al  Al17  1  0.917124  0.914526  0.917135  1
  Al  Al18  1  0.917124  0.914526  0.251216  1
  Al  Al19  1  0.333565  0.999527  0.333454  1
  Rh  Rh20  1  0.125976  0.623615  0.125205  1
  Rh  Rh21  1  0.124488  0.126139  0.625752  1
  Rh  Rh22  1  0.624921  0.126541  0.124269  1
  Rh  Rh23  1  0.124488  0.126139  0.123620  1
  C  C24  1  0.619078  0.130069  0.625427  1
  C  C25  1  0.629224  0.622905  0.118228  1
  C  C26  1  0.121799  0.617834  0.630184  1
  C  C27  1  0.629224  0.622905  0.629643  1
