# generated using pymatgen
data_Tb5Y3(HgIr)2
_symmetry_space_group_name_H-M   'P 1'
_cell_length_a   9.65415347
_cell_length_b   9.65415416
_cell_length_c   9.65415400
_cell_angle_alpha   60.00000054
_cell_angle_beta   59.99999817
_cell_angle_gamma   60.00000115
_symmetry_Int_Tables_number   1
_chemical_formula_structural   Tb5Y3(HgIr)2
_chemical_formula_sum   'Tb10 Y6 Hg4 Ir4'
_cell_volume   636.24978954
_cell_formula_units_Z   2
loop_
 _symmetry_equiv_pos_site_id
 _symmetry_equiv_pos_as_xyz
  1  'x, y, z'
loop_
 _atom_site_type_symbol
 _atom_site_label
 _atom_site_symmetry_multiplicity
 _atom_site_fract_x
 _atom_site_fract_y
 _atom_site_fract_z
 _atom_site_occupancy
  Tb  Tb0  1  0.350601  0.350601  0.350601  1
  Tb  Tb1  1  0.350601  0.350601  0.948198  1
  Tb  Tb2  1  0.350601  0.948198  0.350601  1
  Tb  Tb3  1  0.948198  0.350601  0.350601  1
  Tb  Tb4  1  0.808677  0.191323  0.191323  1
  Tb  Tb5  1  0.191323  0.808677  0.808677  1
  Tb  Tb6  1  0.191323  0.808677  0.191323  1
  Tb  Tb7  1  0.808677  0.191323  0.808677  1
  Tb  Tb8  1  0.191323  0.191323  0.808677  1
  Tb  Tb9  1  0.808677  0.808677  0.191323  1
  Y  Y10  1  0.939016  0.560984  0.560984  1
  Y  Y11  1  0.560984  0.939016  0.939016  1
  Y  Y12  1  0.560984  0.939016  0.560984  1
  Y  Y13  1  0.939016  0.560984  0.939016  1
  Y  Y14  1  0.560984  0.560984  0.939016  1
  Y  Y15  1  0.939016  0.939016  0.560984  1
  Hg  Hg16  1  0.585403  0.585403  0.585403  1
  Hg  Hg17  1  0.585403  0.585403  0.243793  1
  Hg  Hg18  1  0.585403  0.243793  0.585403  1
  Hg  Hg19  1  0.243793  0.585403  0.585403  1
  Ir  Ir20  1  0.141633  0.141633  0.141633  1
  Ir  Ir21  1  0.141633  0.141633  0.575100  1
  Ir  Ir22  1  0.141633  0.575100  0.141633  1
  Ir  Ir23  1  0.575100  0.141633  0.141633  1
