# generated using pymatgen
data_TbTm9(CoSb2)2
_symmetry_space_group_name_H-M   'P 1'
_cell_length_a   7.78458700
_cell_length_b   8.72245600
_cell_length_c   12.05915300
_cell_angle_alpha   90.00000000
_cell_angle_beta   90.00000000
_cell_angle_gamma   90.00000000
_symmetry_Int_Tables_number   1
_chemical_formula_structural   TbTm9(CoSb2)2
_chemical_formula_sum   'Tb2 Tm18 Co4 Sb8'
_cell_volume   818.82514218
_cell_formula_units_Z   2
loop_
 _symmetry_equiv_pos_site_id
 _symmetry_equiv_pos_as_xyz
  1  'x, y, z'
loop_
 _atom_site_type_symbol
 _atom_site_label
 _atom_site_symmetry_multiplicity
 _atom_site_fract_x
 _atom_site_fract_y
 _atom_site_fract_z
 _atom_site_occupancy
  Tb  Tb0  1  0.377104  0.250000  0.692539  1
  Tb  Tb1  1  0.877104  0.750000  0.807461  1
  Tm  Tm2  1  0.156811  0.750000  0.203694  1
  Tm  Tm3  1  0.656811  0.250000  0.296306  1
  Tm  Tm4  1  0.843460  0.250000  0.796304  1
  Tm  Tm5  1  0.343460  0.750000  0.703696  1
  Tm  Tm6  1  0.450039  0.750000  0.998157  1
  Tm  Tm7  1  0.950039  0.250000  0.501843  1
  Tm  Tm8  1  0.549447  0.250000  0.002211  1
  Tm  Tm9  1  0.049447  0.750000  0.497789  1
  Tm  Tm10  1  0.621778  0.750000  0.308540  1
  Tm  Tm11  1  0.121778  0.250000  0.191460  1
  Tm  Tm12  1  0.823816  0.963756  0.065917  1
  Tm  Tm13  1  0.323816  0.036244  0.434083  1
  Tm  Tm14  1  0.176665  0.462101  0.934979  1
  Tm  Tm15  1  0.676665  0.537899  0.565021  1
  Tm  Tm16  1  0.176665  0.037899  0.934979  1
  Tm  Tm17  1  0.676665  0.962101  0.565021  1
  Tm  Tm18  1  0.823816  0.536244  0.065917  1
  Tm  Tm19  1  0.323816  0.463756  0.434083  1
  Co  Co20  1  0.431893  0.750000  0.490555  1
  Co  Co21  1  0.931893  0.250000  0.009445  1
  Co  Co22  1  0.568602  0.250000  0.508707  1
  Co  Co23  1  0.068602  0.750000  0.991293  1
  Sb  Sb24  1  0.931006  0.991605  0.327477  1
  Sb  Sb25  1  0.431006  0.008395  0.172523  1
  Sb  Sb26  1  0.068946  0.491462  0.672089  1
  Sb  Sb27  1  0.568946  0.508538  0.827911  1
  Sb  Sb28  1  0.068946  0.008538  0.672089  1
  Sb  Sb29  1  0.568946  0.991462  0.827911  1
  Sb  Sb30  1  0.931006  0.508395  0.327477  1
  Sb  Sb31  1  0.431006  0.491605  0.172523  1
