# generated using pymatgen
data_Sr3LiAs2F
_symmetry_space_group_name_H-M   'P 1'
_cell_length_a   4.49975200
_cell_length_b   12.14236500
_cell_length_c   12.79418700
_cell_angle_alpha   90.00000000
_cell_angle_beta   90.00000000
_cell_angle_gamma   90.00000000
_symmetry_Int_Tables_number   1
_chemical_formula_structural   Sr3LiAs2F
_chemical_formula_sum   'Sr12 Li4 As8 F4'
_cell_volume   699.04407073
_cell_formula_units_Z   4
loop_
 _symmetry_equiv_pos_site_id
 _symmetry_equiv_pos_as_xyz
  1  'x, y, z'
loop_
 _atom_site_type_symbol
 _atom_site_label
 _atom_site_symmetry_multiplicity
 _atom_site_fract_x
 _atom_site_fract_y
 _atom_site_fract_z
 _atom_site_occupancy
  Sr  Sr0  1  0.250000  0.063136  0.621024  1
  Sr  Sr1  1  0.250000  0.563136  0.878976  1
  Sr  Sr2  1  0.750000  0.936864  0.378976  1
  Sr  Sr3  1  0.750000  0.436864  0.121024  1
  Sr  Sr4  1  0.250000  0.203953  0.300304  1
  Sr  Sr5  1  0.250000  0.703953  0.199696  1
  Sr  Sr6  1  0.750000  0.796047  0.699696  1
  Sr  Sr7  1  0.750000  0.296047  0.800304  1
  Sr  Sr8  1  0.250000  0.368590  0.560596  1
  Sr  Sr9  1  0.250000  0.868590  0.939404  1
  Sr  Sr10  1  0.750000  0.631410  0.439404  1
  Sr  Sr11  1  0.750000  0.131410  0.060596  1
  Li  Li12  1  0.250000  0.134486  0.857294  1
  Li  Li13  1  0.250000  0.634486  0.642706  1
  Li  Li14  1  0.750000  0.865514  0.142706  1
  Li  Li15  1  0.750000  0.365514  0.357294  1
  As  As16  1  0.250000  0.314786  0.983276  1
  As  As17  1  0.250000  0.814786  0.516724  1
  As  As18  1  0.750000  0.685214  0.016724  1
  As  As19  1  0.750000  0.185214  0.483276  1
  As  As20  1  0.250000  0.476108  0.326125  1
  As  As21  1  0.250000  0.976108  0.173875  1
  As  As22  1  0.750000  0.523892  0.673875  1
  As  As23  1  0.750000  0.023892  0.826125  1
  F  F24  1  0.250000  0.240840  0.721491  1
  F  F25  1  0.250000  0.740840  0.778509  1
  F  F26  1  0.750000  0.759160  0.278509  1
  F  F27  1  0.750000  0.259160  0.221491  1
