# generated using pymatgen
data_Lu3Pa(MnB6)2
_symmetry_space_group_name_H-M   'P 1'
_cell_length_a   3.54129400
_cell_length_b   9.00482948
_cell_length_c   11.35422439
_cell_angle_alpha   90.25295077
_cell_angle_beta   90.00000000
_cell_angle_gamma   90.00000000
_symmetry_Int_Tables_number   1
_chemical_formula_structural   Lu3Pa(MnB6)2
_chemical_formula_sum   'Lu6 Pa2 Mn4 B24'
_cell_volume   362.06847872
_cell_formula_units_Z   2
loop_
 _symmetry_equiv_pos_site_id
 _symmetry_equiv_pos_as_xyz
  1  'x, y, z'
loop_
 _atom_site_type_symbol
 _atom_site_label
 _atom_site_symmetry_multiplicity
 _atom_site_fract_x
 _atom_site_fract_y
 _atom_site_fract_z
 _atom_site_occupancy
  Lu  Lu0  1  0.000000  0.824821  0.084497  1
  Lu  Lu1  1  0.000000  0.175179  0.915503  1
  Lu  Lu2  1  0.000000  0.943420  0.369705  1
  Lu  Lu3  1  0.000000  0.056580  0.630295  1
  Lu  Lu4  1  0.000000  0.442847  0.128302  1
  Lu  Lu5  1  0.000000  0.557153  0.871698  1
  Pa  Pa6  1  0.000000  0.322569  0.413350  1
  Pa  Pa7  1  0.000000  0.677431  0.586650  1
  Mn  Mn8  1  0.000000  0.636934  0.323043  1
  Mn  Mn9  1  0.000000  0.363066  0.676957  1
  Mn  Mn10  1  0.000000  0.140855  0.182107  1
  Mn  Mn11  1  0.000000  0.859145  0.817893  1
  B  B12  1  0.500000  0.554953  0.431352  1
  B  B13  1  0.500000  0.445047  0.568648  1
  B  B14  1  0.500000  0.054097  0.067118  1
  B  B15  1  0.500000  0.945903  0.932882  1
  B  B16  1  0.500000  0.748743  0.417029  1
  B  B17  1  0.500000  0.251257  0.582971  1
  B  B18  1  0.500000  0.247341  0.080388  1
  B  B19  1  0.500000  0.752659  0.919612  1
  B  B20  1  0.500000  0.791207  0.264276  1
  B  B21  1  0.500000  0.208793  0.735724  1
  B  B22  1  0.500000  0.290586  0.232695  1
  B  B23  1  0.500000  0.709414  0.767305  1
  B  B24  1  0.500000  0.631937  0.184577  1
  B  B25  1  0.500000  0.368063  0.815423  1
  B  B26  1  0.500000  0.130957  0.313209  1
  B  B27  1  0.500000  0.869043  0.686791  1
  B  B28  1  0.500000  0.983505  0.210639  1
  B  B29  1  0.500000  0.016495  0.789361  1
  B  B30  1  0.500000  0.485548  0.286652  1
  B  B31  1  0.500000  0.514452  0.713348  1
  B  B32  1  0.500000  0.604758  0.029029  1
  B  B33  1  0.500000  0.395242  0.970971  1
  B  B34  1  0.500000  0.105064  0.471170  1
  B  B35  1  0.500000  0.894936  0.528830  1
