# generated using pymatgen
data_NbV2Pt(SeO3)8
_symmetry_space_group_name_H-M   'P 1'
_cell_length_a   8.28969745
_cell_length_b   8.29402801
_cell_length_c   8.37066600
_cell_angle_alpha   89.75018935
_cell_angle_beta   89.54756329
_cell_angle_gamma   89.62564957
_symmetry_Int_Tables_number   1
_chemical_formula_structural   NbV2Pt(SeO3)8
_chemical_formula_sum   'Nb1 V2 Pt1 Se8 O24'
_cell_volume   575.48942866
_cell_formula_units_Z   1
loop_
 _symmetry_equiv_pos_site_id
 _symmetry_equiv_pos_as_xyz
  1  'x, y, z'
loop_
 _atom_site_type_symbol
 _atom_site_label
 _atom_site_symmetry_multiplicity
 _atom_site_fract_x
 _atom_site_fract_y
 _atom_site_fract_z
 _atom_site_occupancy
  Nb  Nb0  1  0.500000  0.000000  0.000000  1
  V  V1  1  0.000000  0.500000  0.000000  1
  V  V2  1  0.500000  0.500000  0.500000  1
  Pt  Pt3  1  0.000000  0.000000  0.500000  1
  Se  Se4  1  0.313484  0.659593  0.187487  1
  Se  Se5  1  0.828992  0.319464  0.324221  1
  Se  Se6  1  0.689040  0.811533  0.658733  1
  Se  Se7  1  0.159906  0.177847  0.813442  1
  Se  Se8  1  0.686516  0.340407  0.812513  1
  Se  Se9  1  0.171008  0.680536  0.675779  1
  Se  Se10  1  0.310960  0.188467  0.341267  1
  Se  Se11  1  0.840094  0.822153  0.186558  1
  O  O12  1  0.237157  0.536414  0.044685  1
  O  O13  1  0.721874  0.451870  0.451294  1
  O  O14  1  0.758194  0.967644  0.532538  1
  O  O15  1  0.272095  0.040891  0.931426  1
  O  O16  1  0.553494  0.923603  0.775379  1
  O  O17  1  0.453699  0.528380  0.268806  1
  O  O18  1  0.954439  0.456845  0.237948  1
  O  O19  1  0.020383  0.037551  0.739325  1
  O  O20  1  0.966182  0.241854  0.467065  1
  O  O21  1  0.554111  0.732177  0.524698  1
  O  O22  1  0.443104  0.776000  0.064834  1
  O  O23  1  0.042536  0.259224  0.960212  1
  O  O24  1  0.762843  0.463586  0.955315  1
  O  O25  1  0.278126  0.548130  0.548706  1
  O  O26  1  0.241806  0.032356  0.467462  1
  O  O27  1  0.727905  0.959109  0.068574  1
  O  O28  1  0.446506  0.076397  0.224621  1
  O  O29  1  0.546301  0.471620  0.731194  1
  O  O30  1  0.045561  0.543155  0.762052  1
  O  O31  1  0.979617  0.962449  0.260675  1
  O  O32  1  0.033818  0.758146  0.532935  1
  O  O33  1  0.445889  0.267823  0.475302  1
  O  O34  1  0.556896  0.224000  0.935166  1
  O  O35  1  0.957464  0.740776  0.039788  1
