# generated using pymatgen
data_Lu3HfMg2Ir3
_symmetry_space_group_name_H-M   'P 1'
_cell_length_a   7.22747021
_cell_length_b   7.10479680
_cell_length_c   4.14008200
_cell_angle_alpha   90.00000000
_cell_angle_beta   90.00000000
_cell_angle_gamma   119.44010645
_symmetry_Int_Tables_number   1
_chemical_formula_structural   Lu3HfMg2Ir3
_chemical_formula_sum   'Lu3 Hf1 Mg2 Ir3'
_cell_volume   185.13998729
_cell_formula_units_Z   1
loop_
 _symmetry_equiv_pos_site_id
 _symmetry_equiv_pos_as_xyz
  1  'x, y, z'
loop_
 _atom_site_type_symbol
 _atom_site_label
 _atom_site_symmetry_multiplicity
 _atom_site_fract_x
 _atom_site_fract_y
 _atom_site_fract_z
 _atom_site_occupancy
  Lu  Lu0  1  0.000000  0.397711  0.500000  1
  Lu  Lu1  1  0.581632  0.586246  0.500000  1
  Lu  Lu2  1  0.418368  0.004615  0.500000  1
  Hf  Hf3  1  0.000000  0.750983  0.000000  1
  Mg  Mg4  1  0.249854  0.251055  0.000000  1
  Mg  Mg5  1  0.750146  0.001201  0.000000  1
  Ir  Ir6  1  0.324610  0.674981  0.000000  1
  Ir  Ir7  1  0.675390  0.350371  0.000000  1
  Ir  Ir8  1  0.000000  0.982838  0.500000  1
