# generated using pymatgen
data_Tb3Pr17(Ga2Sn)4
_symmetry_space_group_name_H-M   'P 1'
_cell_length_a   8.08959800
_cell_length_b   8.08959800
_cell_length_c   14.62507800
_cell_angle_alpha   90.00000000
_cell_angle_beta   90.00000000
_cell_angle_gamma   90.00000000
_symmetry_Int_Tables_number   1
_chemical_formula_structural   Tb3Pr17(Ga2Sn)4
_chemical_formula_sum   'Tb3 Pr17 Ga8 Sn4'
_cell_volume   957.08844304
_cell_formula_units_Z   1
loop_
 _symmetry_equiv_pos_site_id
 _symmetry_equiv_pos_as_xyz
  1  'x, y, z'
loop_
 _atom_site_type_symbol
 _atom_site_label
 _atom_site_symmetry_multiplicity
 _atom_site_fract_x
 _atom_site_fract_y
 _atom_site_fract_z
 _atom_site_occupancy
  Tb  Tb0  1  0.000000  0.500000  0.730141  1
  Tb  Tb1  1  0.000000  0.500000  0.230711  1
  Tb  Tb2  1  0.500000  0.000000  0.267963  1
  Pr  Pr3  1  0.823119  0.839396  0.605862  1
  Pr  Pr4  1  0.174648  0.838752  0.107086  1
  Pr  Pr5  1  0.160724  0.824820  0.392913  1
  Pr  Pr6  1  0.839276  0.175180  0.392913  1
  Pr  Pr7  1  0.675180  0.660724  0.392913  1
  Pr  Pr8  1  0.660604  0.323119  0.605862  1
  Pr  Pr9  1  0.339396  0.676881  0.605862  1
  Pr  Pr10  1  0.661248  0.674648  0.107086  1
  Pr  Pr11  1  0.676585  0.339971  0.893594  1
  Pr  Pr12  1  0.839971  0.823415  0.893594  1
  Pr  Pr13  1  0.324820  0.339276  0.392913  1
  Pr  Pr14  1  0.176881  0.160604  0.605862  1
  Pr  Pr15  1  0.825352  0.161248  0.107086  1
  Pr  Pr16  1  0.323415  0.660029  0.893594  1
  Pr  Pr17  1  0.338752  0.325352  0.107086  1
  Pr  Pr18  1  0.160029  0.176585  0.893594  1
  Pr  Pr19  1  0.500000  0.000000  0.775269  1
  Ga  Ga20  1  0.626210  0.373543  0.250278  1
  Ga  Ga21  1  0.120558  0.872244  0.748447  1
  Ga  Ga22  1  0.372244  0.379442  0.748447  1
  Ga  Ga23  1  0.373790  0.626457  0.250278  1
  Ga  Ga24  1  0.873543  0.873790  0.250278  1
  Ga  Ga25  1  0.627756  0.620558  0.748447  1
  Ga  Ga26  1  0.879442  0.127756  0.748447  1
  Ga  Ga27  1  0.126457  0.126210  0.250278  1
  Sn  Sn28  1  0.000000  0.500000  0.505674  1
  Sn  Sn29  1  0.500000  0.000000  0.491403  1
  Sn  Sn30  1  0.500000  0.000000  0.999442  1
  Sn  Sn31  1  0.000000  0.500000  0.006679  1
