# generated using pymatgen
data_Tb3Y(MgRh)4
_symmetry_space_group_name_H-M   'P 1'
_cell_length_a   4.13963600
_cell_length_b   7.12075337
_cell_length_c   8.52802075
_cell_angle_alpha   90.06007321
_cell_angle_beta   90.00000000
_cell_angle_gamma   90.00000000
_symmetry_Int_Tables_number   1
_chemical_formula_structural   Tb3Y(MgRh)4
_chemical_formula_sum   'Tb3 Y1 Mg4 Rh4'
_cell_volume   251.38311806
_cell_formula_units_Z   1
loop_
 _symmetry_equiv_pos_site_id
 _symmetry_equiv_pos_as_xyz
  1  'x, y, z'
loop_
 _atom_site_type_symbol
 _atom_site_label
 _atom_site_symmetry_multiplicity
 _atom_site_fract_x
 _atom_site_fract_y
 _atom_site_fract_z
 _atom_site_occupancy
  Tb  Tb0  1  0.250000  0.539015  0.176855  1
  Tb  Tb1  1  0.750000  0.461469  0.823421  1
  Tb  Tb2  1  0.750000  0.961336  0.676373  1
  Y  Y3  1  0.250000  0.038346  0.323343  1
  Mg  Mg4  1  0.250000  0.634809  0.558079  1
  Mg  Mg5  1  0.750000  0.364420  0.441896  1
  Mg  Mg6  1  0.750000  0.865278  0.058369  1
  Mg  Mg7  1  0.250000  0.135332  0.941707  1
  Rh  Rh8  1  0.250000  0.751558  0.869635  1
  Rh  Rh9  1  0.750000  0.249989  0.129599  1
  Rh  Rh10  1  0.750000  0.747295  0.369540  1
  Rh  Rh11  1  0.250000  0.251153  0.631184  1
