# generated using pymatgen
data_NdScPa2(Al3Rh)6
_symmetry_space_group_name_H-M   'P 1'
_cell_length_a   7.59219898
_cell_length_b   7.59941076
_cell_length_c   9.38153300
_cell_angle_alpha   90.00000000
_cell_angle_beta   90.00000000
_cell_angle_gamma   119.59169815
_symmetry_Int_Tables_number   1
_chemical_formula_structural   NdScPa2(Al3Rh)6
_chemical_formula_sum   'Nd1 Sc1 Pa2 Al18 Rh6'
_cell_volume   470.67822508
_cell_formula_units_Z   1
loop_
 _symmetry_equiv_pos_site_id
 _symmetry_equiv_pos_as_xyz
  1  'x, y, z'
loop_
 _atom_site_type_symbol
 _atom_site_label
 _atom_site_symmetry_multiplicity
 _atom_site_fract_x
 _atom_site_fract_y
 _atom_site_fract_z
 _atom_site_occupancy
  Nd  Nd0  1  0.330916  0.006688  0.250000  1
  Sc  Sc1  1  0.671318  0.993360  0.750000  1
  Pa  Pa2  1  0.998015  0.671754  0.750000  1
  Pa  Pa3  1  0.002580  0.329029  0.250000  1
  Al  Al4  1  0.126829  0.124916  0.750000  1
  Al  Al5  1  0.866378  0.873174  0.250000  1
  Al  Al6  1  0.996587  0.328913  0.581085  1
  Al  Al7  1  0.997423  0.666152  0.424874  1
  Al  Al8  1  0.997423  0.666152  0.075126  1
  Al  Al9  1  0.341993  0.002950  0.919115  1
  Al  Al10  1  0.996587  0.328913  0.918915  1
  Al  Al11  1  0.664247  0.997460  0.068722  1
  Al  Al12  1  0.664247  0.997460  0.431278  1
  Al  Al13  1  0.341993  0.002950  0.580885  1
  Al  Al14  1  0.334562  0.334551  0.047649  1
  Al  Al15  1  0.665378  0.669169  0.942745  1
  Al  Al16  1  0.665378  0.669169  0.557255  1
  Al  Al17  1  0.334562  0.334551  0.452351  1
  Al  Al18  1  0.342187  0.552867  0.750000  1
  Al  Al19  1  0.661568  0.453912  0.250000  1
  Al  Al20  1  0.551997  0.342145  0.750000  1
  Al  Al21  1  0.451004  0.657103  0.250000  1
  Rh  Rh22  1  0.676060  0.330506  0.501304  1
  Rh  Rh23  1  0.323907  0.669628  0.502126  1
  Rh  Rh24  1  0.323907  0.669628  0.997874  1
  Rh  Rh25  1  0.676060  0.330506  0.998696  1
  Rh  Rh26  1  0.998447  0.998199  0.502502  1
  Rh  Rh27  1  0.998447  0.998199  0.997498  1
