# generated using pymatgen
data_Ce6PrY(AlRu)8
_symmetry_space_group_name_H-M   'P 1'
_cell_length_a   4.01498000
_cell_length_b   7.34346279
_cell_length_c   15.96529231
_cell_angle_alpha   90.25645399
_cell_angle_beta   90.00000000
_cell_angle_gamma   90.00000000
_symmetry_Int_Tables_number   1
_chemical_formula_structural   Ce6PrY(AlRu)8
_chemical_formula_sum   'Ce6 Pr1 Y1 Al8 Ru8'
_cell_volume   470.71366777
_cell_formula_units_Z   1
loop_
 _symmetry_equiv_pos_site_id
 _symmetry_equiv_pos_as_xyz
  1  'x, y, z'
loop_
 _atom_site_type_symbol
 _atom_site_label
 _atom_site_symmetry_multiplicity
 _atom_site_fract_x
 _atom_site_fract_y
 _atom_site_fract_z
 _atom_site_occupancy
  Ce  Ce0  1  0.750000  0.819454  0.436132  1
  Ce  Ce1  1  0.750000  0.453889  0.281311  1
  Ce  Ce2  1  0.750000  0.330392  0.062886  1
  Ce  Ce3  1  0.250000  0.675838  0.939594  1
  Ce  Ce4  1  0.250000  0.049413  0.781093  1
  Ce  Ce5  1  0.250000  0.538233  0.721119  1
  Pr  Pr6  1  0.250000  0.157579  0.559013  1
  Y  Y7  1  0.750000  0.957876  0.217317  1
  Al  Al8  1  0.750000  0.492001  0.562913  1
  Al  Al9  1  0.750000  0.371122  0.853773  1
  Al  Al10  1  0.750000  0.006667  0.937574  1
  Al  Al11  1  0.750000  0.859353  0.651827  1
  Al  Al12  1  0.250000  0.489618  0.435973  1
  Al  Al13  1  0.250000  0.997703  0.065936  1
  Al  Al14  1  0.250000  0.639738  0.152652  1
  Al  Al15  1  0.250000  0.124701  0.341415  1
  Ru  Ru16  1  0.750000  0.747771  0.818509  1
  Ru  Ru17  1  0.250000  0.238685  0.939231  1
  Ru  Ru18  1  0.750000  0.271036  0.420566  1
  Ru  Ru19  1  0.250000  0.758204  0.326027  1
  Ru  Ru20  1  0.750000  0.763909  0.061216  1
  Ru  Ru21  1  0.750000  0.254205  0.694256  1
  Ru  Ru22  1  0.250000  0.276440  0.175064  1
  Ru  Ru23  1  0.250000  0.726174  0.564599  1
