# generated using pymatgen
data_Tb4Sc2Si3Ge
_symmetry_space_group_name_H-M   'P 1'
_cell_length_a   7.28476962
_cell_length_b   7.28476930
_cell_length_c   4.27028100
_cell_angle_alpha   90.00000000
_cell_angle_beta   90.00000000
_cell_angle_gamma   90.34734233
_symmetry_Int_Tables_number   1
_chemical_formula_structural   Tb4Sc2Si3Ge
_chemical_formula_sum   'Tb4 Sc2 Si3 Ge1'
_cell_volume   226.61053611
_cell_formula_units_Z   1
loop_
 _symmetry_equiv_pos_site_id
 _symmetry_equiv_pos_as_xyz
  1  'x, y, z'
loop_
 _atom_site_type_symbol
 _atom_site_label
 _atom_site_symmetry_multiplicity
 _atom_site_fract_x
 _atom_site_fract_y
 _atom_site_fract_z
 _atom_site_occupancy
  Tb  Tb0  1  0.676182  0.178572  0.500000  1
  Tb  Tb1  1  0.825242  0.674758  0.500000  1
  Tb  Tb2  1  0.176259  0.323741  0.500000  1
  Tb  Tb3  1  0.321428  0.823818  0.500000  1
  Sc  Sc4  1  0.499098  0.497779  0.000000  1
  Sc  Sc5  1  0.002221  0.000902  0.000000  1
  Si  Si6  1  0.880016  0.380505  0.000000  1
  Si  Si7  1  0.119495  0.619984  0.000000  1
  Si  Si8  1  0.377289  0.122711  0.000000  1
  Ge  Ge9  1  0.622770  0.877230  0.000000  1
