# generated using pymatgen
data_GaSi4GePt4
_symmetry_space_group_name_H-M   'P 1'
_cell_length_a   3.97734200
_cell_length_b   3.97734218
_cell_length_c   12.27265900
_cell_angle_alpha   90.00000000
_cell_angle_beta   90.00000000
_cell_angle_gamma   119.99998185
_symmetry_Int_Tables_number   1
_chemical_formula_structural   GaSi4GePt4
_chemical_formula_sum   'Ga1 Si4 Ge1 Pt4'
_cell_volume   168.13389388
_cell_formula_units_Z   1
loop_
 _symmetry_equiv_pos_site_id
 _symmetry_equiv_pos_as_xyz
  1  'x, y, z'
loop_
 _atom_site_type_symbol
 _atom_site_label
 _atom_site_symmetry_multiplicity
 _atom_site_fract_x
 _atom_site_fract_y
 _atom_site_fract_z
 _atom_site_occupancy
  Ga  Ga0  1  0.000000  0.000000  0.750000  1
  Si  Si1  1  0.333333  0.666667  0.567040  1
  Si  Si2  1  0.666667  0.333333  0.063798  1
  Si  Si3  1  0.666667  0.333333  0.436202  1
  Si  Si4  1  0.333333  0.666667  0.932960  1
  Ge  Ge5  1  0.000000  0.000000  0.250000  1
  Pt  Pt6  1  0.333333  0.666667  0.365898  1
  Pt  Pt7  1  0.666667  0.333333  0.866855  1
  Pt  Pt8  1  0.666667  0.333333  0.633145  1
  Pt  Pt9  1  0.333333  0.666667  0.134102  1
