# generated using pymatgen
data_RbDy5Tm(CBr6)2
_symmetry_space_group_name_H-M   'P 1'
_cell_length_a   8.87370142
_cell_length_b   8.85130026
_cell_length_c   9.37739063
_cell_angle_alpha   72.38942226
_cell_angle_beta   71.00763463
_cell_angle_gamma   72.86724985
_symmetry_Int_Tables_number   1
_chemical_formula_structural   RbDy5Tm(CBr6)2
_chemical_formula_sum   'Rb1 Dy5 Tm1 C2 Br12'
_cell_volume   647.89321848
_cell_formula_units_Z   1
loop_
 _symmetry_equiv_pos_site_id
 _symmetry_equiv_pos_as_xyz
  1  'x, y, z'
loop_
 _atom_site_type_symbol
 _atom_site_label
 _atom_site_symmetry_multiplicity
 _atom_site_fract_x
 _atom_site_fract_y
 _atom_site_fract_z
 _atom_site_occupancy
  Rb  Rb0  1  0.000122  0.499965  0.999966  1
  Dy  Dy1  1  0.777139  0.032697  0.406889  1
  Dy  Dy2  1  0.593055  0.725033  0.475862  1
  Dy  Dy3  1  0.406963  0.274989  0.524103  1
  Dy  Dy4  1  0.222756  0.967353  0.592847  1
  Dy  Dy5  1  0.525209  0.884443  0.817257  1
  Tm  Tm6  1  0.475004  0.115411  0.184421  1
  C  C7  1  0.492944  0.026648  0.421424  1
  C  C8  1  0.506965  0.974038  0.577128  1
  Br  Br9  1  0.794645  0.158639  0.082766  1
  Br  Br10  1  0.583558  0.788022  0.140714  1
  Br  Br11  1  0.352756  0.429720  0.222277  1
  Br  Br12  1  0.138500  0.070462  0.294293  1
  Br  Br13  1  0.923299  0.721563  0.354636  1
  Br  Br14  1  0.714095  0.365188  0.430765  1
  Br  Br15  1  0.285957  0.634671  0.569032  1
  Br  Br16  1  0.076857  0.278511  0.645348  1
  Br  Br17  1  0.864309  0.930030  0.704052  1
  Br  Br18  1  0.648735  0.566826  0.776385  1
  Br  Br19  1  0.415570  0.214821  0.862236  1
  Br  Br20  1  0.201563  0.840966  0.917600  1
