# generated using pymatgen
data_TbSc5U2(ReB6)4
_symmetry_space_group_name_H-M   'P 1'
_cell_length_a   3.58933400
_cell_length_b   8.95776067
_cell_length_c   11.30619439
_cell_angle_alpha   90.00250714
_cell_angle_beta   90.00000000
_cell_angle_gamma   90.00000000
_symmetry_Int_Tables_number   1
_chemical_formula_structural   TbSc5U2(ReB6)4
_chemical_formula_sum   'Tb1 Sc5 U2 Re4 B24'
_cell_volume   363.52122683
_cell_formula_units_Z   1
loop_
 _symmetry_equiv_pos_site_id
 _symmetry_equiv_pos_as_xyz
  1  'x, y, z'
loop_
 _atom_site_type_symbol
 _atom_site_label
 _atom_site_symmetry_multiplicity
 _atom_site_fract_x
 _atom_site_fract_y
 _atom_site_fract_z
 _atom_site_occupancy
  Tb  Tb0  1  0.000000  0.318983  0.413948  1
  Sc  Sc1  1  0.000000  0.183494  0.914129  1
  Sc  Sc2  1  0.000000  0.946827  0.373535  1
  Sc  Sc3  1  0.000000  0.056575  0.627348  1
  Sc  Sc4  1  0.000000  0.442734  0.124872  1
  Sc  Sc5  1  0.000000  0.552543  0.873876  1
  U  U6  1  0.000000  0.677550  0.586677  1
  U  U7  1  0.000000  0.822986  0.085553  1
  Re  Re8  1  0.000000  0.643160  0.318804  1
  Re  Re9  1  0.000000  0.361771  0.682064  1
  Re  Re10  1  0.000000  0.136969  0.177836  1
  Re  Re11  1  0.000000  0.858932  0.820175  1
  B  B12  1  0.500000  0.555337  0.433523  1
  B  B13  1  0.500000  0.446978  0.567829  1
  B  B14  1  0.500000  0.053380  0.065441  1
  B  B15  1  0.500000  0.945948  0.933772  1
  B  B16  1  0.500000  0.753128  0.420631  1
  B  B17  1  0.500000  0.246110  0.582303  1
  B  B18  1  0.500000  0.252482  0.078358  1
  B  B19  1  0.500000  0.747208  0.920608  1
  B  B20  1  0.500000  0.795159  0.264278  1
  B  B21  1  0.500000  0.204816  0.736238  1
  B  B22  1  0.500000  0.294241  0.232735  1
  B  B23  1  0.500000  0.705230  0.765053  1
  B  B24  1  0.500000  0.630340  0.182061  1
  B  B25  1  0.500000  0.368777  0.818346  1
  B  B26  1  0.500000  0.129499  0.316232  1
  B  B27  1  0.500000  0.870191  0.683299  1
  B  B28  1  0.500000  0.980983  0.213220  1
  B  B29  1  0.500000  0.020486  0.787064  1
  B  B30  1  0.500000  0.481282  0.284501  1
  B  B31  1  0.500000  0.518924  0.714592  1
  B  B32  1  0.500000  0.600085  0.027491  1
  B  B33  1  0.500000  0.397739  0.972123  1
  B  B34  1  0.500000  0.099296  0.473429  1
  B  B35  1  0.500000  0.899858  0.528060  1
