# generated using pymatgen
data_Sr3MoCl2O5
_symmetry_space_group_name_H-M   'P 1'
_cell_length_a   7.17835950
_cell_length_b   7.17835969
_cell_length_c   11.25451700
_cell_angle_alpha   90.00000000
_cell_angle_beta   90.00000000
_cell_angle_gamma   133.26431445
_symmetry_Int_Tables_number   1
_chemical_formula_structural   Sr3MoCl2O5
_chemical_formula_sum   'Sr6 Mo2 Cl4 O10'
_cell_volume   422.30654924
_cell_formula_units_Z   2
loop_
 _symmetry_equiv_pos_site_id
 _symmetry_equiv_pos_as_xyz
  1  'x, y, z'
loop_
 _atom_site_type_symbol
 _atom_site_label
 _atom_site_symmetry_multiplicity
 _atom_site_fract_x
 _atom_site_fract_y
 _atom_site_fract_z
 _atom_site_occupancy
  Sr  Sr0  1  0.905203  0.094797  0.750000  1
  Sr  Sr1  1  0.658011  0.341989  0.541442  1
  Sr  Sr2  1  0.341989  0.658011  0.458558  1
  Sr  Sr3  1  0.658011  0.341989  0.958558  1
  Sr  Sr4  1  0.341989  0.658011  0.041442  1
  Sr  Sr5  1  0.094797  0.905203  0.250000  1
  Mo  Mo6  1  0.755055  0.244945  0.250000  1
  Mo  Mo7  1  0.244945  0.755055  0.750000  1
  Cl  Cl8  1  0.495272  0.504728  0.250000  1
  Cl  Cl9  1  0.504728  0.495272  0.750000  1
  Cl  Cl10  1  0.000000  0.000000  0.500000  1
  Cl  Cl11  1  0.000000  0.000000  0.000000  1
  O  O12  1  0.112303  0.887697  0.750000  1
  O  O13  1  0.052271  0.486185  0.632754  1
  O  O14  1  0.486185  0.052271  0.367246  1
  O  O15  1  0.513815  0.947729  0.632754  1
  O  O16  1  0.947729  0.513815  0.367246  1
  O  O17  1  0.887697  0.112303  0.250000  1
  O  O18  1  0.052271  0.486185  0.867246  1
  O  O19  1  0.513815  0.947729  0.867246  1
  O  O20  1  0.947729  0.513815  0.132754  1
  O  O21  1  0.486185  0.052271  0.132754  1
