# generated using pymatgen
data_HfZr(PCl9)2
_symmetry_space_group_name_H-M   'P 1'
_cell_length_a   7.53939944
_cell_length_b   10.04608428
_cell_length_c   9.80650300
_cell_angle_alpha   105.34111677
_cell_angle_beta   97.98133217
_cell_angle_gamma   89.29186583
_symmetry_Int_Tables_number   1
_chemical_formula_structural   HfZr(PCl9)2
_chemical_formula_sum   'Hf1 Zr1 P2 Cl18'
_cell_volume   709.12299357
_cell_formula_units_Z   1
loop_
 _symmetry_equiv_pos_site_id
 _symmetry_equiv_pos_as_xyz
  1  'x, y, z'
loop_
 _atom_site_type_symbol
 _atom_site_label
 _atom_site_symmetry_multiplicity
 _atom_site_fract_x
 _atom_site_fract_y
 _atom_site_fract_z
 _atom_site_occupancy
  Hf  Hf0  1  0.393993  0.344106  0.334920  1
  Zr  Zr1  1  0.606495  0.656161  0.665910  1
  P  P2  1  0.054715  0.192647  0.775710  1
  P  P3  1  0.945348  0.808384  0.224419  1
  Cl  Cl4  1  0.916800  0.731437  0.733951  1
  Cl  Cl5  1  0.828929  0.655308  0.070743  1
  Cl  Cl6  1  0.355795  0.522175  0.203332  1
  Cl  Cl7  1  0.643876  0.475602  0.798177  1
  Cl  Cl8  1  0.457875  0.191711  0.487225  1
  Cl  Cl9  1  0.540713  0.810093  0.511975  1
  Cl  Cl10  1  0.088173  0.267203  0.264899  1
  Cl  Cl11  1  0.479808  0.811536  0.859473  1
  Cl  Cl12  1  0.518459  0.189710  0.143420  1
  Cl  Cl13  1  0.296965  0.529289  0.550369  1
  Cl  Cl14  1  0.165680  0.867925  0.169005  1
  Cl  Cl15  1  0.700896  0.466864  0.445700  1
  Cl  Cl16  1  0.995786  0.248492  0.598465  1
  Cl  Cl17  1  0.004074  0.752670  0.401834  1
  Cl  Cl18  1  0.217963  0.036941  0.746980  1
  Cl  Cl19  1  0.781915  0.963999  0.252542  1
  Cl  Cl20  1  0.834460  0.132724  0.831048  1
  Cl  Cl21  1  0.171281  0.345026  0.929904  1
