# generated using pymatgen
data_LaAg(PSe3)2
_symmetry_space_group_name_H-M   'P 1'
_cell_length_a   6.73454735
_cell_length_b   7.69788664
_cell_length_c   10.31020456
_cell_angle_alpha   93.35736810
_cell_angle_beta   90.99428891
_cell_angle_gamma   96.07464401
_symmetry_Int_Tables_number   1
_chemical_formula_structural   LaAg(PSe3)2
_chemical_formula_sum   'La2 Ag2 P4 Se12'
_cell_volume   530.43654124
_cell_formula_units_Z   2
loop_
 _symmetry_equiv_pos_site_id
 _symmetry_equiv_pos_as_xyz
  1  'x, y, z'
loop_
 _atom_site_type_symbol
 _atom_site_label
 _atom_site_symmetry_multiplicity
 _atom_site_fract_x
 _atom_site_fract_y
 _atom_site_fract_z
 _atom_site_occupancy
  La  La0  1  0.530910  0.399472  0.759305  1
  La  La1  1  0.469090  0.600528  0.240695  1
  Ag  Ag2  1  0.070542  0.003598  0.300283  1
  Ag  Ag3  1  0.929458  0.996402  0.699717  1
  P  P4  1  0.951214  0.608062  0.067423  1
  P  P5  1  0.431969  0.890987  0.562069  1
  P  P6  1  0.568031  0.109013  0.437931  1
  P  P7  1  0.048786  0.391938  0.932577  1
  Se  Se8  1  0.200517  0.818557  0.080245  1
  Se  Se9  1  0.680883  0.725859  0.585509  1
  Se  Se10  1  0.110267  0.519135  0.748820  1
  Se  Se11  1  0.319117  0.274141  0.414491  1
  Se  Se12  1  0.680914  0.697186  0.977578  1
  Se  Se13  1  0.671908  0.983690  0.254608  1
  Se  Se14  1  0.799483  0.181443  0.919755  1
  Se  Se15  1  0.328092  0.016310  0.745392  1
  Se  Se16  1  0.889733  0.480865  0.251180  1
  Se  Se17  1  0.319086  0.302814  0.022422  1
  Se  Se18  1  0.814342  0.261814  0.553233  1
  Se  Se19  1  0.185658  0.738186  0.446767  1
