# generated using pymatgen
data_SrEu2(As2Pd3)3
_symmetry_space_group_name_H-M   'P 1'
_cell_length_a   4.14602200
_cell_length_b   8.78522879
_cell_length_c   10.28003057
_cell_angle_alpha   108.07324097
_cell_angle_beta   90.00000000
_cell_angle_gamma   103.64854987
_symmetry_Int_Tables_number   1
_chemical_formula_structural   SrEu2(As2Pd3)3
_chemical_formula_sum   'Sr1 Eu2 As6 Pd9'
_cell_volume   344.82320200
_cell_formula_units_Z   1
loop_
 _symmetry_equiv_pos_site_id
 _symmetry_equiv_pos_as_xyz
  1  'x, y, z'
loop_
 _atom_site_type_symbol
 _atom_site_label
 _atom_site_symmetry_multiplicity
 _atom_site_fract_x
 _atom_site_fract_y
 _atom_site_fract_z
 _atom_site_occupancy
  Sr  Sr0  1  0.000000  0.000000  0.000000  1
  Eu  Eu1  1  0.846088  0.692177  0.302828  1
  Eu  Eu2  1  0.153912  0.307823  0.697172  1
  As  As3  1  0.797941  0.595884  0.867039  1
  As  As4  1  0.202059  0.404116  0.132961  1
  As  As5  1  0.539555  0.079108  0.774629  1
  As  As6  1  0.460445  0.920892  0.225371  1
  As  As7  1  0.635351  0.270700  0.451479  1
  As  As8  1  0.364649  0.729300  0.548521  1
  Pd  Pd9  1  0.953601  0.907201  0.670810  1
  Pd  Pd10  1  0.046399  0.092799  0.329190  1
  Pd  Pd11  1  0.777729  0.555460  0.607361  1
  Pd  Pd12  1  0.222271  0.444540  0.392639  1
  Pd  Pd13  1  0.369993  0.739985  0.793910  1
  Pd  Pd14  1  0.630007  0.260015  0.206090  1
  Pd  Pd15  1  0.500000  0.000000  0.500000  1
  Pd  Pd16  1  0.680796  0.361591  0.967014  1
  Pd  Pd17  1  0.319204  0.638409  0.032986  1
