# generated using pymatgen
data_NaDy(SiAu)2
_symmetry_space_group_name_H-M   'P 1'
_cell_length_a   5.63336912
_cell_length_b   5.63336948
_cell_length_c   5.63337046
_cell_angle_alpha   134.19548660
_cell_angle_beta   100.96446499
_cell_angle_gamma   96.47046763
_symmetry_Int_Tables_number   1
_chemical_formula_structural   NaDy(SiAu)2
_chemical_formula_sum   'Na1 Dy1 Si2 Au2'
_cell_volume   117.94770028
_cell_formula_units_Z   1
loop_
 _symmetry_equiv_pos_site_id
 _symmetry_equiv_pos_as_xyz
  1  'x, y, z'
loop_
 _atom_site_type_symbol
 _atom_site_label
 _atom_site_symmetry_multiplicity
 _atom_site_fract_x
 _atom_site_fract_y
 _atom_site_fract_z
 _atom_site_occupancy
  Na  Na0  1  0.285275  0.285275  0.000000  1
  Dy  Dy1  1  0.867585  0.367585  0.500000  1
  Si  Si2  1  0.484350  0.660118  0.824232  1
  Si  Si3  1  0.835886  0.660118  0.175768  1
  Au  Au4  1  0.270399  0.994352  0.276049  1
  Au  Au5  1  0.718303  0.994352  0.723951  1
