# generated using pymatgen
data_Zr4Sc4Os5Ru3
_symmetry_space_group_name_H-M   'P 1'
_cell_length_a   6.48158800
_cell_length_b   4.61231600
_cell_length_c   9.22562200
_cell_angle_alpha   90.00000000
_cell_angle_beta   90.00208025
_cell_angle_gamma   90.00000000
_symmetry_Int_Tables_number   1
_chemical_formula_structural   Zr4Sc4Os5Ru3
_chemical_formula_sum   'Zr4 Sc4 Os5 Ru3'
_cell_volume   275.80118773
_cell_formula_units_Z   1
loop_
 _symmetry_equiv_pos_site_id
 _symmetry_equiv_pos_as_xyz
  1  'x, y, z'
loop_
 _atom_site_type_symbol
 _atom_site_label
 _atom_site_symmetry_multiplicity
 _atom_site_fract_x
 _atom_site_fract_y
 _atom_site_fract_z
 _atom_site_occupancy
  Zr  Zr0  1  0.749962  0.250000  0.125002  1
  Zr  Zr1  1  0.249703  0.750000  0.374990  1
  Zr  Zr2  1  0.750366  0.250000  0.624961  1
  Zr  Zr3  1  0.249940  0.750000  0.875044  1
  Sc  Sc4  1  0.249764  0.250000  0.124787  1
  Sc  Sc5  1  0.749801  0.750000  0.375129  1
  Sc  Sc6  1  0.250175  0.250000  0.625154  1
  Sc  Sc7  1  0.750221  0.750000  0.874937  1
  Os  Os8  1  0.500045  0.750000  0.124852  1
  Os  Os9  1  0.999790  0.750000  0.124860  1
  Os  Os10  1  0.499841  0.250000  0.375037  1
  Os  Os11  1  0.999950  0.250000  0.375115  1
  Os  Os12  1  0.999875  0.750000  0.625155  1
  Ru  Ru13  1  0.500290  0.750000  0.625109  1
  Ru  Ru14  1  0.000364  0.250000  0.874886  1
  Ru  Ru15  1  0.499911  0.250000  0.874982  1
