# generated using pymatgen
data_MgZn2Ni3(MoO4)6
_symmetry_space_group_name_H-M   'P 1'
_cell_length_a   7.02547760
_cell_length_b   8.43550880
_cell_length_c   9.77326960
_cell_angle_alpha   96.06315124
_cell_angle_beta   106.86787080
_cell_angle_gamma   101.75449565
_symmetry_Int_Tables_number   1
_chemical_formula_structural   MgZn2Ni3(MoO4)6
_chemical_formula_sum   'Mg1 Zn2 Ni3 Mo6 O24'
_cell_volume   534.20100187
_cell_formula_units_Z   1
loop_
 _symmetry_equiv_pos_site_id
 _symmetry_equiv_pos_as_xyz
  1  'x, y, z'
loop_
 _atom_site_type_symbol
 _atom_site_label
 _atom_site_symmetry_multiplicity
 _atom_site_fract_x
 _atom_site_fract_y
 _atom_site_fract_z
 _atom_site_occupancy
  Mg  Mg0  1  0.252468  0.698565  0.908551  1
  Zn  Zn1  1  0.966312  0.887777  0.710381  1
  Zn  Zn2  1  0.032852  0.111525  0.288421  1
  Ni  Ni3  1  0.747015  0.300207  0.091557  1
  Ni  Ni4  1  0.537073  0.691403  0.493041  1
  Ni  Ni5  1  0.462566  0.309031  0.507026  1
  Mo  Mo6  1  0.506020  0.994485  0.755291  1
  Mo  Mo7  1  0.495204  0.007818  0.245521  1
  Mo  Mo8  1  0.699681  0.602179  0.840444  1
  Mo  Mo9  1  0.300980  0.396698  0.160322  1
  Mo  Mo10  1  0.977759  0.698661  0.375388  1
  Mo  Mo11  1  0.021084  0.299580  0.623439  1
  O  O12  1  0.264359  0.870043  0.762674  1
  O  O13  1  0.737007  0.132633  0.237198  1
  O  O14  1  0.556206  0.708925  0.922639  1
  O  O15  1  0.445163  0.291641  0.076653  1
  O  O16  1  0.554686  0.524248  0.648461  1
  O  O17  1  0.445443  0.475286  0.352348  1
  O  O18  1  0.550349  0.860015  0.356125  1
  O  O19  1  0.451135  0.142344  0.644792  1
  O  O20  1  0.660542  0.098123  0.930227  1
  O  O21  1  0.339818  0.903414  0.071671  1
  O  O22  1  0.648977  0.867690  0.678930  1
  O  O23  1  0.350337  0.133761  0.320573  1
  O  O24  1  0.022337  0.126348  0.715886  1
  O  O25  1  0.976627  0.872512  0.283458  1
  O  O26  1  0.047081  0.265593  0.139795  1
  O  O27  1  0.951885  0.733539  0.858457  1
  O  O28  1  0.148634  0.483461  0.751686  1
  O  O29  1  0.849584  0.514154  0.247810  1
  O  O30  1  0.144953  0.275111  0.482103  1
  O  O31  1  0.854477  0.723998  0.517197  1
  O  O32  1  0.256162  0.563082  0.072354  1
  O  O33  1  0.746161  0.437240  0.930633  1
  O  O34  1  0.236676  0.696838  0.462666  1
  O  O35  1  0.762386  0.302072  0.536282  1
