# generated using pymatgen
data_LiAcSO
_symmetry_space_group_name_H-M   'P 1'
_cell_length_a   4.13334100
_cell_length_b   4.13334100
_cell_length_c   8.95443200
_cell_angle_alpha   90.00000000
_cell_angle_beta   90.00000000
_cell_angle_gamma   90.00000000
_symmetry_Int_Tables_number   1
_chemical_formula_structural   LiAcSO
_chemical_formula_sum   'Li2 Ac2 S2 O2'
_cell_volume   152.98206355
_cell_formula_units_Z   2
loop_
 _symmetry_equiv_pos_site_id
 _symmetry_equiv_pos_as_xyz
  1  'x, y, z'
loop_
 _atom_site_type_symbol
 _atom_site_label
 _atom_site_symmetry_multiplicity
 _atom_site_fract_x
 _atom_site_fract_y
 _atom_site_fract_z
 _atom_site_occupancy
  Li  Li0  1  0.750001  0.250001  0.500000  1
  Li  Li1  1  0.250001  0.750001  0.500000  1
  Ac  Ac2  1  0.250001  0.250001  0.147679  1
  Ac  Ac3  1  0.750001  0.750001  0.852321  1
  S  S4  1  0.750001  0.750001  0.345764  1
  S  S5  1  0.250001  0.250001  0.654236  1
  O  O6  1  0.750001  0.250001  0.000000  1
  O  O7  1  0.250001  0.750001  0.000000  1
