# generated using pymatgen
data_Hf9Zr7(Si4W)4
_symmetry_space_group_name_H-M   'P 1'
_cell_length_a   6.96818501
_cell_length_b   6.96808329
_cell_length_c   12.77531538
_cell_angle_alpha   90.06977124
_cell_angle_beta   89.99398037
_cell_angle_gamma   90.00279750
_symmetry_Int_Tables_number   1
_chemical_formula_structural   Hf9Zr7(Si4W)4
_chemical_formula_sum   'Hf9 Zr7 Si16 W4'
_cell_volume   620.30361476
_cell_formula_units_Z   1
loop_
 _symmetry_equiv_pos_site_id
 _symmetry_equiv_pos_as_xyz
  1  'x, y, z'
loop_
 _atom_site_type_symbol
 _atom_site_label
 _atom_site_symmetry_multiplicity
 _atom_site_fract_x
 _atom_site_fract_y
 _atom_site_fract_z
 _atom_site_occupancy
  Hf  Hf0  1  0.998398  0.345048  0.219079  1
  Hf  Hf1  1  0.497253  0.354546  0.124691  1
  Hf  Hf2  1  0.503334  0.645298  0.624625  1
  Hf  Hf3  1  0.854627  0.003409  0.874791  1
  Hf  Hf4  1  0.145033  0.996797  0.374373  1
  Hf  Hf5  1  0.645647  0.502739  0.375057  1
  Hf  Hf6  1  0.354654  0.496638  0.875602  1
  Hf  Hf7  1  0.003358  0.855036  0.125413  1
  Hf  Hf8  1  0.996655  0.145592  0.625322  1
  Zr  Zr9  1  0.497921  0.154834  0.530975  1
  Zr  Zr10  1  0.502766  0.845872  0.030999  1
  Zr  Zr11  1  0.655084  0.002984  0.280792  1
  Zr  Zr12  1  0.345471  0.997808  0.780928  1
  Zr  Zr13  1  0.845606  0.502144  0.969292  1
  Zr  Zr14  1  0.153908  0.497103  0.468868  1
  Zr  Zr15  1  0.002508  0.654284  0.719222  1
  Si  Si16  1  0.797606  0.145842  0.071595  1
  Si  Si17  1  0.202882  0.854903  0.570985  1
  Si  Si18  1  0.645014  0.703019  0.821148  1
  Si  Si19  1  0.354098  0.297395  0.320819  1
  Si  Si20  1  0.855278  0.203380  0.428607  1
  Si  Si21  1  0.145018  0.796987  0.928878  1
  Si  Si22  1  0.703676  0.644581  0.178804  1
  Si  Si23  1  0.296841  0.355119  0.678945  1
  Si  Si24  1  0.547155  0.198819  0.933655  1
  Si  Si25  1  0.453186  0.801335  0.433446  1
  Si  Si26  1  0.698596  0.952958  0.683565  1
  Si  Si27  1  0.300842  0.047556  0.183674  1
  Si  Si28  1  0.801189  0.452989  0.566284  1
  Si  Si29  1  0.197838  0.545983  0.066923  1
  Si  Si30  1  0.953330  0.697684  0.316150  1
  Si  Si31  1  0.047127  0.301255  0.816366  1
  W  W32  1  0.672530  0.327212  0.749895  1
  W  W33  1  0.326321  0.672124  0.249881  1
  W  W34  1  0.827229  0.827441  0.499716  1
  W  W35  1  0.172022  0.173284  0.000637  1
