# generated using pymatgen
data_Ho15ThMg2(InIr2)2
_symmetry_space_group_name_H-M   'P 1'
_cell_length_a   9.76396406
_cell_length_b   9.72947053
_cell_length_c   9.74924500
_cell_angle_alpha   59.83564098
_cell_angle_beta   59.95004260
_cell_angle_gamma   59.88264541
_symmetry_Int_Tables_number   1
_chemical_formula_structural   Ho15ThMg2(InIr2)2
_chemical_formula_sum   'Ho15 Th1 Mg2 In2 Ir4'
_cell_volume   653.25051396
_cell_formula_units_Z   1
loop_
 _symmetry_equiv_pos_site_id
 _symmetry_equiv_pos_as_xyz
  1  'x, y, z'
loop_
 _atom_site_type_symbol
 _atom_site_label
 _atom_site_symmetry_multiplicity
 _atom_site_fract_x
 _atom_site_fract_y
 _atom_site_fract_z
 _atom_site_occupancy
  Ho  Ho0  1  0.940867  0.938430  0.560238  1
  Ho  Ho1  1  0.938280  0.561193  0.937480  1
  Ho  Ho2  1  0.313809  0.685358  0.313729  1
  Ho  Ho3  1  0.935509  0.563718  0.565264  1
  Ho  Ho4  1  0.312490  0.309198  0.690292  1
  Ho  Ho5  1  0.097593  0.099522  0.098228  1
  Ho  Ho6  1  0.563048  0.561193  0.937480  1
  Ho  Ho7  1  0.097255  0.100032  0.705460  1
  Ho  Ho8  1  0.688021  0.309198  0.690292  1
  Ho  Ho9  1  0.687104  0.685358  0.313729  1
  Ho  Ho10  1  0.687570  0.310780  0.314081  1
  Ho  Ho11  1  0.312565  0.687634  0.687235  1
  Ho  Ho12  1  0.560466  0.938430  0.560238  1
  Ho  Ho13  1  0.704659  0.099522  0.098228  1
  Ho  Ho14  1  0.558113  0.941049  0.942726  1
  Th  Th15  1  0.095745  0.712708  0.095802  1
  Mg  Mg16  1  0.330672  0.326580  0.327249  1
  Mg  Mg17  1  0.015498  0.326580  0.327249  1
  In  In18  1  0.331975  0.002657  0.333392  1
  In  In19  1  0.332510  0.332448  0.002533  1
  Ir  Ir20  1  0.890739  0.894019  0.891068  1
  Ir  Ir21  1  0.890272  0.894402  0.325053  1
  Ir  Ir22  1  0.324171  0.894019  0.891068  1
  Ir  Ir23  1  0.891072  0.325971  0.891887  1
