# generated using pymatgen
data_Cr20Ga(IrC3)2
_symmetry_space_group_name_H-M   'P 1'
_cell_length_a   7.51986533
_cell_length_b   7.51719593
_cell_length_c   7.51810601
_cell_angle_alpha   59.99884700
_cell_angle_beta   60.00259179
_cell_angle_gamma   59.99800431
_symmetry_Int_Tables_number   1
_chemical_formula_structural   Cr20Ga(IrC3)2
_chemical_formula_sum   'Cr20 Ga1 Ir2 C6'
_cell_volume   300.50904711
_cell_formula_units_Z   1
loop_
 _symmetry_equiv_pos_site_id
 _symmetry_equiv_pos_as_xyz
  1  'x, y, z'
loop_
 _atom_site_type_symbol
 _atom_site_label
 _atom_site_symmetry_multiplicity
 _atom_site_fract_x
 _atom_site_fract_y
 _atom_site_fract_z
 _atom_site_occupancy
  Cr  Cr0  1  0.614974  0.614826  0.155214  1
  Cr  Cr1  1  0.614945  0.155291  0.614839  1
  Cr  Cr2  1  0.155228  0.614911  0.614960  1
  Cr  Cr3  1  0.614907  0.614903  0.614975  1
  Cr  Cr4  1  0.385026  0.385174  0.844786  1
  Cr  Cr5  1  0.385055  0.844709  0.385161  1
  Cr  Cr6  1  0.844772  0.385089  0.385040  1
  Cr  Cr7  1  0.385093  0.385097  0.385025  1
  Cr  Cr8  1  0.999963  0.000034  0.341912  1
  Cr  Cr9  1  0.658096  0.000067  0.341848  1
  Cr  Cr10  1  0.000005  0.658102  0.341894  1
  Cr  Cr11  1  0.658022  0.341924  0.000060  1
  Cr  Cr12  1  0.999960  0.341963  0.000031  1
  Cr  Cr13  1  0.999995  0.341898  0.658106  1
  Cr  Cr14  1  0.341978  0.658076  0.999940  1
  Cr  Cr15  1  0.341904  0.999933  0.658152  1
  Cr  Cr16  1  0.341836  0.999965  0.999973  1
  Cr  Cr17  1  0.000037  0.999966  0.658088  1
  Cr  Cr18  1  0.000040  0.658037  0.999969  1
  Cr  Cr19  1  0.658164  0.000035  0.000027  1
  Ga  Ga20  1  0.000000  0.000000  0.000000  1
  Ir  Ir21  1  0.750066  0.749941  0.749980  1
  Ir  Ir22  1  0.249934  0.250059  0.250020  1
  C  C23  1  0.720986  0.720832  0.279108  1
  C  C24  1  0.279033  0.720871  0.279127  1
  C  C25  1  0.720977  0.279083  0.279022  1
  C  C26  1  0.279014  0.279168  0.720892  1
  C  C27  1  0.720967  0.279129  0.720873  1
  C  C28  1  0.279023  0.720917  0.720978  1
