# generated using pymatgen
data_Ho3Zr(Co5P3)4
_symmetry_space_group_name_H-M   'P 1'
_cell_length_a   11.70144206
_cell_length_b   3.63941100
_cell_length_c   10.24832605
_cell_angle_alpha   90.00000000
_cell_angle_beta   90.01158454
_cell_angle_gamma   90.00000000
_symmetry_Int_Tables_number   1
_chemical_formula_structural   Ho3Zr(Co5P3)4
_chemical_formula_sum   'Ho3 Zr1 Co20 P12'
_cell_volume   436.43886247
_cell_formula_units_Z   1
loop_
 _symmetry_equiv_pos_site_id
 _symmetry_equiv_pos_as_xyz
  1  'x, y, z'
loop_
 _atom_site_type_symbol
 _atom_site_label
 _atom_site_symmetry_multiplicity
 _atom_site_fract_x
 _atom_site_fract_y
 _atom_site_fract_z
 _atom_site_occupancy
  Ho  Ho0  1  0.297208  0.750000  0.417475  1
  Ho  Ho1  1  0.702843  0.250001  0.582470  1
  Ho  Ho2  1  0.202771  0.250001  0.917694  1
  Zr  Zr3  1  0.798961  0.750000  0.081630  1
  Co  Co4  1  0.433969  0.250001  0.032903  1
  Co  Co5  1  0.984357  0.250001  0.093295  1
  Co  Co6  1  0.301458  0.750000  0.117004  1
  Co  Co7  1  0.506949  0.750000  0.217300  1
  Co  Co8  1  0.176067  0.250001  0.220902  1
  Co  Co9  1  0.677641  0.250001  0.275662  1
  Co  Co10  1  0.006753  0.750000  0.281778  1
  Co  Co11  1  0.800455  0.750000  0.380364  1
  Co  Co12  1  0.488129  0.250001  0.407092  1
  Co  Co13  1  0.930964  0.250001  0.465641  1
  Co  Co14  1  0.067695  0.750000  0.532003  1
  Co  Co15  1  0.512059  0.750000  0.593062  1
  Co  Co16  1  0.198190  0.250001  0.617702  1
  Co  Co17  1  0.990485  0.250001  0.717569  1
  Co  Co18  1  0.323117  0.750000  0.722166  1
  Co  Co19  1  0.822819  0.750000  0.778765  1
  Co  Co20  1  0.493380  0.250001  0.783442  1
  Co  Co21  1  0.701282  0.250001  0.885816  1
  Co  Co22  1  0.009997  0.750000  0.909510  1
  Co  Co23  1  0.571660  0.750000  0.969535  1
  P  P24  1  0.615861  0.250001  0.080985  1
  P  P25  1  0.109172  0.750000  0.101738  1
  P  P26  1  0.370011  0.250001  0.229672  1
  P  P27  1  0.868344  0.250001  0.267292  1
  P  P28  1  0.608628  0.750000  0.398230  1
  P  P29  1  0.111971  0.250001  0.418507  1
  P  P30  1  0.887232  0.750000  0.580547  1
  P  P31  1  0.390953  0.250001  0.602240  1
  P  P32  1  0.128934  0.750000  0.730261  1
  P  P33  1  0.629944  0.750000  0.770358  1
  P  P34  1  0.890358  0.250001  0.900355  1
  P  P35  1  0.389384  0.750000  0.919038  1
