# generated using pymatgen
data_Pr9Lu(GaTe)4
_symmetry_space_group_name_H-M   'P 1'
_cell_length_a   8.99160452
_cell_length_b   8.99160492
_cell_length_c   8.25620614
_cell_angle_alpha   89.95548447
_cell_angle_beta   89.95548237
_cell_angle_gamma   126.24165762
_symmetry_Int_Tables_number   1
_chemical_formula_structural   Pr9Lu(GaTe)4
_chemical_formula_sum   'Pr9 Lu1 Ga4 Te4'
_cell_volume   538.36299230
_cell_formula_units_Z   1
loop_
 _symmetry_equiv_pos_site_id
 _symmetry_equiv_pos_as_xyz
  1  'x, y, z'
loop_
 _atom_site_type_symbol
 _atom_site_label
 _atom_site_symmetry_multiplicity
 _atom_site_fract_x
 _atom_site_fract_y
 _atom_site_fract_z
 _atom_site_occupancy
  Pr  Pr0  1  0.000000  0.000000  0.000000  1
  Pr  Pr1  1  0.795004  0.537472  0.166117  1
  Pr  Pr2  1  0.462528  0.204996  0.833883  1
  Pr  Pr3  1  0.964935  0.703598  0.664472  1
  Pr  Pr4  1  0.296402  0.035065  0.335528  1
  Pr  Pr5  1  0.204996  0.462528  0.833883  1
  Pr  Pr6  1  0.537472  0.795004  0.166117  1
  Pr  Pr7  1  0.035065  0.296402  0.335528  1
  Pr  Pr8  1  0.703598  0.964935  0.664472  1
  Lu  Lu9  1  0.500000  0.500000  0.500000  1
  Ga  Ga10  1  0.867087  0.867087  0.378248  1
  Ga  Ga11  1  0.132913  0.132913  0.621752  1
  Ga  Ga12  1  0.625327  0.625327  0.868168  1
  Ga  Ga13  1  0.374673  0.374673  0.131832  1
  Te  Te14  1  0.202892  0.797108  0.000000  1
  Te  Te15  1  0.698515  0.301485  0.500000  1
  Te  Te16  1  0.797108  0.202892  0.000000  1
  Te  Te17  1  0.301485  0.698515  0.500000  1
