# generated using pymatgen
data_Nd3Er5(LuBi)12
_symmetry_space_group_name_H-M   'P 1'
_cell_length_a   8.26117235
_cell_length_b   9.41049400
_cell_length_c   12.06422600
_cell_angle_alpha   90.00000000
_cell_angle_beta   89.98332000
_cell_angle_gamma   90.00000000
_symmetry_Int_Tables_number   1
_chemical_formula_structural   Nd3Er5(LuBi)12
_chemical_formula_sum   'Nd3 Er5 Lu12 Bi12'
_cell_volume   937.89355350
_cell_formula_units_Z   1
loop_
 _symmetry_equiv_pos_site_id
 _symmetry_equiv_pos_as_xyz
  1  'x, y, z'
loop_
 _atom_site_type_symbol
 _atom_site_label
 _atom_site_symmetry_multiplicity
 _atom_site_fract_x
 _atom_site_fract_y
 _atom_site_fract_z
 _atom_site_occupancy
  Nd  Nd0  1  0.183406  0.750000  0.718516  1
  Nd  Nd1  1  0.684065  0.750000  0.781497  1
  Nd  Nd2  1  0.815472  0.250000  0.281832  1
  Er  Er3  1  0.314409  0.250000  0.217079  1
  Er  Er4  1  0.352976  0.750000  0.218096  1
  Er  Er5  1  0.853614  0.750000  0.280816  1
  Er  Er6  1  0.646625  0.250000  0.782622  1
  Er  Er7  1  0.147888  0.250000  0.717930  1
  Lu  Lu8  1  0.022844  0.750000  0.990029  1
  Lu  Lu9  1  0.521600  0.750000  0.510448  1
  Lu  Lu10  1  0.977789  0.250000  0.012522  1
  Lu  Lu11  1  0.478420  0.250000  0.488268  1
  Lu  Lu12  1  0.308147  0.432252  0.939694  1
  Lu  Lu13  1  0.809897  0.068177  0.560571  1
  Lu  Lu14  1  0.691766  0.932455  0.060863  1
  Lu  Lu15  1  0.190560  0.567831  0.438817  1
  Lu  Lu16  1  0.691766  0.567545  0.060863  1
  Lu  Lu17  1  0.190560  0.932169  0.438817  1
  Lu  Lu18  1  0.308147  0.067748  0.939694  1
  Lu  Lu19  1  0.809897  0.431823  0.560571  1
  Bi  Bi20  1  0.434960  0.008703  0.670763  1
  Bi  Bi21  1  0.934584  0.490966  0.829970  1
  Bi  Bi22  1  0.561669  0.506388  0.327229  1
  Bi  Bi23  1  0.069672  0.993853  0.171740  1
  Bi  Bi24  1  0.561669  0.993612  0.327229  1
  Bi  Bi25  1  0.069672  0.506147  0.171740  1
  Bi  Bi26  1  0.434960  0.491297  0.670763  1
  Bi  Bi27  1  0.934584  0.009034  0.829970  1
  Bi  Bi28  1  0.401845  0.750000  0.962446  1
  Bi  Bi29  1  0.900424  0.750000  0.537195  1
  Bi  Bi30  1  0.594447  0.250000  0.040915  1
  Bi  Bi31  1  0.101664  0.250000  0.460491  1
