# generated using pymatgen
data_KEuNb2O6
_symmetry_space_group_name_H-M   'P 1'
_cell_length_a   4.05429782
_cell_length_b   5.76666980
_cell_length_c   5.76666849
_cell_angle_alpha   89.94478127
_cell_angle_beta   90.00353193
_cell_angle_gamma   90.00353686
_symmetry_Int_Tables_number   1
_chemical_formula_structural   KEuNb2O6
_chemical_formula_sum   'K1 Eu1 Nb2 O6'
_cell_volume   134.82347432
_cell_formula_units_Z   1
loop_
 _symmetry_equiv_pos_site_id
 _symmetry_equiv_pos_as_xyz
  1  'x, y, z'
loop_
 _atom_site_type_symbol
 _atom_site_label
 _atom_site_symmetry_multiplicity
 _atom_site_fract_x
 _atom_site_fract_y
 _atom_site_fract_z
 _atom_site_occupancy
  K  K0  1  0.509119  0.995974  0.495974  1
  Eu  Eu1  1  0.504567  0.498508  0.998508  1
  Nb  Nb2  1  0.008681  0.995990  0.995202  1
  Nb  Nb3  1  0.008681  0.495202  0.495990  1
  O  O4  1  0.009320  0.253040  0.753040  1
  O  O5  1  0.009346  0.737263  0.237263  1
  O  O6  1  0.009291  0.254970  0.235799  1
  O  O7  1  0.009291  0.735799  0.754970  1
  O  O8  1  0.508943  0.994684  0.995480  1
  O  O9  1  0.508943  0.495480  0.494684  1
