# generated using pymatgen
data_Sc8Ta11Si16Pt
_symmetry_space_group_name_H-M   'P 1'
_cell_length_a   6.89402614
_cell_length_b   6.89402627
_cell_length_c   12.70430452
_cell_angle_alpha   89.77020858
_cell_angle_beta   90.22978756
_cell_angle_gamma   89.70283522
_symmetry_Int_Tables_number   1
_chemical_formula_structural   Sc8Ta11Si16Pt
_chemical_formula_sum   'Sc8 Ta11 Si16 Pt1'
_cell_volume   603.78718599
_cell_formula_units_Z   1
loop_
 _symmetry_equiv_pos_site_id
 _symmetry_equiv_pos_as_xyz
  1  'x, y, z'
loop_
 _atom_site_type_symbol
 _atom_site_label
 _atom_site_symmetry_multiplicity
 _atom_site_fract_x
 _atom_site_fract_y
 _atom_site_fract_z
 _atom_site_occupancy
  Sc  Sc0  1  0.998048  0.342679  0.217889  1
  Sc  Sc1  1  0.003119  0.657776  0.718930  1
  Sc  Sc2  1  0.158988  0.498970  0.467921  1
  Sc  Sc3  1  0.498762  0.841425  0.031655  1
  Sc  Sc4  1  0.841425  0.498762  0.968345  1
  Sc  Sc5  1  0.498970  0.158988  0.532079  1
  Sc  Sc6  1  0.342679  0.998048  0.782111  1
  Sc  Sc7  1  0.657776  0.003119  0.281070  1
  Ta  Ta8  1  0.829735  0.829735  0.500000  1
  Ta  Ta9  1  0.326838  0.673656  0.247777  1
  Ta  Ta10  1  0.673656  0.326838  0.752223  1
  Ta  Ta11  1  0.149495  0.997575  0.375876  1
  Ta  Ta12  1  0.845347  0.002774  0.878465  1
  Ta  Ta13  1  0.506578  0.648710  0.626420  1
  Ta  Ta14  1  0.352609  0.495958  0.874698  1
  Ta  Ta15  1  0.495958  0.352609  0.125302  1
  Ta  Ta16  1  0.648710  0.506578  0.373580  1
  Ta  Ta17  1  0.997575  0.149495  0.624124  1
  Ta  Ta18  1  0.002774  0.845347  0.121535  1
  Si  Si19  1  0.297976  0.048632  0.185222  1
  Si  Si20  1  0.700010  0.955960  0.686822  1
  Si  Si21  1  0.455750  0.802839  0.436028  1
  Si  Si22  1  0.202921  0.547840  0.061541  1
  Si  Si23  1  0.547840  0.202921  0.938459  1
  Si  Si24  1  0.802839  0.455750  0.563972  1
  Si  Si25  1  0.048632  0.297976  0.814778  1
  Si  Si26  1  0.955960  0.700010  0.313178  1
  Si  Si27  1  0.358270  0.296711  0.319908  1
  Si  Si28  1  0.640585  0.704659  0.820741  1
  Si  Si29  1  0.206691  0.859008  0.571644  1
  Si  Si30  1  0.134979  0.787527  0.927111  1
  Si  Si31  1  0.787527  0.134979  0.072889  1
  Si  Si32  1  0.859008  0.206691  0.428356  1
  Si  Si33  1  0.296711  0.358270  0.680092  1
  Si  Si34  1  0.704659  0.640585  0.179259  1
  Pt  Pt35  1  0.170599  0.170599  0.000000  1
