# generated using pymatgen
data_HoFe4(ReTc3)2
_symmetry_space_group_name_H-M   'P 1'
_cell_length_a   4.78162667
_cell_length_b   6.71918465
_cell_length_c   6.71935786
_cell_angle_alpha   97.07059826
_cell_angle_beta   110.84528969
_cell_angle_gamma   69.15858287
_symmetry_Int_Tables_number   1
_chemical_formula_structural   HoFe4(ReTc3)2
_chemical_formula_sum   'Ho1 Fe4 Re2 Tc6'
_cell_volume   188.55055934
_cell_formula_units_Z   1
loop_
 _symmetry_equiv_pos_site_id
 _symmetry_equiv_pos_as_xyz
  1  'x, y, z'
loop_
 _atom_site_type_symbol
 _atom_site_label
 _atom_site_symmetry_multiplicity
 _atom_site_fract_x
 _atom_site_fract_y
 _atom_site_fract_z
 _atom_site_occupancy
  Ho  Ho0  1  0.000000  0.000000  0.000000  1
  Fe  Fe1  1  0.500000  0.000000  0.500000  1
  Fe  Fe2  1  0.000000  0.000000  0.500000  1
  Fe  Fe3  1  0.500000  0.500000  0.000000  1
  Fe  Fe4  1  0.000000  0.500000  0.000000  1
  Re  Re5  1  0.000005  0.357823  0.357823  1
  Re  Re6  1  0.999995  0.642177  0.642177  1
  Tc  Tc7  1  0.713892  0.786108  0.213892  1
  Tc  Tc8  1  0.286108  0.213892  0.786108  1
  Tc  Tc9  1  0.499986  0.785541  0.785541  1
  Tc  Tc10  1  0.500014  0.214459  0.214459  1
  Tc  Tc11  1  0.642525  0.357475  0.642525  1
  Tc  Tc12  1  0.357475  0.642525  0.357475  1
