# generated using pymatgen
data_LiThMnIr3
_symmetry_space_group_name_H-M   'P 1'
_cell_length_a   5.13617944
_cell_length_b   5.13618090
_cell_length_c   5.13617990
_cell_angle_alpha   64.29003263
_cell_angle_beta   64.29001682
_cell_angle_gamma   64.29002869
_symmetry_Int_Tables_number   1
_chemical_formula_structural   LiThMnIr3
_chemical_formula_sum   'Li1 Th1 Mn1 Ir3'
_cell_volume   104.83927435
_cell_formula_units_Z   1
loop_
 _symmetry_equiv_pos_site_id
 _symmetry_equiv_pos_as_xyz
  1  'x, y, z'
loop_
 _atom_site_type_symbol
 _atom_site_label
 _atom_site_symmetry_multiplicity
 _atom_site_fract_x
 _atom_site_fract_y
 _atom_site_fract_z
 _atom_site_occupancy
  Li  Li0  1  0.259599  0.259599  0.259599  1
  Th  Th1  1  0.004142  0.004142  0.004142  1
  Mn  Mn2  1  0.621387  0.621387  0.621387  1
  Ir  Ir3  1  0.124802  0.620035  0.620035  1
  Ir  Ir4  1  0.620035  0.124802  0.620035  1
  Ir  Ir5  1  0.620035  0.620035  0.124802  1
