# generated using pymatgen
data_ErLuTcB6
_symmetry_space_group_name_H-M   'P 1'
_cell_length_a   3.63411600
_cell_length_b   9.08251400
_cell_length_c   11.46248900
_cell_angle_alpha   90.00000000
_cell_angle_beta   90.00000000
_cell_angle_gamma   90.00000000
_symmetry_Int_Tables_number   1
_chemical_formula_structural   ErLuTcB6
_chemical_formula_sum   'Er4 Lu4 Tc4 B24'
_cell_volume   378.34133647
_cell_formula_units_Z   4
loop_
 _symmetry_equiv_pos_site_id
 _symmetry_equiv_pos_as_xyz
  1  'x, y, z'
loop_
 _atom_site_type_symbol
 _atom_site_label
 _atom_site_symmetry_multiplicity
 _atom_site_fract_x
 _atom_site_fract_y
 _atom_site_fract_z
 _atom_site_occupancy
  Er  Er0  1  0.000000  0.323533  0.414243  1
  Er  Er1  1  0.000000  0.676467  0.585757  1
  Er  Er2  1  0.000000  0.823533  0.085757  1
  Er  Er3  1  0.000000  0.176467  0.914243  1
  Lu  Lu4  1  0.000000  0.943048  0.369817  1
  Lu  Lu5  1  0.000000  0.056952  0.630183  1
  Lu  Lu6  1  0.000000  0.443048  0.130183  1
  Lu  Lu7  1  0.000000  0.556952  0.869817  1
  Tc  Tc8  1  0.000000  0.639038  0.320116  1
  Tc  Tc9  1  0.000000  0.360962  0.679884  1
  Tc  Tc10  1  0.000000  0.139038  0.179884  1
  Tc  Tc11  1  0.000000  0.860962  0.820116  1
  B  B12  1  0.500000  0.553151  0.432927  1
  B  B13  1  0.500000  0.446849  0.567073  1
  B  B14  1  0.500000  0.053151  0.067073  1
  B  B15  1  0.500000  0.946849  0.932927  1
  B  B16  1  0.500000  0.750303  0.418949  1
  B  B17  1  0.500000  0.249697  0.581051  1
  B  B18  1  0.500000  0.250303  0.081051  1
  B  B19  1  0.500000  0.749697  0.918949  1
  B  B20  1  0.500000  0.793063  0.265224  1
  B  B21  1  0.500000  0.206937  0.734776  1
  B  B22  1  0.500000  0.293063  0.234776  1
  B  B23  1  0.500000  0.706937  0.765224  1
  B  B24  1  0.500000  0.630520  0.184687  1
  B  B25  1  0.500000  0.369480  0.815313  1
  B  B26  1  0.500000  0.130520  0.315313  1
  B  B27  1  0.500000  0.869480  0.684687  1
  B  B28  1  0.500000  0.981242  0.212399  1
  B  B29  1  0.500000  0.018758  0.787601  1
  B  B30  1  0.500000  0.481242  0.287601  1
  B  B31  1  0.500000  0.518758  0.712399  1
  B  B32  1  0.500000  0.598691  0.027480  1
  B  B33  1  0.500000  0.401309  0.972520  1
  B  B34  1  0.500000  0.098691  0.472520  1
  B  B35  1  0.500000  0.901309  0.527480  1
