# generated using pymatgen
data_Tm12TlInFe2Tc
_symmetry_space_group_name_H-M   'P 1'
_cell_length_a   8.23188149
_cell_length_b   8.23189033
_cell_length_c   8.23188269
_cell_angle_alpha   108.82607492
_cell_angle_beta   109.00934862
_cell_angle_gamma   110.58401372
_symmetry_Int_Tables_number   1
_chemical_formula_structural   Tm12TlInFe2Tc
_chemical_formula_sum   'Tm12 Tl1 In1 Fe2 Tc1'
_cell_volume   429.29114283
_cell_formula_units_Z   1
loop_
 _symmetry_equiv_pos_site_id
 _symmetry_equiv_pos_as_xyz
  1  'x, y, z'
loop_
 _atom_site_type_symbol
 _atom_site_label
 _atom_site_symmetry_multiplicity
 _atom_site_fract_x
 _atom_site_fract_y
 _atom_site_fract_z
 _atom_site_occupancy
  Tm  Tm0  1  0.192656  0.431050  0.238394  1
  Tm  Tm1  1  0.807344  0.568950  0.761606  1
  Tm  Tm2  1  0.192655  0.954262  0.761606  1
  Tm  Tm3  1  0.954153  0.192987  0.761165  1
  Tm  Tm4  1  0.807345  0.045738  0.238394  1
  Tm  Tm5  1  0.045847  0.807013  0.238835  1
  Tm  Tm6  1  0.431821  0.192987  0.238835  1
  Tm  Tm7  1  0.568179  0.807013  0.761165  1
  Tm  Tm8  1  0.307172  0.307749  0.614921  1
  Tm  Tm9  1  0.692828  0.692251  0.385079  1
  Tm  Tm10  1  0.692828  0.307749  0.000577  1
  Tm  Tm11  1  0.307172  0.692251  0.999423  1
  Tl  Tl12  1  0.500000  0.000000  0.500000  1
  In  In13  1  0.000000  0.500000  0.500000  1
  Fe  Fe14  1  0.383696  0.383696  0.000000  1
  Fe  Fe15  1  0.616304  0.616304  0.000000  1
  Tc  Tc16  1  0.000000  0.000000  0.000000  1
