# generated using pymatgen
data_Lu7(RhSe)2
_symmetry_space_group_name_H-M   'P 1'
_cell_length_a   8.93487123
_cell_length_b   8.93487107
_cell_length_c   8.93487116
_cell_angle_alpha   155.39020175
_cell_angle_beta   118.28620560
_cell_angle_gamma   67.47781594
_symmetry_Int_Tables_number   1
_chemical_formula_structural   Lu7(RhSe)2
_chemical_formula_sum   'Lu7 Rh2 Se2'
_cell_volume   259.33923589
_cell_formula_units_Z   1
loop_
 _symmetry_equiv_pos_site_id
 _symmetry_equiv_pos_as_xyz
  1  'x, y, z'
loop_
 _atom_site_type_symbol
 _atom_site_label
 _atom_site_symmetry_multiplicity
 _atom_site_fract_x
 _atom_site_fract_y
 _atom_site_fract_z
 _atom_site_occupancy
  Lu  Lu0  1  0.541306  0.125622  0.415684  1
  Lu  Lu1  1  0.290061  0.874378  0.415684  1
  Lu  Lu2  1  0.946566  0.318748  0.627818  1
  Lu  Lu3  1  0.309070  0.681252  0.627818  1
  Lu  Lu4  1  0.619596  0.359410  0.260186  1
  Lu  Lu5  1  0.900776  0.640590  0.260186  1
  Lu  Lu6  1  0.001500  0.000000  0.001500  1
  Rh  Rh7  1  0.167255  0.237085  0.930169  1
  Rh  Rh8  1  0.693084  0.762915  0.930169  1
  Se  Se9  1  0.263047  0.500000  0.763047  1
  Se  Se10  1  0.658598  0.000000  0.658598  1
