# generated using pymatgen
data_La16Cd4CuRu3
_symmetry_space_group_name_H-M   'P 1'
_cell_length_a   10.13970292
_cell_length_b   10.13970253
_cell_length_c   10.03775418
_cell_angle_alpha   59.66345135
_cell_angle_beta   59.66345060
_cell_angle_gamma   59.99999640
_symmetry_Int_Tables_number   1
_chemical_formula_structural   La16Cd4CuRu3
_chemical_formula_sum   'La16 Cd4 Cu1 Ru3'
_cell_volume   726.01221918
_cell_formula_units_Z   1
loop_
 _symmetry_equiv_pos_site_id
 _symmetry_equiv_pos_as_xyz
  1  'x, y, z'
loop_
 _atom_site_type_symbol
 _atom_site_label
 _atom_site_symmetry_multiplicity
 _atom_site_fract_x
 _atom_site_fract_y
 _atom_site_fract_z
 _atom_site_occupancy
  La  La0  1  0.899854  0.899854  0.905353  1
  La  La1  1  0.437859  0.437859  0.062167  1
  La  La2  1  0.058487  0.058487  0.432201  1
  La  La3  1  0.437859  0.062116  0.062167  1
  La  La4  1  0.309472  0.688508  0.313512  1
  La  La5  1  0.688508  0.688508  0.313512  1
  La  La6  1  0.688508  0.309472  0.313512  1
  La  La7  1  0.294941  0.899854  0.905353  1
  La  La8  1  0.899854  0.294941  0.905353  1
  La  La9  1  0.309325  0.685407  0.695943  1
  La  La10  1  0.905242  0.905242  0.284275  1
  La  La11  1  0.062116  0.437859  0.062167  1
  La  La12  1  0.309325  0.309325  0.695943  1
  La  La13  1  0.058487  0.450825  0.432201  1
  La  La14  1  0.450825  0.058487  0.432201  1
  La  La15  1  0.685407  0.309325  0.695943  1
  Cd  Cd16  1  0.670752  0.670752  0.987744  1
  Cd  Cd17  1  0.988684  0.670350  0.670614  1
  Cd  Cd18  1  0.670350  0.988684  0.670614  1
  Cd  Cd19  1  0.670350  0.670350  0.670614  1
  Cu  Cu20  1  0.109382  0.109382  0.671854  1
  Ru  Ru21  1  0.112936  0.112936  0.105586  1
  Ru  Ru22  1  0.112936  0.668542  0.105586  1
  Ru  Ru23  1  0.668542  0.112936  0.105586  1
