# generated using pymatgen
data_DyTm(ScPt)2
_symmetry_space_group_name_H-M   'P 1'
_cell_length_a   4.62477100
_cell_length_b   6.95566100
_cell_length_c   8.36972200
_cell_angle_alpha   90.00000000
_cell_angle_beta   90.00000000
_cell_angle_gamma   90.00000000
_symmetry_Int_Tables_number   1
_chemical_formula_structural   DyTm(ScPt)2
_chemical_formula_sum   'Dy2 Tm2 Sc4 Pt4'
_cell_volume   269.24005696
_cell_formula_units_Z   2
loop_
 _symmetry_equiv_pos_site_id
 _symmetry_equiv_pos_as_xyz
  1  'x, y, z'
loop_
 _atom_site_type_symbol
 _atom_site_label
 _atom_site_symmetry_multiplicity
 _atom_site_fract_x
 _atom_site_fract_y
 _atom_site_fract_z
 _atom_site_occupancy
  Dy  Dy0  1  0.750000  0.014767  0.675658  1
  Dy  Dy1  1  0.750000  0.514767  0.824342  1
  Tm  Tm2  1  0.250000  0.984741  0.324347  1
  Tm  Tm3  1  0.250000  0.484741  0.175653  1
  Sc  Sc4  1  0.250000  0.859102  0.928174  1
  Sc  Sc5  1  0.250000  0.359102  0.571826  1
  Sc  Sc6  1  0.750000  0.141444  0.075937  1
  Sc  Sc7  1  0.750000  0.641444  0.424063  1
  Pt  Pt8  1  0.250000  0.245917  0.904800  1
  Pt  Pt9  1  0.250000  0.745917  0.595200  1
  Pt  Pt10  1  0.750000  0.754029  0.098611  1
  Pt  Pt11  1  0.750000  0.254029  0.401389  1
