# generated using pymatgen
data_Tb3Y7(Bi2Pt)2
_symmetry_space_group_name_H-M   'P 1'
_cell_length_a   8.13750304
_cell_length_b   9.05330446
_cell_length_c   12.48505466
_cell_angle_alpha   89.96406939
_cell_angle_beta   89.99059627
_cell_angle_gamma   90.00675068
_symmetry_Int_Tables_number   1
_chemical_formula_structural   Tb3Y7(Bi2Pt)2
_chemical_formula_sum   'Tb6 Y14 Bi8 Pt4'
_cell_volume   919.78991485
_cell_formula_units_Z   2
loop_
 _symmetry_equiv_pos_site_id
 _symmetry_equiv_pos_as_xyz
  1  'x, y, z'
loop_
 _atom_site_type_symbol
 _atom_site_label
 _atom_site_symmetry_multiplicity
 _atom_site_fract_x
 _atom_site_fract_y
 _atom_site_fract_z
 _atom_site_occupancy
  Tb  Tb0  1  0.179982  0.954387  0.933550  1
  Tb  Tb1  1  0.320147  0.545467  0.433573  1
  Tb  Tb2  1  0.820018  0.045613  0.066450  1
  Tb  Tb3  1  0.679853  0.454533  0.566427  1
  Tb  Tb4  1  0.820046  0.454369  0.066448  1
  Tb  Tb5  1  0.179954  0.545631  0.933552  1
  Y  Y6  1  0.838391  0.750000  0.790256  1
  Y  Y7  1  0.161609  0.250000  0.209744  1
  Y  Y8  1  0.338746  0.249967  0.709380  1
  Y  Y9  1  0.661254  0.750033  0.290620  1
  Y  Y10  1  0.371912  0.750129  0.698163  1
  Y  Y11  1  0.628088  0.249871  0.301837  1
  Y  Y12  1  0.871576  0.250065  0.801546  1
  Y  Y13  1  0.128424  0.749935  0.198454  1
  Y  Y14  1  0.950890  0.749789  0.499923  1
  Y  Y15  1  0.049110  0.250211  0.500077  1
  Y  Y16  1  0.451256  0.250057  0.000064  1
  Y  Y17  1  0.548744  0.749943  0.999936  1
  Y  Y18  1  0.680102  0.045884  0.566708  1
  Y  Y19  1  0.319898  0.954116  0.433292  1
  Bi  Bi20  1  0.569684  0.490813  0.827133  1
  Bi  Bi21  1  0.430316  0.509187  0.172867  1
  Bi  Bi22  1  0.069669  0.509179  0.672911  1
  Bi  Bi23  1  0.430375  0.990767  0.172969  1
  Bi  Bi24  1  0.930331  0.490821  0.327089  1
  Bi  Bi25  1  0.569625  0.009233  0.827031  1
  Bi  Bi26  1  0.930740  0.009149  0.327331  1
  Bi  Bi27  1  0.069260  0.990851  0.672669  1
  Pt  Pt28  1  0.575406  0.749382  0.512140  1
  Pt  Pt29  1  0.424594  0.250618  0.487860  1
  Pt  Pt30  1  0.075005  0.250014  0.987825  1
  Pt  Pt31  1  0.924995  0.749986  0.012175  1
