# generated using pymatgen
data_Tb11InHg8PdPt3
_symmetry_space_group_name_H-M   'P 1'
_cell_length_a   13.14027344
_cell_length_b   13.14907637
_cell_length_c   3.72902000
_cell_angle_alpha   90.00000000
_cell_angle_beta   90.00000000
_cell_angle_gamma   112.87663690
_symmetry_Int_Tables_number   1
_chemical_formula_structural   Tb11InHg8PdPt3
_chemical_formula_sum   'Tb11 In1 Hg8 Pd1 Pt3'
_cell_volume   593.63045692
_cell_formula_units_Z   1
loop_
 _symmetry_equiv_pos_site_id
 _symmetry_equiv_pos_as_xyz
  1  'x, y, z'
loop_
 _atom_site_type_symbol
 _atom_site_label
 _atom_site_symmetry_multiplicity
 _atom_site_fract_x
 _atom_site_fract_y
 _atom_site_fract_z
 _atom_site_occupancy
  Tb  Tb0  1  0.415481  0.077499  0.000000  1
  Tb  Tb1  1  0.584409  0.922254  0.000000  1
  Tb  Tb2  1  0.077642  0.415548  0.000000  1
  Tb  Tb3  1  0.924318  0.585086  0.000000  1
  Tb  Tb4  1  0.168169  0.833613  0.000000  1
  Tb  Tb5  1  0.832395  0.166511  0.000000  1
  Tb  Tb6  1  0.372917  0.627023  0.000000  1
  Tb  Tb7  1  0.625710  0.370420  0.000000  1
  Tb  Tb8  1  0.298934  0.299080  0.000000  1
  Tb  Tb9  1  0.700565  0.702984  0.000000  1
  Tb  Tb10  1  0.000301  0.000329  0.000000  1
  In  In11  1  0.500563  0.500171  0.500000  1
  Hg  Hg12  1  0.367495  0.845346  0.500000  1
  Hg  Hg13  1  0.632829  0.154414  0.500000  1
  Hg  Hg14  1  0.844665  0.369508  0.500000  1
  Hg  Hg15  1  0.154215  0.632233  0.500000  1
  Hg  Hg16  1  0.210807  0.062082  0.500000  1
  Hg  Hg17  1  0.789335  0.937885  0.500000  1
  Hg  Hg18  1  0.061838  0.210807  0.500000  1
  Hg  Hg19  1  0.935867  0.786690  0.500000  1
  Pd  Pd20  1  0.749653  0.551930  0.500000  1
  Pt  Pt21  1  0.448651  0.250741  0.500000  1
  Pt  Pt22  1  0.552724  0.749619  0.500000  1
  Pt  Pt23  1  0.250515  0.448227  0.500000  1
