# generated using pymatgen
data_Y2HoRuI3
_symmetry_space_group_name_H-M   'P 1'
_cell_length_a   4.23036500
_cell_length_b   8.89795899
_cell_length_c   12.31254535
_cell_angle_alpha   86.15589274
_cell_angle_beta   90.00000000
_cell_angle_gamma   90.00000000
_symmetry_Int_Tables_number   1
_chemical_formula_structural   Y2HoRuI3
_chemical_formula_sum   'Y4 Ho2 Ru2 I6'
_cell_volume   462.42135988
_cell_formula_units_Z   2
loop_
 _symmetry_equiv_pos_site_id
 _symmetry_equiv_pos_as_xyz
  1  'x, y, z'
loop_
 _atom_site_type_symbol
 _atom_site_label
 _atom_site_symmetry_multiplicity
 _atom_site_fract_x
 _atom_site_fract_y
 _atom_site_fract_z
 _atom_site_occupancy
  Y  Y0  1  0.750000  0.098489  0.684585  1
  Y  Y1  1  0.250000  0.901511  0.315415  1
  Y  Y2  1  0.250000  0.260968  0.897378  1
  Y  Y3  1  0.750000  0.739032  0.102622  1
  Ho  Ho4  1  0.750000  0.130196  0.124982  1
  Ho  Ho5  1  0.250000  0.869804  0.875018  1
  Ru  Ru6  1  0.750000  0.051706  0.908078  1
  Ru  Ru7  1  0.250000  0.948294  0.091922  1
  I  I8  1  0.250000  0.352460  0.636736  1
  I  I9  1  0.750000  0.647540  0.363264  1
  I  I10  1  0.750000  0.141482  0.392504  1
  I  I11  1  0.250000  0.858518  0.607496  1
  I  I12  1  0.250000  0.425973  0.132625  1
  I  I13  1  0.750000  0.574027  0.867375  1
