# generated using pymatgen
data_Yb3MnCrC6
_symmetry_space_group_name_H-M   'P 1'
_cell_length_a   8.06877700
_cell_length_b   8.06877774
_cell_length_c   5.03657300
_cell_angle_alpha   90.00000000
_cell_angle_beta   90.00000000
_cell_angle_gamma   119.99999288
_symmetry_Int_Tables_number   1
_chemical_formula_structural   Yb3MnCrC6
_chemical_formula_sum   'Yb6 Mn2 Cr2 C12'
_cell_volume   283.97575397
_cell_formula_units_Z   2
loop_
 _symmetry_equiv_pos_site_id
 _symmetry_equiv_pos_as_xyz
  1  'x, y, z'
loop_
 _atom_site_type_symbol
 _atom_site_label
 _atom_site_symmetry_multiplicity
 _atom_site_fract_x
 _atom_site_fract_y
 _atom_site_fract_z
 _atom_site_occupancy
  Yb  Yb0  1  0.609255  0.685746  0.750000  1
  Yb  Yb1  1  0.923509  0.609255  0.250000  1
  Yb  Yb2  1  0.685746  0.076491  0.250000  1
  Yb  Yb3  1  0.314254  0.923509  0.750000  1
  Yb  Yb4  1  0.076491  0.390745  0.750000  1
  Yb  Yb5  1  0.390745  0.314254  0.250000  1
  Mn  Mn6  1  0.666667  0.333333  0.750000  1
  Mn  Mn7  1  0.333333  0.666667  0.250000  1
  Cr  Cr8  1  0.000000  0.000000  0.500000  1
  Cr  Cr9  1  0.000000  0.000000  0.000000  1
  C  C10  1  0.952874  0.772787  0.750000  1
  C  C11  1  0.180088  0.952874  0.250000  1
  C  C12  1  0.772787  0.819912  0.250000  1
  C  C13  1  0.227213  0.180088  0.750000  1
  C  C14  1  0.819912  0.047126  0.750000  1
  C  C15  1  0.047126  0.227213  0.250000  1
  C  C16  1  0.856318  0.579273  0.750000  1
  C  C17  1  0.277047  0.856318  0.250000  1
  C  C18  1  0.579273  0.722953  0.250000  1
  C  C19  1  0.420727  0.277047  0.750000  1
  C  C20  1  0.143682  0.420727  0.250000  1
  C  C21  1  0.722953  0.143682  0.750000  1
