# generated using pymatgen
data_Sm8Tm11Si16Ag
_symmetry_space_group_name_H-M   'P 1'
_cell_length_a   7.28278700
_cell_length_b   7.65710806
_cell_length_c   14.49038500
_cell_angle_alpha   90.00000000
_cell_angle_beta   90.00000000
_cell_angle_gamma   89.94874355
_symmetry_Int_Tables_number   1
_chemical_formula_structural   Sm8Tm11Si16Ag
_chemical_formula_sum   'Sm8 Tm11 Si16 Ag1'
_cell_volume   808.05725780
_cell_formula_units_Z   1
loop_
 _symmetry_equiv_pos_site_id
 _symmetry_equiv_pos_as_xyz
  1  'x, y, z'
loop_
 _atom_site_type_symbol
 _atom_site_label
 _atom_site_symmetry_multiplicity
 _atom_site_fract_x
 _atom_site_fract_y
 _atom_site_fract_z
 _atom_site_occupancy
  Sm  Sm0  1  0.016540  0.177259  0.096515  1
  Sm  Sm1  1  0.984324  0.810497  0.899125  1
  Sm  Sm2  1  0.475366  0.674320  0.899189  1
  Sm  Sm3  1  0.984324  0.810497  0.600875  1
  Sm  Sm4  1  0.516315  0.322944  0.096184  1
  Sm  Sm5  1  0.016540  0.177259  0.403485  1
  Sm  Sm6  1  0.516315  0.322944  0.403816  1
  Sm  Sm7  1  0.475366  0.674320  0.600811  1
  Tm  Tm8  1  0.842319  0.490589  0.250000  1
  Tm  Tm9  1  0.345099  0.010450  0.250000  1
  Tm  Tm10  1  0.652105  0.992139  0.750000  1
  Tm  Tm11  1  0.318819  0.185249  0.626374  1
  Tm  Tm12  1  0.677089  0.823167  0.377238  1
  Tm  Tm13  1  0.175658  0.681297  0.375540  1
  Tm  Tm14  1  0.677089  0.823167  0.122762  1
  Tm  Tm15  1  0.835048  0.326823  0.626242  1
  Tm  Tm16  1  0.318819  0.185249  0.873626  1
  Tm  Tm17  1  0.835048  0.326823  0.873758  1
  Tm  Tm18  1  0.175658  0.681297  0.124460  1
  Si  Si19  1  0.024145  0.090597  0.750000  1
  Si  Si20  1  0.971830  0.891902  0.250000  1
  Si  Si21  1  0.470384  0.615153  0.250000  1
  Si  Si22  1  0.533862  0.391239  0.750000  1
  Si  Si23  1  0.276581  0.881041  0.750000  1
  Si  Si24  1  0.722809  0.126072  0.250000  1
  Si  Si25  1  0.221545  0.374724  0.250000  1
  Si  Si26  1  0.768736  0.625407  0.750000  1
  Si  Si27  1  0.156413  0.462634  0.531213  1
  Si  Si28  1  0.849525  0.531672  0.461275  1
  Si  Si29  1  0.350302  0.968520  0.463921  1
  Si  Si30  1  0.849525  0.531672  0.038725  1
  Si  Si31  1  0.652212  0.031463  0.540932  1
  Si  Si32  1  0.156413  0.462634  0.968787  1
  Si  Si33  1  0.652212  0.031463  0.959068  1
  Si  Si34  1  0.350302  0.968520  0.036079  1
  Ag  Ag35  1  0.155356  0.518998  0.750000  1
