# generated using pymatgen
data_DyTh2P4Pd7
_symmetry_space_group_name_H-M   'P 1'
_cell_length_a   8.05786558
_cell_length_b   8.05786702
_cell_length_c   9.54121100
_cell_angle_alpha   55.51653074
_cell_angle_beta   55.51652368
_cell_angle_gamma   29.29258619
_symmetry_Int_Tables_number   1
_chemical_formula_structural   DyTh2P4Pd7
_chemical_formula_sum   'Dy1 Th2 P4 Pd7'
_cell_volume   245.78731667
_cell_formula_units_Z   1
loop_
 _symmetry_equiv_pos_site_id
 _symmetry_equiv_pos_as_xyz
  1  'x, y, z'
loop_
 _atom_site_type_symbol
 _atom_site_label
 _atom_site_symmetry_multiplicity
 _atom_site_fract_x
 _atom_site_fract_y
 _atom_site_fract_z
 _atom_site_occupancy
  Dy  Dy0  1  0.318172  0.318172  0.679351  1
  Th  Th1  1  0.679581  0.679581  0.325592  1
  Th  Th2  1  0.001815  0.001815  0.996924  1
  P  P3  1  0.343698  0.343698  0.250088  1
  P  P4  1  0.661504  0.661504  0.744980  1
  P  P5  1  0.891503  0.891503  0.819267  1
  P  P6  1  0.105676  0.105676  0.176691  1
  Pd  Pd7  1  0.308318  0.308318  0.024495  1
  Pd  Pd8  1  0.691997  0.691997  0.973986  1
  Pd  Pd9  1  0.510124  0.510124  0.712456  1
  Pd  Pd10  1  0.832868  0.832868  0.428133  1
  Pd  Pd11  1  0.489850  0.489850  0.288355  1
  Pd  Pd12  1  0.167080  0.167080  0.576396  1
  Pd  Pd13  1  0.997814  0.997814  0.503284  1
