# generated using pymatgen
data_Lu4Hf3InPt4
_symmetry_space_group_name_H-M   'P 1'
_cell_length_a   4.55677600
_cell_length_b   6.98708497
_cell_length_c   8.23475463
_cell_angle_alpha   86.98252845
_cell_angle_beta   90.00000000
_cell_angle_gamma   90.00000000
_symmetry_Int_Tables_number   1
_chemical_formula_structural   Lu4Hf3InPt4
_chemical_formula_sum   'Lu4 Hf3 In1 Pt4'
_cell_volume   261.81939418
_cell_formula_units_Z   1
loop_
 _symmetry_equiv_pos_site_id
 _symmetry_equiv_pos_as_xyz
  1  'x, y, z'
loop_
 _atom_site_type_symbol
 _atom_site_label
 _atom_site_symmetry_multiplicity
 _atom_site_fract_x
 _atom_site_fract_y
 _atom_site_fract_z
 _atom_site_occupancy
  Lu  Lu0  1  0.250000  0.512019  0.167122  1
  Lu  Lu1  1  0.750000  0.465245  0.832093  1
  Lu  Lu2  1  0.750000  0.979503  0.679569  1
  Lu  Lu3  1  0.250000  0.032175  0.314339  1
  Hf  Hf4  1  0.250000  0.648132  0.576278  1
  Hf  Hf5  1  0.750000  0.367045  0.430231  1
  Hf  Hf6  1  0.750000  0.852454  0.064313  1
  In  In7  1  0.250000  0.145680  0.926422  1
  Pt  Pt8  1  0.250000  0.749234  0.889070  1
  Pt  Pt9  1  0.750000  0.235131  0.131277  1
  Pt  Pt10  1  0.750000  0.744790  0.395196  1
  Pt  Pt11  1  0.250000  0.268592  0.594091  1
