# generated using pymatgen
data_Tm8Lu8Sc3Si16Ag
_symmetry_space_group_name_H-M   'P 1'
_cell_length_a   7.07475842
_cell_length_b   7.52486574
_cell_length_c   14.19694900
_cell_angle_alpha   90.00000000
_cell_angle_beta   90.00000000
_cell_angle_gamma   89.85577428
_symmetry_Int_Tables_number   1
_chemical_formula_structural   Tm8Lu8Sc3Si16Ag
_chemical_formula_sum   'Tm8 Lu8 Sc3 Si16 Ag1'
_cell_volume   755.79500382
_cell_formula_units_Z   1
loop_
 _symmetry_equiv_pos_site_id
 _symmetry_equiv_pos_as_xyz
  1  'x, y, z'
loop_
 _atom_site_type_symbol
 _atom_site_label
 _atom_site_symmetry_multiplicity
 _atom_site_fract_x
 _atom_site_fract_y
 _atom_site_fract_z
 _atom_site_occupancy
  Tm  Tm0  1  0.014971  0.181501  0.096747  1
  Tm  Tm1  1  0.985955  0.809270  0.901769  1
  Tm  Tm2  1  0.482138  0.677273  0.902673  1
  Tm  Tm3  1  0.985955  0.809270  0.598231  1
  Tm  Tm4  1  0.512938  0.319346  0.096127  1
  Tm  Tm5  1  0.014971  0.181501  0.403253  1
  Tm  Tm6  1  0.512938  0.319346  0.403873  1
  Tm  Tm7  1  0.482138  0.677273  0.597327  1
  Lu  Lu8  1  0.320431  0.182194  0.628151  1
  Lu  Lu9  1  0.675195  0.824909  0.374190  1
  Lu  Lu10  1  0.174532  0.680808  0.373126  1
  Lu  Lu11  1  0.675195  0.824909  0.125810  1
  Lu  Lu12  1  0.834884  0.325645  0.627796  1
  Lu  Lu13  1  0.320431  0.182194  0.871849  1
  Lu  Lu14  1  0.834884  0.325645  0.872204  1
  Lu  Lu15  1  0.174532  0.680808  0.126874  1
  Sc  Sc16  1  0.840302  0.488646  0.250000  1
  Sc  Sc17  1  0.344244  0.012716  0.250000  1
  Sc  Sc18  1  0.652407  0.987631  0.750000  1
  Si  Si19  1  0.016378  0.076025  0.750000  1
  Si  Si20  1  0.978096  0.906752  0.250000  1
  Si  Si21  1  0.476585  0.600369  0.250000  1
  Si  Si22  1  0.528049  0.400539  0.750000  1
  Si  Si23  1  0.284213  0.870776  0.750000  1
  Si  Si24  1  0.716729  0.137626  0.250000  1
  Si  Si25  1  0.215261  0.364817  0.250000  1
  Si  Si26  1  0.770728  0.635503  0.750000  1
  Si  Si27  1  0.162449  0.463029  0.530986  1
  Si  Si28  1  0.843544  0.531963  0.461255  1
  Si  Si29  1  0.344698  0.969545  0.462670  1
  Si  Si30  1  0.843544  0.531963  0.038745  1
  Si  Si31  1  0.656841  0.030393  0.541294  1
  Si  Si32  1  0.162449  0.463029  0.969014  1
  Si  Si33  1  0.656841  0.030393  0.958706  1
  Si  Si34  1  0.344698  0.969545  0.037330  1
  Ag  Ag35  1  0.159853  0.526848  0.750000  1
