# generated using pymatgen
data_Rb4Ho3Zr5Se16
_symmetry_space_group_name_H-M   'P 1'
_cell_length_a   6.84039840
_cell_length_b   7.87402600
_cell_length_c   17.01847887
_cell_angle_alpha   90.00000000
_cell_angle_beta   90.07527468
_cell_angle_gamma   90.00000000
_symmetry_Int_Tables_number   1
_chemical_formula_structural   Rb4Ho3Zr5Se16
_chemical_formula_sum   'Rb4 Ho3 Zr5 Se16'
_cell_volume   916.63958036
_cell_formula_units_Z   1
loop_
 _symmetry_equiv_pos_site_id
 _symmetry_equiv_pos_as_xyz
  1  'x, y, z'
loop_
 _atom_site_type_symbol
 _atom_site_label
 _atom_site_symmetry_multiplicity
 _atom_site_fract_x
 _atom_site_fract_y
 _atom_site_fract_z
 _atom_site_occupancy
  Rb  Rb0  1  0.347261  0.000000  0.000909  1
  Rb  Rb1  1  0.650516  0.500000  0.499105  1
  Rb  Rb2  1  0.029019  0.000000  0.498615  1
  Rb  Rb3  1  0.971462  0.500000  0.001458  1
  Ho  Ho4  1  0.001093  0.000000  0.247808  1
  Ho  Ho5  1  0.001044  0.000000  0.752068  1
  Ho  Ho6  1  0.998829  0.500000  0.252177  1
  Zr  Zr7  1  0.999353  0.500000  0.748252  1
  Zr  Zr8  1  0.499952  0.250011  0.249999  1
  Zr  Zr9  1  0.499502  0.750084  0.750019  1
  Zr  Zr10  1  0.499952  0.749989  0.249999  1
  Zr  Zr11  1  0.499502  0.249916  0.750019  1
  Se  Se12  1  0.819401  0.247192  0.344984  1
  Se  Se13  1  0.827743  0.742618  0.656565  1
  Se  Se14  1  0.180529  0.747185  0.155060  1
  Se  Se15  1  0.173627  0.261523  0.843663  1
  Se  Se16  1  0.180529  0.252815  0.155060  1
  Se  Se17  1  0.173627  0.738477  0.843663  1
  Se  Se18  1  0.819401  0.752808  0.344984  1
  Se  Se19  1  0.827743  0.257382  0.656565  1
  Se  Se20  1  0.656246  0.000000  0.157607  1
  Se  Se21  1  0.655988  0.000000  0.842899  1
  Se  Se22  1  0.343530  0.500000  0.342372  1
  Se  Se23  1  0.329292  0.500000  0.659036  1
  Se  Se24  1  0.346063  0.000000  0.341831  1
  Se  Se25  1  0.346823  0.000000  0.657520  1
  Se  Se26  1  0.653796  0.500000  0.158214  1
  Se  Se27  1  0.668176  0.500000  0.839551  1
