# generated using pymatgen
data_Zr8V9Si16W3
_symmetry_space_group_name_H-M   'P 1'
_cell_length_a   6.66362195
_cell_length_b   6.66362145
_cell_length_c   12.35927478
_cell_angle_alpha   89.97309641
_cell_angle_beta   90.02690371
_cell_angle_gamma   90.02634912
_symmetry_Int_Tables_number   1
_chemical_formula_structural   Zr8V9Si16W3
_chemical_formula_sum   'Zr8 V9 Si16 W3'
_cell_volume   548.79925563
_cell_formula_units_Z   1
loop_
 _symmetry_equiv_pos_site_id
 _symmetry_equiv_pos_as_xyz
  1  'x, y, z'
loop_
 _atom_site_type_symbol
 _atom_site_label
 _atom_site_symmetry_multiplicity
 _atom_site_fract_x
 _atom_site_fract_y
 _atom_site_fract_z
 _atom_site_occupancy
  Zr  Zr0  1  0.003267  0.663465  0.030294  1
  Zr  Zr1  1  0.836879  0.502642  0.280890  1
  Zr  Zr2  1  0.162430  0.496884  0.779699  1
  Zr  Zr3  1  0.502642  0.836879  0.719110  1
  Zr  Zr4  1  0.496884  0.162430  0.220301  1
  Zr  Zr5  1  0.996164  0.336877  0.530278  1
  Zr  Zr6  1  0.663465  0.003267  0.969706  1
  Zr  Zr7  1  0.336877  0.996164  0.469722  1
  V  V8  1  0.665341  0.665341  0.500000  1
  V  V9  1  0.002687  0.162176  0.127326  1
  V  V10  1  0.339548  0.503471  0.377752  1
  V  V11  1  0.662918  0.496993  0.876556  1
  V  V12  1  0.503471  0.339548  0.622248  1
  V  V13  1  0.496993  0.662918  0.123444  1
  V  V14  1  0.996229  0.837797  0.626262  1
  V  V15  1  0.162176  0.002687  0.872674  1
  V  V16  1  0.837797  0.996229  0.373738  1
  Si  Si17  1  0.290249  0.960948  0.063533  1
  Si  Si18  1  0.541396  0.788692  0.315842  1
  Si  Si19  1  0.460665  0.210027  0.812979  1
  Si  Si20  1  0.788692  0.541396  0.684158  1
  Si  Si21  1  0.210027  0.460665  0.187021  1
  Si  Si22  1  0.708777  0.036503  0.562866  1
  Si  Si23  1  0.960948  0.290249  0.936467  1
  Si  Si24  1  0.036503  0.708777  0.437134  1
  Si  Si25  1  0.707714  0.376412  0.071946  1
  Si  Si26  1  0.124232  0.207716  0.322230  1
  Si  Si27  1  0.876038  0.791852  0.821087  1
  Si  Si28  1  0.207716  0.124232  0.677770  1
  Si  Si29  1  0.791852  0.876038  0.178913  1
  Si  Si30  1  0.293808  0.624565  0.570673  1
  Si  Si31  1  0.376412  0.707714  0.928054  1
  Si  Si32  1  0.624565  0.293808  0.429327  1
  W  W33  1  0.334052  0.334052  0.000000  1
  W  W34  1  0.166367  0.834218  0.250163  1
  W  W35  1  0.834218  0.166367  0.749837  1
