# generated using pymatgen
data_Sr2Li5AgAs5
_symmetry_space_group_name_H-M   'P 1'
_cell_length_a   4.38752647
_cell_length_b   4.38752796
_cell_length_c   14.22008571
_cell_angle_alpha   98.87458901
_cell_angle_beta   98.87459061
_cell_angle_gamma   90.00000711
_symmetry_Int_Tables_number   1
_chemical_formula_structural   Sr2Li5AgAs5
_chemical_formula_sum   'Sr2 Li5 Ag1 As5'
_cell_volume   267.14779294
_cell_formula_units_Z   1
loop_
 _symmetry_equiv_pos_site_id
 _symmetry_equiv_pos_as_xyz
  1  'x, y, z'
loop_
 _atom_site_type_symbol
 _atom_site_label
 _atom_site_symmetry_multiplicity
 _atom_site_fract_x
 _atom_site_fract_y
 _atom_site_fract_z
 _atom_site_occupancy
  Sr  Sr0  1  0.644424  0.644424  0.288850  1
  Sr  Sr1  1  0.355576  0.355576  0.711150  1
  Li  Li2  1  0.951636  0.451636  0.903274  1
  Li  Li3  1  0.451334  0.951334  0.902669  1
  Li  Li4  1  0.048666  0.548666  0.097331  1
  Li  Li5  1  0.548364  0.048364  0.096726  1
  Li  Li6  1  0.250000  0.750000  0.500000  1
  Ag  Ag7  1  0.750000  0.250000  0.500000  1
  As  As8  1  0.500000  0.500000  0.000000  1
  As  As9  1  0.894120  0.894120  0.788239  1
  As  As10  1  0.105880  0.105880  0.211761  1
  As  As11  1  0.804729  0.804729  0.609458  1
  As  As12  1  0.195271  0.195271  0.390542  1
