# generated using pymatgen
data_Tm4Ga4Sn2Ir7
_symmetry_space_group_name_H-M   'P 1'
_cell_length_a   7.34841171
_cell_length_b   7.34841138
_cell_length_c   7.37115289
_cell_angle_alpha   109.50560781
_cell_angle_beta   109.50560419
_cell_angle_gamma   109.27697152
_symmetry_Int_Tables_number   1
_chemical_formula_structural   Tm4Ga4Sn2Ir7
_chemical_formula_sum   'Tm4 Ga4 Sn2 Ir7'
_cell_volume   306.88061789
_cell_formula_units_Z   1
loop_
 _symmetry_equiv_pos_site_id
 _symmetry_equiv_pos_as_xyz
  1  'x, y, z'
loop_
 _atom_site_type_symbol
 _atom_site_label
 _atom_site_symmetry_multiplicity
 _atom_site_fract_x
 _atom_site_fract_y
 _atom_site_fract_z
 _atom_site_occupancy
  Tm  Tm0  1  0.006789  0.006789  0.462517  1
  Tm  Tm1  1  0.007657  0.507657  0.015315  1
  Tm  Tm2  1  0.507657  0.007657  0.015315  1
  Tm  Tm3  1  0.455728  0.455728  0.462517  1
  Ga  Ga4  1  0.678456  0.678456  0.985743  1
  Ga  Ga5  1  0.330043  0.992807  0.322850  1
  Ga  Ga6  1  0.992807  0.330043  0.322850  1
  Ga  Ga7  1  0.307287  0.307287  0.985743  1
  Sn  Sn8  1  0.701265  0.991703  0.692968  1
  Sn  Sn9  1  0.991703  0.701265  0.692968  1
  Ir  Ir10  1  0.751829  0.251829  0.503657  1
  Ir  Ir11  1  0.741134  0.501134  0.242268  1
  Ir  Ir12  1  0.501765  0.250452  0.752216  1
  Ir  Ir13  1  0.250452  0.501765  0.752216  1
  Ir  Ir14  1  0.251829  0.751829  0.503657  1
  Ir  Ir15  1  0.501134  0.741134  0.242268  1
  Ir  Ir16  1  0.022467  0.022467  0.044933  1
