# generated using pymatgen
data_Ho2P7(Ru5Rh)2
_symmetry_space_group_name_H-M   'P 1'
_cell_length_a   9.39920015
_cell_length_b   9.46331886
_cell_length_c   3.93606800
_cell_angle_alpha   90.00000000
_cell_angle_beta   90.00000000
_cell_angle_gamma   120.14623054
_symmetry_Int_Tables_number   1
_chemical_formula_structural   Ho2P7(Ru5Rh)2
_chemical_formula_sum   'Ho2 P7 Ru10 Rh2'
_cell_volume   302.75112680
_cell_formula_units_Z   1
loop_
 _symmetry_equiv_pos_site_id
 _symmetry_equiv_pos_as_xyz
  1  'x, y, z'
loop_
 _atom_site_type_symbol
 _atom_site_label
 _atom_site_symmetry_multiplicity
 _atom_site_fract_x
 _atom_site_fract_y
 _atom_site_fract_z
 _atom_site_occupancy
  Ho  Ho0  1  0.668277  0.332990  0.500000  1
  Ho  Ho1  1  0.329241  0.665061  0.000000  1
  P  P2  1  0.600875  0.715737  0.500000  1
  P  P3  1  0.000034  0.002242  0.000000  1
  P  P4  1  0.279362  0.880956  0.500000  1
  P  P5  1  0.114173  0.402254  0.500000  1
  P  P6  1  0.884625  0.577061  0.000000  1
  P  P7  1  0.423972  0.301876  0.000000  1
  P  P8  1  0.698252  0.118968  0.000000  1
  Ru  Ru9  1  0.914005  0.126310  0.500000  1
  Ru  Ru10  1  0.214919  0.088248  0.500000  1
  Ru  Ru11  1  0.874978  0.790119  0.500000  1
  Ru  Ru12  1  0.725312  0.889880  0.000000  1
  Ru  Ru13  1  0.108664  0.838976  0.000000  1
  Ru  Ru14  1  0.166060  0.273851  0.000000  1
  Ru  Ru15  1  0.430602  0.064061  0.000000  1
  Ru  Ru16  1  0.935978  0.362980  0.000000  1
  Ru  Ru17  1  0.636688  0.569990  0.000000  1
  Ru  Ru18  1  0.051327  0.610090  0.500000  1
  Rh  Rh19  1  0.551589  0.942298  0.500000  1
  Rh  Rh20  1  0.391070  0.446051  0.500000  1
