# generated using pymatgen
data_Pr4Sn11Hg
_symmetry_space_group_name_H-M   'P 1'
_cell_length_a   9.71559200
_cell_length_b   6.72237889
_cell_length_c   6.72032167
_cell_angle_alpha   90.00536680
_cell_angle_beta   90.00000000
_cell_angle_gamma   90.00000000
_symmetry_Int_Tables_number   1
_chemical_formula_structural   Pr4Sn11Hg
_chemical_formula_sum   'Pr4 Sn11 Hg1'
_cell_volume   438.91691147
_cell_formula_units_Z   1
loop_
 _symmetry_equiv_pos_site_id
 _symmetry_equiv_pos_as_xyz
  1  'x, y, z'
loop_
 _atom_site_type_symbol
 _atom_site_label
 _atom_site_symmetry_multiplicity
 _atom_site_fract_x
 _atom_site_fract_y
 _atom_site_fract_z
 _atom_site_occupancy
  Pr  Pr0  1  0.250000  0.005427  0.001119  1
  Pr  Pr1  1  0.250000  0.495627  0.502761  1
  Pr  Pr2  1  0.750000  0.998226  0.999763  1
  Pr  Pr3  1  0.750000  0.503919  0.498933  1
  Sn  Sn4  1  0.997444  0.244877  0.744927  1
  Sn  Sn5  1  0.502550  0.253118  0.247667  1
  Sn  Sn6  1  0.499825  0.752164  0.252086  1
  Sn  Sn7  1  0.999291  0.746947  0.753486  1
  Sn  Sn8  1  0.000175  0.752164  0.252086  1
  Sn  Sn9  1  0.500709  0.746947  0.753486  1
  Sn  Sn10  1  0.502556  0.244877  0.744927  1
  Sn  Sn11  1  0.997450  0.253118  0.247667  1
  Sn  Sn12  1  0.250000  0.996551  0.501104  1
  Sn  Sn13  1  0.250000  0.505300  0.002568  1
  Sn  Sn14  1  0.750000  0.003660  0.499104  1
  Hg  Hg15  1  0.750000  0.497079  0.998314  1
