# generated using pymatgen
data_Ba2PrGaSe5
_symmetry_space_group_name_H-M   'P 1'
_cell_length_a   7.44658697
_cell_length_b   8.96279227
_cell_length_c   9.67279691
_cell_angle_alpha   103.73178631
_cell_angle_beta   102.83610451
_cell_angle_gamma   107.71990309
_symmetry_Int_Tables_number   1
_chemical_formula_structural   Ba2PrGaSe5
_chemical_formula_sum   'Ba4 Pr2 Ga2 Se10'
_cell_volume   566.33426241
_cell_formula_units_Z   2
loop_
 _symmetry_equiv_pos_site_id
 _symmetry_equiv_pos_as_xyz
  1  'x, y, z'
loop_
 _atom_site_type_symbol
 _atom_site_label
 _atom_site_symmetry_multiplicity
 _atom_site_fract_x
 _atom_site_fract_y
 _atom_site_fract_z
 _atom_site_occupancy
  Ba  Ba0  1  0.635913  0.979408  0.294945  1
  Ba  Ba1  1  0.364087  0.020592  0.705055  1
  Ba  Ba2  1  0.342146  0.509614  0.704554  1
  Ba  Ba3  1  0.657854  0.490386  0.295446  1
  Pr  Pr4  1  0.997262  0.731383  0.997597  1
  Pr  Pr5  1  0.002738  0.268617  0.002403  1
  Ga  Ga6  1  0.806951  0.872151  0.687113  1
  Ga  Ga7  1  0.193049  0.127849  0.312887  1
  Se  Se8  1  0.989805  0.686950  0.678345  1
  Se  Se9  1  0.010195  0.313050  0.321655  1
  Se  Se10  1  0.986301  0.148049  0.682983  1
  Se  Se11  1  0.013699  0.851951  0.317017  1
  Se  Se12  1  0.702184  0.904089  0.919103  1
  Se  Se13  1  0.297816  0.095911  0.080897  1
  Se  Se14  1  0.696116  0.407447  0.944655  1
  Se  Se15  1  0.303884  0.592553  0.055345  1
  Se  Se16  1  0.492245  0.741959  0.493199  1
  Se  Se17  1  0.507755  0.258041  0.506801  1
