# generated using pymatgen
data_Ce3Th(POs)8
_symmetry_space_group_name_H-M   'P 1'
_cell_length_a   4.17069500
_cell_length_b   7.54478601
_cell_length_c   10.46974103
_cell_angle_alpha   90.00181378
_cell_angle_beta   90.00000000
_cell_angle_gamma   90.00000000
_symmetry_Int_Tables_number   1
_chemical_formula_structural   Ce3Th(POs)8
_chemical_formula_sum   'Ce3 Th1 P8 Os8'
_cell_volume   329.45135434
_cell_formula_units_Z   1
loop_
 _symmetry_equiv_pos_site_id
 _symmetry_equiv_pos_as_xyz
  1  'x, y, z'
loop_
 _atom_site_type_symbol
 _atom_site_label
 _atom_site_symmetry_multiplicity
 _atom_site_fract_x
 _atom_site_fract_y
 _atom_site_fract_z
 _atom_site_occupancy
  Ce  Ce0  1  0.250000  0.268191  0.669251  1
  Ce  Ce1  1  0.750000  0.731036  0.331313  1
  Ce  Ce2  1  0.250000  0.767370  0.830440  1
  Th  Th3  1  0.750000  0.232460  0.169209  1
  P  P4  1  0.250000  0.092819  0.965317  1
  P  P5  1  0.750000  0.905548  0.030788  1
  P  P6  1  0.250000  0.594064  0.532812  1
  P  P7  1  0.750000  0.406096  0.469194  1
  P  P8  1  0.250000  0.532575  0.162004  1
  P  P9  1  0.750000  0.471331  0.837525  1
  P  P10  1  0.250000  0.026793  0.339433  1
  P  P11  1  0.750000  0.970587  0.662421  1
  Os  Os12  1  0.750000  0.108242  0.451246  1
  Os  Os13  1  0.250000  0.891161  0.550374  1
  Os  Os14  1  0.750000  0.609946  0.049103  1
  Os  Os15  1  0.250000  0.390882  0.949449  1
  Os  Os16  1  0.250000  0.869789  0.133095  1
  Os  Os17  1  0.750000  0.130155  0.865774  1
  Os  Os18  1  0.250000  0.370472  0.367745  1
  Os  Os19  1  0.750000  0.630481  0.633509  1
