# generated using pymatgen
data_Cs2PaI6
_symmetry_space_group_name_H-M   'P 1'
_cell_length_a   8.53215600
_cell_length_b   8.53215600
_cell_length_c   12.85562400
_cell_angle_alpha   90.00000000
_cell_angle_beta   90.00000000
_cell_angle_gamma   90.00000000
_symmetry_Int_Tables_number   1
_chemical_formula_structural   Cs2PaI6
_chemical_formula_sum   'Cs4 Pa2 I12'
_cell_volume   935.85967939
_cell_formula_units_Z   2
loop_
 _symmetry_equiv_pos_site_id
 _symmetry_equiv_pos_as_xyz
  1  'x, y, z'
loop_
 _atom_site_type_symbol
 _atom_site_label
 _atom_site_symmetry_multiplicity
 _atom_site_fract_x
 _atom_site_fract_y
 _atom_site_fract_z
 _atom_site_occupancy
  Cs  Cs0  1  0.000000  0.500000  0.250000  1
  Cs  Cs1  1  0.500000  0.000000  0.250000  1
  Cs  Cs2  1  0.000000  0.500000  0.750000  1
  Cs  Cs3  1  0.500000  0.000000  0.750000  1
  Pa  Pa4  1  0.000000  0.000000  0.000000  1
  Pa  Pa5  1  0.500000  0.500000  0.500000  1
  I  I6  1  0.000000  0.000000  0.238523  1
  I  I7  1  0.500000  0.500000  0.261476  1
  I  I8  1  0.000000  0.000000  0.761476  1
  I  I9  1  0.500000  0.500000  0.738524  1
  I  I10  1  0.199886  0.293859  0.000000  1
  I  I11  1  0.706141  0.199886  0.000000  1
  I  I12  1  0.293859  0.800114  0.000000  1
  I  I13  1  0.699886  0.206141  0.500000  1
  I  I14  1  0.300114  0.793859  0.500000  1
  I  I15  1  0.800114  0.706141  0.000000  1
  I  I16  1  0.793859  0.699886  0.500000  1
  I  I17  1  0.206141  0.300114  0.500000  1
