# generated using pymatgen
data_SmScB6Mo
_symmetry_space_group_name_H-M   'P 1'
_cell_length_a   3.56529600
_cell_length_b   9.19473600
_cell_length_c   11.61702900
_cell_angle_alpha   90.00000000
_cell_angle_beta   90.00000000
_cell_angle_gamma   90.00000000
_symmetry_Int_Tables_number   1
_chemical_formula_structural   SmScB6Mo
_chemical_formula_sum   'Sm4 Sc4 B24 Mo4'
_cell_volume   380.82892751
_cell_formula_units_Z   4
loop_
 _symmetry_equiv_pos_site_id
 _symmetry_equiv_pos_as_xyz
  1  'x, y, z'
loop_
 _atom_site_type_symbol
 _atom_site_label
 _atom_site_symmetry_multiplicity
 _atom_site_fract_x
 _atom_site_fract_y
 _atom_site_fract_z
 _atom_site_occupancy
  Sm  Sm0  1  0.000000  0.320703  0.414894  1
  Sm  Sm1  1  0.000000  0.679297  0.585106  1
  Sm  Sm2  1  0.000000  0.820703  0.085106  1
  Sm  Sm3  1  0.000000  0.179297  0.914894  1
  Sc  Sc4  1  0.000000  0.944713  0.370796  1
  Sc  Sc5  1  0.000000  0.055287  0.629204  1
  Sc  Sc6  1  0.000000  0.444713  0.129204  1
  Sc  Sc7  1  0.000000  0.555287  0.870796  1
  B  B8  1  0.500000  0.553433  0.432654  1
  B  B9  1  0.500000  0.446567  0.567346  1
  B  B10  1  0.500000  0.053433  0.067346  1
  B  B11  1  0.500000  0.946567  0.932654  1
  B  B12  1  0.500000  0.757496  0.418663  1
  B  B13  1  0.500000  0.242504  0.581337  1
  B  B14  1  0.500000  0.257496  0.081337  1
  B  B15  1  0.500000  0.742504  0.918663  1
  B  B16  1  0.500000  0.797427  0.264458  1
  B  B17  1  0.500000  0.202573  0.735542  1
  B  B18  1  0.500000  0.297427  0.235542  1
  B  B19  1  0.500000  0.702573  0.764458  1
  B  B20  1  0.500000  0.627959  0.180920  1
  B  B21  1  0.500000  0.372041  0.819080  1
  B  B22  1  0.500000  0.127959  0.319080  1
  B  B23  1  0.500000  0.872041  0.680920  1
  B  B24  1  0.500000  0.980146  0.215284  1
  B  B25  1  0.500000  0.019854  0.784716  1
  B  B26  1  0.500000  0.480146  0.284716  1
  B  B27  1  0.500000  0.519854  0.715284  1
  B  B28  1  0.500000  0.593149  0.025387  1
  B  B29  1  0.500000  0.406851  0.974613  1
  B  B30  1  0.500000  0.093149  0.474613  1
  B  B31  1  0.500000  0.906851  0.525387  1
  Mo  Mo32  1  0.000000  0.642136  0.317644  1
  Mo  Mo33  1  0.000000  0.357864  0.682356  1
  Mo  Mo34  1  0.000000  0.142136  0.182356  1
  Mo  Mo35  1  0.000000  0.857864  0.817644  1
