# generated using pymatgen
data_Ba3Zn(CoO3)2
_symmetry_space_group_name_H-M   'P 1'
_cell_length_a   5.96895000
_cell_length_b   5.96770063
_cell_length_c   6.80536280
_cell_angle_alpha   90.21410636
_cell_angle_beta   90.00000000
_cell_angle_gamma   120.00693673
_symmetry_Int_Tables_number   1
_chemical_formula_structural   Ba3Zn(CoO3)2
_chemical_formula_sum   'Ba3 Zn1 Co2 O6'
_cell_volume   209.91935317
_cell_formula_units_Z   1
loop_
 _symmetry_equiv_pos_site_id
 _symmetry_equiv_pos_as_xyz
  1  'x, y, z'
loop_
 _atom_site_type_symbol
 _atom_site_label
 _atom_site_symmetry_multiplicity
 _atom_site_fract_x
 _atom_site_fract_y
 _atom_site_fract_z
 _atom_site_occupancy
  Ba  Ba0  1  0.654061  0.000000  0.833333  1
  Ba  Ba1  1  0.001417  0.654425  0.166496  1
  Ba  Ba2  1  0.346991  0.345575  0.500171  1
  Zn  Zn3  1  0.583647  0.000000  0.333333  1
  Co  Co4  1  0.416797  0.417447  0.000046  1
  Co  Co5  1  0.999350  0.582553  0.666621  1
  O  O6  1  0.124407  0.422588  0.874891  1
  O  O7  1  0.577229  0.701377  0.208929  1
  O  O8  1  0.296771  0.875113  0.543096  1
  O  O9  1  0.701820  0.577412  0.791776  1
  O  O10  1  0.421657  0.124887  0.123571  1
  O  O11  1  0.875853  0.298623  0.457737  1
