# generated using pymatgen
data_CaTb3(AlPt)4
_symmetry_space_group_name_H-M   'P 1'
_cell_length_a   4.45837200
_cell_length_b   6.95631735
_cell_length_c   7.75861744
_cell_angle_alpha   89.84879700
_cell_angle_beta   90.00000000
_cell_angle_gamma   90.00000000
_symmetry_Int_Tables_number   1
_chemical_formula_structural   CaTb3(AlPt)4
_chemical_formula_sum   'Ca1 Tb3 Al4 Pt4'
_cell_volume   240.62376326
_cell_formula_units_Z   1
loop_
 _symmetry_equiv_pos_site_id
 _symmetry_equiv_pos_as_xyz
  1  'x, y, z'
loop_
 _atom_site_type_symbol
 _atom_site_label
 _atom_site_symmetry_multiplicity
 _atom_site_fract_x
 _atom_site_fract_y
 _atom_site_fract_z
 _atom_site_occupancy
  Ca  Ca0  1  0.750000  0.474592  0.181105  1
  Tb  Tb1  1  0.250000  0.026783  0.681737  1
  Tb  Tb2  1  0.250000  0.529142  0.821449  1
  Tb  Tb3  1  0.750000  0.969827  0.319294  1
  Al  Al4  1  0.250000  0.148764  0.064107  1
  Al  Al5  1  0.250000  0.643819  0.434917  1
  Al  Al6  1  0.750000  0.854043  0.935801  1
  Al  Al7  1  0.750000  0.355237  0.563787  1
  Pt  Pt8  1  0.250000  0.270849  0.385824  1
  Pt  Pt9  1  0.250000  0.784245  0.116108  1
  Pt  Pt10  1  0.750000  0.722490  0.617689  1
  Pt  Pt11  1  0.750000  0.220210  0.878181  1
