# generated using pymatgen
data_LiPr6Co16P12Ru
_symmetry_space_group_name_H-M   'P 1'
_cell_length_a   3.79529600
_cell_length_b   10.71982400
_cell_length_c   12.49050400
_cell_angle_alpha   90.00000000
_cell_angle_beta   90.00000000
_cell_angle_gamma   90.00000000
_symmetry_Int_Tables_number   1
_chemical_formula_structural   LiPr6Co16P12Ru
_chemical_formula_sum   'Li1 Pr6 Co16 P12 Ru1'
_cell_volume   508.17497049
_cell_formula_units_Z   1
loop_
 _symmetry_equiv_pos_site_id
 _symmetry_equiv_pos_as_xyz
  1  'x, y, z'
loop_
 _atom_site_type_symbol
 _atom_site_label
 _atom_site_symmetry_multiplicity
 _atom_site_fract_x
 _atom_site_fract_y
 _atom_site_fract_z
 _atom_site_occupancy
  Li  Li0  1  0.000000  0.000000  0.850172  1
  Pr  Pr1  1  0.000000  0.500000  0.523576  1
  Pr  Pr2  1  0.500000  0.000000  0.478736  1
  Pr  Pr3  1  0.500000  0.817571  0.206347  1
  Pr  Pr4  1  0.500000  0.182429  0.206347  1
  Pr  Pr5  1  0.000000  0.682364  0.793083  1
  Pr  Pr6  1  0.000000  0.317636  0.793083  1
  Co  Co7  1  0.500000  0.500000  0.705924  1
  Co  Co8  1  0.000000  0.000000  0.294162  1
  Co  Co9  1  0.000000  0.500000  0.989413  1
  Co  Co10  1  0.500000  0.000000  0.013474  1
  Co  Co11  1  0.500000  0.334452  0.994734  1
  Co  Co12  1  0.500000  0.665548  0.994734  1
  Co  Co13  1  0.000000  0.169103  0.003954  1
  Co  Co14  1  0.000000  0.830897  0.003954  1
  Co  Co15  1  0.500000  0.298428  0.428573  1
  Co  Co16  1  0.500000  0.701572  0.428573  1
  Co  Co17  1  0.000000  0.204131  0.567847  1
  Co  Co18  1  0.000000  0.795869  0.567847  1
  Co  Co19  1  0.500000  0.880144  0.706485  1
  Co  Co20  1  0.500000  0.119856  0.706485  1
  Co  Co21  1  0.000000  0.617454  0.290174  1
  Co  Co22  1  0.000000  0.382546  0.290174  1
  P  P23  1  0.500000  0.500000  0.887008  1
  P  P24  1  0.000000  0.000000  0.111132  1
  P  P25  1  0.500000  0.500000  0.344523  1
  P  P26  1  0.000000  0.000000  0.659410  1
  P  P27  1  0.500000  0.304689  0.612803  1
  P  P28  1  0.500000  0.695311  0.612803  1
  P  P29  1  0.000000  0.194753  0.385703  1
  P  P30  1  0.000000  0.805247  0.385703  1
  P  P31  1  0.500000  0.845589  0.898394  1
  P  P32  1  0.500000  0.154411  0.898394  1
  P  P33  1  0.000000  0.652560  0.104088  1
  P  P34  1  0.000000  0.347440  0.104088  1
  Ru  Ru35  1  0.500000  0.500000  0.158099  1
