# generated using pymatgen
data_GdScAlB6
_symmetry_space_group_name_H-M   'P 1'
_cell_length_a   3.52811700
_cell_length_b   9.07412600
_cell_length_c   11.44407400
_cell_angle_alpha   90.00000000
_cell_angle_beta   90.00000000
_cell_angle_gamma   90.00000000
_symmetry_Int_Tables_number   1
_chemical_formula_structural   GdScAlB6
_chemical_formula_sum   'Gd4 Sc4 Al4 B24'
_cell_volume   366.37720201
_cell_formula_units_Z   4
loop_
 _symmetry_equiv_pos_site_id
 _symmetry_equiv_pos_as_xyz
  1  'x, y, z'
loop_
 _atom_site_type_symbol
 _atom_site_label
 _atom_site_symmetry_multiplicity
 _atom_site_fract_x
 _atom_site_fract_y
 _atom_site_fract_z
 _atom_site_occupancy
  Gd  Gd0  1  0.000000  0.820959  0.086136  1
  Gd  Gd1  1  0.000000  0.179041  0.913864  1
  Gd  Gd2  1  0.000000  0.320959  0.413864  1
  Gd  Gd3  1  0.000000  0.679041  0.586136  1
  Sc  Sc4  1  0.000000  0.444906  0.127809  1
  Sc  Sc5  1  0.000000  0.555094  0.872191  1
  Sc  Sc6  1  0.000000  0.944906  0.372191  1
  Sc  Sc7  1  0.000000  0.055094  0.627809  1
  Al  Al8  1  0.000000  0.142138  0.181443  1
  Al  Al9  1  0.000000  0.857862  0.818557  1
  Al  Al10  1  0.000000  0.642138  0.318557  1
  Al  Al11  1  0.000000  0.357862  0.681443  1
  B  B12  1  0.500000  0.052198  0.065216  1
  B  B13  1  0.500000  0.947802  0.934784  1
  B  B14  1  0.500000  0.552198  0.434784  1
  B  B15  1  0.500000  0.447802  0.565216  1
  B  B16  1  0.500000  0.255804  0.081043  1
  B  B17  1  0.500000  0.744196  0.918957  1
  B  B18  1  0.500000  0.755804  0.418957  1
  B  B19  1  0.500000  0.244196  0.581043  1
  B  B20  1  0.500000  0.298425  0.236094  1
  B  B21  1  0.500000  0.701575  0.763906  1
  B  B22  1  0.500000  0.798425  0.263906  1
  B  B23  1  0.500000  0.201575  0.736094  1
  B  B24  1  0.500000  0.129092  0.318818  1
  B  B25  1  0.500000  0.870908  0.681182  1
  B  B26  1  0.500000  0.629092  0.181182  1
  B  B27  1  0.500000  0.370908  0.818818  1
  B  B28  1  0.500000  0.479747  0.285228  1
  B  B29  1  0.500000  0.520253  0.714772  1
  B  B30  1  0.500000  0.979747  0.214772  1
  B  B31  1  0.500000  0.020253  0.785228  1
  B  B32  1  0.500000  0.097400  0.473658  1
  B  B33  1  0.500000  0.902600  0.526342  1
  B  B34  1  0.500000  0.597400  0.026342  1
  B  B35  1  0.500000  0.402600  0.973658  1
