# generated using pymatgen
data_Nd3YIn2Ir2Pt
_symmetry_space_group_name_H-M   'P 1'
_cell_length_a   7.71288573
_cell_length_b   7.56801096
_cell_length_c   4.24898500
_cell_angle_alpha   90.00000000
_cell_angle_beta   90.00000000
_cell_angle_gamma   119.29426242
_symmetry_Int_Tables_number   1
_chemical_formula_structural   Nd3YIn2Ir2Pt
_chemical_formula_sum   'Nd3 Y1 In2 Ir2 Pt1'
_cell_volume   216.30135230
_cell_formula_units_Z   1
loop_
 _symmetry_equiv_pos_site_id
 _symmetry_equiv_pos_as_xyz
  1  'x, y, z'
loop_
 _atom_site_type_symbol
 _atom_site_label
 _atom_site_symmetry_multiplicity
 _atom_site_fract_x
 _atom_site_fract_y
 _atom_site_fract_z
 _atom_site_occupancy
  Nd  Nd0  1  0.992916  0.610649  0.500000  1
  Nd  Nd1  1  0.572459  0.990426  0.500000  1
  Nd  Nd2  1  0.434923  0.410816  0.500000  1
  Y  Y3  1  0.997507  0.239541  0.000000  1
  In  In4  1  0.254529  0.006128  0.000000  1
  In  In5  1  0.747541  0.752450  0.000000  1
  Ir  Ir6  1  0.000736  0.996316  0.500000  1
  Ir  Ir7  1  0.669731  0.331725  0.000000  1
  Pt  Pt8  1  0.329657  0.661949  0.000000  1
