# generated using pymatgen
data_GdHfReB6
_symmetry_space_group_name_H-M   'P 1'
_cell_length_a   3.60785600
_cell_length_b   9.02980800
_cell_length_c   11.42766900
_cell_angle_alpha   90.00000000
_cell_angle_beta   90.00000000
_cell_angle_gamma   90.00000000
_symmetry_Int_Tables_number   1
_chemical_formula_structural   GdHfReB6
_chemical_formula_sum   'Gd4 Hf4 Re4 B24'
_cell_volume   372.29342299
_cell_formula_units_Z   4
loop_
 _symmetry_equiv_pos_site_id
 _symmetry_equiv_pos_as_xyz
  1  'x, y, z'
loop_
 _atom_site_type_symbol
 _atom_site_label
 _atom_site_symmetry_multiplicity
 _atom_site_fract_x
 _atom_site_fract_y
 _atom_site_fract_z
 _atom_site_occupancy
  Gd  Gd0  1  0.000000  0.322045  0.414113  1
  Gd  Gd1  1  0.000000  0.677955  0.585887  1
  Gd  Gd2  1  0.000000  0.822045  0.085887  1
  Gd  Gd3  1  0.000000  0.177955  0.914113  1
  Hf  Hf4  1  0.000000  0.944827  0.372693  1
  Hf  Hf5  1  0.000000  0.055173  0.627307  1
  Hf  Hf6  1  0.000000  0.444827  0.127307  1
  Hf  Hf7  1  0.000000  0.555173  0.872693  1
  Re  Re8  1  0.000000  0.640538  0.317758  1
  Re  Re9  1  0.000000  0.359462  0.682242  1
  Re  Re10  1  0.000000  0.140538  0.182242  1
  Re  Re11  1  0.000000  0.859462  0.817758  1
  B  B12  1  0.500000  0.554583  0.432591  1
  B  B13  1  0.500000  0.445417  0.567409  1
  B  B14  1  0.500000  0.054583  0.067409  1
  B  B15  1  0.500000  0.945417  0.932591  1
  B  B16  1  0.500000  0.752620  0.417923  1
  B  B17  1  0.500000  0.247380  0.582077  1
  B  B18  1  0.500000  0.252620  0.082077  1
  B  B19  1  0.500000  0.747380  0.917923  1
  B  B20  1  0.500000  0.794510  0.264846  1
  B  B21  1  0.500000  0.205490  0.735154  1
  B  B22  1  0.500000  0.294510  0.235154  1
  B  B23  1  0.500000  0.705490  0.764846  1
  B  B24  1  0.500000  0.629635  0.183263  1
  B  B25  1  0.500000  0.370365  0.816737  1
  B  B26  1  0.500000  0.129635  0.316737  1
  B  B27  1  0.500000  0.870365  0.683263  1
  B  B28  1  0.500000  0.981838  0.214055  1
  B  B29  1  0.500000  0.018162  0.785945  1
  B  B30  1  0.500000  0.481838  0.285945  1
  B  B31  1  0.500000  0.518162  0.714055  1
  B  B32  1  0.500000  0.599303  0.026652  1
  B  B33  1  0.500000  0.400697  0.973348  1
  B  B34  1  0.500000  0.099303  0.473348  1
  B  B35  1  0.500000  0.900697  0.526652  1
