# generated using pymatgen
data_Pr4MnSe6O
_symmetry_space_group_name_H-M   'P 1'
_cell_length_a   9.77718500
_cell_length_b   9.77750384
_cell_length_c   7.09770500
_cell_angle_alpha   90.00000000
_cell_angle_beta   90.00000000
_cell_angle_gamma   119.99901215
_symmetry_Int_Tables_number   1
_chemical_formula_structural   Pr4MnSe6O
_chemical_formula_sum   'Pr8 Mn2 Se12 O2'
_cell_volume   587.61750886
_cell_formula_units_Z   2
loop_
 _symmetry_equiv_pos_site_id
 _symmetry_equiv_pos_as_xyz
  1  'x, y, z'
loop_
 _atom_site_type_symbol
 _atom_site_label
 _atom_site_symmetry_multiplicity
 _atom_site_fract_x
 _atom_site_fract_y
 _atom_site_fract_z
 _atom_site_occupancy
  Pr  Pr0  1  0.333312  0.666625  0.293535  1
  Pr  Pr1  1  0.401701  0.200849  0.338814  1
  Pr  Pr2  1  0.799149  0.200849  0.338815  1
  Pr  Pr3  1  0.799146  0.598295  0.338817  1
  Pr  Pr4  1  0.666688  0.333376  0.793535  1
  Pr  Pr5  1  0.200851  0.799151  0.838816  1
  Pr  Pr6  1  0.598299  0.799151  0.838815  1
  Pr  Pr7  1  0.200854  0.401705  0.838816  1
  Mn  Mn8  1  0.000005  0.999999  0.003281  1
  Mn  Mn9  1  0.999995  0.000001  0.503282  1
  Se  Se10  1  0.530831  0.061660  0.055282  1
  Se  Se11  1  0.530802  0.469202  0.055315  1
  Se  Se12  1  0.938400  0.469202  0.055315  1
  Se  Se13  1  0.127712  0.255425  0.235003  1
  Se  Se14  1  0.127713  0.872287  0.235004  1
  Se  Se15  1  0.744574  0.872288  0.235004  1
  Se  Se16  1  0.469170  0.938339  0.555282  1
  Se  Se17  1  0.061600  0.530799  0.555315  1
  Se  Se18  1  0.469199  0.530799  0.555315  1
  Se  Se19  1  0.872289  0.744576  0.735003  1
  Se  Se20  1  0.255426  0.127713  0.735004  1
  Se  Se21  1  0.872287  0.127714  0.735004  1
  O  O22  1  0.666665  0.333329  0.457655  1
  O  O23  1  0.333335  0.666671  0.957655  1
