# generated using pymatgen
data_HfRuI18
_symmetry_space_group_name_H-M   'P 1'
_cell_length_a   10.10652108
_cell_length_b   10.10652050
_cell_length_c   10.10651879
_cell_angle_alpha   93.00778367
_cell_angle_beta   93.00777902
_cell_angle_gamma   93.00777464
_symmetry_Int_Tables_number   1
_chemical_formula_structural   HfRuI18
_chemical_formula_sum   'Hf1 Ru1 I18'
_cell_volume   1027.87575754
_cell_formula_units_Z   1
loop_
 _symmetry_equiv_pos_site_id
 _symmetry_equiv_pos_as_xyz
  1  'x, y, z'
loop_
 _atom_site_type_symbol
 _atom_site_label
 _atom_site_symmetry_multiplicity
 _atom_site_fract_x
 _atom_site_fract_y
 _atom_site_fract_z
 _atom_site_occupancy
  Hf  Hf0  1  0.500000  0.500000  0.500000  1
  Ru  Ru1  1  0.000000  0.000000  0.000000  1
  I  I2  1  0.999124  0.734258  0.974385  1
  I  I3  1  0.974385  0.999124  0.734258  1
  I  I4  1  0.734258  0.974385  0.999124  1
  I  I5  1  0.000876  0.265742  0.025615  1
  I  I6  1  0.025615  0.000876  0.265742  1
  I  I7  1  0.265742  0.025615  0.000876  1
  I  I8  1  0.490168  0.782112  0.519865  1
  I  I9  1  0.519865  0.490168  0.782112  1
  I  I10  1  0.782112  0.519865  0.490168  1
  I  I11  1  0.509832  0.217888  0.480135  1
  I  I12  1  0.480135  0.509832  0.217888  1
  I  I13  1  0.217888  0.480135  0.509832  1
  I  I14  1  0.634932  0.102062  0.230164  1
  I  I15  1  0.230164  0.634932  0.102062  1
  I  I16  1  0.102062  0.230164  0.634932  1
  I  I17  1  0.365068  0.897938  0.769836  1
  I  I18  1  0.769836  0.365068  0.897938  1
  I  I19  1  0.897938  0.769836  0.365068  1
