# generated using pymatgen
data_Ho6Al24NiOs3Ru3Pt
_symmetry_space_group_name_H-M   'P 1'
_cell_length_a   8.79525627
_cell_length_b   8.82125193
_cell_length_c   9.56509900
_cell_angle_alpha   90.19466796
_cell_angle_beta   89.82446933
_cell_angle_gamma   119.98624716
_symmetry_Int_Tables_number   1
_chemical_formula_structural   Ho6Al24NiOs3Ru3Pt
_chemical_formula_sum   'Ho6 Al24 Ni1 Os3 Ru3 Pt1'
_cell_volume   642.77051643
_cell_formula_units_Z   1
loop_
 _symmetry_equiv_pos_site_id
 _symmetry_equiv_pos_as_xyz
  1  'x, y, z'
loop_
 _atom_site_type_symbol
 _atom_site_label
 _atom_site_symmetry_multiplicity
 _atom_site_fract_x
 _atom_site_fract_y
 _atom_site_fract_z
 _atom_site_occupancy
  Ho  Ho0  1  0.192999  0.383819  0.248396  1
  Ho  Ho1  1  0.807001  0.616181  0.751604  1
  Ho  Ho2  1  0.610541  0.809284  0.247938  1
  Ho  Ho3  1  0.389459  0.190716  0.752062  1
  Ho  Ho4  1  0.196971  0.810439  0.248253  1
  Ho  Ho5  1  0.803029  0.189561  0.751747  1
  Al  Al6  1  0.329920  0.665037  0.022335  1
  Al  Al7  1  0.670080  0.334963  0.977665  1
  Al  Al8  1  0.670859  0.331545  0.525305  1
  Al  Al9  1  0.329141  0.668455  0.474695  1
  Al  Al10  1  0.156577  0.324474  0.577480  1
  Al  Al11  1  0.843423  0.675526  0.422520  1
  Al  Al12  1  0.674446  0.841403  0.577112  1
  Al  Al13  1  0.835497  0.674311  0.077086  1
  Al  Al14  1  0.325554  0.158597  0.422888  1
  Al  Al15  1  0.164503  0.325689  0.922914  1
  Al  Al16  1  0.161978  0.835037  0.577727  1
  Al  Al17  1  0.328105  0.164916  0.076435  1
  Al  Al18  1  0.838022  0.164963  0.422273  1
  Al  Al19  1  0.671895  0.835084  0.923565  1
  Al  Al20  1  0.836242  0.163169  0.077527  1
  Al  Al21  1  0.163758  0.836831  0.922473  1
  Al  Al22  1  0.561785  0.125664  0.250165  1
  Al  Al23  1  0.438215  0.874336  0.749835  1
  Al  Al24  1  0.882182  0.442048  0.247897  1
  Al  Al25  1  0.117818  0.557952  0.752103  1
  Al  Al26  1  0.563394  0.437476  0.246924  1
  Al  Al27  1  0.436606  0.562524  0.753076  1
  Al  Al28  1  0.999564  0.001061  0.249904  1
  Al  Al29  1  0.000436  0.998939  0.750096  1
  Ni  Ni30  1  0.000000  0.500000  0.000000  1
  Os  Os31  1  0.500000  0.000000  0.000000  1
  Os  Os32  1  0.500000  0.000000  0.500000  1
  Os  Os33  1  0.500000  0.500000  0.000000  1
  Ru  Ru34  1  0.000000  0.500000  0.500000  1
  Ru  Ru35  1  0.000000  0.000000  0.000000  1
  Ru  Ru36  1  0.000000  0.000000  0.500000  1
  Pt  Pt37  1  0.500000  0.500000  0.500000  1
