# generated using pymatgen
data_YbBrClO3
_symmetry_space_group_name_H-M   'P 1'
_cell_length_a   6.91046600
_cell_length_b   7.06001000
_cell_length_c   8.67782400
_cell_angle_alpha   90.00000000
_cell_angle_beta   90.00000000
_cell_angle_gamma   90.00000000
_symmetry_Int_Tables_number   1
_chemical_formula_structural   YbBrClO3
_chemical_formula_sum   'Yb4 Br4 Cl4 O12'
_cell_volume   423.37332208
_cell_formula_units_Z   4
loop_
 _symmetry_equiv_pos_site_id
 _symmetry_equiv_pos_as_xyz
  1  'x, y, z'
loop_
 _atom_site_type_symbol
 _atom_site_label
 _atom_site_symmetry_multiplicity
 _atom_site_fract_x
 _atom_site_fract_y
 _atom_site_fract_z
 _atom_site_occupancy
  Yb  Yb0  1  0.612168  0.250000  0.052967  1
  Yb  Yb1  1  0.112169  0.250000  0.447034  1
  Yb  Yb2  1  0.887832  0.750000  0.552967  1
  Yb  Yb3  1  0.387831  0.750000  0.947033  1
  Br  Br4  1  0.796005  0.750000  0.127181  1
  Br  Br5  1  0.296005  0.750000  0.372820  1
  Br  Br6  1  0.703995  0.250000  0.627180  1
  Br  Br7  1  0.203994  0.250000  0.872820  1
  Cl  Cl8  1  0.977912  0.250000  0.160869  1
  Cl  Cl9  1  0.477910  0.250000  0.339130  1
  Cl  Cl10  1  0.522089  0.750000  0.660869  1
  Cl  Cl11  1  0.022089  0.750000  0.839130  1
  O  O12  1  0.657257  0.572970  0.055771  1
  O  O13  1  0.657257  0.927030  0.055771  1
  O  O14  1  0.243164  0.750000  0.184950  1
  O  O15  1  0.743164  0.750000  0.315050  1
  O  O16  1  0.157257  0.572970  0.444228  1
  O  O17  1  0.157257  0.927030  0.444228  1
  O  O18  1  0.842744  0.072970  0.555772  1
  O  O19  1  0.842744  0.427030  0.555772  1
  O  O20  1  0.256837  0.250000  0.684951  1
  O  O21  1  0.756837  0.250000  0.815050  1
  O  O22  1  0.342743  0.072970  0.944228  1
  O  O23  1  0.342743  0.427030  0.944228  1
