# generated using pymatgen
data_Li7Pr8Cd(SnPb3)2
_symmetry_space_group_name_H-M   'P 1'
_cell_length_a   9.74927428
_cell_length_b   9.74927480
_cell_length_c   7.74387113
_cell_angle_alpha   89.95890959
_cell_angle_beta   90.04108993
_cell_angle_gamma   119.94630475
_symmetry_Int_Tables_number   1
_chemical_formula_structural   Li7Pr8Cd(SnPb3)2
_chemical_formula_sum   'Li7 Pr8 Cd1 Sn2 Pb6'
_cell_volume   637.77564354
_cell_formula_units_Z   1
loop_
 _symmetry_equiv_pos_site_id
 _symmetry_equiv_pos_as_xyz
  1  'x, y, z'
loop_
 _atom_site_type_symbol
 _atom_site_label
 _atom_site_symmetry_multiplicity
 _atom_site_fract_x
 _atom_site_fract_y
 _atom_site_fract_z
 _atom_site_occupancy
  Li  Li0  1  0.834801  0.666049  0.712533  1
  Li  Li1  1  0.333951  0.165199  0.712533  1
  Li  Li2  1  0.167484  0.832516  0.210746  1
  Li  Li3  1  0.167839  0.335178  0.212612  1
  Li  Li4  1  0.664822  0.832161  0.212612  1
  Li  Li5  1  0.666466  0.333534  0.327061  1
  Li  Li6  1  0.331601  0.668399  0.829802  1
  Pr  Pr7  1  0.488233  0.511767  0.501841  1
  Pr  Pr8  1  0.483798  0.973678  0.503037  1
  Pr  Pr9  1  0.026322  0.516202  0.503037  1
  Pr  Pr10  1  0.511648  0.488352  0.010564  1
  Pr  Pr11  1  0.511221  0.023492  0.005588  1
  Pr  Pr12  1  0.976508  0.488779  0.005588  1
  Pr  Pr13  1  0.003299  0.996701  0.497939  1
  Pr  Pr14  1  0.999453  0.000547  0.000082  1
  Cd  Cd15  1  0.831970  0.168030  0.705580  1
  Sn  Sn16  1  0.661519  0.338481  0.736739  1
  Sn  Sn17  1  0.333108  0.666892  0.232762  1
  Pb  Pb18  1  0.833732  0.166268  0.271344  1
  Pb  Pb19  1  0.833721  0.666486  0.270877  1
  Pb  Pb20  1  0.333514  0.166279  0.270877  1
  Pb  Pb21  1  0.166438  0.833562  0.771624  1
  Pb  Pb22  1  0.177064  0.338512  0.776315  1
  Pb  Pb23  1  0.661488  0.822936  0.776315  1
