# generated using pymatgen
data_DyLu3(GaCo)4
_symmetry_space_group_name_H-M   'P 1'
_cell_length_a   4.32998900
_cell_length_b   6.93221124
_cell_length_c   6.89632793
_cell_angle_alpha   89.95533841
_cell_angle_beta   90.00000000
_cell_angle_gamma   90.00000000
_symmetry_Int_Tables_number   1
_chemical_formula_structural   DyLu3(GaCo)4
_chemical_formula_sum   'Dy1 Lu3 Ga4 Co4'
_cell_volume   207.00286365
_cell_formula_units_Z   1
loop_
 _symmetry_equiv_pos_site_id
 _symmetry_equiv_pos_as_xyz
  1  'x, y, z'
loop_
 _atom_site_type_symbol
 _atom_site_label
 _atom_site_symmetry_multiplicity
 _atom_site_fract_x
 _atom_site_fract_y
 _atom_site_fract_z
 _atom_site_occupancy
  Dy  Dy0  1  0.750000  0.805246  0.983894  1
  Lu  Lu1  1  0.250000  0.302242  0.518323  1
  Lu  Lu2  1  0.250000  0.199865  0.017732  1
  Lu  Lu3  1  0.750000  0.697400  0.483050  1
  Ga  Ga4  1  0.250000  0.896270  0.696689  1
  Ga  Ga5  1  0.250000  0.601939  0.199881  1
  Ga  Ga6  1  0.750000  0.106491  0.301957  1
  Ga  Ga7  1  0.750000  0.393388  0.801188  1
  Co  Co8  1  0.250000  0.938380  0.341891  1
  Co  Co9  1  0.250000  0.559628  0.840493  1
  Co  Co10  1  0.750000  0.062955  0.655205  1
  Co  Co11  1  0.750000  0.436194  0.159697  1
