# generated using pymatgen
data_LiLa2Tm4Rh17
_symmetry_space_group_name_H-M   'P 1'
_cell_length_a   5.30645100
_cell_length_b   5.30644906
_cell_length_c   17.35223300
_cell_angle_alpha   90.00000000
_cell_angle_beta   90.00000000
_cell_angle_gamma   119.99999337
_symmetry_Int_Tables_number   1
_chemical_formula_structural   LiLa2Tm4Rh17
_chemical_formula_sum   'Li1 La2 Tm4 Rh17'
_cell_volume   423.14984821
_cell_formula_units_Z   1
loop_
 _symmetry_equiv_pos_site_id
 _symmetry_equiv_pos_as_xyz
  1  'x, y, z'
loop_
 _atom_site_type_symbol
 _atom_site_label
 _atom_site_symmetry_multiplicity
 _atom_site_fract_x
 _atom_site_fract_y
 _atom_site_fract_z
 _atom_site_occupancy
  Li  Li0  1  0.000000  0.000000  0.250000  1
  La  La1  1  0.333333  0.666667  0.750000  1
  La  La2  1  0.666667  0.333333  0.250000  1
  Tm  Tm3  1  0.333333  0.666667  0.537540  1
  Tm  Tm4  1  0.666667  0.333333  0.041347  1
  Tm  Tm5  1  0.666667  0.333333  0.458653  1
  Tm  Tm6  1  0.333333  0.666667  0.962460  1
  Rh  Rh7  1  0.167959  0.335916  0.124297  1
  Rh  Rh8  1  0.832272  0.664543  0.622704  1
  Rh  Rh9  1  0.664084  0.832041  0.124297  1
  Rh  Rh10  1  0.167959  0.832041  0.124297  1
  Rh  Rh11  1  0.832272  0.167728  0.622704  1
  Rh  Rh12  1  0.335457  0.167728  0.622704  1
  Rh  Rh13  1  0.832272  0.664543  0.877296  1
  Rh  Rh14  1  0.832272  0.167728  0.877296  1
  Rh  Rh15  1  0.335457  0.167728  0.877296  1
  Rh  Rh16  1  0.664084  0.832041  0.375703  1
  Rh  Rh17  1  0.167959  0.832041  0.375703  1
  Rh  Rh18  1  0.167959  0.335916  0.375703  1
  Rh  Rh19  1  0.000000  0.000000  0.750000  1
  Rh  Rh20  1  0.333333  0.666667  0.250000  1
  Rh  Rh21  1  0.666667  0.333333  0.750000  1
  Rh  Rh22  1  0.000000  0.000000  0.001973  1
  Rh  Rh23  1  0.000000  0.000000  0.498027  1
