# generated using pymatgen
data_Sc5Co19(Si2P)4
_symmetry_space_group_name_H-M   'P 1'
_cell_length_a   11.97871075
_cell_length_b   11.97661783
_cell_length_c   3.62009700
_cell_angle_alpha   90.00000000
_cell_angle_beta   90.00000000
_cell_angle_gamma   119.98161570
_symmetry_Int_Tables_number   1
_chemical_formula_structural   Sc5Co19(Si2P)4
_chemical_formula_sum   'Sc5 Co19 Si8 P4'
_cell_volume   449.85808811
_cell_formula_units_Z   1
loop_
 _symmetry_equiv_pos_site_id
 _symmetry_equiv_pos_as_xyz
  1  'x, y, z'
loop_
 _atom_site_type_symbol
 _atom_site_label
 _atom_site_symmetry_multiplicity
 _atom_site_fract_x
 _atom_site_fract_y
 _atom_site_fract_z
 _atom_site_occupancy
  Sc  Sc0  1  0.332952  0.666234  0.500000  1
  Sc  Sc1  1  0.667045  0.331492  0.500000  1
  Sc  Sc2  1  0.001171  0.183755  0.000000  1
  Sc  Sc3  1  0.815803  0.816474  0.000000  1
  Sc  Sc4  1  0.184665  0.999978  0.000000  1
  Co  Co5  1  0.629349  0.825628  0.500000  1
  Co  Co6  1  0.175830  0.804234  0.500000  1
  Co  Co7  1  0.195118  0.370352  0.500000  1
  Co  Co8  1  0.373234  0.195576  0.500000  1
  Co  Co9  1  0.824149  0.628542  0.500000  1
  Co  Co10  1  0.798918  0.175874  0.500000  1
  Co  Co11  1  0.999250  0.556024  0.500000  1
  Co  Co12  1  0.442649  0.442973  0.500000  1
  Co  Co13  1  0.554505  0.997408  0.500000  1
  Co  Co14  1  0.521023  0.646127  0.000000  1
  Co  Co15  1  0.353973  0.875073  0.000000  1
  Co  Co16  1  0.123806  0.477954  0.000000  1
  Co  Co17  1  0.486484  0.125971  0.000000  1
  Co  Co18  1  0.645535  0.520726  0.000000  1
  Co  Co19  1  0.873002  0.352312  0.000000  1
  Co  Co20  1  0.999831  0.723526  0.000000  1
  Co  Co21  1  0.277166  0.276023  0.000000  1
  Co  Co22  1  0.722189  0.004366  0.000000  1
  Co  Co23  1  0.999187  0.000186  0.500000  1
  Si  Si24  1  0.999308  0.364979  0.500000  1
  Si  Si25  1  0.634097  0.634336  0.500000  1
  Si  Si26  1  0.366000  0.000301  0.500000  1
  Si  Si27  1  0.518681  0.837727  0.000000  1
  Si  Si28  1  0.161673  0.680422  0.000000  1
  Si  Si29  1  0.318677  0.480658  0.000000  1
  Si  Si30  1  0.481978  0.318474  0.000000  1
  Si  Si31  1  0.837589  0.518852  0.000000  1
  P  P32  1  0.684858  0.166632  0.000000  1
  P  P33  1  0.999879  0.822198  0.500000  1
  P  P34  1  0.178781  0.177278  0.500000  1
  P  P35  1  0.821646  0.001335  0.500000  1
