# generated using pymatgen
data_NdSm3(AuO3)4
_symmetry_space_group_name_H-M   'P 1'
_cell_length_a   3.96386284
_cell_length_b   5.67291200
_cell_length_c   13.03024622
_cell_angle_alpha   89.99993746
_cell_angle_beta   89.92257485
_cell_angle_gamma   90.00010471
_symmetry_Int_Tables_number   1
_chemical_formula_structural   NdSm3(AuO3)4
_chemical_formula_sum   'Nd1 Sm3 Au4 O12'
_cell_volume   293.00625466
_cell_formula_units_Z   1
loop_
 _symmetry_equiv_pos_site_id
 _symmetry_equiv_pos_as_xyz
  1  'x, y, z'
loop_
 _atom_site_type_symbol
 _atom_site_label
 _atom_site_symmetry_multiplicity
 _atom_site_fract_x
 _atom_site_fract_y
 _atom_site_fract_z
 _atom_site_occupancy
  Nd  Nd0  1  0.734082  0.750000  0.578128  1
  Sm  Sm1  1  0.264149  0.750001  0.078496  1
  Sm  Sm2  1  0.259451  0.250000  0.420643  1
  Sm  Sm3  1  0.739789  0.250000  0.923190  1
  Au  Au4  1  0.070275  0.749999  0.831679  1
  Au  Au5  1  0.064651  0.250000  0.670049  1
  Au  Au6  1  0.934778  0.250001  0.169445  1
  Au  Au7  1  0.932847  0.750000  0.329455  1
  O  O8  1  0.190790  0.500274  0.249381  1
  O  O9  1  0.813128  0.000877  0.752176  1
  O  O10  1  0.813127  0.499121  0.752176  1
  O  O11  1  0.190789  0.999726  0.249381  1
  O  O12  1  0.744040  0.498975  0.076106  1
  O  O13  1  0.740593  0.499620  0.422026  1
  O  O14  1  0.259307  0.999157  0.925168  1
  O  O15  1  0.252134  0.004432  0.574600  1
  O  O16  1  0.740592  0.000378  0.422026  1
  O  O17  1  0.744040  0.001028  0.076106  1
  O  O18  1  0.252133  0.495570  0.574600  1
  O  O19  1  0.259304  0.500841  0.925169  1
