# generated using pymatgen
data_Tb3Ho3MnCo17P12
_symmetry_space_group_name_H-M   'P 1'
_cell_length_a   3.68935100
_cell_length_b   10.51409202
_cell_length_c   12.17835203
_cell_angle_alpha   89.99256131
_cell_angle_beta   90.00000000
_cell_angle_gamma   90.00000000
_symmetry_Int_Tables_number   1
_chemical_formula_structural   Tb3Ho3MnCo17P12
_chemical_formula_sum   'Tb3 Ho3 Mn1 Co17 P12'
_cell_volume   472.40041346
_cell_formula_units_Z   1
loop_
 _symmetry_equiv_pos_site_id
 _symmetry_equiv_pos_as_xyz
  1  'x, y, z'
loop_
 _atom_site_type_symbol
 _atom_site_label
 _atom_site_symmetry_multiplicity
 _atom_site_fract_x
 _atom_site_fract_y
 _atom_site_fract_z
 _atom_site_occupancy
  Tb  Tb0  1  0.000000  0.500029  0.522858  1
  Tb  Tb1  1  0.500000  0.999994  0.477830  1
  Tb  Tb2  1  0.000000  0.317313  0.794995  1
  Ho  Ho3  1  0.500000  0.818036  0.206048  1
  Ho  Ho4  1  0.500000  0.181881  0.206120  1
  Ho  Ho5  1  0.000000  0.683013  0.795118  1
  Mn  Mn6  1  0.500000  0.500090  0.159137  1
  Co  Co7  1  0.000000  0.999894  0.840584  1
  Co  Co8  1  0.500000  0.500591  0.703280  1
  Co  Co9  1  0.000000  0.999950  0.296044  1
  Co  Co10  1  0.000000  0.500312  0.986133  1
  Co  Co11  1  0.500000  0.999717  0.014245  1
  Co  Co12  1  0.500000  0.333285  0.994512  1
  Co  Co13  1  0.500000  0.667003  0.994190  1
  Co  Co14  1  0.000000  0.166289  0.005934  1
  Co  Co15  1  0.000000  0.833424  0.005650  1
  Co  Co16  1  0.500000  0.296782  0.429767  1
  Co  Co17  1  0.500000  0.703245  0.429901  1
  Co  Co18  1  0.000000  0.203108  0.568999  1
  Co  Co19  1  0.000000  0.796776  0.569371  1
  Co  Co20  1  0.500000  0.879181  0.709533  1
  Co  Co21  1  0.500000  0.120185  0.709182  1
  Co  Co22  1  0.000000  0.620591  0.289958  1
  Co  Co23  1  0.000000  0.379416  0.289932  1
  P  P24  1  0.500000  0.500578  0.882785  1
  P  P25  1  0.000000  0.999880  0.117174  1
  P  P26  1  0.500000  0.500003  0.345269  1
  P  P27  1  0.000000  0.000010  0.657055  1
  P  P28  1  0.500000  0.310061  0.615809  1
  P  P29  1  0.500000  0.689948  0.616528  1
  P  P30  1  0.000000  0.189195  0.383686  1
  P  P31  1  0.000000  0.810745  0.383760  1
  P  P32  1  0.500000  0.847980  0.892815  1
  P  P33  1  0.500000  0.151412  0.893215  1
  P  P34  1  0.000000  0.653626  0.106336  1
  P  P35  1  0.000000  0.346455  0.106245  1
