# generated using pymatgen
data_Nd3SmCSe3
_symmetry_space_group_name_H-M   'P 1'
_cell_length_a   7.16744101
_cell_length_b   7.16744054
_cell_length_c   7.21591600
_cell_angle_alpha   79.30481141
_cell_angle_beta   79.30481213
_cell_angle_gamma   32.50773228
_symmetry_Int_Tables_number   1
_chemical_formula_structural   Nd3SmCSe3
_chemical_formula_sum   'Nd3 Sm1 C1 Se3'
_cell_volume   195.46010813
_cell_formula_units_Z   1
loop_
 _symmetry_equiv_pos_site_id
 _symmetry_equiv_pos_as_xyz
  1  'x, y, z'
loop_
 _atom_site_type_symbol
 _atom_site_label
 _atom_site_symmetry_multiplicity
 _atom_site_fract_x
 _atom_site_fract_y
 _atom_site_fract_z
 _atom_site_occupancy
  Nd  Nd0  1  0.769255  0.769255  0.773502  1
  Nd  Nd1  1  0.489616  0.489616  0.540668  1
  Nd  Nd2  1  0.259922  0.259922  0.209391  1
  Sm  Sm3  1  0.980857  0.980857  0.975999  1
  C  C4  1  0.376606  0.376606  0.877061  1
  Se  Se5  1  0.133479  0.133479  0.624423  1
  Se  Se6  1  0.875628  0.875628  0.372766  1
  Se  Se7  1  0.614638  0.614638  0.126190  1
