# generated using pymatgen
data_LiB4Ir4Pd3
_symmetry_space_group_name_H-M   'P 1'
_cell_length_a   6.83519725
_cell_length_b   6.08869381
_cell_length_c   5.52384276
_cell_angle_alpha   70.39800583
_cell_angle_beta   58.02825371
_cell_angle_gamma   50.41144115
_symmetry_Int_Tables_number   1
_chemical_formula_structural   LiB4Ir4Pd3
_chemical_formula_sum   'Li1 B4 Ir4 Pd3'
_cell_volume   150.28672767
_cell_formula_units_Z   1
loop_
 _symmetry_equiv_pos_site_id
 _symmetry_equiv_pos_as_xyz
  1  'x, y, z'
loop_
 _atom_site_type_symbol
 _atom_site_label
 _atom_site_symmetry_multiplicity
 _atom_site_fract_x
 _atom_site_fract_y
 _atom_site_fract_z
 _atom_site_occupancy
  Li  Li0  1  0.945127  0.779864  0.392639  1
  B  B1  1  0.053795  0.981825  0.573187  1
  B  B2  1  0.677439  0.842627  0.190117  1
  B  B3  1  0.415977  0.561643  0.966487  1
  B  B4  1  0.268802  0.201347  0.846554  1
  Ir  Ir5  1  0.097827  0.638890  0.877295  1
  Ir  Ir6  1  0.375203  0.852344  0.150474  1
  Ir  Ir7  1  0.613385  0.150610  0.849044  1
  Ir  Ir8  1  0.393734  0.872733  0.631538  1
  Pd  Pd9  1  0.467970  0.300480  0.367186  1
  Pd  Pd10  1  0.861969  0.367992  0.312908  1
  Pd  Pd11  1  0.883972  0.394444  0.787371  1
