# generated using pymatgen
data_TbYbSn5Pd3
_symmetry_space_group_name_H-M   'P 1'
_cell_length_a   13.84067785
_cell_length_b   13.84067770
_cell_length_c   7.48269800
_cell_angle_alpha   90.00000000
_cell_angle_beta   90.00000000
_cell_angle_gamma   161.59565762
_symmetry_Int_Tables_number   1
_chemical_formula_structural   TbYbSn5Pd3
_chemical_formula_sum   'Tb2 Yb2 Sn10 Pd6'
_cell_volume   452.56017597
_cell_formula_units_Z   2
loop_
 _symmetry_equiv_pos_site_id
 _symmetry_equiv_pos_as_xyz
  1  'x, y, z'
loop_
 _atom_site_type_symbol
 _atom_site_label
 _atom_site_symmetry_multiplicity
 _atom_site_fract_x
 _atom_site_fract_y
 _atom_site_fract_z
 _atom_site_occupancy
  Tb  Tb0  1  0.478442  0.521558  0.735709  1
  Tb  Tb1  1  0.521558  0.478442  0.235709  1
  Yb  Yb2  1  0.173862  0.826138  0.756647  1
  Yb  Yb3  1  0.826138  0.173862  0.256647  1
  Sn  Sn4  1  0.881381  0.118619  0.731973  1
  Sn  Sn5  1  0.118619  0.881381  0.231973  1
  Sn  Sn6  1  0.702914  0.297086  0.050046  1
  Sn  Sn7  1  0.297086  0.702914  0.550046  1
  Sn  Sn8  1  0.598605  0.401395  0.609651  1
  Sn  Sn9  1  0.401395  0.598605  0.109651  1
  Sn  Sn10  1  0.953582  0.046418  0.399657  1
  Sn  Sn11  1  0.046418  0.953582  0.899657  1
  Sn  Sn12  1  0.289361  0.710639  0.978982  1
  Sn  Sn13  1  0.710639  0.289361  0.478982  1
  Pd  Pd14  1  0.048976  0.951024  0.515746  1
  Pd  Pd15  1  0.951024  0.048976  0.015746  1
  Pd  Pd16  1  0.777037  0.222963  0.770906  1
  Pd  Pd17  1  0.222963  0.777037  0.270906  1
  Pd  Pd18  1  0.396293  0.603707  0.478680  1
  Pd  Pd19  1  0.603707  0.396293  0.978680  1
