# generated using pymatgen
data_Ca2YbPrBi3
_symmetry_space_group_name_H-M   'P 1'
_cell_length_a   8.41070367
_cell_length_b   8.47047637
_cell_length_c   8.40808213
_cell_angle_alpha   109.48675269
_cell_angle_beta   109.16466771
_cell_angle_gamma   109.50636933
_symmetry_Int_Tables_number   1
_chemical_formula_structural   Ca2YbPrBi3
_chemical_formula_sum   'Ca4 Yb2 Pr2 Bi6'
_cell_volume   462.56785081
_cell_formula_units_Z   2
loop_
 _symmetry_equiv_pos_site_id
 _symmetry_equiv_pos_as_xyz
  1  'x, y, z'
loop_
 _atom_site_type_symbol
 _atom_site_label
 _atom_site_symmetry_multiplicity
 _atom_site_fract_x
 _atom_site_fract_y
 _atom_site_fract_z
 _atom_site_occupancy
  Ca  Ca0  1  0.501726  0.001810  0.143447  1
  Ca  Ca1  1  0.643317  0.501633  0.001605  1
  Ca  Ca2  1  0.998736  0.642945  0.500277  1
  Ca  Ca3  1  0.857382  0.855782  0.857138  1
  Yb  Yb4  1  0.000450  0.143094  0.498757  1
  Yb  Yb5  1  0.356987  0.355738  0.357359  1
  Pr  Pr6  1  0.141607  0.499446  0.000155  1
  Pr  Pr7  1  0.500258  0.999716  0.641785  1
  Bi  Bi8  1  0.624403  0.748540  0.374839  1
  Bi  Bi9  1  0.750441  0.375735  0.624578  1
  Bi  Bi10  1  0.250241  0.125632  0.874812  1
  Bi  Bi11  1  0.374653  0.625272  0.749977  1
  Bi  Bi12  1  0.124846  0.876187  0.250750  1
  Bi  Bi13  1  0.874952  0.248468  0.124520  1
