# generated using pymatgen
data_Tb4TcIrRu6
_symmetry_space_group_name_H-M   'P 1'
_cell_length_a   5.21726425
_cell_length_b   5.39504679
_cell_length_c   9.04349926
_cell_angle_alpha   90.00000403
_cell_angle_beta   90.09507356
_cell_angle_gamma   121.13377193
_symmetry_Int_Tables_number   1
_chemical_formula_structural   Tb4TcIrRu6
_chemical_formula_sum   'Tb4 Tc1 Ir1 Ru6'
_cell_volume   217.88556870
_cell_formula_units_Z   1
loop_
 _symmetry_equiv_pos_site_id
 _symmetry_equiv_pos_as_xyz
  1  'x, y, z'
loop_
 _atom_site_type_symbol
 _atom_site_label
 _atom_site_symmetry_multiplicity
 _atom_site_fract_x
 _atom_site_fract_y
 _atom_site_fract_z
 _atom_site_occupancy
  Tb  Tb0  1  0.330922  0.665462  0.432041  1
  Tb  Tb1  1  0.662393  0.331196  0.565886  1
  Tb  Tb2  1  0.656867  0.328433  0.933464  1
  Tb  Tb3  1  0.326735  0.663369  0.068498  1
  Tc  Tc4  1  0.676722  0.838361  0.751797  1
  Ir  Ir5  1  0.993096  0.996548  0.499355  1
  Ru  Ru6  1  0.985051  0.992525  0.000712  1
  Ru  Ru7  1  0.830840  0.165272  0.250140  1
  Ru  Ru8  1  0.830840  0.665568  0.250140  1
  Ru  Ru9  1  0.350143  0.175071  0.249137  1
  Ru  Ru10  1  0.178196  0.828962  0.749415  1
  Ru  Ru11  1  0.178196  0.349234  0.749415  1
