# generated using pymatgen
data_Mg2Ta2Ni9P7W
_symmetry_space_group_name_H-M   'P 1'
_cell_length_a   3.62864900
_cell_length_b   9.29330739
_cell_length_c   9.31128157
_cell_angle_alpha   120.30177471
_cell_angle_beta   90.00000000
_cell_angle_gamma   90.00000000
_symmetry_Int_Tables_number   1
_chemical_formula_structural   Mg2Ta2Ni9P7W
_chemical_formula_sum   'Mg2 Ta2 Ni9 P7 W1'
_cell_volume   271.09822119
_cell_formula_units_Z   1
loop_
 _symmetry_equiv_pos_site_id
 _symmetry_equiv_pos_as_xyz
  1  'x, y, z'
loop_
 _atom_site_type_symbol
 _atom_site_label
 _atom_site_symmetry_multiplicity
 _atom_site_fract_x
 _atom_site_fract_y
 _atom_site_fract_z
 _atom_site_occupancy
  Mg  Mg0  1  0.000000  0.666551  0.331956  1
  Mg  Mg1  1  0.500000  0.332209  0.667066  1
  Ta  Ta2  1  0.500000  0.120836  0.226217  1
  Ta  Ta3  1  0.500000  0.103541  0.877855  1
  Ni  Ni4  1  0.000000  0.561408  0.928134  1
  Ni  Ni5  1  0.000000  0.370757  0.442747  1
  Ni  Ni6  1  0.000000  0.069535  0.630691  1
  Ni  Ni7  1  0.500000  0.932991  0.381090  1
  Ni  Ni8  1  0.500000  0.450767  0.066589  1
  Ni  Ni9  1  0.500000  0.616675  0.554011  1
  Ni  Ni10  1  0.000000  0.869868  0.155796  1
  Ni  Ni11  1  0.000000  0.286963  0.130439  1
  Ni  Ni12  1  0.000000  0.840166  0.713209  1
  P  P13  1  0.500000  0.707751  0.117829  1
  P  P14  1  0.500000  0.417166  0.293200  1
  P  P15  1  0.500000  0.876108  0.582187  1
  P  P16  1  0.000000  0.997810  0.998815  1
  P  P17  1  0.000000  0.585708  0.701045  1
  P  P18  1  0.000000  0.114392  0.417785  1
  P  P19  1  0.000000  0.303425  0.885852  1
  W  W20  1  0.500000  0.775371  0.897488  1
