# generated using pymatgen
data_Sc6AlFeO12
_symmetry_space_group_name_H-M   'P 1'
_cell_length_a   6.12730345
_cell_length_b   6.12730367
_cell_length_c   6.12730400
_cell_angle_alpha   91.96153722
_cell_angle_beta   91.96154665
_cell_angle_gamma   91.96153777
_symmetry_Int_Tables_number   1
_chemical_formula_structural   Sc6AlFeO12
_chemical_formula_sum   'Sc6 Al1 Fe1 O12'
_cell_volume   229.62870117
_cell_formula_units_Z   1
loop_
 _symmetry_equiv_pos_site_id
 _symmetry_equiv_pos_as_xyz
  1  'x, y, z'
loop_
 _atom_site_type_symbol
 _atom_site_label
 _atom_site_symmetry_multiplicity
 _atom_site_fract_x
 _atom_site_fract_y
 _atom_site_fract_z
 _atom_site_occupancy
  Sc  Sc0  1  0.744365  0.929464  0.437446  1
  Sc  Sc1  1  0.070536  0.562554  0.255635  1
  Sc  Sc2  1  0.562554  0.255635  0.070536  1
  Sc  Sc3  1  0.437446  0.744365  0.929464  1
  Sc  Sc4  1  0.929464  0.437446  0.744365  1
  Sc  Sc5  1  0.255635  0.070536  0.562554  1
  Al  Al6  1  0.500000  0.500000  0.500000  1
  Fe  Fe7  1  0.000000  0.000000  0.000000  1
  O  O8  1  0.688258  0.926438  0.086042  1
  O  O9  1  0.073562  0.913958  0.311742  1
  O  O10  1  0.411173  0.540110  0.199819  1
  O  O11  1  0.913958  0.311742  0.073562  1
  O  O12  1  0.459890  0.800181  0.588827  1
  O  O13  1  0.800181  0.588827  0.459890  1
  O  O14  1  0.199819  0.411173  0.540110  1
  O  O15  1  0.540110  0.199819  0.411173  1
  O  O16  1  0.086042  0.688258  0.926438  1
  O  O17  1  0.588827  0.459890  0.800181  1
  O  O18  1  0.926438  0.086042  0.688258  1
  O  O19  1  0.311742  0.073562  0.913958  1
