# generated using pymatgen
data_Gd8AlSi11Ir4
_symmetry_space_group_name_H-M   'P 1'
_cell_length_a   8.10882501
_cell_length_b   8.10882650
_cell_length_c   8.31684700
_cell_angle_alpha   89.99694049
_cell_angle_beta   90.00305952
_cell_angle_gamma   119.95560707
_symmetry_Int_Tables_number   1
_chemical_formula_structural   Gd8AlSi11Ir4
_chemical_formula_sum   'Gd8 Al1 Si11 Ir4'
_cell_volume   473.80471662
_cell_formula_units_Z   1
loop_
 _symmetry_equiv_pos_site_id
 _symmetry_equiv_pos_as_xyz
  1  'x, y, z'
loop_
 _atom_site_type_symbol
 _atom_site_label
 _atom_site_symmetry_multiplicity
 _atom_site_fract_x
 _atom_site_fract_y
 _atom_site_fract_z
 _atom_site_occupancy
  Gd  Gd0  1  0.499471  0.500529  0.750874  1
  Gd  Gd1  1  0.500151  0.499849  0.249082  1
  Gd  Gd2  1  0.000701  0.501594  0.751134  1
  Gd  Gd3  1  0.999509  0.501130  0.248939  1
  Gd  Gd4  1  0.498406  0.999299  0.751134  1
  Gd  Gd5  1  0.498870  0.000491  0.248939  1
  Gd  Gd6  1  0.002229  0.997771  0.748123  1
  Gd  Gd7  1  0.002160  0.997840  0.251814  1
  Al  Al8  1  0.833242  0.166758  0.000175  1
  Si  Si9  1  0.165969  0.834031  0.999781  1
  Si  Si10  1  0.331840  0.165594  0.000221  1
  Si  Si11  1  0.166563  0.833437  0.500226  1
  Si  Si12  1  0.666275  0.829536  0.999836  1
  Si  Si13  1  0.833894  0.166106  0.499731  1
  Si  Si14  1  0.834406  0.668160  0.000221  1
  Si  Si15  1  0.667239  0.833600  0.500176  1
  Si  Si16  1  0.170464  0.333725  0.999836  1
  Si  Si17  1  0.333060  0.166909  0.499803  1
  Si  Si18  1  0.166400  0.332761  0.500176  1
  Si  Si19  1  0.833091  0.666940  0.499803  1
  Ir  Ir20  1  0.663023  0.336977  0.998451  1
  Ir  Ir21  1  0.332626  0.667374  0.001402  1
  Ir  Ir22  1  0.333565  0.666435  0.498957  1
  Ir  Ir23  1  0.666846  0.333154  0.501167  1
