# generated using pymatgen
data_Tm16ZnCd3Co4
_symmetry_space_group_name_H-M   'P 1'
_cell_length_a   9.32345253
_cell_length_b   9.34610383
_cell_length_c   9.34610300
_cell_angle_alpha   59.99999939
_cell_angle_beta   59.91959969
_cell_angle_gamma   59.91960125
_symmetry_Int_Tables_number   1
_chemical_formula_structural   Tm16ZnCd3Co4
_chemical_formula_sum   'Tm16 Zn1 Cd3 Co4'
_cell_volume   575.16716692
_cell_formula_units_Z   1
loop_
 _symmetry_equiv_pos_site_id
 _symmetry_equiv_pos_as_xyz
  1  'x, y, z'
loop_
 _atom_site_type_symbol
 _atom_site_label
 _atom_site_symmetry_multiplicity
 _atom_site_fract_x
 _atom_site_fract_y
 _atom_site_fract_z
 _atom_site_occupancy
  Tm  Tm0  1  0.596463  0.597540  0.597540  1
  Tm  Tm1  1  0.596463  0.597540  0.208457  1
  Tm  Tm2  1  0.596463  0.208457  0.597540  1
  Tm  Tm3  1  0.209485  0.596839  0.596839  1
  Tm  Tm4  1  0.062116  0.437909  0.437909  1
  Tm  Tm5  1  0.438406  0.061390  0.061390  1
  Tm  Tm6  1  0.438406  0.061390  0.438815  1
  Tm  Tm7  1  0.062116  0.437909  0.062064  1
  Tm  Tm8  1  0.438406  0.438815  0.061390  1
  Tm  Tm9  1  0.062116  0.062064  0.437909  1
  Tm  Tm10  1  0.192708  0.811760  0.811760  1
  Tm  Tm11  1  0.812845  0.187933  0.187933  1
  Tm  Tm12  1  0.812845  0.187933  0.811290  1
  Tm  Tm13  1  0.192708  0.811760  0.183773  1
  Tm  Tm14  1  0.812845  0.811290  0.187933  1
  Tm  Tm15  1  0.192708  0.183773  0.811760  1
  Zn  Zn16  1  0.505637  0.831454  0.831454  1
  Cd  Cd17  1  0.826091  0.831473  0.831473  1
  Cd  Cd18  1  0.826091  0.831473  0.510963  1
  Cd  Cd19  1  0.826091  0.510963  0.831473  1
  Co  Co20  1  0.391311  0.391366  0.391366  1
  Co  Co21  1  0.391311  0.391366  0.825958  1
  Co  Co22  1  0.391311  0.825958  0.391366  1
  Co  Co23  1  0.825058  0.391647  0.391647  1
