# generated using pymatgen
data_Tl2Pt(S4O13)2
_symmetry_space_group_name_H-M   'P 1'
_cell_length_a   7.57051711
_cell_length_b   8.79747203
_cell_length_c   9.17721700
_cell_angle_alpha   107.41941831
_cell_angle_beta   89.01481896
_cell_angle_gamma   107.27665684
_symmetry_Int_Tables_number   1
_chemical_formula_structural   Tl2Pt(S4O13)2
_chemical_formula_sum   'Tl2 Pt1 S8 O26'
_cell_volume   555.14468851
_cell_formula_units_Z   1
loop_
 _symmetry_equiv_pos_site_id
 _symmetry_equiv_pos_as_xyz
  1  'x, y, z'
loop_
 _atom_site_type_symbol
 _atom_site_label
 _atom_site_symmetry_multiplicity
 _atom_site_fract_x
 _atom_site_fract_y
 _atom_site_fract_z
 _atom_site_occupancy
  Tl  Tl0  1  0.129049  0.266294  0.882411  1
  Tl  Tl1  1  0.870951  0.733706  0.117589  1
  Pt  Pt2  1  0.500000  0.500000  0.500000  1
  S  S3  1  0.666763  0.359319  0.720031  1
  S  S4  1  0.333237  0.640681  0.279969  1
  S  S5  1  0.868067  0.186784  0.485201  1
  S  S6  1  0.131933  0.813216  0.514799  1
  S  S7  1  0.375837  0.154810  0.227756  1
  S  S8  1  0.624163  0.845190  0.772244  1
  S  S9  1  0.781644  0.234059  0.196365  1
  S  S10  1  0.218356  0.765941  0.803635  1
  O  O11  1  0.688802  0.182813  0.576963  1
  O  O12  1  0.311198  0.817187  0.423037  1
  O  O13  1  0.700787  0.484801  0.633963  1
  O  O14  1  0.299213  0.515199  0.366037  1
  O  O15  1  0.816658  0.406819  0.834400  1
  O  O16  1  0.183342  0.593181  0.165600  1
  O  O17  1  0.848439  0.305589  0.380684  1
  O  O18  1  0.151561  0.694411  0.619316  1
  O  O19  1  0.033613  0.283865  0.581697  1
  O  O20  1  0.966387  0.716135  0.418303  1
  O  O21  1  0.479568  0.294097  0.753534  1
  O  O22  1  0.520432  0.705903  0.246466  1
  O  O23  1  0.840814  0.019832  0.389357  1
  O  O24  1  0.159186  0.980168  0.610643  1
  O  O25  1  0.405230  0.248808  0.395832  1
  O  O26  1  0.594770  0.751192  0.604168  1
  O  O27  1  0.586427  0.102570  0.189379  1
  O  O28  1  0.413573  0.897430  0.810621  1
  O  O29  1  0.769338  0.379025  0.163671  1
  O  O30  1  0.230662  0.620975  0.836329  1
  O  O31  1  0.901313  0.141658  0.120353  1
  O  O32  1  0.098687  0.858342  0.879647  1
  O  O33  1  0.365671  0.248581  0.126321  1
  O  O34  1  0.634329  0.751419  0.873679  1
  O  O35  1  0.253654  0.989040  0.202609  1
  O  O36  1  0.746346  0.010960  0.797391  1
