# generated using pymatgen
data_Ac2Pd3Pb4
_symmetry_space_group_name_H-M   'P 1'
_cell_length_a   8.05542000
_cell_length_b   8.00518436
_cell_length_c   4.28951600
_cell_angle_alpha   90.00000000
_cell_angle_beta   90.00000000
_cell_angle_gamma   119.79392816
_symmetry_Int_Tables_number   1
_chemical_formula_structural   Ac2Pd3Pb4
_chemical_formula_sum   'Ac2 Pd3 Pb4'
_cell_volume   240.04713700
_cell_formula_units_Z   1
loop_
 _symmetry_equiv_pos_site_id
 _symmetry_equiv_pos_as_xyz
  1  'x, y, z'
loop_
 _atom_site_type_symbol
 _atom_site_label
 _atom_site_symmetry_multiplicity
 _atom_site_fract_x
 _atom_site_fract_y
 _atom_site_fract_z
 _atom_site_occupancy
  Ac  Ac0  1  0.412904  0.415097  0.500000  1
  Ac  Ac1  1  0.587096  0.002193  0.500000  1
  Pd  Pd2  1  0.672443  0.335560  0.000000  1
  Pd  Pd3  1  0.327557  0.663118  0.000000  1
  Pd  Pd4  1  0.000000  0.991108  0.500000  1
  Pb  Pb5  1  0.000000  0.599029  0.500000  1
  Pb  Pb6  1  0.755172  0.748636  0.000000  1
  Pb  Pb7  1  0.244828  0.993465  0.000000  1
  Pb  Pb8  1  0.000000  0.251793  0.000000  1
