# generated using pymatgen
data_Lu5NiTe4
_symmetry_space_group_name_H-M   'P 1'
_cell_length_a   7.48859959
_cell_length_b   7.48859925
_cell_length_c   10.63263360
_cell_angle_alpha   60.85689110
_cell_angle_beta   60.85689418
_cell_angle_gamma   32.05790163
_symmetry_Int_Tables_number   1
_chemical_formula_structural   Lu5NiTe4
_chemical_formula_sum   'Lu5 Ni1 Te4'
_cell_volume   272.85050238
_cell_formula_units_Z   1
loop_
 _symmetry_equiv_pos_site_id
 _symmetry_equiv_pos_as_xyz
  1  'x, y, z'
loop_
 _atom_site_type_symbol
 _atom_site_label
 _atom_site_symmetry_multiplicity
 _atom_site_fract_x
 _atom_site_fract_y
 _atom_site_fract_z
 _atom_site_occupancy
  Lu  Lu0  1  0.000000  0.000000  0.500000  1
  Lu  Lu1  1  0.575323  0.575323  0.080120  1
  Lu  Lu2  1  0.175824  0.175824  0.745648  1
  Lu  Lu3  1  0.824176  0.824176  0.254352  1
  Lu  Lu4  1  0.424677  0.424677  0.919880  1
  Ni  Ni5  1  0.000000  0.000000  0.000000  1
  Te  Te6  1  0.614719  0.614719  0.577269  1
  Te  Te7  1  0.187933  0.187933  0.194390  1
  Te  Te8  1  0.812067  0.812067  0.805610  1
  Te  Te9  1  0.385281  0.385281  0.422731  1
