# generated using pymatgen
data_DyHo2PaPt4
_symmetry_space_group_name_H-M   'P 1'
_cell_length_a   4.54398200
_cell_length_b   5.59716403
_cell_length_c   6.97401203
_cell_angle_alpha   91.06384242
_cell_angle_beta   90.00000000
_cell_angle_gamma   90.00000000
_symmetry_Int_Tables_number   1
_chemical_formula_structural   DyHo2PaPt4
_chemical_formula_sum   'Dy1 Ho2 Pa1 Pt4'
_cell_volume   177.34235145
_cell_formula_units_Z   1
loop_
 _symmetry_equiv_pos_site_id
 _symmetry_equiv_pos_as_xyz
  1  'x, y, z'
loop_
 _atom_site_type_symbol
 _atom_site_label
 _atom_site_symmetry_multiplicity
 _atom_site_fract_x
 _atom_site_fract_y
 _atom_site_fract_z
 _atom_site_occupancy
  Dy  Dy0  1  0.250000  0.140548  0.183866  1
  Ho  Ho1  1  0.750000  0.643459  0.315583  1
  Ho  Ho2  1  0.750000  0.856449  0.820465  1
  Pa  Pa3  1  0.250000  0.357516  0.682556  1
  Pt  Pt4  1  0.250000  0.838833  0.550163  1
  Pt  Pt5  1  0.250000  0.652165  0.038141  1
  Pt  Pt6  1  0.750000  0.167570  0.463517  1
  Pt  Pt7  1  0.750000  0.343461  0.945708  1
