# generated using pymatgen
data_CeErSi2IrRh3
_symmetry_space_group_name_H-M   'P 1'
_cell_length_a   9.13996016
_cell_length_b   9.13995897
_cell_length_c   4.07863000
_cell_angle_alpha   90.00000000
_cell_angle_beta   90.00000000
_cell_angle_gamma   154.95179889
_symmetry_Int_Tables_number   1
_chemical_formula_structural   CeErSi2IrRh3
_chemical_formula_sum   'Ce1 Er1 Si2 Ir1 Rh3'
_cell_volume   144.25596196
_cell_formula_units_Z   1
loop_
 _symmetry_equiv_pos_site_id
 _symmetry_equiv_pos_as_xyz
  1  'x, y, z'
loop_
 _atom_site_type_symbol
 _atom_site_label
 _atom_site_symmetry_multiplicity
 _atom_site_fract_x
 _atom_site_fract_y
 _atom_site_fract_z
 _atom_site_occupancy
  Ce  Ce0  1  0.905001  0.094999  0.250000  1
  Er  Er1  1  0.101246  0.898754  0.750000  1
  Si  Si2  1  0.320765  0.679235  0.750000  1
  Si  Si3  1  0.676268  0.323732  0.250000  1
  Ir  Ir4  1  0.453478  0.546522  0.750000  1
  Rh  Rh5  1  0.546573  0.453427  0.250000  1
  Rh  Rh6  1  0.248819  0.751181  0.250000  1
  Rh  Rh7  1  0.747852  0.252148  0.750000  1
