# generated using pymatgen
data_SmY(SiTc2)4
_symmetry_space_group_name_H-M   'P 1'
_cell_length_a   7.38809222
_cell_length_b   7.38809222
_cell_length_c   4.14104300
_cell_angle_alpha   90.00000000
_cell_angle_beta   90.00000000
_cell_angle_gamma   88.86059427
_symmetry_Int_Tables_number   1
_chemical_formula_structural   SmY(SiTc2)4
_chemical_formula_sum   'Sm1 Y1 Si4 Tc8'
_cell_volume   225.98961112
_cell_formula_units_Z   1
loop_
 _symmetry_equiv_pos_site_id
 _symmetry_equiv_pos_as_xyz
  1  'x, y, z'
loop_
 _atom_site_type_symbol
 _atom_site_label
 _atom_site_symmetry_multiplicity
 _atom_site_fract_x
 _atom_site_fract_y
 _atom_site_fract_z
 _atom_site_occupancy
  Sm  Sm0  1  0.500000  0.500000  0.000000  1
  Y  Y1  1  0.000000  0.000000  0.500000  1
  Si  Si2  1  0.712617  0.712617  0.500000  1
  Si  Si3  1  0.287383  0.287383  0.500000  1
  Si  Si4  1  0.206968  0.793032  0.000000  1
  Si  Si5  1  0.793032  0.206968  0.000000  1
  Tc  Tc6  1  0.596996  0.151356  0.500000  1
  Tc  Tc7  1  0.403004  0.848644  0.500000  1
  Tc  Tc8  1  0.089018  0.340496  0.000000  1
  Tc  Tc9  1  0.910982  0.659504  0.000000  1
  Tc  Tc10  1  0.151356  0.596996  0.500000  1
  Tc  Tc11  1  0.848644  0.403004  0.500000  1
  Tc  Tc12  1  0.340496  0.089018  0.000000  1
  Tc  Tc13  1  0.659504  0.910982  0.000000  1
