# generated using pymatgen
data_Ba8Si16Pd
_symmetry_space_group_name_H-M   'P 1'
_cell_length_a   6.73156800
_cell_length_b   9.40003140
_cell_length_c   11.61255407
_cell_angle_alpha   90.11413804
_cell_angle_beta   90.00000000
_cell_angle_gamma   90.00000000
_symmetry_Int_Tables_number   1
_chemical_formula_structural   Ba8Si16Pd
_chemical_formula_sum   'Ba8 Si16 Pd1'
_cell_volume   734.80555174
_cell_formula_units_Z   1
loop_
 _symmetry_equiv_pos_site_id
 _symmetry_equiv_pos_as_xyz
  1  'x, y, z'
loop_
 _atom_site_type_symbol
 _atom_site_label
 _atom_site_symmetry_multiplicity
 _atom_site_fract_x
 _atom_site_fract_y
 _atom_site_fract_z
 _atom_site_occupancy
  Ba  Ba0  1  0.500000  0.015942  0.690240  1
  Ba  Ba1  1  0.000000  0.488523  0.189220  1
  Ba  Ba2  1  0.000000  0.988021  0.309021  1
  Ba  Ba3  1  0.500000  0.511850  0.809856  1
  Ba  Ba4  1  0.500000  0.834800  0.087941  1
  Ba  Ba5  1  0.000000  0.646839  0.596703  1
  Ba  Ba6  1  0.000000  0.146925  0.902314  1
  Ba  Ba7  1  0.500000  0.364387  0.418425  1
  Si  Si8  1  0.500000  0.413701  0.086473  1
  Si  Si9  1  0.000000  0.094367  0.589816  1
  Si  Si10  1  0.000000  0.593613  0.909048  1
  Si  Si11  1  0.500000  0.894283  0.414115  1
  Si  Si12  1  0.500000  0.201264  0.961029  1
  Si  Si13  1  0.000000  0.303277  0.467886  1
  Si  Si14  1  0.000000  0.804073  0.031995  1
  Si  Si15  1  0.500000  0.695398  0.539554  1
  Si  Si16  1  0.310371  0.204808  0.136555  1
  Si  Si17  1  0.178736  0.306550  0.648509  1
  Si  Si18  1  0.820984  0.805990  0.851625  1
  Si  Si19  1  0.680455  0.685565  0.357734  1
  Si  Si20  1  0.179016  0.805990  0.851625  1
  Si  Si21  1  0.319545  0.685565  0.357734  1
  Si  Si22  1  0.689629  0.204808  0.136555  1
  Si  Si23  1  0.821264  0.306550  0.648509  1
  Pd  Pd24  1  0.500000  0.081013  0.282414  1
