# generated using pymatgen
data_Hf8Co7Si14Os
_symmetry_space_group_name_H-M   'P 1'
_cell_length_a   9.48330781
_cell_length_b   9.49085807
_cell_length_c   9.50056900
_cell_angle_alpha   94.16880816
_cell_angle_beta   94.12646653
_cell_angle_gamma   148.77530703
_symmetry_Int_Tables_number   1
_chemical_formula_structural   Hf8Co7Si14Os
_chemical_formula_sum   'Hf8 Co7 Si14 Os1'
_cell_volume   426.97040469
_cell_formula_units_Z   1
loop_
 _symmetry_equiv_pos_site_id
 _symmetry_equiv_pos_as_xyz
  1  'x, y, z'
loop_
 _atom_site_type_symbol
 _atom_site_label
 _atom_site_symmetry_multiplicity
 _atom_site_fract_x
 _atom_site_fract_y
 _atom_site_fract_z
 _atom_site_occupancy
  Hf  Hf0  1  0.137541  0.137541  0.275082  1
  Hf  Hf1  1  0.862338  0.862338  0.724674  1
  Hf  Hf2  1  0.136350  0.861470  0.999149  1
  Hf  Hf3  1  0.862799  0.137678  0.999149  1
  Hf  Hf4  1  0.304279  0.498341  0.803364  1
  Hf  Hf5  1  0.695570  0.500167  0.195622  1
  Hf  Hf6  1  0.500052  0.695455  0.195622  1
  Hf  Hf7  1  0.499085  0.305023  0.803364  1
  Co  Co8  1  0.396857  0.896857  0.793715  1
  Co  Co9  1  0.896894  0.100698  0.500877  1
  Co  Co10  1  0.603984  0.400179  0.500877  1
  Co  Co11  1  0.601733  0.101733  0.203464  1
  Co  Co12  1  0.897756  0.397756  0.795514  1
  Co  Co13  1  0.103013  0.900235  0.501204  1
  Co  Co14  1  0.398190  0.600969  0.501204  1
  Si  Si15  1  0.289986  0.289986  0.579971  1
  Si  Si16  1  0.709941  0.709941  0.419881  1
  Si  Si17  1  0.298477  0.715804  0.994424  1
  Si  Si18  1  0.695947  0.278620  0.994424  1
  Si  Si19  1  0.091880  0.499065  0.592830  1
  Si  Si20  1  0.902522  0.496059  0.413132  1
  Si  Si21  1  0.510611  0.917073  0.413132  1
  Si  Si22  1  0.500950  0.093765  0.592830  1
  Si  Si23  1  0.250082  0.250813  0.999815  1
  Si  Si24  1  0.749732  0.749001  0.999815  1
  Si  Si25  1  0.305725  0.010801  0.301761  1
  Si  Si26  1  0.699310  0.999669  0.699634  1
  Si  Si27  1  0.000324  0.699965  0.699634  1
  Si  Si28  1  0.996036  0.290959  0.301761  1
  Os  Os29  1  0.102039  0.602039  0.204076  1
