# generated using pymatgen
data_Cs5Rb3(Al2Se5)2
_symmetry_space_group_name_H-M   'P 1'
_cell_length_a   8.52014285
_cell_length_b   8.97421056
_cell_length_c   11.37917548
_cell_angle_alpha   77.41886653
_cell_angle_beta   85.85069584
_cell_angle_gamma   80.51215180
_symmetry_Int_Tables_number   1
_chemical_formula_structural   Cs5Rb3(Al2Se5)2
_chemical_formula_sum   'Cs5 Rb3 Al4 Se10'
_cell_volume   836.96092049
_cell_formula_units_Z   1
loop_
 _symmetry_equiv_pos_site_id
 _symmetry_equiv_pos_as_xyz
  1  'x, y, z'
loop_
 _atom_site_type_symbol
 _atom_site_label
 _atom_site_symmetry_multiplicity
 _atom_site_fract_x
 _atom_site_fract_y
 _atom_site_fract_z
 _atom_site_occupancy
  Cs  Cs0  1  0.051419  0.606307  0.761078  1
  Cs  Cs1  1  0.821978  0.910258  0.130558  1
  Cs  Cs2  1  0.950738  0.394662  0.236902  1
  Cs  Cs3  1  0.557697  0.715247  0.505599  1
  Cs  Cs4  1  0.442871  0.279773  0.493497  1
  Rb  Rb5  1  0.436417  0.330106  0.089555  1
  Rb  Rb6  1  0.560094  0.672923  0.906221  1
  Rb  Rb7  1  0.161088  0.092684  0.869139  1
  Al  Al8  1  0.903817  0.087189  0.598453  1
  Al  Al9  1  0.101290  0.913508  0.403826  1
  Al  Al10  1  0.294236  0.732075  0.208022  1
  Al  Al11  1  0.705976  0.267674  0.791922  1
  Se  Se12  1  0.862831  0.355389  0.604789  1
  Se  Se13  1  0.183971  0.970384  0.588160  1
  Se  Se14  1  0.433381  0.380895  0.778228  1
  Se  Se15  1  0.179777  0.699003  0.032773  1
  Se  Se16  1  0.822622  0.312117  0.962202  1
  Se  Se17  1  0.561873  0.605093  0.224675  1
  Se  Se18  1  0.135206  0.646348  0.394625  1
  Se  Se19  1  0.257509  0.010108  0.226318  1
  Se  Se20  1  0.753941  0.987917  0.778429  1
  Se  Se21  1  0.821267  0.030339  0.415027  1
