# generated using pymatgen
data_SmEr(Si7Rh3)2
_symmetry_space_group_name_H-M   'P 1'
_cell_length_a   8.00780791
_cell_length_b   8.00780908
_cell_length_c   8.00780903
_cell_angle_alpha   57.08044784
_cell_angle_beta   57.08044736
_cell_angle_gamma   57.08044728
_symmetry_Int_Tables_number   1
_chemical_formula_structural   SmEr(Si7Rh3)2
_chemical_formula_sum   'Sm1 Er1 Si14 Rh6'
_cell_volume   338.66638992
_cell_formula_units_Z   1
loop_
 _symmetry_equiv_pos_site_id
 _symmetry_equiv_pos_as_xyz
  1  'x, y, z'
loop_
 _atom_site_type_symbol
 _atom_site_label
 _atom_site_symmetry_multiplicity
 _atom_site_fract_x
 _atom_site_fract_y
 _atom_site_fract_z
 _atom_site_occupancy
  Sm  Sm0  1  0.000000  0.000000  0.000000  1
  Er  Er1  1  0.500000  0.500000  0.500000  1
  Si  Si2  1  0.749887  0.749887  0.749887  1
  Si  Si3  1  0.250113  0.250113  0.250113  1
  Si  Si4  1  0.850902  0.065408  0.672092  1
  Si  Si5  1  0.672092  0.850902  0.065408  1
  Si  Si6  1  0.065408  0.672092  0.850902  1
  Si  Si7  1  0.647816  0.827166  0.435513  1
  Si  Si8  1  0.435513  0.647816  0.827166  1
  Si  Si9  1  0.827166  0.435513  0.647816  1
  Si  Si10  1  0.172834  0.564487  0.352184  1
  Si  Si11  1  0.564487  0.352184  0.172834  1
  Si  Si12  1  0.352184  0.172834  0.564487  1
  Si  Si13  1  0.934592  0.327908  0.149098  1
  Si  Si14  1  0.327908  0.149098  0.934592  1
  Si  Si15  1  0.149098  0.934592  0.327908  1
  Rh  Rh16  1  0.070803  0.430936  0.748606  1
  Rh  Rh17  1  0.251394  0.929197  0.569064  1
  Rh  Rh18  1  0.569064  0.251394  0.929197  1
  Rh  Rh19  1  0.929197  0.569064  0.251394  1
  Rh  Rh20  1  0.430936  0.748606  0.070803  1
  Rh  Rh21  1  0.748606  0.070803  0.430936  1
