# generated using pymatgen
data_CaCl26
_symmetry_space_group_name_H-M   'P 1'
_cell_length_a   10.39974547
_cell_length_b   13.67156570
_cell_length_c   8.87404100
_cell_angle_alpha   87.38399975
_cell_angle_beta   57.02700383
_cell_angle_gamma   76.57114338
_symmetry_Int_Tables_number   1
_chemical_formula_structural   CaCl26
_chemical_formula_sum   'Ca1 Cl26'
_cell_volume   1024.49577258
_cell_formula_units_Z   1
loop_
 _symmetry_equiv_pos_site_id
 _symmetry_equiv_pos_as_xyz
  1  'x, y, z'
loop_
 _atom_site_type_symbol
 _atom_site_label
 _atom_site_symmetry_multiplicity
 _atom_site_fract_x
 _atom_site_fract_y
 _atom_site_fract_z
 _atom_site_occupancy
  Ca  Ca0  1  0.000000  0.000000  0.000000  1
  Cl  Cl1  1  0.856794  0.727057  0.520779  1
  Cl  Cl2  1  0.337709  0.690595  0.419808  1
  Cl  Cl3  1  0.662291  0.309405  0.580192  1
  Cl  Cl4  1  0.143206  0.272943  0.479221  1
  Cl  Cl5  1  0.968623  0.344056  0.098296  1
  Cl  Cl6  1  0.267940  0.486496  0.045296  1
  Cl  Cl7  1  0.732060  0.513504  0.954704  1
  Cl  Cl8  1  0.031377  0.655944  0.901704  1
  Cl  Cl9  1  0.500000  0.000000  0.500000  1
  Cl  Cl10  1  0.000000  0.000000  0.500000  1
  Cl  Cl11  1  0.882044  0.084662  0.356610  1
  Cl  Cl12  1  0.311334  0.171768  0.268632  1
  Cl  Cl13  1  0.688666  0.828232  0.731368  1
  Cl  Cl14  1  0.117956  0.915338  0.643390  1
  Cl  Cl15  1  0.066312  0.525783  0.292508  1
  Cl  Cl16  1  0.441657  0.545183  0.322482  1
  Cl  Cl17  1  0.558343  0.454817  0.677518  1
  Cl  Cl18  1  0.933688  0.474217  0.707492  1
  Cl  Cl19  1  0.683491  0.977906  0.194030  1
  Cl  Cl20  1  0.177060  0.861001  0.147056  1
  Cl  Cl21  1  0.822940  0.138999  0.852944  1
  Cl  Cl22  1  0.316509  0.022094  0.805970  1
  Cl  Cl23  1  0.294279  0.766962  0.918820  1
  Cl  Cl24  1  0.880585  0.790556  0.045544  1
  Cl  Cl25  1  0.119415  0.209444  0.954456  1
  Cl  Cl26  1  0.705721  0.233038  0.081180  1
