# generated using pymatgen
data_MnTl2F5
_symmetry_space_group_name_H-M   'P 1'
_cell_length_a   6.18441500
_cell_length_b   6.18441500
_cell_length_c   4.22024300
_cell_angle_alpha   90.00000000
_cell_angle_beta   90.00000000
_cell_angle_gamma   90.00000000
_symmetry_Int_Tables_number   1
_chemical_formula_structural   MnTl2F5
_chemical_formula_sum   'Mn1 Tl2 F5'
_cell_volume   161.41158714
_cell_formula_units_Z   1
loop_
 _symmetry_equiv_pos_site_id
 _symmetry_equiv_pos_as_xyz
  1  'x, y, z'
loop_
 _atom_site_type_symbol
 _atom_site_label
 _atom_site_symmetry_multiplicity
 _atom_site_fract_x
 _atom_site_fract_y
 _atom_site_fract_z
 _atom_site_occupancy
  Mn  Mn0  1  0.000000  0.000000  0.000000  1
  Tl  Tl1  1  0.500000  0.000000  0.500000  1
  Tl  Tl2  1  0.000000  0.500000  0.500000  1
  F  F3  1  0.000000  0.000000  0.500000  1
  F  F4  1  0.782425  0.782425  0.000000  1
  F  F5  1  0.782425  0.217575  0.000000  1
  F  F6  1  0.217575  0.217575  0.000000  1
  F  F7  1  0.217575  0.782425  0.000000  1
