# generated using pymatgen
data_Tb3YbTc3B16W
_symmetry_space_group_name_H-M   'P 1'
_cell_length_a   6.00461904
_cell_length_b   11.62356486
_cell_length_c   3.59449100
_cell_angle_alpha   90.00000000
_cell_angle_beta   90.00000000
_cell_angle_gamma   89.95418174
_symmetry_Int_Tables_number   1
_chemical_formula_structural   Tb3YbTc3B16W
_chemical_formula_sum   'Tb3 Yb1 Tc3 B16 W1'
_cell_volume   250.87770252
_cell_formula_units_Z   1
loop_
 _symmetry_equiv_pos_site_id
 _symmetry_equiv_pos_as_xyz
  1  'x, y, z'
loop_
 _atom_site_type_symbol
 _atom_site_label
 _atom_site_symmetry_multiplicity
 _atom_site_fract_x
 _atom_site_fract_y
 _atom_site_fract_z
 _atom_site_occupancy
  Tb  Tb0  1  0.372612  0.651099  0.000000  1
  Tb  Tb1  1  0.127966  0.149903  0.000000  1
  Tb  Tb2  1  0.872601  0.851607  0.000000  1
  Yb  Yb3  1  0.625861  0.348096  0.000000  1
  Tc  Tc4  1  0.634110  0.086988  0.000000  1
  Tc  Tc5  1  0.367205  0.913704  0.000000  1
  Tc  Tc6  1  0.129905  0.415762  0.000000  1
  B  B7  1  0.784329  0.185448  0.500000  1
  B  B8  1  0.215551  0.815942  0.500000  1
  B  B9  1  0.286036  0.314883  0.500000  1
  B  B10  1  0.710664  0.686873  0.500000  1
  B  B11  1  0.863402  0.031763  0.500000  1
  B  B12  1  0.136763  0.969056  0.500000  1
  B  B13  1  0.365093  0.466076  0.500000  1
  B  B14  1  0.631878  0.530619  0.500000  1
  B  B15  1  0.885983  0.450252  0.500000  1
  B  B16  1  0.116510  0.545324  0.500000  1
  B  B17  1  0.387693  0.047451  0.500000  1
  B  B18  1  0.612508  0.953614  0.500000  1
  B  B19  1  0.977653  0.306830  0.500000  1
  B  B20  1  0.026155  0.693771  0.500000  1
  B  B21  1  0.475856  0.192236  0.500000  1
  B  B22  1  0.523157  0.809148  0.500000  1
  W  W23  1  0.870513  0.583554  0.000000  1
