# generated using pymatgen
data_LiHo16Ni4Ag3
_symmetry_space_group_name_H-M   'P 1'
_cell_length_a   9.40849740
_cell_length_b   9.41653638
_cell_length_c   9.41653700
_cell_angle_alpha   60.00000133
_cell_angle_beta   59.97173270
_cell_angle_gamma   59.97173703
_symmetry_Int_Tables_number   1
_chemical_formula_structural   LiHo16Ni4Ag3
_chemical_formula_sum   'Li1 Ho16 Ni4 Ag3'
_cell_volume   589.66045956
_cell_formula_units_Z   1
loop_
 _symmetry_equiv_pos_site_id
 _symmetry_equiv_pos_as_xyz
  1  'x, y, z'
loop_
 _atom_site_type_symbol
 _atom_site_label
 _atom_site_symmetry_multiplicity
 _atom_site_fract_x
 _atom_site_fract_y
 _atom_site_fract_z
 _atom_site_occupancy
  Li  Li0  1  0.288296  0.570569  0.570569  1
  Ho  Ho1  1  0.350873  0.349641  0.349641  1
  Ho  Ho2  1  0.350873  0.349641  0.949844  1
  Ho  Ho3  1  0.350873  0.949844  0.349641  1
  Ho  Ho4  1  0.942668  0.352444  0.352444  1
  Ho  Ho5  1  0.810242  0.188608  0.188608  1
  Ho  Ho6  1  0.185781  0.814096  0.814096  1
  Ho  Ho7  1  0.185781  0.814096  0.186027  1
  Ho  Ho8  1  0.810242  0.188608  0.812542  1
  Ho  Ho9  1  0.185781  0.186027  0.814096  1
  Ho  Ho10  1  0.810242  0.812542  0.188608  1
  Ho  Ho11  1  0.931389  0.565731  0.565731  1
  Ho  Ho12  1  0.563128  0.935674  0.935674  1
  Ho  Ho13  1  0.563128  0.935674  0.565526  1
  Ho  Ho14  1  0.931389  0.565731  0.937148  1
  Ho  Ho15  1  0.563128  0.565526  0.935674  1
  Ho  Ho16  1  0.931389  0.937148  0.565731  1
  Ni  Ni17  1  0.142711  0.143486  0.143486  1
  Ni  Ni18  1  0.142711  0.143486  0.570317  1
  Ni  Ni19  1  0.142711  0.570317  0.143486  1
  Ni  Ni20  1  0.569951  0.143349  0.143349  1
  Ag  Ag21  1  0.582239  0.583239  0.583239  1
  Ag  Ag22  1  0.582239  0.583239  0.251282  1
  Ag  Ag23  1  0.582239  0.251282  0.583239  1
