# generated using pymatgen
data_Ca3Ta4HgO14
_symmetry_space_group_name_H-M   'P 1'
_cell_length_a   7.54036506
_cell_length_b   7.39092666
_cell_length_c   7.54036500
_cell_angle_alpha   59.32887535
_cell_angle_beta   60.00000464
_cell_angle_gamma   59.32887376
_symmetry_Int_Tables_number   1
_chemical_formula_structural   Ca3Ta4HgO14
_chemical_formula_sum   'Ca3 Ta4 Hg1 O14'
_cell_volume   294.09513450
_cell_formula_units_Z   1
loop_
 _symmetry_equiv_pos_site_id
 _symmetry_equiv_pos_as_xyz
  1  'x, y, z'
loop_
 _atom_site_type_symbol
 _atom_site_label
 _atom_site_symmetry_multiplicity
 _atom_site_fract_x
 _atom_site_fract_y
 _atom_site_fract_z
 _atom_site_occupancy
  Ca  Ca0  1  0.125000  0.125000  0.625000  1
  Ca  Ca1  1  0.625000  0.125000  0.125000  1
  Ca  Ca2  1  0.125000  0.125000  0.125000  1
  Ta  Ta3  1  0.625000  0.625000  0.125000  1
  Ta  Ta4  1  0.625000  0.125000  0.625000  1
  Ta  Ta5  1  0.125000  0.625000  0.625000  1
  Ta  Ta6  1  0.625000  0.625000  0.625000  1
  Hg  Hg7  1  0.125000  0.625000  0.125000  1
  O  O8  1  0.312618  0.695910  0.312618  1
  O  O9  1  0.555489  0.947059  0.555489  1
  O  O10  1  0.308038  0.302941  0.694511  1
  O  O11  1  0.694511  0.302941  0.308038  1
  O  O12  1  0.312618  0.695910  0.678854  1
  O  O13  1  0.678854  0.695910  0.312618  1
  O  O14  1  0.941962  0.947059  0.555489  1
  O  O15  1  0.571146  0.554090  0.937382  1
  O  O16  1  0.005706  0.982883  0.005706  1
  O  O17  1  0.244294  0.267117  0.244294  1
  O  O18  1  0.694511  0.302941  0.694511  1
  O  O19  1  0.937382  0.554090  0.571146  1
  O  O20  1  0.555489  0.947059  0.941962  1
  O  O21  1  0.937382  0.554090  0.937382  1
