# generated using pymatgen
data_Er2Tl(P3Pd10)2
_symmetry_space_group_name_H-M   'P 1'
_cell_length_a   8.65372912
_cell_length_b   8.65372902
_cell_length_c   8.65372900
_cell_angle_alpha   59.99999627
_cell_angle_beta   59.99999663
_cell_angle_gamma   59.99999960
_symmetry_Int_Tables_number   1
_chemical_formula_structural   Er2Tl(P3Pd10)2
_chemical_formula_sum   'Er2 Tl1 P6 Pd20'
_cell_volume   458.24196319
_cell_formula_units_Z   1
loop_
 _symmetry_equiv_pos_site_id
 _symmetry_equiv_pos_as_xyz
  1  'x, y, z'
loop_
 _atom_site_type_symbol
 _atom_site_label
 _atom_site_symmetry_multiplicity
 _atom_site_fract_x
 _atom_site_fract_y
 _atom_site_fract_z
 _atom_site_occupancy
  Er  Er0  1  0.000000  0.000000  0.000000  1
  Er  Er1  1  0.250000  0.250000  0.250000  1
  Tl  Tl2  1  0.750000  0.750000  0.750000  1
  P  P3  1  0.734876  0.265124  0.265124  1
  P  P4  1  0.734876  0.734876  0.265124  1
  P  P5  1  0.734876  0.265124  0.734876  1
  P  P6  1  0.265124  0.734876  0.265124  1
  P  P7  1  0.265124  0.734876  0.734876  1
  P  P8  1  0.265124  0.265124  0.734876  1
  Pd  Pd9  1  0.341939  0.002201  0.002201  1
  Pd  Pd10  1  0.002201  0.653660  0.341939  1
  Pd  Pd11  1  0.341939  0.002201  0.653660  1
  Pd  Pd12  1  0.002201  0.653660  0.002201  1
  Pd  Pd13  1  0.653660  0.341939  0.002201  1
  Pd  Pd14  1  0.617206  0.617206  0.148381  1
  Pd  Pd15  1  0.384611  0.846169  0.384611  1
  Pd  Pd16  1  0.148381  0.617206  0.617206  1
  Pd  Pd17  1  0.653660  0.002201  0.341939  1
  Pd  Pd18  1  0.002201  0.341939  0.653660  1
  Pd  Pd19  1  0.653660  0.002201  0.002201  1
  Pd  Pd20  1  0.002201  0.002201  0.341939  1
  Pd  Pd21  1  0.617206  0.148381  0.617206  1
  Pd  Pd22  1  0.341939  0.653660  0.002201  1
  Pd  Pd23  1  0.384611  0.384611  0.384611  1
  Pd  Pd24  1  0.617206  0.617206  0.617206  1
  Pd  Pd25  1  0.384611  0.384611  0.846169  1
  Pd  Pd26  1  0.002201  0.002201  0.653660  1
  Pd  Pd27  1  0.846169  0.384611  0.384611  1
  Pd  Pd28  1  0.002201  0.341939  0.002201  1
