# generated using pymatgen
data_La7Re(TcC3)3
_symmetry_space_group_name_H-M   'P 1'
_cell_length_a   6.62657425
_cell_length_b   6.62657507
_cell_length_c   12.15313880
_cell_angle_alpha   71.32318334
_cell_angle_beta   71.32317980
_cell_angle_gamma   48.06265843
_symmetry_Int_Tables_number   1
_chemical_formula_structural   La7Re(TcC3)3
_chemical_formula_sum   'La7 Re1 Tc3 C9'
_cell_volume   371.77761318
_cell_formula_units_Z   1
loop_
 _symmetry_equiv_pos_site_id
 _symmetry_equiv_pos_as_xyz
  1  'x, y, z'
loop_
 _atom_site_type_symbol
 _atom_site_label
 _atom_site_symmetry_multiplicity
 _atom_site_fract_x
 _atom_site_fract_y
 _atom_site_fract_z
 _atom_site_occupancy
  La  La0  1  0.372535  0.372535  0.842740  1
  La  La1  1  0.143196  0.143196  0.684734  1
  La  La2  1  0.857141  0.857141  0.314840  1
  La  La3  1  0.137384  0.137384  0.380813  1
  La  La4  1  0.862105  0.862105  0.619503  1
  La  La5  1  0.000041  0.000041  0.000081  1
  La  La6  1  0.628123  0.628123  0.157268  1
  Re  Re7  1  0.357792  0.357792  0.140161  1
  Tc  Tc8  1  0.566652  0.566652  0.570120  1
  Tc  Tc9  1  0.433371  0.433371  0.430254  1
  Tc  Tc10  1  0.642288  0.642288  0.859383  1
  C  C11  1  0.383330  0.383330  0.289845  1
  C  C12  1  0.922476  0.922476  0.817380  1
  C  C13  1  0.394194  0.394194  0.610538  1
  C  C14  1  0.194538  0.194538  0.143406  1
  C  C15  1  0.805365  0.805365  0.856954  1
  C  C16  1  0.499619  0.499619  0.000088  1
  C  C17  1  0.077256  0.077256  0.182542  1
  C  C18  1  0.616981  0.616981  0.709682  1
  C  C19  1  0.605615  0.605615  0.389666  1
