# generated using pymatgen
data_HoEr3Cd2CuPd3
_symmetry_space_group_name_H-M   'P 1'
_cell_length_a   7.64947000
_cell_length_b   7.64946913
_cell_length_c   3.72406900
_cell_angle_alpha   90.00000000
_cell_angle_beta   90.00000000
_cell_angle_gamma   90.18076792
_symmetry_Int_Tables_number   1
_chemical_formula_structural   HoEr3Cd2CuPd3
_chemical_formula_sum   'Ho1 Er3 Cd2 Cu1 Pd3'
_cell_volume   217.91052124
_cell_formula_units_Z   1
loop_
 _symmetry_equiv_pos_site_id
 _symmetry_equiv_pos_as_xyz
  1  'x, y, z'
loop_
 _atom_site_type_symbol
 _atom_site_label
 _atom_site_symmetry_multiplicity
 _atom_site_fract_x
 _atom_site_fract_y
 _atom_site_fract_z
 _atom_site_occupancy
  Ho  Ho0  1  0.329813  0.829813  0.500000  1
  Er  Er1  1  0.672851  0.172851  0.500000  1
  Er  Er2  1  0.170003  0.326627  0.500000  1
  Er  Er3  1  0.826627  0.670003  0.500000  1
  Cd  Cd4  1  0.001518  0.995358  0.000000  1
  Cd  Cd5  1  0.495358  0.501518  0.000000  1
  Cu  Cu6  1  0.125037  0.625037  0.000000  1
  Pd  Pd7  1  0.877163  0.377163  0.000000  1
  Pd  Pd8  1  0.630395  0.871235  0.000000  1
  Pd  Pd9  1  0.371235  0.130395  0.000000  1
