# generated using pymatgen
data_Nd16Co3Ag4Rh
_symmetry_space_group_name_H-M   'P 1'
_cell_length_a   9.77839233
_cell_length_b   9.77960832
_cell_length_c   9.77864529
_cell_angle_alpha   59.76339374
_cell_angle_beta   59.79957804
_cell_angle_gamma   59.78926434
_symmetry_Int_Tables_number   1
_chemical_formula_structural   Nd16Co3Ag4Rh
_chemical_formula_sum   'Nd16 Co3 Ag4 Rh1'
_cell_volume   657.98855462
_cell_formula_units_Z   1
loop_
 _symmetry_equiv_pos_site_id
 _symmetry_equiv_pos_as_xyz
  1  'x, y, z'
loop_
 _atom_site_type_symbol
 _atom_site_label
 _atom_site_symmetry_multiplicity
 _atom_site_fract_x
 _atom_site_fract_y
 _atom_site_fract_z
 _atom_site_occupancy
  Nd  Nd0  1  0.596420  0.596221  0.596399  1
  Nd  Nd1  1  0.602267  0.602142  0.202804  1
  Nd  Nd2  1  0.602176  0.202737  0.602235  1
  Nd  Nd3  1  0.202925  0.602110  0.602260  1
  Nd  Nd4  1  0.187107  0.813382  0.813232  1
  Nd  Nd5  1  0.810245  0.189107  0.189159  1
  Nd  Nd6  1  0.813196  0.187103  0.813246  1
  Nd  Nd7  1  0.189185  0.810311  0.189267  1
  Nd  Nd8  1  0.813194  0.813395  0.187105  1
  Nd  Nd9  1  0.189114  0.189191  0.810304  1
  Nd  Nd10  1  0.053431  0.439362  0.439134  1
  Nd  Nd11  1  0.437878  0.061145  0.060933  1
  Nd  Nd12  1  0.439329  0.053493  0.439336  1
  Nd  Nd13  1  0.060886  0.438053  0.060839  1
  Nd  Nd14  1  0.439201  0.439418  0.053379  1
  Nd  Nd15  1  0.060891  0.061106  0.437850  1
  Co  Co16  1  0.392183  0.391922  0.825683  1
  Co  Co17  1  0.392095  0.825783  0.392000  1
  Co  Co18  1  0.825575  0.392013  0.392214  1
  Ag  Ag19  1  0.831792  0.831689  0.831758  1
  Ag  Ag20  1  0.830027  0.829804  0.510104  1
  Ag  Ag21  1  0.830062  0.509798  0.829957  1
  Ag  Ag22  1  0.510048  0.829870  0.829975  1
  Rh  Rh23  1  0.390771  0.390840  0.390825  1
