# generated using pymatgen
data_Y4Er2Al24Ir5Os3
_symmetry_space_group_name_H-M   'P 1'
_cell_length_a   8.78284460
_cell_length_b   8.78411209
_cell_length_c   9.55830777
_cell_angle_alpha   90.03537163
_cell_angle_beta   89.81543019
_cell_angle_gamma   119.36510388
_symmetry_Int_Tables_number   1
_chemical_formula_structural   Y4Er2Al24Ir5Os3
_chemical_formula_sum   'Y4 Er2 Al24 Ir5 Os3'
_cell_volume   642.66588723
_cell_formula_units_Z   1
loop_
 _symmetry_equiv_pos_site_id
 _symmetry_equiv_pos_as_xyz
  1  'x, y, z'
loop_
 _atom_site_type_symbol
 _atom_site_label
 _atom_site_symmetry_multiplicity
 _atom_site_fract_x
 _atom_site_fract_y
 _atom_site_fract_z
 _atom_site_occupancy
  Y  Y0  1  0.615900  0.810175  0.250074  1
  Y  Y1  1  0.384100  0.189825  0.749926  1
  Y  Y2  1  0.190588  0.806855  0.250475  1
  Y  Y3  1  0.809412  0.193145  0.749525  1
  Er  Er4  1  0.189762  0.389112  0.251286  1
  Er  Er5  1  0.810238  0.610888  0.748714  1
  Al  Al6  1  0.333209  0.667534  0.030319  1
  Al  Al7  1  0.666791  0.332466  0.969681  1
  Al  Al8  1  0.668229  0.333024  0.529304  1
  Al  Al9  1  0.331771  0.666976  0.470696  1
  Al  Al10  1  0.163679  0.327769  0.574951  1
  Al  Al11  1  0.836321  0.672231  0.425049  1
  Al  Al12  1  0.672963  0.834783  0.575994  1
  Al  Al13  1  0.834656  0.672605  0.075336  1
  Al  Al14  1  0.327037  0.165217  0.424006  1
  Al  Al15  1  0.165344  0.327395  0.924664  1
  Al  Al16  1  0.162994  0.833691  0.576446  1
  Al  Al17  1  0.326711  0.165309  0.076628  1
  Al  Al18  1  0.837006  0.166309  0.423554  1
  Al  Al19  1  0.673289  0.834691  0.923372  1
  Al  Al20  1  0.835308  0.164357  0.076798  1
  Al  Al21  1  0.164692  0.835643  0.923202  1
  Al  Al22  1  0.560790  0.125648  0.249742  1
  Al  Al23  1  0.439210  0.874352  0.750258  1
  Al  Al24  1  0.873871  0.439249  0.250634  1
  Al  Al25  1  0.126129  0.560751  0.749366  1
  Al  Al26  1  0.561291  0.438281  0.249691  1
  Al  Al27  1  0.438709  0.561719  0.750309  1
  Al  Al28  1  0.999437  0.004131  0.250012  1
  Al  Al29  1  0.000563  0.995869  0.749988  1
  Ir  Ir30  1  0.500000  0.000000  0.000000  1
  Ir  Ir31  1  0.000000  0.500000  0.000000  1
  Ir  Ir32  1  0.500000  0.000000  0.500000  1
  Ir  Ir33  1  0.500000  0.500000  0.000000  1
  Ir  Ir34  1  0.500000  0.500000  0.500000  1
  Os  Os35  1  0.000000  0.500000  0.500000  1
  Os  Os36  1  0.000000  0.000000  0.000000  1
  Os  Os37  1  0.000000  0.000000  0.500000  1
