# generated using pymatgen
data_Tb17Y2TmSn16
_symmetry_space_group_name_H-M   'P 1'
_cell_length_a   8.05952901
_cell_length_b   8.21144789
_cell_length_c   15.52491000
_cell_angle_alpha   90.00000000
_cell_angle_beta   90.00000000
_cell_angle_gamma   89.95449856
_symmetry_Int_Tables_number   1
_chemical_formula_structural   Tb17Y2TmSn16
_chemical_formula_sum   'Tb17 Y2 Tm1 Sn16'
_cell_volume   1027.44446850
_cell_formula_units_Z   1
loop_
 _symmetry_equiv_pos_site_id
 _symmetry_equiv_pos_as_xyz
  1  'x, y, z'
loop_
 _atom_site_type_symbol
 _atom_site_label
 _atom_site_symmetry_multiplicity
 _atom_site_fract_x
 _atom_site_fract_y
 _atom_site_fract_z
 _atom_site_occupancy
  Tb  Tb0  1  0.367095  0.836145  0.877974  1
  Tb  Tb1  1  0.867885  0.663324  0.621989  1
  Tb  Tb2  1  0.632578  0.163722  0.378330  1
  Tb  Tb3  1  0.132608  0.336287  0.121319  1
  Tb  Tb4  1  0.632578  0.163722  0.121670  1
  Tb  Tb5  1  0.132608  0.336287  0.378681  1
  Tb  Tb6  1  0.367095  0.836145  0.622026  1
  Tb  Tb7  1  0.867885  0.663324  0.878011  1
  Tb  Tb8  1  0.519779  0.320628  0.901982  1
  Tb  Tb9  1  0.020281  0.179972  0.598044  1
  Tb  Tb10  1  0.480070  0.679746  0.402415  1
  Tb  Tb11  1  0.979973  0.820183  0.097771  1
  Tb  Tb12  1  0.480070  0.679746  0.097585  1
  Tb  Tb13  1  0.979973  0.820183  0.402229  1
  Tb  Tb14  1  0.519779  0.320628  0.598018  1
  Tb  Tb15  1  0.020281  0.179972  0.901956  1
  Tb  Tb16  1  0.301058  0.002184  0.250000  1
  Y  Y17  1  0.698679  0.998139  0.750000  1
  Y  Y18  1  0.800943  0.497806  0.250000  1
  Tm  Tm19  1  0.199289  0.502464  0.750000  1
  Sn  Sn20  1  0.292557  0.035307  0.041689  1
  Sn  Sn21  1  0.792357  0.464306  0.458275  1
  Sn  Sn22  1  0.707477  0.964516  0.542162  1
  Sn  Sn23  1  0.207513  0.535203  0.957198  1
  Sn  Sn24  1  0.707477  0.964516  0.957838  1
  Sn  Sn25  1  0.207513  0.535203  0.542802  1
  Sn  Sn26  1  0.292557  0.035307  0.458311  1
  Sn  Sn27  1  0.792357  0.464306  0.041725  1
  Sn  Sn28  1  0.564285  0.618078  0.750000  1
  Sn  Sn29  1  0.065577  0.880657  0.750000  1
  Sn  Sn30  1  0.434478  0.381597  0.250000  1
  Sn  Sn31  1  0.934550  0.118530  0.250000  1
  Sn  Sn32  1  0.327936  0.148373  0.750000  1
  Sn  Sn33  1  0.829285  0.354045  0.750000  1
  Sn  Sn34  1  0.671635  0.853743  0.250000  1
  Sn  Sn35  1  0.171936  0.645711  0.250000  1
