# generated using pymatgen
data_NdCo4As3Ru
_symmetry_space_group_name_H-M   'P 1'
_cell_length_a   3.86754600
_cell_length_b   10.87387000
_cell_length_c   12.32395200
_cell_angle_alpha   90.00000000
_cell_angle_beta   90.00000000
_cell_angle_gamma   90.00000000
_symmetry_Int_Tables_number   1
_chemical_formula_structural   NdCo4As3Ru
_chemical_formula_sum   'Nd4 Co16 As12 Ru4'
_cell_volume   518.28617277
_cell_formula_units_Z   4
loop_
 _symmetry_equiv_pos_site_id
 _symmetry_equiv_pos_as_xyz
  1  'x, y, z'
loop_
 _atom_site_type_symbol
 _atom_site_label
 _atom_site_symmetry_multiplicity
 _atom_site_fract_x
 _atom_site_fract_y
 _atom_site_fract_z
 _atom_site_occupancy
  Nd  Nd0  1  0.250000  0.584684  0.702839  1
  Nd  Nd1  1  0.250000  0.915316  0.202839  1
  Nd  Nd2  1  0.750000  0.415316  0.297161  1
  Nd  Nd3  1  0.750000  0.084684  0.797161  1
  Co  Co4  1  0.250000  0.405755  0.489546  1
  Co  Co5  1  0.250000  0.094245  0.989546  1
  Co  Co6  1  0.750000  0.594245  0.510454  1
  Co  Co7  1  0.750000  0.905755  0.010454  1
  Co  Co8  1  0.250000  0.216468  0.174964  1
  Co  Co9  1  0.250000  0.283532  0.674964  1
  Co  Co10  1  0.750000  0.783532  0.825036  1
  Co  Co11  1  0.750000  0.716468  0.325036  1
  Co  Co12  1  0.250000  0.885782  0.699664  1
  Co  Co13  1  0.250000  0.614218  0.199664  1
  Co  Co14  1  0.750000  0.114218  0.300336  1
  Co  Co15  1  0.750000  0.385782  0.800336  1
  Co  Co16  1  0.250000  0.467008  0.932030  1
  Co  Co17  1  0.250000  0.032992  0.432030  1
  Co  Co18  1  0.750000  0.532992  0.067970  1
  Co  Co19  1  0.750000  0.967008  0.567970  1
  As  As20  1  0.250000  0.417170  0.112236  1
  As  As21  1  0.250000  0.082830  0.612236  1
  As  As22  1  0.750000  0.582830  0.887764  1
  As  As23  1  0.750000  0.917170  0.387764  1
  As  As24  1  0.250000  0.272971  0.867037  1
  As  As25  1  0.250000  0.227029  0.367037  1
  As  As26  1  0.750000  0.727029  0.132963  1
  As  As27  1  0.750000  0.772971  0.632963  1
  As  As28  1  0.250000  0.598298  0.391660  1
  As  As29  1  0.250000  0.901702  0.891660  1
  As  As30  1  0.750000  0.401702  0.608340  1
  As  As31  1  0.750000  0.098298  0.108340  1
  Ru  Ru32  1  0.250000  0.708745  0.990346  1
  Ru  Ru33  1  0.250000  0.791255  0.490346  1
  Ru  Ru34  1  0.750000  0.291255  0.009654  1
  Ru  Ru35  1  0.750000  0.208745  0.509654  1
