# generated using pymatgen
data_LiHf4Pt15
_symmetry_space_group_name_H-M   'P 1'
_cell_length_a   4.01671400
_cell_length_b   4.01671400
_cell_length_c   19.97062100
_cell_angle_alpha   90.00000000
_cell_angle_beta   90.00000000
_cell_angle_gamma   90.00000000
_symmetry_Int_Tables_number   1
_chemical_formula_structural   LiHf4Pt15
_chemical_formula_sum   'Li1 Hf4 Pt15'
_cell_volume   322.20582662
_cell_formula_units_Z   1
loop_
 _symmetry_equiv_pos_site_id
 _symmetry_equiv_pos_as_xyz
  1  'x, y, z'
loop_
 _atom_site_type_symbol
 _atom_site_label
 _atom_site_symmetry_multiplicity
 _atom_site_fract_x
 _atom_site_fract_y
 _atom_site_fract_z
 _atom_site_occupancy
  Li  Li0  1  0.000000  0.000000  0.000000  1
  Hf  Hf1  1  0.000000  0.000000  0.192228  1
  Hf  Hf2  1  0.000000  0.000000  0.398403  1
  Hf  Hf3  1  0.000000  0.000000  0.601597  1
  Hf  Hf4  1  0.000000  0.000000  0.807772  1
  Pt  Pt5  1  0.500000  0.500000  0.000000  1
  Pt  Pt6  1  0.500000  0.500000  0.198164  1
  Pt  Pt7  1  0.500000  0.500000  0.399629  1
  Pt  Pt8  1  0.500000  0.500000  0.600371  1
  Pt  Pt9  1  0.500000  0.500000  0.801836  1
  Pt  Pt10  1  0.500000  0.000000  0.096067  1
  Pt  Pt11  1  0.500000  0.000000  0.298496  1
  Pt  Pt12  1  0.500000  0.000000  0.500000  1
  Pt  Pt13  1  0.500000  0.000000  0.701504  1
  Pt  Pt14  1  0.500000  0.000000  0.903933  1
  Pt  Pt15  1  0.000000  0.500000  0.096067  1
  Pt  Pt16  1  0.000000  0.500000  0.298496  1
  Pt  Pt17  1  0.000000  0.500000  0.500000  1
  Pt  Pt18  1  0.000000  0.500000  0.701504  1
  Pt  Pt19  1  0.000000  0.500000  0.903933  1
