# generated using pymatgen
data_CeY4(B3Os)2
_symmetry_space_group_name_H-M   'P 1'
_cell_length_a   5.53856584
_cell_length_b   5.53856388
_cell_length_c   8.38935431
_cell_angle_alpha   70.72546324
_cell_angle_beta   70.72545852
_cell_angle_gamma   59.99998737
_symmetry_Int_Tables_number   1
_chemical_formula_structural   CeY4(B3Os)2
_chemical_formula_sum   'Ce1 Y4 B6 Os2'
_cell_volume   206.04621205
_cell_formula_units_Z   1
loop_
 _symmetry_equiv_pos_site_id
 _symmetry_equiv_pos_as_xyz
  1  'x, y, z'
loop_
 _atom_site_type_symbol
 _atom_site_label
 _atom_site_symmetry_multiplicity
 _atom_site_fract_x
 _atom_site_fract_y
 _atom_site_fract_z
 _atom_site_occupancy
  Ce  Ce0  1  0.000000  0.000000  0.000000  1
  Y  Y1  1  0.749352  0.749352  0.751946  1
  Y  Y2  1  0.250648  0.250648  0.248054  1
  Y  Y3  1  0.583944  0.583944  0.248170  1
  Y  Y4  1  0.416056  0.416056  0.751830  1
  B  B5  1  0.500000  0.173531  0.500000  1
  B  B6  1  0.826469  0.500000  0.500000  1
  B  B7  1  0.173531  0.826469  0.500000  1
  B  B8  1  0.173531  0.500000  0.500000  1
  B  B9  1  0.826469  0.173531  0.500000  1
  B  B10  1  0.500000  0.826469  0.500000  1
  Os  Os11  1  0.889519  0.889519  0.331442  1
  Os  Os12  1  0.110481  0.110481  0.668558  1
