# generated using pymatgen
data_Sm3PaGa2Rh3
_symmetry_space_group_name_H-M   'P 1'
_cell_length_a   7.37265851
_cell_length_b   7.37265710
_cell_length_c   4.17629900
_cell_angle_alpha   90.00000000
_cell_angle_beta   90.00000000
_cell_angle_gamma   120.80935267
_symmetry_Int_Tables_number   1
_chemical_formula_structural   Sm3PaGa2Rh3
_chemical_formula_sum   'Sm3 Pa1 Ga2 Rh3'
_cell_volume   194.97115209
_cell_formula_units_Z   1
loop_
 _symmetry_equiv_pos_site_id
 _symmetry_equiv_pos_as_xyz
  1  'x, y, z'
loop_
 _atom_site_type_symbol
 _atom_site_label
 _atom_site_symmetry_multiplicity
 _atom_site_fract_x
 _atom_site_fract_y
 _atom_site_fract_z
 _atom_site_occupancy
  Sm  Sm0  1  0.968154  0.410659  0.500000  1
  Sm  Sm1  1  0.630168  0.630168  0.500000  1
  Sm  Sm2  1  0.410659  0.968154  0.500000  1
  Pa  Pa3  1  0.261563  0.261563  0.000000  1
  Ga  Ga4  1  0.004541  0.751910  0.000000  1
  Ga  Ga5  1  0.751910  0.004541  0.000000  1
  Rh  Rh6  1  0.323144  0.637157  0.000000  1
  Rh  Rh7  1  0.012703  0.012703  0.500000  1
  Rh  Rh8  1  0.637157  0.323144  0.000000  1
