# generated using pymatgen
data_TbDy2U(VB4)4
_symmetry_space_group_name_H-M   'P 1'
_cell_length_a   3.47368900
_cell_length_b   5.97914080
_cell_length_c   11.58486524
_cell_angle_alpha   89.95628106
_cell_angle_beta   90.00000000
_cell_angle_gamma   90.00000000
_symmetry_Int_Tables_number   1
_chemical_formula_structural   TbDy2U(VB4)4
_chemical_formula_sum   'Tb1 Dy2 U1 V4 B16'
_cell_volume   240.61382315
_cell_formula_units_Z   1
loop_
 _symmetry_equiv_pos_site_id
 _symmetry_equiv_pos_as_xyz
  1  'x, y, z'
loop_
 _atom_site_type_symbol
 _atom_site_label
 _atom_site_symmetry_multiplicity
 _atom_site_fract_x
 _atom_site_fract_y
 _atom_site_fract_z
 _atom_site_occupancy
  Tb  Tb0  1  0.000000  0.374564  0.652035  1
  Dy  Dy1  1  0.000000  0.122879  0.149754  1
  Dy  Dy2  1  0.000000  0.875466  0.849238  1
  U  U3  1  0.000000  0.626194  0.348669  1
  V  V4  1  0.000000  0.625640  0.085571  1
  V  V5  1  0.000000  0.372818  0.918165  1
  V  V6  1  0.000000  0.127827  0.415258  1
  V  V7  1  0.000000  0.871640  0.580513  1
  B  B8  1  0.500000  0.783036  0.187176  1
  B  B9  1  0.500000  0.214447  0.814295  1
  B  B10  1  0.500000  0.288708  0.315231  1
  B  B11  1  0.500000  0.716730  0.685948  1
  B  B12  1  0.500000  0.864342  0.033034  1
  B  B13  1  0.500000  0.135287  0.967602  1
  B  B14  1  0.500000  0.366595  0.465794  1
  B  B15  1  0.500000  0.636404  0.531074  1
  B  B16  1  0.500000  0.885320  0.452010  1
  B  B17  1  0.500000  0.114070  0.546459  1
  B  B18  1  0.500000  0.385936  0.047022  1
  B  B19  1  0.500000  0.614613  0.953189  1
  B  B20  1  0.500000  0.972301  0.308532  1
  B  B21  1  0.500000  0.023014  0.692234  1
  B  B22  1  0.500000  0.478004  0.193121  1
  B  B23  1  0.500000  0.524166  0.808078  1
