# generated using pymatgen
data_Pa2Ga5Ni3
_symmetry_space_group_name_H-M   'P 1'
_cell_length_a   8.20504377
_cell_length_b   8.20504390
_cell_length_c   8.20504453
_cell_angle_alpha   139.27048021
_cell_angle_beta   105.15312718
_cell_angle_gamma   88.89997563
_symmetry_Int_Tables_number   1
_chemical_formula_structural   Pa2Ga5Ni3
_chemical_formula_sum   'Pa4 Ga10 Ni6'
_cell_volume   333.56493691
_cell_formula_units_Z   2
loop_
 _symmetry_equiv_pos_site_id
 _symmetry_equiv_pos_as_xyz
  1  'x, y, z'
loop_
 _atom_site_type_symbol
 _atom_site_label
 _atom_site_symmetry_multiplicity
 _atom_site_fract_x
 _atom_site_fract_y
 _atom_site_fract_z
 _atom_site_occupancy
  Pa  Pa0  1  0.631662  0.864366  0.767298  1
  Pa  Pa1  1  0.368338  0.135634  0.232702  1
  Pa  Pa2  1  0.097068  0.364366  0.732702  1
  Pa  Pa3  1  0.902932  0.635634  0.267298  1
  Ga  Ga4  1  0.270568  0.020568  0.750000  1
  Ga  Ga5  1  0.729432  0.979432  0.250000  1
  Ga  Ga6  1  0.729432  0.479432  0.750000  1
  Ga  Ga7  1  0.270568  0.520568  0.250000  1
  Ga  Ga8  1  0.448242  0.600721  0.847521  1
  Ga  Ga9  1  0.551758  0.399279  0.152479  1
  Ga  Ga10  1  0.753200  0.100721  0.652479  1
  Ga  Ga11  1  0.246800  0.899279  0.347521  1
  Ga  Ga12  1  0.000000  0.750000  0.750000  1
  Ga  Ga13  1  0.000000  0.250000  0.250000  1
  Ni  Ni14  1  0.257186  0.638049  0.619137  1
  Ni  Ni15  1  0.742814  0.361951  0.380863  1
  Ni  Ni16  1  0.018912  0.138049  0.880863  1
  Ni  Ni17  1  0.981088  0.861951  0.119137  1
  Ni  Ni18  1  0.500000  0.750000  0.250000  1
  Ni  Ni19  1  0.500000  0.250000  0.750000  1
