# generated using pymatgen
data_Ce12Tm8TcIr11
_symmetry_space_group_name_H-M   'P 1'
_cell_length_a   10.99140430
_cell_length_b   10.99939331
_cell_length_c   6.28178200
_cell_angle_alpha   90.00000000
_cell_angle_beta   90.00000000
_cell_angle_gamma   89.94418102
_symmetry_Int_Tables_number   1
_chemical_formula_structural   Ce12Tm8TcIr11
_chemical_formula_sum   'Ce12 Tm8 Tc1 Ir11'
_cell_volume   759.45941280
_cell_formula_units_Z   1
loop_
 _symmetry_equiv_pos_site_id
 _symmetry_equiv_pos_as_xyz
  1  'x, y, z'
loop_
 _atom_site_type_symbol
 _atom_site_label
 _atom_site_symmetry_multiplicity
 _atom_site_fract_x
 _atom_site_fract_y
 _atom_site_fract_z
 _atom_site_occupancy
  Ce  Ce0  1  0.291616  0.090217  0.378134  1
  Ce  Ce1  1  0.291298  0.909509  0.882611  1
  Ce  Ce2  1  0.708702  0.090491  0.882611  1
  Ce  Ce3  1  0.708384  0.909783  0.378134  1
  Ce  Ce4  1  0.592212  0.787184  0.886728  1
  Ce  Ce5  1  0.591938  0.212224  0.383243  1
  Ce  Ce6  1  0.408062  0.787776  0.383243  1
  Ce  Ce7  1  0.407788  0.212816  0.886728  1
  Ce  Ce8  1  0.205772  0.410760  0.617340  1
  Ce  Ce9  1  0.205694  0.588797  0.117249  1
  Ce  Ce10  1  0.794306  0.411203  0.117249  1
  Ce  Ce11  1  0.794228  0.589240  0.617340  1
  Tm  Tm12  1  0.915082  0.712819  0.117024  1
  Tm  Tm13  1  0.914745  0.286936  0.617363  1
  Tm  Tm14  1  0.085255  0.713064  0.617363  1
  Tm  Tm15  1  0.084918  0.287181  0.117024  1
  Tm  Tm16  1  0.000000  0.000000  0.493203  1
  Tm  Tm17  1  0.000000  0.000000  0.992826  1
  Tm  Tm18  1  0.500000  0.500000  0.008620  1
  Tm  Tm19  1  0.500000  0.500000  0.508917  1
  Tc  Tc20  1  0.500000  0.000000  0.128931  1
  Ir  Ir21  1  0.847314  0.152723  0.241753  1
  Ir  Ir22  1  0.846370  0.847739  0.740881  1
  Ir  Ir23  1  0.153630  0.152261  0.740881  1
  Ir  Ir24  1  0.152686  0.847277  0.241753  1
  Ir  Ir25  1  0.655639  0.344869  0.753842  1
  Ir  Ir26  1  0.656238  0.654424  0.254909  1
  Ir  Ir27  1  0.343762  0.345576  0.254909  1
  Ir  Ir28  1  0.344361  0.655131  0.753842  1
  Ir  Ir29  1  0.500000  0.000000  0.627225  1
  Ir  Ir30  1  0.000000  0.500000  0.878975  1
  Ir  Ir31  1  0.000000  0.500000  0.379150  1
