# generated using pymatgen
data_ErSc(Zn4Rh)2
_symmetry_space_group_name_H-M   'P 1'
_cell_length_a   5.06020100
_cell_length_b   5.06020022
_cell_length_c   8.31308500
_cell_angle_alpha   90.00000000
_cell_angle_beta   90.00000000
_cell_angle_gamma   119.99999857
_symmetry_Int_Tables_number   1
_chemical_formula_structural   ErSc(Zn4Rh)2
_chemical_formula_sum   'Er1 Sc1 Zn8 Rh2'
_cell_volume   184.34371193
_cell_formula_units_Z   1
loop_
 _symmetry_equiv_pos_site_id
 _symmetry_equiv_pos_as_xyz
  1  'x, y, z'
loop_
 _atom_site_type_symbol
 _atom_site_label
 _atom_site_symmetry_multiplicity
 _atom_site_fract_x
 _atom_site_fract_y
 _atom_site_fract_z
 _atom_site_occupancy
  Er  Er0  1  0.666667  0.333333  0.436284  1
  Sc  Sc1  1  0.333333  0.666667  0.933387  1
  Zn  Zn2  1  0.000000  0.000000  0.999431  1
  Zn  Zn3  1  0.000000  0.000000  0.501708  1
  Zn  Zn4  1  0.170464  0.340926  0.243281  1
  Zn  Zn5  1  0.829843  0.170157  0.751502  1
  Zn  Zn6  1  0.340312  0.170157  0.751502  1
  Zn  Zn7  1  0.659074  0.829536  0.243281  1
  Zn  Zn8  1  0.170464  0.829536  0.243281  1
  Zn  Zn9  1  0.829843  0.659688  0.751502  1
  Rh  Rh10  1  0.333333  0.666667  0.575935  1
  Rh  Rh11  1  0.666667  0.333333  0.068908  1
