# generated using pymatgen
data_DyY2Er9Co5Sn
_symmetry_space_group_name_H-M   'P 1'
_cell_length_a   8.23480658
_cell_length_b   8.23504227
_cell_length_c   8.23391921
_cell_angle_alpha   106.89439495
_cell_angle_beta   110.79255674
_cell_angle_gamma   110.76029341
_symmetry_Int_Tables_number   1
_chemical_formula_structural   DyY2Er9Co5Sn
_chemical_formula_sum   'Dy1 Y2 Er9 Co5 Sn1'
_cell_volume   429.17106504
_cell_formula_units_Z   1
loop_
 _symmetry_equiv_pos_site_id
 _symmetry_equiv_pos_as_xyz
  1  'x, y, z'
loop_
 _atom_site_type_symbol
 _atom_site_label
 _atom_site_symmetry_multiplicity
 _atom_site_fract_x
 _atom_site_fract_y
 _atom_site_fract_z
 _atom_site_occupancy
  Dy  Dy0  1  0.807490  0.208313  0.016133  1
  Y  Y1  1  0.478684  0.291332  0.187869  1
  Y  Y2  1  0.104289  0.292116  0.811657  1
  Er  Er3  1  0.895927  0.710718  0.185648  1
  Er  Er4  1  0.523070  0.708771  0.813696  1
  Er  Er5  1  0.307101  0.620994  0.314618  1
  Er  Er6  1  0.306044  0.992445  0.685807  1
  Er  Er7  1  0.693213  0.381029  0.687330  1
  Er  Er8  1  0.693542  0.005905  0.313199  1
  Er  Er9  1  0.193607  0.209428  0.403179  1
  Er  Er10  1  0.807142  0.790894  0.598286  1
  Er  Er11  1  0.193147  0.790426  0.983690  1
  Co  Co12  1  0.502208  0.614690  0.112927  1
  Co  Co13  1  0.500865  0.389835  0.886795  1
  Co  Co14  1  0.375437  0.999417  0.376432  1
  Co  Co15  1  0.621245  0.998896  0.621621  1
  Co  Co16  1  0.997706  0.994994  0.000978  1
  Sn  Sn17  1  0.999281  0.499793  0.500136  1
