# generated using pymatgen
data_KMn7FeO16
_symmetry_space_group_name_H-M   'P 1'
_cell_length_a   5.86112265
_cell_length_b   7.13544031
_cell_length_c   7.25021600
_cell_angle_alpha   88.56716716
_cell_angle_beta   78.36138066
_cell_angle_gamma   78.06300496
_symmetry_Int_Tables_number   1
_chemical_formula_structural   KMn7FeO16
_chemical_formula_sum   'K1 Mn7 Fe1 O16'
_cell_volume   290.51572350
_cell_formula_units_Z   1
loop_
 _symmetry_equiv_pos_site_id
 _symmetry_equiv_pos_as_xyz
  1  'x, y, z'
loop_
 _atom_site_type_symbol
 _atom_site_label
 _atom_site_symmetry_multiplicity
 _atom_site_fract_x
 _atom_site_fract_y
 _atom_site_fract_z
 _atom_site_occupancy
  K  K0  1  0.998385  0.996698  0.000423  1
  Mn  Mn1  1  0.081942  0.508336  0.180123  1
  Mn  Mn2  1  0.171036  0.817958  0.518773  1
  Mn  Mn3  1  0.668794  0.819984  0.522089  1
  Mn  Mn4  1  0.336665  0.184227  0.480312  1
  Mn  Mn5  1  0.839165  0.183116  0.484484  1
  Mn  Mn6  1  0.428949  0.486823  0.817903  1
  Mn  Mn7  1  0.926636  0.490573  0.818319  1
  Fe  Fe8  1  0.579505  0.514428  0.185330  1
  O  O9  1  0.843567  0.641606  0.047693  1
  O  O10  1  0.320404  0.640227  0.047241  1
  O  O11  1  0.982061  0.704187  0.381357  1
  O  O12  1  0.482515  0.705417  0.390679  1
  O  O13  1  0.856009  0.956448  0.643889  1
  O  O14  1  0.352965  0.958196  0.643295  1
  O  O15  1  0.334755  0.368040  0.289299  1
  O  O16  1  0.847883  0.362807  0.286027  1
  O  O17  1  0.168712  0.630620  0.713591  1
  O  O18  1  0.666489  0.632693  0.717002  1
  O  O19  1  0.152600  0.042550  0.360582  1
  O  O20  1  0.654827  0.043314  0.361502  1
  O  O21  1  0.026741  0.296377  0.618337  1
  O  O22  1  0.525259  0.301600  0.612035  1
  O  O23  1  0.178114  0.356173  0.944532  1
  O  O24  1  0.683121  0.357598  0.935179  1
