# generated using pymatgen
data_Nb2Pd(PtSe4)2
_symmetry_space_group_name_H-M   'P 1'
_cell_length_a   3.63117300
_cell_length_b   10.86591200
_cell_length_c   15.40819000
_cell_angle_alpha   90.00000000
_cell_angle_beta   90.00000000
_cell_angle_gamma   90.00000000
_symmetry_Int_Tables_number   1
_chemical_formula_structural   Nb2Pd(PtSe4)2
_chemical_formula_sum   'Nb4 Pd2 Pt4 Se16'
_cell_volume   607.94564132
_cell_formula_units_Z   2
loop_
 _symmetry_equiv_pos_site_id
 _symmetry_equiv_pos_as_xyz
  1  'x, y, z'
loop_
 _atom_site_type_symbol
 _atom_site_label
 _atom_site_symmetry_multiplicity
 _atom_site_fract_x
 _atom_site_fract_y
 _atom_site_fract_z
 _atom_site_occupancy
  Nb  Nb0  1  0.500000  0.786937  0.881730  1
  Nb  Nb1  1  0.500000  0.213063  0.118270  1
  Nb  Nb2  1  0.500000  0.286937  0.618270  1
  Nb  Nb3  1  0.500000  0.713063  0.381730  1
  Pd  Pd4  1  0.000000  0.000000  0.000000  1
  Pd  Pd5  1  0.000000  0.500000  0.500000  1
  Pt  Pt6  1  0.000000  0.623332  0.783945  1
  Pt  Pt7  1  0.000000  0.376668  0.216055  1
  Pt  Pt8  1  0.000000  0.123332  0.716055  1
  Pt  Pt9  1  0.000000  0.876668  0.283945  1
  Se  Se10  1  0.000000  0.771452  0.006318  1
  Se  Se11  1  0.000000  0.228548  0.993682  1
  Se  Se12  1  0.000000  0.271452  0.493682  1
  Se  Se13  1  0.000000  0.728548  0.506318  1
  Se  Se14  1  0.000000  0.957284  0.842518  1
  Se  Se15  1  0.000000  0.042716  0.157482  1
  Se  Se16  1  0.000000  0.457284  0.657482  1
  Se  Se17  1  0.000000  0.542716  0.342518  1
  Se  Se18  1  0.500000  0.747849  0.715742  1
  Se  Se19  1  0.500000  0.252151  0.284258  1
  Se  Se20  1  0.500000  0.247849  0.784258  1
  Se  Se21  1  0.500000  0.752151  0.215742  1
  Se  Se22  1  0.500000  0.546396  0.881054  1
  Se  Se23  1  0.500000  0.453604  0.118946  1
  Se  Se24  1  0.500000  0.046396  0.618946  1
  Se  Se25  1  0.500000  0.953604  0.381054  1
