# generated using pymatgen
data_Er2ZnCoRu
_symmetry_space_group_name_H-M   'P 1'
_cell_length_a   4.12278680
_cell_length_b   5.55867519
_cell_length_c   5.34253131
_cell_angle_alpha   121.34757047
_cell_angle_beta   112.69627251
_cell_angle_gamma   89.99999389
_symmetry_Int_Tables_number   1
_chemical_formula_structural   Er2ZnCoRu
_chemical_formula_sum   'Er2 Zn1 Co1 Ru1'
_cell_volume   93.28351024
_cell_formula_units_Z   1
loop_
 _symmetry_equiv_pos_site_id
 _symmetry_equiv_pos_as_xyz
  1  'x, y, z'
loop_
 _atom_site_type_symbol
 _atom_site_label
 _atom_site_symmetry_multiplicity
 _atom_site_fract_x
 _atom_site_fract_y
 _atom_site_fract_z
 _atom_site_occupancy
  Er  Er0  1  0.792460  0.288078  0.584919  1
  Er  Er1  1  0.207540  0.703160  0.415081  1
  Zn  Zn2  1  0.000000  0.991148  0.000000  1
  Co  Co3  1  0.500000  0.725848  0.000000  1
  Ru  Ru4  1  0.500000  0.291766  0.000000  1
