# generated using pymatgen
data_Ho8Zr9Ti2Si16Ag
_symmetry_space_group_name_H-M   'P 1'
_cell_length_a   7.29867445
_cell_length_b   7.29332529
_cell_length_c   13.28194723
_cell_angle_alpha   90.13737830
_cell_angle_beta   89.84972478
_cell_angle_gamma   89.85266335
_symmetry_Int_Tables_number   1
_chemical_formula_structural   Ho8Zr9Ti2Si16Ag
_chemical_formula_sum   'Ho8 Zr9 Ti2 Si16 Ag1'
_cell_volume   707.01258159
_cell_formula_units_Z   1
loop_
 _symmetry_equiv_pos_site_id
 _symmetry_equiv_pos_as_xyz
  1  'x, y, z'
loop_
 _atom_site_type_symbol
 _atom_site_label
 _atom_site_symmetry_multiplicity
 _atom_site_fract_x
 _atom_site_fract_y
 _atom_site_fract_z
 _atom_site_occupancy
  Ho  Ho0  1  0.345354  0.002155  0.466278  1
  Ho  Ho1  1  0.496917  0.844396  0.714402  1
  Ho  Ho2  1  0.502510  0.153384  0.211770  1
  Ho  Ho3  1  0.845798  0.497817  0.287078  1
  Ho  Ho4  1  0.152637  0.501821  0.786907  1
  Ho  Ho5  1  0.652435  0.001276  0.964506  1
  Ho  Ho6  1  0.002503  0.344478  0.535286  1
  Ho  Ho7  1  0.002524  0.651189  0.033974  1
  Zr  Zr8  1  0.177541  0.823151  0.251041  1
  Zr  Zr9  1  0.824961  0.175576  0.748537  1
  Zr  Zr10  1  0.144268  0.007398  0.876269  1
  Zr  Zr11  1  0.497173  0.642260  0.122373  1
  Zr  Zr12  1  0.503273  0.358254  0.623763  1
  Zr  Zr13  1  0.643783  0.497499  0.876031  1
  Zr  Zr14  1  0.356095  0.505121  0.378399  1
  Zr  Zr15  1  0.855111  0.995579  0.374570  1
  Zr  Zr16  1  0.007898  0.143521  0.123475  1
  Ti  Ti17  1  0.678392  0.678902  0.500956  1
  Ti  Ti18  1  0.989884  0.854659  0.625087  1
  Si  Si19  1  0.202737  0.132966  0.679674  1
  Si  Si20  1  0.367224  0.722576  0.927334  1
  Si  Si21  1  0.640145  0.291950  0.431765  1
  Si  Si22  1  0.723650  0.366894  0.071888  1
  Si  Si23  1  0.283870  0.642793  0.572092  1
  Si  Si24  1  0.794060  0.857835  0.181245  1
  Si  Si25  1  0.142384  0.206747  0.318446  1
  Si  Si26  1  0.860380  0.795826  0.814403  1
  Si  Si27  1  0.292301  0.935413  0.062997  1
  Si  Si28  1  0.553113  0.794931  0.316415  1
  Si  Si29  1  0.446311  0.202561  0.808576  1
  Si  Si30  1  0.796827  0.557775  0.682137  1
  Si  Si31  1  0.203454  0.447020  0.191135  1
  Si  Si32  1  0.707012  0.043332  0.563376  1
  Si  Si33  1  0.936147  0.291803  0.936266  1
  Si  Si34  1  0.045896  0.705981  0.442175  1
  Ag  Ag35  1  0.325432  0.325158  0.999374  1
