# generated using pymatgen
data_Tb2ThIn3PdPt2
_symmetry_space_group_name_H-M   'P 1'
_cell_length_a   7.79672600
_cell_length_b   7.78294537
_cell_length_c   3.88966300
_cell_angle_alpha   90.00000000
_cell_angle_beta   90.00000000
_cell_angle_gamma   120.05859743
_symmetry_Int_Tables_number   1
_chemical_formula_structural   Tb2ThIn3PdPt2
_chemical_formula_sum   'Tb2 Th1 In3 Pd1 Pt2'
_cell_volume   204.28765446
_cell_formula_units_Z   1
loop_
 _symmetry_equiv_pos_site_id
 _symmetry_equiv_pos_as_xyz
  1  'x, y, z'
loop_
 _atom_site_type_symbol
 _atom_site_label
 _atom_site_symmetry_multiplicity
 _atom_site_fract_x
 _atom_site_fract_y
 _atom_site_fract_z
 _atom_site_occupancy
  Tb  Tb0  1  0.411356  0.409333  0.500000  1
  Tb  Tb1  1  0.002023  0.590667  0.500000  1
  Th  Th2  1  0.586605  0.000000  0.500000  1
  In  In3  1  0.744196  0.732863  0.000000  1
  In  In4  1  0.245986  0.000000  0.000000  1
  In  In5  1  0.011334  0.267137  0.000000  1
  Pd  Pd6  1  0.991914  0.000000  0.500000  1
  Pt  Pt7  1  0.665560  0.324537  0.000000  1
  Pt  Pt8  1  0.341023  0.675463  0.000000  1
