# generated using pymatgen
data_AcYb(Ge2Pt)2
_symmetry_space_group_name_H-M   'P 1'
_cell_length_a   9.66227272
_cell_length_b   9.66227225
_cell_length_c   9.66227333
_cell_angle_alpha   152.94968455
_cell_angle_beta   124.74604309
_cell_angle_gamma   62.57756177
_symmetry_Int_Tables_number   1
_chemical_formula_structural   AcYb(Ge2Pt)2
_chemical_formula_sum   'Ac2 Yb2 Ge8 Pt4'
_cell_volume   334.40210474
_cell_formula_units_Z   2
loop_
 _symmetry_equiv_pos_site_id
 _symmetry_equiv_pos_as_xyz
  1  'x, y, z'
loop_
 _atom_site_type_symbol
 _atom_site_label
 _atom_site_symmetry_multiplicity
 _atom_site_fract_x
 _atom_site_fract_y
 _atom_site_fract_z
 _atom_site_occupancy
  Ac  Ac0  1  0.261717  0.000000  0.261717  1
  Ac  Ac1  1  0.738283  0.000000  0.738283  1
  Yb  Yb2  1  0.295720  0.795720  0.500000  1
  Yb  Yb3  1  0.704280  0.204280  0.500000  1
  Ge  Ge4  1  0.921653  0.421653  0.500000  1
  Ge  Ge5  1  0.078347  0.578347  0.500000  1
  Ge  Ge6  1  0.420933  0.420933  0.000000  1
  Ge  Ge7  1  0.579067  0.579067  0.000000  1
  Ge  Ge8  1  0.052428  0.200623  0.851805  1
  Ge  Ge9  1  0.947572  0.799377  0.148195  1
  Ge  Ge10  1  0.348818  0.200623  0.148195  1
  Ge  Ge11  1  0.651182  0.799377  0.851805  1
  Pt  Pt12  1  0.094135  0.347540  0.746596  1
  Pt  Pt13  1  0.905865  0.652460  0.253404  1
  Pt  Pt14  1  0.600945  0.347540  0.253404  1
  Pt  Pt15  1  0.399055  0.652460  0.746596  1
