# generated using pymatgen
data_Ce4ZnSi5Pd2
_symmetry_space_group_name_H-M   'P 1'
_cell_length_a   8.37079900
_cell_length_b   8.37082388
_cell_length_c   8.32960300
_cell_angle_alpha   89.99963723
_cell_angle_beta   90.00034908
_cell_angle_gamma   120.00465581
_symmetry_Int_Tables_number   1
_chemical_formula_structural   Ce4ZnSi5Pd2
_chemical_formula_sum   'Ce8 Zn2 Si10 Pd4'
_cell_volume   505.44007828
_cell_formula_units_Z   2
loop_
 _symmetry_equiv_pos_site_id
 _symmetry_equiv_pos_as_xyz
  1  'x, y, z'
loop_
 _atom_site_type_symbol
 _atom_site_label
 _atom_site_symmetry_multiplicity
 _atom_site_fract_x
 _atom_site_fract_y
 _atom_site_fract_z
 _atom_site_occupancy
  Ce  Ce0  1  0.499906  0.500102  0.752829  1
  Ce  Ce1  1  0.500094  0.499898  0.247171  1
  Ce  Ce2  1  0.000185  0.500125  0.754141  1
  Ce  Ce3  1  0.999815  0.499875  0.245859  1
  Ce  Ce4  1  0.499890  0.999805  0.753968  1
  Ce  Ce5  1  0.500110  0.000195  0.246032  1
  Ce  Ce6  1  0.999996  0.999968  0.745855  1
  Ce  Ce7  1  0.000004  0.000032  0.254145  1
  Zn  Zn8  1  0.836909  0.162883  0.999797  1
  Zn  Zn9  1  0.163091  0.837117  0.000203  1
  Si  Si10  1  0.328516  0.166471  0.999880  1
  Si  Si11  1  0.164370  0.835648  0.499853  1
  Si  Si12  1  0.671484  0.833529  0.000120  1
  Si  Si13  1  0.835630  0.164352  0.500147  1
  Si  Si14  1  0.833617  0.671455  0.999885  1
  Si  Si15  1  0.670123  0.834641  0.499862  1
  Si  Si16  1  0.166383  0.328545  0.000115  1
  Si  Si17  1  0.329877  0.165359  0.500138  1
  Si  Si18  1  0.165421  0.330038  0.499849  1
  Si  Si19  1  0.834579  0.669962  0.500151  1
  Pd  Pd20  1  0.662604  0.337142  0.999777  1
  Pd  Pd21  1  0.337396  0.662858  0.000223  1
  Pd  Pd22  1  0.333007  0.667232  0.499742  1
  Pd  Pd23  1  0.666993  0.332768  0.500258  1
