# generated using pymatgen
data_Tm3LuTc3B8Ru
_symmetry_space_group_name_H-M   'P 1'
_cell_length_a   5.24689900
_cell_length_b   5.88757172
_cell_length_c   6.38670074
_cell_angle_alpha   90.18667647
_cell_angle_beta   90.00000000
_cell_angle_gamma   90.00000000
_symmetry_Int_Tables_number   1
_chemical_formula_structural   Tm3LuTc3B8Ru
_chemical_formula_sum   'Tm3 Lu1 Tc3 B8 Ru1'
_cell_volume   197.29368134
_cell_formula_units_Z   1
loop_
 _symmetry_equiv_pos_site_id
 _symmetry_equiv_pos_as_xyz
  1  'x, y, z'
loop_
 _atom_site_type_symbol
 _atom_site_label
 _atom_site_symmetry_multiplicity
 _atom_site_fract_x
 _atom_site_fract_y
 _atom_site_fract_z
 _atom_site_occupancy
  Tm  Tm0  1  0.250000  0.515332  0.663990  1
  Tm  Tm1  1  0.750000  0.486046  0.336781  1
  Tm  Tm2  1  0.750000  0.985280  0.162066  1
  Lu  Lu3  1  0.250000  0.014597  0.836326  1
  Tc  Tc4  1  0.750000  0.818286  0.685323  1
  Tc  Tc5  1  0.750000  0.319548  0.815451  1
  Tc  Tc6  1  0.250000  0.180432  0.313750  1
  B  B7  1  0.922236  0.131853  0.535286  1
  B  B8  1  0.419938  0.868130  0.466332  1
  B  B9  1  0.579331  0.631902  0.964731  1
  B  B10  1  0.080121  0.366567  0.034334  1
  B  B11  1  0.080062  0.868130  0.466332  1
  B  B12  1  0.920669  0.631902  0.964731  1
  B  B13  1  0.419879  0.366567  0.034334  1
  B  B14  1  0.577764  0.131853  0.535286  1
  Ru  Ru15  1  0.250000  0.683573  0.184944  1
