# generated using pymatgen
data_La3Dy2Tc6P12Ir13
_symmetry_space_group_name_H-M   'P 1'
_cell_length_a   12.76154700
_cell_length_b   12.76154684
_cell_length_c   4.02185500
_cell_angle_alpha   90.00000000
_cell_angle_beta   90.00000000
_cell_angle_gamma   119.99999782
_symmetry_Int_Tables_number   1
_chemical_formula_structural   La3Dy2Tc6P12Ir13
_chemical_formula_sum   'La3 Dy2 Tc6 P12 Ir13'
_cell_volume   567.23587925
_cell_formula_units_Z   1
loop_
 _symmetry_equiv_pos_site_id
 _symmetry_equiv_pos_as_xyz
  1  'x, y, z'
loop_
 _atom_site_type_symbol
 _atom_site_label
 _atom_site_symmetry_multiplicity
 _atom_site_fract_x
 _atom_site_fract_y
 _atom_site_fract_z
 _atom_site_occupancy
  La  La0  1  0.000572  0.812535  0.000000  1
  La  La1  1  0.187465  0.188037  0.000000  1
  La  La2  1  0.811963  0.999428  0.000000  1
  Dy  Dy3  1  0.333333  0.666667  0.500000  1
  Dy  Dy4  1  0.666667  0.333333  0.500000  1
  Tc  Tc5  1  0.990560  0.446287  0.500000  1
  Tc  Tc6  1  0.553713  0.544273  0.500000  1
  Tc  Tc7  1  0.455727  0.009440  0.500000  1
  Tc  Tc8  1  0.616540  0.796314  0.500000  1
  Tc  Tc9  1  0.203686  0.820227  0.500000  1
  Tc  Tc10  1  0.179773  0.383460  0.500000  1
  P  P11  1  0.007434  0.635003  0.500000  1
  P  P12  1  0.364997  0.372433  0.500000  1
  P  P13  1  0.627567  0.992566  0.500000  1
  P  P14  1  0.520403  0.694871  0.000000  1
  P  P15  1  0.305129  0.825532  0.000000  1
  P  P16  1  0.174468  0.479597  0.000000  1
  P  P17  1  0.482937  0.170176  0.000000  1
  P  P18  1  0.687239  0.517063  0.000000  1
  P  P19  1  0.829824  0.312761  0.000000  1
  P  P20  1  0.002944  0.186748  0.500000  1
  P  P21  1  0.813252  0.816196  0.500000  1
  P  P22  1  0.183804  0.997056  0.500000  1
  Ir  Ir23  1  0.505384  0.874871  0.000000  1
  Ir  Ir24  1  0.125129  0.630513  0.000000  1
  Ir  Ir25  1  0.369487  0.494616  0.000000  1
  Ir  Ir26  1  0.495626  0.359783  0.000000  1
  Ir  Ir27  1  0.864158  0.504374  0.000000  1
  Ir  Ir28  1  0.640217  0.135842  0.000000  1
  Ir  Ir29  1  0.995599  0.286185  0.000000  1
  Ir  Ir30  1  0.713815  0.709415  0.000000  1
  Ir  Ir31  1  0.290585  0.004401  0.000000  1
  Ir  Ir32  1  0.379502  0.185637  0.500000  1
  Ir  Ir33  1  0.806135  0.620498  0.500000  1
  Ir  Ir34  1  0.814363  0.193865  0.500000  1
  Ir  Ir35  1  0.000000  0.000000  0.500000  1
