# generated using pymatgen
data_HoErTm8(In2Pt)4
_symmetry_space_group_name_H-M   'P 1'
_cell_length_a   3.61159700
_cell_length_b   8.06619904
_cell_length_c   18.10126710
_cell_angle_alpha   89.98810226
_cell_angle_beta   90.00000000
_cell_angle_gamma   90.00000000
_symmetry_Int_Tables_number   1
_chemical_formula_structural   HoErTm8(In2Pt)4
_chemical_formula_sum   'Ho1 Er1 Tm8 In8 Pt4'
_cell_volume   527.32357237
_cell_formula_units_Z   1
loop_
 _symmetry_equiv_pos_site_id
 _symmetry_equiv_pos_as_xyz
  1  'x, y, z'
loop_
 _atom_site_type_symbol
 _atom_site_label
 _atom_site_symmetry_multiplicity
 _atom_site_fract_x
 _atom_site_fract_y
 _atom_site_fract_z
 _atom_site_occupancy
  Ho  Ho0  1  0.000000  0.500000  0.500000  1
  Er  Er1  1  0.000000  0.000000  0.000000  1
  Tm  Tm2  1  0.000000  0.116872  0.414300  1
  Tm  Tm3  1  0.000000  0.883128  0.585700  1
  Tm  Tm4  1  0.000000  0.383110  0.914348  1
  Tm  Tm5  1  0.000000  0.616890  0.085652  1
  Tm  Tm6  1  0.000000  0.243918  0.221100  1
  Tm  Tm7  1  0.000000  0.756082  0.778900  1
  Tm  Tm8  1  0.000000  0.256085  0.721099  1
  Tm  Tm9  1  0.000000  0.743915  0.278901  1
  In  In10  1  0.500000  0.423183  0.351324  1
  In  In11  1  0.500000  0.576817  0.648676  1
  In  In12  1  0.500000  0.076662  0.851591  1
  In  In13  1  0.500000  0.923338  0.148409  1
  In  In14  1  0.500000  0.292714  0.066899  1
  In  In15  1  0.500000  0.707286  0.933101  1
  In  In16  1  0.500000  0.206475  0.566988  1
  In  In17  1  0.500000  0.793525  0.433012  1
  Pt  Pt18  1  0.500000  0.025113  0.304154  1
  Pt  Pt19  1  0.500000  0.974887  0.695846  1
  Pt  Pt20  1  0.500000  0.474833  0.804313  1
  Pt  Pt21  1  0.500000  0.525167  0.195687  1
