# generated using pymatgen
data_Tm7Pa(CdCo)2
_symmetry_space_group_name_H-M   'P 1'
_cell_length_a   9.38246332
_cell_length_b   9.38246280
_cell_length_c   9.49160000
_cell_angle_alpha   59.61446336
_cell_angle_beta   59.61446521
_cell_angle_gamma   59.76579884
_symmetry_Int_Tables_number   1
_chemical_formula_structural   Tm7Pa(CdCo)2
_chemical_formula_sum   'Tm14 Pa2 Cd4 Co4'
_cell_volume   586.32322032
_cell_formula_units_Z   2
loop_
 _symmetry_equiv_pos_site_id
 _symmetry_equiv_pos_as_xyz
  1  'x, y, z'
loop_
 _atom_site_type_symbol
 _atom_site_label
 _atom_site_symmetry_multiplicity
 _atom_site_fract_x
 _atom_site_fract_y
 _atom_site_fract_z
 _atom_site_occupancy
  Tm  Tm0  1  0.348826  0.952995  0.349089  1
  Tm  Tm1  1  0.952995  0.348826  0.349089  1
  Tm  Tm2  1  0.810718  0.189979  0.187644  1
  Tm  Tm3  1  0.189979  0.810718  0.811659  1
  Tm  Tm4  1  0.189979  0.810718  0.187644  1
  Tm  Tm5  1  0.810718  0.189979  0.811659  1
  Tm  Tm6  1  0.188707  0.188707  0.811293  1
  Tm  Tm7  1  0.812430  0.812430  0.187570  1
  Tm  Tm8  1  0.937521  0.562691  0.564410  1
  Tm  Tm9  1  0.562691  0.937521  0.935378  1
  Tm  Tm10  1  0.562691  0.937521  0.564410  1
  Tm  Tm11  1  0.937521  0.562691  0.935378  1
  Tm  Tm12  1  0.559918  0.559918  0.940082  1
  Tm  Tm13  1  0.935767  0.935767  0.564233  1
  Pa  Pa14  1  0.334886  0.334886  0.347873  1
  Pa  Pa15  1  0.334886  0.334886  0.982356  1
  Cd  Cd16  1  0.580447  0.580447  0.583029  1
  Cd  Cd17  1  0.580447  0.580447  0.256077  1
  Cd  Cd18  1  0.579524  0.254732  0.582872  1
  Cd  Cd19  1  0.254732  0.579524  0.582872  1
  Co  Co20  1  0.155314  0.155314  0.125334  1
  Co  Co21  1  0.155314  0.155314  0.564038  1
  Co  Co22  1  0.164716  0.559271  0.138006  1
  Co  Co23  1  0.559271  0.164716  0.138006  1
