# generated using pymatgen
data_TmHfMn3Fe9P7
_symmetry_space_group_name_H-M   'P 1'
_cell_length_a   8.96992000
_cell_length_b   8.96991899
_cell_length_c   3.59235500
_cell_angle_alpha   90.00000000
_cell_angle_beta   90.00000000
_cell_angle_gamma   120.00000274
_symmetry_Int_Tables_number   1
_chemical_formula_structural   TmHfMn3Fe9P7
_chemical_formula_sum   'Tm1 Hf1 Mn3 Fe9 P7'
_cell_volume   250.31504752
_cell_formula_units_Z   1
loop_
 _symmetry_equiv_pos_site_id
 _symmetry_equiv_pos_as_xyz
  1  'x, y, z'
loop_
 _atom_site_type_symbol
 _atom_site_label
 _atom_site_symmetry_multiplicity
 _atom_site_fract_x
 _atom_site_fract_y
 _atom_site_fract_z
 _atom_site_occupancy
  Tm  Tm0  1  0.666667  0.333333  0.500000  1
  Hf  Hf1  1  0.000000  0.000000  0.000000  1
  Mn  Mn2  1  0.450433  0.564182  0.500000  1
  Mn  Mn3  1  0.435818  0.886251  0.500000  1
  Mn  Mn4  1  0.113749  0.549567  0.500000  1
  Fe  Fe5  1  0.705271  0.611753  0.000000  1
  Fe  Fe6  1  0.388247  0.093518  0.000000  1
  Fe  Fe7  1  0.906482  0.294729  0.000000  1
  Fe  Fe8  1  0.212499  0.389396  0.000000  1
  Fe  Fe9  1  0.610604  0.823102  0.000000  1
  Fe  Fe10  1  0.176898  0.787501  0.000000  1
  Fe  Fe11  1  0.277418  0.228183  0.500000  1
  Fe  Fe12  1  0.771817  0.049234  0.500000  1
  Fe  Fe13  1  0.950766  0.722582  0.500000  1
  P  P14  1  0.447446  0.366535  0.000000  1
  P  P15  1  0.633465  0.080911  0.000000  1
  P  P16  1  0.919089  0.552554  0.000000  1
  P  P17  1  0.041915  0.255380  0.500000  1
  P  P18  1  0.744620  0.786536  0.500000  1
  P  P19  1  0.213464  0.958085  0.500000  1
  P  P20  1  0.333333  0.666667  0.000000  1
