# generated using pymatgen
data_DyPa5F24
_symmetry_space_group_name_H-M   'P 1'
_cell_length_a   8.40201684
_cell_length_b   8.46401277
_cell_length_c   8.39850859
_cell_angle_alpha   63.21110603
_cell_angle_beta   63.55714089
_cell_angle_gamma   80.23139056
_symmetry_Int_Tables_number   1
_chemical_formula_structural   DyPa5F24
_chemical_formula_sum   'Dy1 Pa5 F24'
_cell_volume   477.01696817
_cell_formula_units_Z   1
loop_
 _symmetry_equiv_pos_site_id
 _symmetry_equiv_pos_as_xyz
  1  'x, y, z'
loop_
 _atom_site_type_symbol
 _atom_site_label
 _atom_site_symmetry_multiplicity
 _atom_site_fract_x
 _atom_site_fract_y
 _atom_site_fract_z
 _atom_site_occupancy
  Dy  Dy0  1  0.774647  0.636166  0.168963  1
  Pa  Pa1  1  0.638189  0.767473  0.667739  1
  Pa  Pa2  1  0.376740  0.225409  0.329613  1
  Pa  Pa3  1  0.215222  0.369871  0.837298  1
  Pa  Pa4  1  0.788422  0.207794  0.741638  1
  Pa  Pa5  1  0.215795  0.786693  0.244831  1
  F  F6  1  0.319596  0.259360  0.609606  1
  F  F7  1  0.679592  0.741109  0.397381  1
  F  F8  1  0.736822  0.680202  0.895455  1
  F  F9  1  0.266926  0.328159  0.102580  1
  F  F10  1  0.820443  0.938256  0.949572  1
  F  F11  1  0.168848  0.070684  0.047750  1
  F  F12  1  0.069702  0.169730  0.543577  1
  F  F13  1  0.938592  0.824055  0.458433  1
  F  F14  1  0.402399  0.597701  0.752223  1
  F  F15  1  0.596619  0.401326  0.248921  1
  F  F16  1  0.498329  0.997527  0.504941  1
  F  F17  1  0.996659  0.496582  0.005286  1
  F  F18  1  0.499044  0.248541  0.797267  1
  F  F19  1  0.496419  0.745072  0.208677  1
  F  F20  1  0.749219  0.494273  0.711709  1
  F  F21  1  0.246618  0.499283  0.299375  1
  F  F22  1  0.398742  0.810556  0.924163  1
  F  F23  1  0.604177  0.189900  0.071355  1
  F  F24  1  0.192213  0.604351  0.571893  1
  F  F25  1  0.806215  0.398554  0.434309  1
  F  F26  1  0.725912  0.027018  0.640541  1
  F  F27  1  0.278459  0.978989  0.340363  1
  F  F28  1  0.973805  0.276235  0.841489  1
  F  F29  1  0.025633  0.729131  0.153053  1
