# generated using pymatgen
data_LiPm4Au3
_symmetry_space_group_name_H-M   'P 1'
_cell_length_a   7.34146696
_cell_length_b   5.91286605
_cell_length_c   4.83513700
_cell_angle_alpha   90.00000000
_cell_angle_beta   90.00000000
_cell_angle_gamma   89.76037107
_symmetry_Int_Tables_number   1
_chemical_formula_structural   LiPm4Au3
_chemical_formula_sum   'Li1 Pm4 Au3'
_cell_volume   209.88716191
_cell_formula_units_Z   1
loop_
 _symmetry_equiv_pos_site_id
 _symmetry_equiv_pos_as_xyz
  1  'x, y, z'
loop_
 _atom_site_type_symbol
 _atom_site_label
 _atom_site_symmetry_multiplicity
 _atom_site_fract_x
 _atom_site_fract_y
 _atom_site_fract_z
 _atom_site_occupancy
  Li  Li0  1  0.890220  0.740117  0.499999  1
  Pm  Pm1  1  0.104937  0.504626  0.000000  1
  Pm  Pm2  1  0.586673  0.732452  0.000000  1
  Pm  Pm3  1  0.240668  0.036765  0.499999  1
  Pm  Pm4  1  0.726945  0.226404  0.499999  1
  Au  Au5  1  0.461582  0.226291  0.000000  1
  Au  Au6  1  0.950479  0.989349  0.000000  1
  Au  Au7  1  0.371827  0.544000  0.499999  1
