# generated using pymatgen
data_Rb2BeCl4
_symmetry_space_group_name_H-M   'P 1'
_cell_length_a   7.11880900
_cell_length_b   9.26853300
_cell_length_c   12.56658100
_cell_angle_alpha   90.00000000
_cell_angle_beta   90.00000000
_cell_angle_gamma   90.00000000
_symmetry_Int_Tables_number   1
_chemical_formula_structural   Rb2BeCl4
_chemical_formula_sum   'Rb8 Be4 Cl16'
_cell_volume   829.15452709
_cell_formula_units_Z   4
loop_
 _symmetry_equiv_pos_site_id
 _symmetry_equiv_pos_as_xyz
  1  'x, y, z'
loop_
 _atom_site_type_symbol
 _atom_site_label
 _atom_site_symmetry_multiplicity
 _atom_site_fract_x
 _atom_site_fract_y
 _atom_site_fract_z
 _atom_site_occupancy
  Rb  Rb0  1  0.750000  0.515198  0.320361  1
  Rb  Rb1  1  0.250000  0.484802  0.679639  1
  Rb  Rb2  1  0.250000  0.984802  0.820361  1
  Rb  Rb3  1  0.750000  0.015198  0.179639  1
  Rb  Rb4  1  0.750000  0.853929  0.587788  1
  Rb  Rb5  1  0.250000  0.146071  0.412212  1
  Rb  Rb6  1  0.250000  0.646071  0.087788  1
  Rb  Rb7  1  0.750000  0.353929  0.912212  1
  Be  Be8  1  0.750000  0.767302  0.921911  1
  Be  Be9  1  0.250000  0.232698  0.078089  1
  Be  Be10  1  0.250000  0.732698  0.421911  1
  Be  Be11  1  0.750000  0.267302  0.578089  1
  Cl  Cl12  1  0.983175  0.687697  0.848185  1
  Cl  Cl13  1  0.016825  0.312303  0.151815  1
  Cl  Cl14  1  0.016825  0.812303  0.348185  1
  Cl  Cl15  1  0.483175  0.312303  0.151815  1
  Cl  Cl16  1  0.983175  0.187697  0.651815  1
  Cl  Cl17  1  0.516825  0.687697  0.848185  1
  Cl  Cl18  1  0.516825  0.187697  0.651815  1
  Cl  Cl19  1  0.483175  0.812303  0.348185  1
  Cl  Cl20  1  0.750000  0.985914  0.914830  1
  Cl  Cl21  1  0.250000  0.014086  0.085170  1
  Cl  Cl22  1  0.250000  0.514086  0.414830  1
  Cl  Cl23  1  0.750000  0.485914  0.585170  1
  Cl  Cl24  1  0.750000  0.189814  0.424856  1
  Cl  Cl25  1  0.250000  0.810186  0.575144  1
  Cl  Cl26  1  0.250000  0.310186  0.924856  1
  Cl  Cl27  1  0.750000  0.689814  0.075144  1
