# generated using pymatgen
data_Tb2Er8AlSb5
_symmetry_space_group_name_H-M   'P 1'
_cell_length_a   8.87323500
_cell_length_b   8.86803484
_cell_length_c   6.35133400
_cell_angle_alpha   90.00000000
_cell_angle_beta   90.00000000
_cell_angle_gamma   120.01939591
_symmetry_Int_Tables_number   1
_chemical_formula_structural   Tb2Er8AlSb5
_chemical_formula_sum   'Tb2 Er8 Al1 Sb5'
_cell_volume   432.73302782
_cell_formula_units_Z   1
loop_
 _symmetry_equiv_pos_site_id
 _symmetry_equiv_pos_as_xyz
  1  'x, y, z'
loop_
 _atom_site_type_symbol
 _atom_site_label
 _atom_site_symmetry_multiplicity
 _atom_site_fract_x
 _atom_site_fract_y
 _atom_site_fract_z
 _atom_site_occupancy
  Tb  Tb0  1  0.998729  0.243584  0.250000  1
  Tb  Tb1  1  0.755146  0.756416  0.250000  1
  Er  Er2  1  0.010000  0.763805  0.750000  1
  Er  Er3  1  0.752270  0.000000  0.750000  1
  Er  Er4  1  0.246195  0.236195  0.750000  1
  Er  Er5  1  0.243088  0.000000  0.250000  1
  Er  Er6  1  0.334465  0.673315  0.501203  1
  Er  Er7  1  0.661151  0.326685  0.998797  1
  Er  Er8  1  0.661151  0.326685  0.501203  1
  Er  Er9  1  0.334465  0.673315  0.998797  1
  Al  Al10  1  0.396609  0.000000  0.750000  1
  Sb  Sb11  1  0.390086  0.391768  0.250000  1
  Sb  Sb12  1  0.998319  0.608232  0.250000  1
  Sb  Sb13  1  0.001746  0.390205  0.750000  1
  Sb  Sb14  1  0.611542  0.609795  0.750000  1
  Sb  Sb15  1  0.605038  0.000000  0.250000  1
