# generated using pymatgen
data_Th8Sc12Si9As7
_symmetry_space_group_name_H-M   'P 1'
_cell_length_a   7.45239052
_cell_length_b   7.40142350
_cell_length_c   14.08338204
_cell_angle_alpha   89.95811082
_cell_angle_beta   89.92538698
_cell_angle_gamma   90.00011556
_symmetry_Int_Tables_number   1
_chemical_formula_structural   Th8Sc12Si9As7
_chemical_formula_sum   'Th8 Sc12 Si9 As7'
_cell_volume   776.81452126
_cell_formula_units_Z   1
loop_
 _symmetry_equiv_pos_site_id
 _symmetry_equiv_pos_as_xyz
  1  'x, y, z'
loop_
 _atom_site_type_symbol
 _atom_site_label
 _atom_site_symmetry_multiplicity
 _atom_site_fract_x
 _atom_site_fract_y
 _atom_site_fract_z
 _atom_site_occupancy
  Th  Th0  1  0.010529  0.681602  0.597280  1
  Th  Th1  1  0.989364  0.318676  0.402504  1
  Th  Th2  1  0.489722  0.181469  0.402821  1
  Th  Th3  1  0.993292  0.320953  0.096795  1
  Th  Th4  1  0.510714  0.818788  0.597218  1
  Th  Th5  1  0.011377  0.679442  0.903606  1
  Th  Th6  1  0.508868  0.818394  0.903084  1
  Th  Th7  1  0.489744  0.182188  0.097614  1
  Sc  Sc8  1  0.180457  0.995123  0.750241  1
  Sc  Sc9  1  0.819296  0.004811  0.249469  1
  Sc  Sc10  1  0.319548  0.495565  0.247914  1
  Sc  Sc11  1  0.680983  0.505128  0.750028  1
  Sc  Sc12  1  0.356363  0.335783  0.624912  1
  Sc  Sc13  1  0.643491  0.664497  0.375082  1
  Sc  Sc14  1  0.143841  0.835984  0.375043  1
  Sc  Sc15  1  0.641903  0.664704  0.125759  1
  Sc  Sc16  1  0.856097  0.164250  0.625090  1
  Sc  Sc17  1  0.355050  0.335573  0.875080  1
  Sc  Sc18  1  0.854602  0.165057  0.875348  1
  Sc  Sc19  1  0.147131  0.832858  0.124319  1
  Si  Si20  1  0.058591  0.378678  0.749738  1
  Si  Si21  1  0.940638  0.621414  0.250451  1
  Si  Si22  1  0.441185  0.879346  0.250814  1
  Si  Si23  1  0.558981  0.121181  0.749800  1
  Si  Si24  1  0.306026  0.626024  0.749862  1
  Si  Si25  1  0.694782  0.374372  0.250221  1
  Si  Si26  1  0.194074  0.125170  0.250050  1
  Si  Si27  1  0.806304  0.874372  0.750288  1
  Si  Si28  1  0.306836  0.544277  0.044496  1
  As  As29  1  0.195605  0.046155  0.545576  1
  As  As30  1  0.804442  0.954032  0.454415  1
  As  As31  1  0.304139  0.546107  0.454453  1
  As  As32  1  0.804343  0.953691  0.045179  1
  As  As33  1  0.695906  0.454092  0.545457  1
  As  As34  1  0.194936  0.045625  0.954195  1
  As  As35  1  0.690840  0.454621  0.955798  1
