# generated using pymatgen
data_Zr7Co8Si14W
_symmetry_space_group_name_H-M   'P 1'
_cell_length_a   9.43443970
_cell_length_b   9.43443906
_cell_length_c   9.42418295
_cell_angle_alpha   94.15126769
_cell_angle_beta   94.15126677
_cell_angle_gamma   148.80146344
_symmetry_Int_Tables_number   1
_chemical_formula_structural   Zr7Co8Si14W
_chemical_formula_sum   'Zr7 Co8 Si14 W1'
_cell_volume   418.47959990
_cell_formula_units_Z   1
loop_
 _symmetry_equiv_pos_site_id
 _symmetry_equiv_pos_as_xyz
  1  'x, y, z'
loop_
 _atom_site_type_symbol
 _atom_site_label
 _atom_site_symmetry_multiplicity
 _atom_site_fract_x
 _atom_site_fract_y
 _atom_site_fract_z
 _atom_site_occupancy
  Zr  Zr0  1  0.864280  0.864280  0.728560  1
  Zr  Zr1  1  0.863050  0.137192  0.000243  1
  Zr  Zr2  1  0.137192  0.863050  0.000243  1
  Zr  Zr3  1  0.499655  0.304333  0.803987  1
  Zr  Zr4  1  0.503079  0.695823  0.198903  1
  Zr  Zr5  1  0.695823  0.503079  0.198903  1
  Zr  Zr6  1  0.304333  0.499655  0.803987  1
  Co  Co7  1  0.397595  0.897595  0.795192  1
  Co  Co8  1  0.102879  0.602879  0.205756  1
  Co  Co9  1  0.101924  0.897129  0.498111  1
  Co  Co10  1  0.396187  0.600983  0.498111  1
  Co  Co11  1  0.600983  0.396187  0.498111  1
  Co  Co12  1  0.897129  0.101924  0.498111  1
  Co  Co13  1  0.897595  0.397595  0.795192  1
  Co  Co14  1  0.602879  0.102879  0.205756  1
  Si  Si15  1  0.499926  0.091510  0.591436  1
  Si  Si16  1  0.500219  0.908542  0.408761  1
  Si  Si17  1  0.908542  0.500219  0.408761  1
  Si  Si18  1  0.091510  0.499926  0.591436  1
  Si  Si19  1  0.756267  0.756267  0.006152  1
  Si  Si20  1  0.249885  0.249885  0.006152  1
  Si  Si21  1  0.284508  0.284508  0.569014  1
  Si  Si22  1  0.711447  0.711447  0.422895  1
  Si  Si23  1  0.710438  0.290304  0.000742  1
  Si  Si24  1  0.290304  0.710438  0.000742  1
  Si  Si25  1  0.002991  0.298992  0.301983  1
  Si  Si26  1  0.999372  0.696935  0.696307  1
  Si  Si27  1  0.696935  0.999372  0.696307  1
  Si  Si28  1  0.298992  0.002991  0.301983  1
  W  W29  1  0.134080  0.134080  0.268162  1
