# generated using pymatgen
data_Zn3FeMo2(SeO7)2
_symmetry_space_group_name_H-M   'P 1'
_cell_length_a   5.21324709
_cell_length_b   8.67980883
_cell_length_c   7.40561548
_cell_angle_alpha   90.70957286
_cell_angle_beta   99.49006935
_cell_angle_gamma   89.98323105
_symmetry_Int_Tables_number   1
_chemical_formula_structural   Zn3FeMo2(SeO7)2
_chemical_formula_sum   'Zn3 Fe1 Mo2 Se2 O14'
_cell_volume   330.49197793
_cell_formula_units_Z   1
loop_
 _symmetry_equiv_pos_site_id
 _symmetry_equiv_pos_as_xyz
  1  'x, y, z'
loop_
 _atom_site_type_symbol
 _atom_site_label
 _atom_site_symmetry_multiplicity
 _atom_site_fract_x
 _atom_site_fract_y
 _atom_site_fract_z
 _atom_site_occupancy
  Zn  Zn0  1  0.930077  0.535817  0.475655  1
  Zn  Zn1  1  0.071166  0.037979  0.523533  1
  Zn  Zn2  1  0.538229  0.364968  0.772532  1
  Fe  Fe3  1  0.467939  0.867677  0.230300  1
  Mo  Mo4  1  0.076839  0.529452  0.015467  1
  Mo  Mo5  1  0.922822  0.034413  0.982138  1
  Se  Se6  1  0.537550  0.234947  0.388894  1
  Se  Se7  1  0.463263  0.736071  0.613381  1
  O  O8  1  0.244081  0.708404  0.051032  1
  O  O9  1  0.701175  0.891585  0.039481  1
  O  O10  1  0.197131  0.052080  0.166624  1
  O  O11  1  0.985865  0.473019  0.229293  1
  O  O12  1  0.710286  0.062174  0.388698  1
  O  O13  1  0.251739  0.845654  0.454829  1
  O  O14  1  0.663600  0.700092  0.449459  1
  O  O15  1  0.336880  0.205035  0.553734  1
  O  O16  1  0.752990  0.344278  0.545563  1
  O  O17  1  0.285328  0.566737  0.614682  1
  O  O18  1  0.026717  0.977079  0.771634  1
  O  O19  1  0.790952  0.548734  0.839305  1
  O  O20  1  0.288233  0.384474  0.946418  1
  O  O21  1  0.757129  0.213854  0.947350  1
