# generated using pymatgen
data_Li2Np(SeO4)2
_symmetry_space_group_name_H-M   'P 1'
_cell_length_a   7.06003015
_cell_length_b   5.14826180
_cell_length_c   6.35278816
_cell_angle_alpha   83.53032778
_cell_angle_beta   94.64399281
_cell_angle_gamma   67.99517596
_symmetry_Int_Tables_number   1
_chemical_formula_structural   Li2Np(SeO4)2
_chemical_formula_sum   'Li2 Np1 Se2 O8'
_cell_volume   210.80966525
_cell_formula_units_Z   1
loop_
 _symmetry_equiv_pos_site_id
 _symmetry_equiv_pos_as_xyz
  1  'x, y, z'
loop_
 _atom_site_type_symbol
 _atom_site_label
 _atom_site_symmetry_multiplicity
 _atom_site_fract_x
 _atom_site_fract_y
 _atom_site_fract_z
 _atom_site_occupancy
  Li  Li0  1  0.314541  0.677433  0.185226  1
  Li  Li1  1  0.685462  0.322579  0.814790  1
  Np  Np2  1  0.499976  0.000033  0.499954  1
  Se  Se3  1  0.829426  0.365171  0.315672  1
  Se  Se4  1  0.170584  0.634794  0.684339  1
  O  O5  1  0.807373  0.216767  0.101710  1
  O  O6  1  0.605053  0.687509  0.269273  1
  O  O7  1  0.343198  0.283168  0.283787  1
  O  O8  1  0.240055  0.839217  0.482317  1
  O  O9  1  0.759965  0.160788  0.517724  1
  O  O10  1  0.656740  0.716896  0.716141  1
  O  O11  1  0.394967  0.312452  0.730720  1
  O  O12  1  0.192661  0.783193  0.898345  1
