# generated using pymatgen
data_AcSc(SnPd)2
_symmetry_space_group_name_H-M   'P 1'
_cell_length_a   7.75056900
_cell_length_b   7.75056769
_cell_length_c   7.97107700
_cell_angle_alpha   90.00000000
_cell_angle_beta   90.00000000
_cell_angle_gamma   119.99999279
_symmetry_Int_Tables_number   1
_chemical_formula_structural   AcSc(SnPd)2
_chemical_formula_sum   'Ac3 Sc3 Sn6 Pd6'
_cell_volume   414.68160244
_cell_formula_units_Z   3
loop_
 _symmetry_equiv_pos_site_id
 _symmetry_equiv_pos_as_xyz
  1  'x, y, z'
loop_
 _atom_site_type_symbol
 _atom_site_label
 _atom_site_symmetry_multiplicity
 _atom_site_fract_x
 _atom_site_fract_y
 _atom_site_fract_z
 _atom_site_occupancy
  Ac  Ac0  1  0.406317  0.000325  0.750000  1
  Ac  Ac1  1  0.594008  0.593683  0.750000  1
  Ac  Ac2  1  0.999675  0.405992  0.750000  1
  Sc  Sc3  1  0.391797  0.002231  0.250000  1
  Sc  Sc4  1  0.610434  0.608203  0.250000  1
  Sc  Sc5  1  0.997769  0.389566  0.250000  1
  Sn  Sn6  1  0.733858  0.998827  0.027216  1
  Sn  Sn7  1  0.264969  0.266142  0.472784  1
  Sn  Sn8  1  0.001173  0.735031  0.472784  1
  Sn  Sn9  1  0.001173  0.735031  0.027216  1
  Sn  Sn10  1  0.264969  0.266142  0.027216  1
  Sn  Sn11  1  0.733858  0.998827  0.472784  1
  Pd  Pd12  1  0.333333  0.666667  0.052786  1
  Pd  Pd13  1  0.333333  0.666667  0.447214  1
  Pd  Pd14  1  0.666667  0.333333  0.052542  1
  Pd  Pd15  1  0.666667  0.333333  0.447458  1
  Pd  Pd16  1  0.000000  0.000000  0.250000  1
  Pd  Pd17  1  0.000000  0.000000  0.750000  1
