# generated using pymatgen
data_PrY7(WC2)4
_symmetry_space_group_name_H-M   'P 1'
_cell_length_a   5.76592105
_cell_length_b   5.76592161
_cell_length_c   9.98756763
_cell_angle_alpha   89.52226463
_cell_angle_beta   89.52226525
_cell_angle_gamma   89.91436905
_symmetry_Int_Tables_number   1
_chemical_formula_structural   PrY7(WC2)4
_chemical_formula_sum   'Pr1 Y7 W4 C8'
_cell_volume   332.02174217
_cell_formula_units_Z   1
loop_
 _symmetry_equiv_pos_site_id
 _symmetry_equiv_pos_as_xyz
  1  'x, y, z'
loop_
 _atom_site_type_symbol
 _atom_site_label
 _atom_site_symmetry_multiplicity
 _atom_site_fract_x
 _atom_site_fract_y
 _atom_site_fract_z
 _atom_site_occupancy
  Pr  Pr0  1  0.801325  0.801325  0.660213  1
  Y  Y1  1  0.301164  0.701110  0.158486  1
  Y  Y2  1  0.700051  0.302172  0.843577  1
  Y  Y3  1  0.799744  0.799744  0.342000  1
  Y  Y4  1  0.198113  0.198113  0.656780  1
  Y  Y5  1  0.701110  0.301164  0.158486  1
  Y  Y6  1  0.302172  0.700051  0.843577  1
  Y  Y7  1  0.199806  0.199806  0.340447  1
  W  W8  1  0.674898  0.320068  0.497340  1
  W  W9  1  0.320068  0.674898  0.497340  1
  W  W10  1  0.824510  0.824510  0.003235  1
  W  W11  1  0.180688  0.180688  0.001766  1
  C  C12  1  0.006227  0.006227  0.853595  1
  C  C13  1  0.493134  0.493134  0.650192  1
  C  C14  1  0.499811  0.499811  0.346274  1
  C  C15  1  0.502265  0.001316  0.001238  1
  C  C16  1  0.493003  0.999671  0.495200  1
  C  C17  1  0.001316  0.502265  0.001238  1
  C  C18  1  0.999671  0.493003  0.495200  1
  C  C19  1  0.000925  0.000925  0.153814  1
