# generated using pymatgen
data_La4Nd4Cd2IrPt
_symmetry_space_group_name_H-M   'P 1'
_cell_length_a   10.06818109
_cell_length_b   10.06814160
_cell_length_c   10.06411965
_cell_angle_alpha   60.03014262
_cell_angle_beta   60.04907436
_cell_angle_gamma   60.42768477
_symmetry_Int_Tables_number   1
_chemical_formula_structural   La4Nd4Cd2IrPt
_chemical_formula_sum   'La8 Nd8 Cd4 Ir2 Pt2'
_cell_volume   724.11349876
_cell_formula_units_Z   2
loop_
 _symmetry_equiv_pos_site_id
 _symmetry_equiv_pos_as_xyz
  1  'x, y, z'
loop_
 _atom_site_type_symbol
 _atom_site_label
 _atom_site_symmetry_multiplicity
 _atom_site_fract_x
 _atom_site_fract_y
 _atom_site_fract_z
 _atom_site_occupancy
  La  La0  1  0.348328  0.348410  0.345835  1
  La  La1  1  0.349881  0.349849  0.954309  1
  La  La2  1  0.355312  0.950034  0.347999  1
  La  La3  1  0.949967  0.355385  0.348068  1
  La  La4  1  0.806332  0.189893  0.189882  1
  La  La5  1  0.189740  0.805106  0.813796  1
  La  La6  1  0.189888  0.806371  0.189841  1
  La  La7  1  0.805155  0.189689  0.813782  1
  Nd  Nd8  1  0.192356  0.192311  0.808098  1
  Nd  Nd9  1  0.808831  0.808789  0.190024  1
  Nd  Nd10  1  0.937861  0.565936  0.562834  1
  Nd  Nd11  1  0.564355  0.936826  0.935309  1
  Nd  Nd12  1  0.565907  0.937810  0.562827  1
  Nd  Nd13  1  0.936820  0.564378  0.935275  1
  Nd  Nd14  1  0.564297  0.564351  0.937586  1
  Nd  Nd15  1  0.936923  0.936863  0.562323  1
  Cd  Cd16  1  0.581091  0.581102  0.579433  1
  Cd  Cd17  1  0.580947  0.580944  0.257902  1
  Cd  Cd18  1  0.579145  0.258591  0.581005  1
  Cd  Cd19  1  0.258571  0.579142  0.581024  1
  Ir  Ir20  1  0.142467  0.574003  0.141955  1
  Ir  Ir21  1  0.574004  0.142459  0.141957  1
  Pt  Pt22  1  0.141203  0.141146  0.145246  1
  Pt  Pt23  1  0.140617  0.140613  0.573689  1
