# generated using pymatgen
data_Li2V(SbPt)3
_symmetry_space_group_name_H-M   'P 1'
_cell_length_a   7.57652243
_cell_length_b   7.57652123
_cell_length_c   7.57836474
_cell_angle_alpha   99.87483268
_cell_angle_beta   99.87483730
_cell_angle_gamma   119.52227556
_symmetry_Int_Tables_number   1
_chemical_formula_structural   Li2V(SbPt)3
_chemical_formula_sum   'Li4 V2 Sb6 Pt6'
_cell_volume   355.91894990
_cell_formula_units_Z   2
loop_
 _symmetry_equiv_pos_site_id
 _symmetry_equiv_pos_as_xyz
  1  'x, y, z'
loop_
 _atom_site_type_symbol
 _atom_site_label
 _atom_site_symmetry_multiplicity
 _atom_site_fract_x
 _atom_site_fract_y
 _atom_site_fract_z
 _atom_site_occupancy
  Li  Li0  1  0.333103  0.169010  0.500626  1
  Li  Li1  1  0.998591  0.504472  0.501843  1
  Li  Li2  1  0.169010  0.333102  0.000625  1
  Li  Li3  1  0.504471  0.998591  0.001843  1
  V  V4  1  0.829575  0.669768  0.998246  1
  V  V5  1  0.669767  0.829575  0.498245  1
  Sb  Sb6  1  0.920563  0.104458  0.245296  1
  Sb  Sb7  1  0.257320  0.748144  0.246461  1
  Sb  Sb8  1  0.568186  0.396351  0.257802  1
  Sb  Sb9  1  0.104458  0.920563  0.745297  1
  Sb  Sb10  1  0.748143  0.257319  0.746460  1
  Sb  Sb11  1  0.396351  0.568185  0.757802  1
  Pt  Pt12  1  0.186138  0.019619  0.116408  1
  Pt  Pt13  1  0.871324  0.394278  0.118249  1
  Pt  Pt14  1  0.566825  0.712279  0.140069  1
  Pt  Pt15  1  0.019619  0.186140  0.616409  1
  Pt  Pt16  1  0.394277  0.871324  0.618249  1
  Pt  Pt17  1  0.712277  0.566824  0.640069  1
