# generated using pymatgen
data_CaNd2OsO8
_symmetry_space_group_name_H-M   'P 1'
_cell_length_a   6.15863900
_cell_length_b   7.48071460
_cell_length_c   7.47650600
_cell_angle_alpha   70.34072349
_cell_angle_beta   90.00000000
_cell_angle_gamma   90.00000000
_symmetry_Int_Tables_number   1
_chemical_formula_structural   CaNd2OsO8
_chemical_formula_sum   'Ca2 Nd4 Os2 O16'
_cell_volume   324.37222241
_cell_formula_units_Z   2
loop_
 _symmetry_equiv_pos_site_id
 _symmetry_equiv_pos_as_xyz
  1  'x, y, z'
loop_
 _atom_site_type_symbol
 _atom_site_label
 _atom_site_symmetry_multiplicity
 _atom_site_fract_x
 _atom_site_fract_y
 _atom_site_fract_z
 _atom_site_occupancy
  Ca  Ca0  1  0.750000  0.107980  0.669743  1
  Ca  Ca1  1  0.250000  0.892020  0.330257  1
  Nd  Nd2  1  0.250000  0.406505  0.401409  1
  Nd  Nd3  1  0.750000  0.593495  0.598591  1
  Nd  Nd4  1  0.250000  0.335814  0.891957  1
  Nd  Nd5  1  0.750000  0.664186  0.108043  1
  Os  Os6  1  0.250000  0.822394  0.808886  1
  Os  Os7  1  0.750000  0.177606  0.191114  1
  O  O8  1  0.003003  0.333728  0.665404  1
  O  O9  1  0.503003  0.666272  0.334596  1
  O  O10  1  0.996997  0.666272  0.334596  1
  O  O11  1  0.496997  0.333728  0.665404  1
  O  O12  1  0.948018  0.806017  0.802783  1
  O  O13  1  0.448018  0.193983  0.197217  1
  O  O14  1  0.051982  0.193983  0.197217  1
  O  O15  1  0.551982  0.806017  0.802783  1
  O  O16  1  0.750000  0.970016  0.411364  1
  O  O17  1  0.250000  0.029984  0.588636  1
  O  O18  1  0.750000  0.341464  0.338974  1
  O  O19  1  0.250000  0.658536  0.661026  1
  O  O20  1  0.750000  0.406888  0.972259  1
  O  O21  1  0.250000  0.593112  0.027741  1
  O  O22  1  0.750000  0.032036  0.036612  1
  O  O23  1  0.250000  0.967964  0.963388  1
