# generated using pymatgen
data_Dy(Sn3Rh2)2
_symmetry_space_group_name_H-M   'P 1'
_cell_length_a   6.95235897
_cell_length_b   6.95235929
_cell_length_c   6.95235908
_cell_angle_alpha   119.48876461
_cell_angle_beta   119.48876242
_cell_angle_gamma   90.88778917
_symmetry_Int_Tables_number   1
_chemical_formula_structural   Dy(Sn3Rh2)2
_chemical_formula_sum   'Dy1 Sn6 Rh4'
_cell_volume   239.42428902
_cell_formula_units_Z   1
loop_
 _symmetry_equiv_pos_site_id
 _symmetry_equiv_pos_as_xyz
  1  'x, y, z'
loop_
 _atom_site_type_symbol
 _atom_site_label
 _atom_site_symmetry_multiplicity
 _atom_site_fract_x
 _atom_site_fract_y
 _atom_site_fract_z
 _atom_site_occupancy
  Dy  Dy0  1  0.000000  0.000000  0.000000  1
  Sn  Sn1  1  0.870257  0.535373  0.000000  1
  Sn  Sn2  1  0.535373  0.870257  0.000000  1
  Sn  Sn3  1  0.464627  0.464627  0.334885  1
  Sn  Sn4  1  0.499999  0.000000  0.499999  1
  Sn  Sn5  1  0.000000  0.499999  0.499999  1
  Sn  Sn6  1  0.129742  0.129742  0.665114  1
  Rh  Rh7  1  0.607158  0.237912  0.000000  1
  Rh  Rh8  1  0.237912  0.607158  0.000000  1
  Rh  Rh9  1  0.762088  0.762088  0.369245  1
  Rh  Rh10  1  0.392842  0.392842  0.630754  1
