# generated using pymatgen
data_Er2Be25Co
_symmetry_space_group_name_H-M   'P 1'
_cell_length_a   7.19427666
_cell_length_b   7.23730275
_cell_length_c   7.17893808
_cell_angle_alpha   59.87133925
_cell_angle_beta   59.93037144
_cell_angle_gamma   59.66152070
_symmetry_Int_Tables_number   1
_chemical_formula_structural   Er2Be25Co
_chemical_formula_sum   'Er2 Be25 Co1'
_cell_volume   263.23064328
_cell_formula_units_Z   1
loop_
 _symmetry_equiv_pos_site_id
 _symmetry_equiv_pos_as_xyz
  1  'x, y, z'
loop_
 _atom_site_type_symbol
 _atom_site_label
 _atom_site_symmetry_multiplicity
 _atom_site_fract_x
 _atom_site_fract_y
 _atom_site_fract_z
 _atom_site_occupancy
  Er  Er0  1  0.246102  0.255528  0.250149  1
  Er  Er1  1  0.749851  0.751779  0.753898  1
  Be  Be2  1  0.502415  0.501597  0.497585  1
  Be  Be3  1  0.998735  0.003083  0.001265  1
  Be  Be4  1  0.203417  0.440007  0.796583  1
  Be  Be5  1  0.566396  0.788234  0.433604  1
  Be  Be6  1  0.434938  0.207409  0.565062  1
  Be  Be7  1  0.291107  0.933898  0.708893  1
  Be  Be8  1  0.707259  0.064258  0.292741  1
  Be  Be9  1  0.934348  0.289573  0.065652  1
  Be  Be10  1  0.066051  0.713820  0.933949  1
  Be  Be11  1  0.206070  0.795930  0.561993  1
  Be  Be12  1  0.791943  0.206994  0.436339  1
  Be  Be13  1  0.438007  0.563993  0.793930  1
  Be  Be14  1  0.563661  0.435277  0.208057  1
  Be  Be15  1  0.710355  0.285164  0.934247  1
  Be  Be16  1  0.288634  0.711780  0.064172  1
  Be  Be17  1  0.065753  0.929767  0.289645  1
  Be  Be18  1  0.935828  0.064585  0.711366  1
  Be  Be19  1  0.559812  0.208589  0.794085  1
  Be  Be20  1  0.438787  0.791550  0.206398  1
  Be  Be21  1  0.793602  0.436735  0.561213  1
  Be  Be22  1  0.205915  0.562485  0.440188  1
  Be  Be23  1  0.936418  0.709212  0.289786  1
  Be  Be24  1  0.065389  0.289442  0.708451  1
  Be  Be25  1  0.291549  0.063281  0.934611  1
  Be  Be26  1  0.710214  0.935415  0.063582  1
  Co  Co27  1  0.797443  0.560614  0.202557  1
