# generated using pymatgen
data_Lu4MnAl4Tc3
_symmetry_space_group_name_H-M   'P 1'
_cell_length_a   5.40728571
_cell_length_b   5.40970080
_cell_length_c   8.66646700
_cell_angle_alpha   90.00000000
_cell_angle_beta   90.00000000
_cell_angle_gamma   119.99070277
_symmetry_Int_Tables_number   1
_chemical_formula_structural   Lu4MnAl4Tc3
_chemical_formula_sum   'Lu4 Mn1 Al4 Tc3'
_cell_volume   219.56644089
_cell_formula_units_Z   1
loop_
 _symmetry_equiv_pos_site_id
 _symmetry_equiv_pos_as_xyz
  1  'x, y, z'
loop_
 _atom_site_type_symbol
 _atom_site_label
 _atom_site_symmetry_multiplicity
 _atom_site_fract_x
 _atom_site_fract_y
 _atom_site_fract_z
 _atom_site_occupancy
  Lu  Lu0  1  0.334553  0.665470  0.438684  1
  Lu  Lu1  1  0.665610  0.332956  0.558049  1
  Lu  Lu2  1  0.665610  0.332956  0.941951  1
  Lu  Lu3  1  0.334553  0.665470  0.061316  1
  Mn  Mn4  1  0.838805  0.155527  0.250000  1
  Al  Al5  1  0.835945  0.659464  0.250000  1
  Al  Al6  1  0.332379  0.158671  0.250000  1
  Al  Al7  1  0.179643  0.843620  0.750000  1
  Al  Al8  1  0.185657  0.346917  0.750000  1
  Tc  Tc9  1  0.975070  0.998045  0.501098  1
  Tc  Tc10  1  0.975070  0.998045  0.998902  1
  Tc  Tc11  1  0.677107  0.842860  0.750000  1
