# generated using pymatgen
data_PrSm6PI12
_symmetry_space_group_name_H-M   'P 1'
_cell_length_a   9.84598424
_cell_length_b   9.86168040
_cell_length_c   9.86644504
_cell_angle_alpha   107.89982919
_cell_angle_beta   107.84322645
_cell_angle_gamma   107.95114639
_symmetry_Int_Tables_number   1
_chemical_formula_structural   PrSm6PI12
_chemical_formula_sum   'Pr1 Sm6 P1 I12'
_cell_volume   777.46723669
_cell_formula_units_Z   1
loop_
 _symmetry_equiv_pos_site_id
 _symmetry_equiv_pos_as_xyz
  1  'x, y, z'
loop_
 _atom_site_type_symbol
 _atom_site_label
 _atom_site_symmetry_multiplicity
 _atom_site_fract_x
 _atom_site_fract_y
 _atom_site_fract_z
 _atom_site_occupancy
  Pr  Pr0  1  0.397019  0.192100  0.468270  1
  Sm  Sm1  1  0.803477  0.528759  0.599896  1
  Sm  Sm2  1  0.529017  0.599858  0.803243  1
  Sm  Sm3  1  0.195844  0.467517  0.398823  1
  Sm  Sm4  1  0.469195  0.399051  0.197055  1
  Sm  Sm5  1  0.004592  0.005108  0.004016  1
  Sm  Sm6  1  0.600462  0.804596  0.529385  1
  P  P7  1  0.501223  0.502375  0.501058  1
  I  I8  1  0.735186  0.187098  0.579121  1
  I  I9  1  0.967134  0.885484  0.654500  1
  I  I10  1  0.576201  0.728264  0.186384  1
  I  I11  1  0.113668  0.348541  0.032809  1
  I  I12  1  0.653826  0.966454  0.885005  1
  I  I13  1  0.886624  0.655730  0.966848  1
  I  I14  1  0.024882  0.112483  0.343979  1
  I  I15  1  0.814252  0.424832  0.271989  1
  I  I16  1  0.347434  0.031366  0.107568  1
  I  I17  1  0.269037  0.809410  0.422285  1
  I  I18  1  0.185949  0.576698  0.728211  1
  I  I19  1  0.424978  0.274277  0.819558  1
