# generated using pymatgen
data_Cs2NaPrBi2
_symmetry_space_group_name_H-M   'P 1'
_cell_length_a   11.98296068
_cell_length_b   11.98296144
_cell_length_c   7.86825800
_cell_angle_alpha   90.00000000
_cell_angle_beta   90.00000000
_cell_angle_gamma   98.31993926
_symmetry_Int_Tables_number   1
_chemical_formula_structural   Cs2NaPrBi2
_chemical_formula_sum   'Cs8 Na4 Pr4 Bi8'
_cell_volume   1117.92309918
_cell_formula_units_Z   4
loop_
 _symmetry_equiv_pos_site_id
 _symmetry_equiv_pos_as_xyz
  1  'x, y, z'
loop_
 _atom_site_type_symbol
 _atom_site_label
 _atom_site_symmetry_multiplicity
 _atom_site_fract_x
 _atom_site_fract_y
 _atom_site_fract_z
 _atom_site_occupancy
  Cs  Cs0  1  0.071352  0.428648  0.250000  1
  Cs  Cs1  1  0.428648  0.071352  0.750000  1
  Cs  Cs2  1  0.928648  0.571352  0.750000  1
  Cs  Cs3  1  0.571352  0.928648  0.250000  1
  Cs  Cs4  1  0.676225  0.323775  0.213440  1
  Cs  Cs5  1  0.823775  0.176225  0.713440  1
  Cs  Cs6  1  0.323775  0.676225  0.786560  1
  Cs  Cs7  1  0.176225  0.823775  0.286560  1
  Na  Na8  1  0.382418  0.382418  0.000000  1
  Na  Na9  1  0.117582  0.117582  0.500000  1
  Na  Na10  1  0.617582  0.617582  0.000000  1
  Na  Na11  1  0.882418  0.882418  0.500000  1
  Pr  Pr12  1  0.132071  0.132071  0.000000  1
  Pr  Pr13  1  0.367929  0.367929  0.500000  1
  Pr  Pr14  1  0.867929  0.867929  0.000000  1
  Pr  Pr15  1  0.632071  0.632071  0.500000  1
  Bi  Bi16  1  0.846834  0.653165  0.250000  1
  Bi  Bi17  1  0.653165  0.846834  0.750000  1
  Bi  Bi18  1  0.153165  0.346834  0.750000  1
  Bi  Bi19  1  0.346834  0.153165  0.250000  1
  Bi  Bi20  1  0.902969  0.097031  0.221785  1
  Bi  Bi21  1  0.597031  0.402969  0.721785  1
  Bi  Bi22  1  0.097031  0.902969  0.778215  1
  Bi  Bi23  1  0.402969  0.597031  0.278215  1
