# generated using pymatgen
data_La2Pr3CoPd2
_symmetry_space_group_name_H-M   'P 1'
_cell_length_a   8.72546800
_cell_length_b   8.46256700
_cell_length_c   11.88827200
_cell_angle_alpha   90.00000000
_cell_angle_beta   90.00000000
_cell_angle_gamma   90.00000000
_symmetry_Int_Tables_number   1
_chemical_formula_structural   La2Pr3CoPd2
_chemical_formula_sum   'La8 Pr12 Co4 Pd8'
_cell_volume   877.82831107
_cell_formula_units_Z   4
loop_
 _symmetry_equiv_pos_site_id
 _symmetry_equiv_pos_as_xyz
  1  'x, y, z'
loop_
 _atom_site_type_symbol
 _atom_site_label
 _atom_site_symmetry_multiplicity
 _atom_site_fract_x
 _atom_site_fract_y
 _atom_site_fract_z
 _atom_site_occupancy
  La  La0  1  0.837933  0.750000  0.799664  1
  La  La1  1  0.162067  0.250000  0.200336  1
  La  La2  1  0.337933  0.250000  0.700336  1
  La  La3  1  0.662067  0.750000  0.299664  1
  La  La4  1  0.381593  0.750000  0.692283  1
  La  La5  1  0.618407  0.250000  0.307717  1
  La  La6  1  0.881593  0.250000  0.807717  1
  La  La7  1  0.118407  0.750000  0.192283  1
  Pr  Pr8  1  0.967831  0.750000  0.497761  1
  Pr  Pr9  1  0.032169  0.250000  0.502239  1
  Pr  Pr10  1  0.467831  0.250000  0.002239  1
  Pr  Pr11  1  0.532169  0.750000  0.997761  1
  Pr  Pr12  1  0.676505  0.035341  0.582603  1
  Pr  Pr13  1  0.323495  0.964659  0.417397  1
  Pr  Pr14  1  0.176505  0.964659  0.917397  1
  Pr  Pr15  1  0.323495  0.535341  0.417397  1
  Pr  Pr16  1  0.823495  0.035341  0.082603  1
  Pr  Pr17  1  0.676505  0.464659  0.582603  1
  Pr  Pr18  1  0.823495  0.464659  0.082603  1
  Pr  Pr19  1  0.176505  0.535341  0.917397  1
  Co  Co20  1  0.558181  0.750000  0.509486  1
  Co  Co21  1  0.441819  0.250000  0.490514  1
  Co  Co22  1  0.058181  0.250000  0.990514  1
  Co  Co23  1  0.941819  0.750000  0.009486  1
  Pd  Pd24  1  0.565839  0.476299  0.824975  1
  Pd  Pd25  1  0.434161  0.523701  0.175025  1
  Pd  Pd26  1  0.065839  0.523701  0.675025  1
  Pd  Pd27  1  0.434161  0.976299  0.175025  1
  Pd  Pd28  1  0.934161  0.476299  0.324975  1
  Pd  Pd29  1  0.565839  0.023701  0.824975  1
  Pd  Pd30  1  0.934161  0.023701  0.324975  1
  Pd  Pd31  1  0.065839  0.976299  0.675025  1
