# generated using pymatgen
data_Th4(Zn3Cd)3
_symmetry_space_group_name_H-M   'P 1'
_cell_length_a   4.55481400
_cell_length_b   7.33406938
_cell_length_c   10.08354225
_cell_angle_alpha   89.75347995
_cell_angle_beta   90.00000000
_cell_angle_gamma   90.00000000
_symmetry_Int_Tables_number   1
_chemical_formula_structural   Th4(Zn3Cd)3
_chemical_formula_sum   'Th4 Zn9 Cd3'
_cell_volume   336.84085648
_cell_formula_units_Z   1
loop_
 _symmetry_equiv_pos_site_id
 _symmetry_equiv_pos_as_xyz
  1  'x, y, z'
loop_
 _atom_site_type_symbol
 _atom_site_label
 _atom_site_symmetry_multiplicity
 _atom_site_fract_x
 _atom_site_fract_y
 _atom_site_fract_z
 _atom_site_occupancy
  Th  Th0  1  0.250000  0.309342  0.669110  1
  Th  Th1  1  0.250000  0.813236  0.824168  1
  Th  Th2  1  0.750000  0.689900  0.332892  1
  Th  Th3  1  0.750000  0.189495  0.170106  1
  Zn  Zn4  1  0.750000  0.980518  0.599811  1
  Zn  Zn5  1  0.250000  0.904129  0.148246  1
  Zn  Zn6  1  0.250000  0.401079  0.352863  1
  Zn  Zn7  1  0.750000  0.095942  0.847630  1
  Zn  Zn8  1  0.750000  0.605300  0.646375  1
  Zn  Zn9  1  0.250000  0.186679  0.962436  1
  Zn  Zn10  1  0.250000  0.685059  0.536347  1
  Zn  Zn11  1  0.750000  0.812623  0.036816  1
  Zn  Zn12  1  0.750000  0.302603  0.464357  1
  Cd  Cd13  1  0.250000  0.526329  0.094968  1
  Cd  Cd14  1  0.250000  0.022372  0.411276  1
  Cd  Cd15  1  0.750000  0.475395  0.902600  1
