# generated using pymatgen
data_CaTb11(NdSi2)8
_symmetry_space_group_name_H-M   'P 1'
_cell_length_a   7.77731206
_cell_length_b   7.77731206
_cell_length_c   14.51116421
_cell_angle_alpha   90.01344861
_cell_angle_beta   89.98655139
_cell_angle_gamma   90.00680789
_symmetry_Int_Tables_number   1
_chemical_formula_structural   CaTb11(NdSi2)8
_chemical_formula_sum   'Ca1 Tb11 Nd8 Si16'
_cell_volume   877.73068315
_cell_formula_units_Z   1
loop_
 _symmetry_equiv_pos_site_id
 _symmetry_equiv_pos_as_xyz
  1  'x, y, z'
loop_
 _atom_site_type_symbol
 _atom_site_label
 _atom_site_symmetry_multiplicity
 _atom_site_fract_x
 _atom_site_fract_y
 _atom_site_fract_z
 _atom_site_occupancy
  Ca  Ca0  1  0.313822  0.313822  0.500000  1
  Tb  Tb1  1  0.487900  0.366141  0.124249  1
  Tb  Tb2  1  0.990115  0.134157  0.625137  1
  Tb  Tb3  1  0.864158  0.011884  0.874362  1
  Tb  Tb4  1  0.134157  0.990115  0.374863  1
  Tb  Tb5  1  0.509791  0.633740  0.624898  1
  Tb  Tb6  1  0.366141  0.487900  0.875751  1
  Tb  Tb7  1  0.633740  0.509791  0.375102  1
  Tb  Tb8  1  0.011884  0.864158  0.125638  1
  Tb  Tb9  1  0.187171  0.814828  0.750636  1
  Tb  Tb10  1  0.814828  0.187171  0.249364  1
  Tb  Tb11  1  0.686301  0.686301  0.000000  1
  Nd  Nd12  1  0.634462  0.989997  0.454950  1
  Nd  Nd13  1  0.364949  0.011084  0.955540  1
  Nd  Nd14  1  0.989997  0.634462  0.545050  1
  Nd  Nd15  1  0.490111  0.863729  0.205995  1
  Nd  Nd16  1  0.509465  0.134286  0.705180  1
  Nd  Nd17  1  0.863729  0.490111  0.794005  1
  Nd  Nd18  1  0.134286  0.509465  0.294820  1
  Nd  Nd19  1  0.011084  0.364949  0.044460  1
  Si  Si20  1  0.287924  0.923826  0.562088  1
  Si  Si21  1  0.711482  0.069106  0.060983  1
  Si  Si22  1  0.923826  0.287924  0.437912  1
  Si  Si23  1  0.432547  0.210094  0.308200  1
  Si  Si24  1  0.569046  0.788522  0.810361  1
  Si  Si25  1  0.210094  0.432547  0.691800  1
  Si  Si26  1  0.788522  0.569046  0.189639  1
  Si  Si27  1  0.069106  0.711482  0.939017  1
  Si  Si28  1  0.799595  0.841505  0.693122  1
  Si  Si29  1  0.199750  0.159380  0.193446  1
  Si  Si30  1  0.841505  0.799595  0.306878  1
  Si  Si31  1  0.344129  0.707866  0.440656  1
  Si  Si32  1  0.658447  0.298689  0.942724  1
  Si  Si33  1  0.707866  0.344129  0.559344  1
  Si  Si34  1  0.298689  0.658447  0.057276  1
  Si  Si35  1  0.159380  0.199750  0.806554  1
