# generated using pymatgen
data_Tb5Nd(Ni2Rh7)2
_symmetry_space_group_name_H-M   'P 1'
_cell_length_a   5.31499600
_cell_length_b   5.31596152
_cell_length_c   16.77773800
_cell_angle_alpha   90.00000000
_cell_angle_beta   90.00000000
_cell_angle_gamma   119.99905616
_symmetry_Int_Tables_number   1
_chemical_formula_structural   Tb5Nd(Ni2Rh7)2
_chemical_formula_sum   'Tb5 Nd1 Ni4 Rh14'
_cell_volume   410.53760215
_cell_formula_units_Z   1
loop_
 _symmetry_equiv_pos_site_id
 _symmetry_equiv_pos_as_xyz
  1  'x, y, z'
loop_
 _atom_site_type_symbol
 _atom_site_label
 _atom_site_symmetry_multiplicity
 _atom_site_fract_x
 _atom_site_fract_y
 _atom_site_fract_z
 _atom_site_occupancy
  Tb  Tb0  1  0.333205  0.666580  0.542013  1
  Tb  Tb1  1  0.666822  0.333479  0.041038  1
  Tb  Tb2  1  0.666822  0.333479  0.458962  1
  Tb  Tb3  1  0.333205  0.666580  0.957987  1
  Tb  Tb4  1  0.333349  0.666683  0.750000  1
  Nd  Nd5  1  0.666752  0.333401  0.250000  1
  Ni  Ni6  1  0.999516  0.998862  0.250000  1
  Ni  Ni7  1  0.000986  0.001350  0.750000  1
  Ni  Ni8  1  0.333890  0.667344  0.250000  1
  Ni  Ni9  1  0.665368  0.331912  0.750000  1
  Rh  Rh10  1  0.167445  0.334960  0.129890  1
  Rh  Rh11  1  0.832614  0.665132  0.631035  1
  Rh  Rh12  1  0.665100  0.832595  0.129820  1
  Rh  Rh13  1  0.167443  0.832528  0.129840  1
  Rh  Rh14  1  0.832654  0.167491  0.630970  1
  Rh  Rh15  1  0.334824  0.167449  0.630932  1
  Rh  Rh16  1  0.832614  0.665132  0.868965  1
  Rh  Rh17  1  0.832654  0.167491  0.869030  1
  Rh  Rh18  1  0.334824  0.167449  0.869068  1
  Rh  Rh19  1  0.665100  0.832595  0.370180  1
  Rh  Rh20  1  0.167443  0.832528  0.370160  1
  Rh  Rh21  1  0.167445  0.334960  0.370110  1
  Rh  Rh22  1  0.999964  0.000009  0.999439  1
  Rh  Rh23  1  0.999964  0.000009  0.500561  1
