# generated using pymatgen
data_Er8Hf9Si16W3
_symmetry_space_group_name_H-M   'P 1'
_cell_length_a   7.16195700
_cell_length_b   7.16195730
_cell_length_c   13.09875396
_cell_angle_alpha   90.09677506
_cell_angle_beta   89.90322508
_cell_angle_gamma   89.89932728
_symmetry_Int_Tables_number   1
_chemical_formula_structural   Er8Hf9Si16W3
_chemical_formula_sum   'Er8 Hf9 Si16 W3'
_cell_volume   671.87968466
_cell_formula_units_Z   1
loop_
 _symmetry_equiv_pos_site_id
 _symmetry_equiv_pos_as_xyz
  1  'x, y, z'
loop_
 _atom_site_type_symbol
 _atom_site_label
 _atom_site_symmetry_multiplicity
 _atom_site_fract_x
 _atom_site_fract_y
 _atom_site_fract_z
 _atom_site_occupancy
  Er  Er0  1  0.342612  0.002850  0.465038  1
  Er  Er1  1  0.498701  0.845597  0.718001  1
  Er  Er2  1  0.499449  0.155340  0.214475  1
  Er  Er3  1  0.845597  0.498701  0.281999  1
  Er  Er4  1  0.155340  0.499449  0.785525  1
  Er  Er5  1  0.656455  0.000083  0.965672  1
  Er  Er6  1  0.002850  0.342612  0.534962  1
  Er  Er7  1  0.000083  0.656455  0.034328  1
  Hf  Hf8  1  0.674430  0.674430  0.500000  1
  Hf  Hf9  1  0.147133  0.006678  0.876112  1
  Hf  Hf10  1  0.493337  0.648132  0.124209  1
  Hf  Hf11  1  0.505139  0.350344  0.628209  1
  Hf  Hf12  1  0.648132  0.493337  0.875791  1
  Hf  Hf13  1  0.350344  0.505139  0.371791  1
  Hf  Hf14  1  0.854443  0.995553  0.373366  1
  Hf  Hf15  1  0.006678  0.147133  0.123888  1
  Hf  Hf16  1  0.995553  0.854443  0.626634  1
  Si  Si17  1  0.203805  0.139257  0.683522  1
  Si  Si18  1  0.360074  0.702590  0.932468  1
  Si  Si19  1  0.638703  0.294098  0.431780  1
  Si  Si20  1  0.702590  0.360074  0.067532  1
  Si  Si21  1  0.294098  0.638703  0.568220  1
  Si  Si22  1  0.796887  0.860745  0.182100  1
  Si  Si23  1  0.139257  0.203805  0.316478  1
  Si  Si24  1  0.860745  0.796887  0.817900  1
  Si  Si25  1  0.297693  0.951023  0.065883  1
  Si  Si26  1  0.545641  0.798967  0.313945  1
  Si  Si27  1  0.450442  0.202990  0.817763  1
  Si  Si28  1  0.798967  0.545641  0.686055  1
  Si  Si29  1  0.202990  0.450442  0.182237  1
  Si  Si30  1  0.702953  0.051272  0.568029  1
  Si  Si31  1  0.951023  0.297693  0.934117  1
  Si  Si32  1  0.051272  0.702953  0.431971  1
  W  W33  1  0.325244  0.325244  0.000000  1
  W  W34  1  0.175608  0.825732  0.248590  1
  W  W35  1  0.825732  0.175608  0.751410  1
