# generated using pymatgen
data_Re7Si3POs
_symmetry_space_group_name_H-M   'P 1'
_cell_length_a   2.92648000
_cell_length_b   5.70388957
_cell_length_c   10.05647832
_cell_angle_alpha   89.83935007
_cell_angle_beta   90.00000000
_cell_angle_gamma   90.00000000
_symmetry_Int_Tables_number   1
_chemical_formula_structural   Re7Si3POs
_chemical_formula_sum   'Re7 Si3 P1 Os1'
_cell_volume   167.86528169
_cell_formula_units_Z   1
loop_
 _symmetry_equiv_pos_site_id
 _symmetry_equiv_pos_as_xyz
  1  'x, y, z'
loop_
 _atom_site_type_symbol
 _atom_site_label
 _atom_site_symmetry_multiplicity
 _atom_site_fract_x
 _atom_site_fract_y
 _atom_site_fract_z
 _atom_site_occupancy
  Re  Re0  1  0.250000  0.335400  0.561832  1
  Re  Re1  1  0.750000  0.166031  0.063179  1
  Re  Re2  1  0.750000  0.678435  0.432015  1
  Re  Re3  1  0.250000  0.862876  0.216749  1
  Re  Re4  1  0.250000  0.356338  0.285876  1
  Re  Re5  1  0.750000  0.131558  0.783254  1
  Re  Re6  1  0.750000  0.634202  0.717550  1
  Si  Si7  1  0.250000  0.410634  0.897411  1
  Si  Si8  1  0.250000  0.912082  0.603983  1
  Si  Si9  1  0.750000  0.587356  0.100525  1
  P  P10  1  0.750000  0.096244  0.400445  1
  Os  Os11  1  0.250000  0.828842  0.937180  1
