# generated using pymatgen
data_LiHf6Re3Ir2
_symmetry_space_group_name_H-M   'P 1'
_cell_length_a   4.62440000
_cell_length_b   6.52288300
_cell_length_c   13.90342900
_cell_angle_alpha   90.00009912
_cell_angle_beta   90.00127891
_cell_angle_gamma   89.99951864
_symmetry_Int_Tables_number   1
_chemical_formula_structural   LiHf6Re3Ir2
_chemical_formula_sum   'Li2 Hf12 Re6 Ir4'
_cell_volume   419.38887376
_cell_formula_units_Z   2
loop_
 _symmetry_equiv_pos_site_id
 _symmetry_equiv_pos_as_xyz
  1  'x, y, z'
loop_
 _atom_site_type_symbol
 _atom_site_label
 _atom_site_symmetry_multiplicity
 _atom_site_fract_x
 _atom_site_fract_y
 _atom_site_fract_z
 _atom_site_occupancy
  Li  Li0  1  0.999785  0.999989  0.000240  1
  Li  Li1  1  0.499966  0.500071  0.166412  1
  Hf  Hf2  1  0.499963  0.249197  0.000073  1
  Hf  Hf3  1  0.499961  0.750827  0.000054  1
  Hf  Hf4  1  0.999963  0.250774  0.166586  1
  Hf  Hf5  1  0.999950  0.749266  0.166635  1
  Hf  Hf6  1  0.500045  0.250004  0.332713  1
  Hf  Hf7  1  0.500015  0.749912  0.332756  1
  Hf  Hf8  1  0.000100  0.250069  0.499903  1
  Hf  Hf9  1  0.000087  0.749853  0.499898  1
  Hf  Hf10  1  0.500026  0.249893  0.666764  1
  Hf  Hf11  1  0.500020  0.750123  0.666748  1
  Hf  Hf12  1  0.999929  0.249953  0.833952  1
  Hf  Hf13  1  0.999934  0.750098  0.833949  1
  Re  Re14  1  0.000198  0.500053  0.000613  1
  Re  Re15  1  0.499859  0.000136  0.166054  1
  Re  Re16  1  0.000045  0.499881  0.332426  1
  Re  Re17  1  0.500133  0.000028  0.500003  1
  Re  Re18  1  0.000019  0.499992  0.666656  1
  Re  Re19  1  0.499879  0.999990  0.834260  1
  Ir  Ir20  1  0.000024  0.999885  0.335938  1
  Ir  Ir21  1  0.500105  0.499972  0.500377  1
  Ir  Ir22  1  0.000016  0.000010  0.666265  1
  Ir  Ir23  1  0.499980  0.500027  0.830728  1
