# generated using pymatgen
data_Tb7LuSe12
_symmetry_space_group_name_H-M   'P 1'
_cell_length_a   7.14175288
_cell_length_b   7.11463346
_cell_length_c   12.95927326
_cell_angle_alpha   100.65402701
_cell_angle_beta   100.73488461
_cell_angle_gamma   108.98077634
_symmetry_Int_Tables_number   1
_chemical_formula_structural   Tb7LuSe12
_chemical_formula_sum   'Tb7 Lu1 Se12'
_cell_volume   590.03610428
_cell_formula_units_Z   1
loop_
 _symmetry_equiv_pos_site_id
 _symmetry_equiv_pos_as_xyz
  1  'x, y, z'
loop_
 _atom_site_type_symbol
 _atom_site_label
 _atom_site_symmetry_multiplicity
 _atom_site_fract_x
 _atom_site_fract_y
 _atom_site_fract_z
 _atom_site_occupancy
  Tb  Tb0  1  0.040727  0.790728  0.081456  1
  Tb  Tb1  1  0.621345  0.871345  0.242690  1
  Tb  Tb2  1  0.126871  0.376871  0.253741  1
  Tb  Tb3  1  0.208806  0.958806  0.417612  1
  Tb  Tb4  1  0.791272  0.041271  0.582544  1
  Tb  Tb5  1  0.872894  0.622894  0.745790  1
  Tb  Tb6  1  0.378018  0.128018  0.756036  1
  Lu  Lu7  1  0.958733  0.208732  0.917464  1
  Se  Se8  1  0.805392  0.049613  0.085195  1
  Se  Se9  1  0.279804  0.535582  0.085195  1
  Se  Se10  1  0.367440  0.117044  0.249715  1
  Se  Se11  1  0.882275  0.632672  0.249715  1
  Se  Se12  1  0.950658  0.194539  0.411410  1
  Se  Se13  1  0.460751  0.716871  0.411410  1
  Se  Se14  1  0.539646  0.283758  0.588288  1
  Se  Se15  1  0.048641  0.804529  0.588288  1
  Se  Se16  1  0.115811  0.366112  0.753626  1
  Se  Se17  1  0.637815  0.887514  0.753626  1
  Se  Se18  1  0.721765  0.455137  0.913099  1
  Se  Se19  1  0.191334  0.957962  0.913099  1
