# generated using pymatgen
data_Pr5Y3(Si3Pt)4
_symmetry_space_group_name_H-M   'P 1'
_cell_length_a   8.21635700
_cell_length_b   8.21635635
_cell_length_c   8.52194800
_cell_angle_alpha   90.00000000
_cell_angle_beta   90.00000000
_cell_angle_gamma   119.99999055
_symmetry_Int_Tables_number   1
_chemical_formula_structural   Pr5Y3(Si3Pt)4
_chemical_formula_sum   'Pr5 Y3 Si12 Pt4'
_cell_volume   498.22798806
_cell_formula_units_Z   1
loop_
 _symmetry_equiv_pos_site_id
 _symmetry_equiv_pos_as_xyz
  1  'x, y, z'
loop_
 _atom_site_type_symbol
 _atom_site_label
 _atom_site_symmetry_multiplicity
 _atom_site_fract_x
 _atom_site_fract_y
 _atom_site_fract_z
 _atom_site_occupancy
  Pr  Pr0  1  0.000000  0.000000  0.250000  1
  Pr  Pr1  1  0.000000  0.000000  0.750000  1
  Pr  Pr2  1  0.499940  0.500060  0.250000  1
  Pr  Pr3  1  0.499940  0.999879  0.250000  1
  Pr  Pr4  1  0.000121  0.500060  0.250000  1
  Y  Y5  1  0.499769  0.500231  0.750000  1
  Y  Y6  1  0.499769  0.999536  0.750000  1
  Y  Y7  1  0.000464  0.500231  0.750000  1
  Si  Si8  1  0.166303  0.833697  0.503398  1
  Si  Si9  1  0.166303  0.332608  0.503398  1
  Si  Si10  1  0.667392  0.833697  0.503398  1
  Si  Si11  1  0.833596  0.166404  0.504479  1
  Si  Si12  1  0.833596  0.667190  0.504479  1
  Si  Si13  1  0.332810  0.166404  0.504479  1
  Si  Si14  1  0.833596  0.166404  0.995521  1
  Si  Si15  1  0.833596  0.667190  0.995521  1
  Si  Si16  1  0.332810  0.166404  0.995521  1
  Si  Si17  1  0.166303  0.833697  0.996602  1
  Si  Si18  1  0.166303  0.332608  0.996602  1
  Si  Si19  1  0.667392  0.833697  0.996602  1
  Pt  Pt20  1  0.333333  0.666667  0.511942  1
  Pt  Pt21  1  0.666667  0.333333  0.514808  1
  Pt  Pt22  1  0.666667  0.333333  0.985192  1
  Pt  Pt23  1  0.333333  0.666667  0.988058  1
