# generated using pymatgen
data_TbTm3(Si5Pt3)2
_symmetry_space_group_name_H-M   'P 1'
_cell_length_a   8.12954839
_cell_length_b   8.12826943
_cell_length_c   8.12826900
_cell_angle_alpha   136.33209982
_cell_angle_beta   104.16807059
_cell_angle_gamma   91.82433680
_symmetry_Int_Tables_number   1
_chemical_formula_structural   TbTm3(Si5Pt3)2
_chemical_formula_sum   'Tb1 Tm3 Si10 Pt6'
_cell_volume   341.62903037
_cell_formula_units_Z   1
loop_
 _symmetry_equiv_pos_site_id
 _symmetry_equiv_pos_as_xyz
  1  'x, y, z'
loop_
 _atom_site_type_symbol
 _atom_site_label
 _atom_site_symmetry_multiplicity
 _atom_site_fract_x
 _atom_site_fract_y
 _atom_site_fract_z
 _atom_site_occupancy
  Tb  Tb0  1  0.900543  0.129498  0.771045  1
  Tm  Tm1  1  0.642540  0.370228  0.272312  1
  Tm  Tm2  1  0.357743  0.629836  0.727906  1
  Tm  Tm3  1  0.098290  0.870111  0.228178  1
  Si  Si4  1  0.271940  0.521576  0.249756  1
  Si  Si5  1  0.728376  0.478105  0.749878  1
  Si  Si6  1  0.728376  0.978497  0.250271  1
  Si  Si7  1  0.271940  0.022184  0.750364  1
  Si  Si8  1  0.460543  0.111775  0.348766  1
  Si  Si9  1  0.538258  0.887108  0.651149  1
  Si  Si10  1  0.763665  0.611934  0.151731  1
  Si  Si11  1  0.236883  0.388646  0.848238  1
  Si  Si12  1  0.000008  0.249351  0.249319  1
  Si  Si13  1  0.000008  0.750689  0.750658  1
  Pt  Pt14  1  0.252410  0.137915  0.114495  1
  Pt  Pt15  1  0.747330  0.861393  0.885938  1
  Pt  Pt16  1  0.024306  0.637816  0.386491  1
  Pt  Pt17  1  0.976884  0.363423  0.613459  1
  Pt  Pt18  1  0.499979  0.250392  0.750457  1
  Pt  Pt19  1  0.499979  0.749523  0.249586  1
