# generated using pymatgen
data_NdHo9Sn8
_symmetry_space_group_name_H-M   'P 1'
_cell_length_a   8.03914915
_cell_length_b   8.18006700
_cell_length_c   15.44967891
_cell_angle_alpha   90.00000000
_cell_angle_beta   89.63813359
_cell_angle_gamma   90.00000000
_symmetry_Int_Tables_number   1
_chemical_formula_structural   NdHo9Sn8
_chemical_formula_sum   'Nd2 Ho18 Sn16'
_cell_volume   1015.96265200
_cell_formula_units_Z   2
loop_
 _symmetry_equiv_pos_site_id
 _symmetry_equiv_pos_as_xyz
  1  'x, y, z'
loop_
 _atom_site_type_symbol
 _atom_site_label
 _atom_site_symmetry_multiplicity
 _atom_site_fract_x
 _atom_site_fract_y
 _atom_site_fract_z
 _atom_site_occupancy
  Nd  Nd0  1  0.982503  0.819536  0.597137  1
  Nd  Nd1  1  0.517497  0.319536  0.402863  1
  Ho  Ho2  1  0.019051  0.179835  0.401785  1
  Ho  Ho3  1  0.368565  0.836775  0.121205  1
  Ho  Ho4  1  0.133157  0.336824  0.622398  1
  Ho  Ho5  1  0.479915  0.679409  0.902718  1
  Ho  Ho6  1  0.868702  0.663264  0.121483  1
  Ho  Ho7  1  0.131435  0.336775  0.878795  1
  Ho  Ho8  1  0.198436  0.503466  0.248997  1
  Ho  Ho9  1  0.698939  0.996817  0.249191  1
  Ho  Ho10  1  0.480949  0.679835  0.598215  1
  Ho  Ho11  1  0.301564  0.003466  0.751003  1
  Ho  Ho12  1  0.633257  0.163028  0.622688  1
  Ho  Ho13  1  0.801061  0.496817  0.750809  1
  Ho  Ho14  1  0.866743  0.663028  0.377312  1
  Ho  Ho15  1  0.020085  0.179409  0.097282  1
  Ho  Ho16  1  0.979533  0.820106  0.901606  1
  Ho  Ho17  1  0.631298  0.163264  0.878517  1
  Ho  Ho18  1  0.520467  0.320106  0.098394  1
  Ho  Ho19  1  0.366843  0.836824  0.377602  1
  Sn  Sn20  1  0.793661  0.462945  0.542624  1
  Sn  Sn21  1  0.706339  0.962945  0.457376  1
  Sn  Sn22  1  0.670377  0.853335  0.750885  1
  Sn  Sn23  1  0.204335  0.539109  0.458967  1
  Sn  Sn24  1  0.291097  0.035788  0.958073  1
  Sn  Sn25  1  0.829623  0.353335  0.249115  1
  Sn  Sn26  1  0.791221  0.464008  0.958185  1
  Sn  Sn27  1  0.565300  0.620423  0.249460  1
  Sn  Sn28  1  0.208903  0.535788  0.041927  1
  Sn  Sn29  1  0.434995  0.380449  0.750265  1
  Sn  Sn30  1  0.174556  0.644883  0.751827  1
  Sn  Sn31  1  0.934700  0.120423  0.750540  1
  Sn  Sn32  1  0.295665  0.039109  0.541033  1
  Sn  Sn33  1  0.708779  0.964008  0.041815  1
  Sn  Sn34  1  0.325444  0.144883  0.248173  1
  Sn  Sn35  1  0.065005  0.880449  0.249735  1
