# generated using pymatgen
data_Pr3Nd7(Si9Hg)2
_symmetry_space_group_name_H-M   'P 1'
_cell_length_a   4.21478920
_cell_length_b   4.27289780
_cell_length_c   35.93915300
_cell_angle_alpha   86.42867753
_cell_angle_beta   86.32813080
_cell_angle_gamma   90.01223388
_symmetry_Int_Tables_number   1
_chemical_formula_structural   Pr3Nd7(Si9Hg)2
_chemical_formula_sum   'Pr3 Nd7 Si18 Hg2'
_cell_volume   644.65251977
_cell_formula_units_Z   1
loop_
 _symmetry_equiv_pos_site_id
 _symmetry_equiv_pos_as_xyz
  1  'x, y, z'
loop_
 _atom_site_type_symbol
 _atom_site_label
 _atom_site_symmetry_multiplicity
 _atom_site_fract_x
 _atom_site_fract_y
 _atom_site_fract_z
 _atom_site_occupancy
  Pr  Pr0  1  0.807565  0.804285  0.395456  1
  Pr  Pr1  1  0.205984  0.206519  0.589657  1
  Pr  Pr2  1  0.596104  0.599639  0.797354  1
  Nd  Nd3  1  0.944944  0.447258  0.101946  1
  Nd  Nd4  1  0.352650  0.853028  0.297213  1
  Nd  Nd5  1  0.757742  0.256522  0.493695  1
  Nd  Nd6  1  0.150631  0.648894  0.702171  1
  Nd  Nd7  1  0.545023  0.044391  0.909621  1
  Nd  Nd8  1  0.994867  0.996040  0.004737  1
  Nd  Nd9  1  0.399887  0.398503  0.199040  1
  Si  Si10  1  0.461651  0.963553  0.068704  1
  Si  Si11  1  0.868991  0.368352  0.263861  1
  Si  Si12  1  0.275707  0.771705  0.460939  1
  Si  Si13  1  0.677780  0.165500  0.668182  1
  Si  Si14  1  0.075397  0.560234  0.874772  1
  Si  Si15  1  0.912683  0.914418  0.166564  1
  Si  Si16  1  0.322778  0.320976  0.362954  1
  Si  Si17  1  0.722994  0.722098  0.558505  1
  Si  Si18  1  0.114809  0.115207  0.765863  1
  Si  Si19  1  0.509611  0.512360  0.972247  1
  Si  Si20  1  0.429853  0.930904  0.134384  1
  Si  Si21  1  0.840271  0.337136  0.329906  1
  Si  Si22  1  0.240252  0.738832  0.526918  1
  Si  Si23  1  0.632807  0.133446  0.733501  1
  Si  Si24  1  0.026865  0.530147  0.939870  1
  Si  Si25  1  0.477192  0.479743  0.037843  1
  Si  Si26  1  0.883722  0.884027  0.232407  1
  Si  Si27  1  0.290151  0.288393  0.429352  1
  Hg  Hg28  1  0.676120  0.685483  0.630480  1
  Hg  Hg29  1  0.062167  0.079606  0.837460  1
