# generated using pymatgen
data_CsRb3(Y3Se5)4
_symmetry_space_group_name_H-M   'P 1'
_cell_length_a   4.16276000
_cell_length_b   12.45871826
_cell_length_c   22.11404041
_cell_angle_alpha   90.24381255
_cell_angle_beta   90.00000000
_cell_angle_gamma   90.00000000
_symmetry_Int_Tables_number   1
_chemical_formula_structural   CsRb3(Y3Se5)4
_chemical_formula_sum   'Cs1 Rb3 Y12 Se20'
_cell_volume   1146.88244361
_cell_formula_units_Z   1
loop_
 _symmetry_equiv_pos_site_id
 _symmetry_equiv_pos_as_xyz
  1  'x, y, z'
loop_
 _atom_site_type_symbol
 _atom_site_label
 _atom_site_symmetry_multiplicity
 _atom_site_fract_x
 _atom_site_fract_y
 _atom_site_fract_z
 _atom_site_occupancy
  Cs  Cs0  1  0.250000  0.655209  0.593418  1
  Rb  Rb1  1  0.250000  0.835148  0.101231  1
  Rb  Rb2  1  0.750000  0.162392  0.899796  1
  Rb  Rb3  1  0.750000  0.337505  0.396499  1
  Y  Y4  1  0.750000  0.810628  0.830902  1
  Y  Y5  1  0.250000  0.188354  0.168591  1
  Y  Y6  1  0.250000  0.307521  0.672531  1
  Y  Y7  1  0.750000  0.691138  0.329525  1
  Y  Y8  1  0.250000  0.967150  0.700101  1
  Y  Y9  1  0.750000  0.031008  0.298922  1
  Y  Y10  1  0.750000  0.468746  0.801723  1
  Y  Y11  1  0.250000  0.529212  0.200438  1
  Y  Y12  1  0.750000  0.386815  0.052041  1
  Y  Y13  1  0.250000  0.613914  0.949126  1
  Y  Y14  1  0.250000  0.892538  0.446980  1
  Y  Y15  1  0.750000  0.115671  0.552066  1
  Se  Se16  1  0.250000  0.954828  0.569901  1
  Se  Se17  1  0.750000  0.052639  0.428586  1
  Se  Se18  1  0.750000  0.453371  0.930586  1
  Se  Se19  1  0.250000  0.547152  0.071395  1
  Se  Se20  1  0.750000  0.770190  0.958702  1
  Se  Se21  1  0.250000  0.230406  0.041828  1
  Se  Se22  1  0.250000  0.271951  0.544185  1
  Se  Se23  1  0.750000  0.736256  0.455738  1
  Se  Se24  1  0.250000  0.964782  0.829710  1
  Se  Se25  1  0.750000  0.034328  0.169549  1
  Se  Se26  1  0.750000  0.460708  0.673424  1
  Se  Se27  1  0.250000  0.536619  0.330023  1
  Se  Se28  1  0.750000  0.135853  0.683566  1
  Se  Se29  1  0.250000  0.862984  0.316032  1
  Se  Se30  1  0.250000  0.637936  0.818023  1
  Se  Se31  1  0.750000  0.360674  0.183134  1
  Se  Se32  1  0.750000  0.680870  0.201101  1
  Se  Se33  1  0.250000  0.316662  0.801157  1
  Se  Se34  1  0.250000  0.182462  0.297483  1
  Se  Se35  1  0.750000  0.816376  0.701987  1
