# generated using pymatgen
data_La5Fe3(P3Ir4)4
_symmetry_space_group_name_H-M   'P 1'
_cell_length_a   12.74355400
_cell_length_b   12.74355493
_cell_length_c   4.02616200
_cell_angle_alpha   90.00000000
_cell_angle_beta   90.00000000
_cell_angle_gamma   120.00000277
_symmetry_Int_Tables_number   1
_chemical_formula_structural   La5Fe3(P3Ir4)4
_chemical_formula_sum   'La5 Fe3 P12 Ir16'
_cell_volume   566.24323196
_cell_formula_units_Z   1
loop_
 _symmetry_equiv_pos_site_id
 _symmetry_equiv_pos_as_xyz
  1  'x, y, z'
loop_
 _atom_site_type_symbol
 _atom_site_label
 _atom_site_symmetry_multiplicity
 _atom_site_fract_x
 _atom_site_fract_y
 _atom_site_fract_z
 _atom_site_occupancy
  La  La0  1  0.183738  0.183738  0.500000  1
  La  La1  1  0.816262  0.000000  0.500000  1
  La  La2  1  0.000000  0.816262  0.500000  1
  La  La3  1  0.333333  0.666667  0.000000  1
  La  La4  1  0.666667  0.333333  0.000000  1
  Fe  Fe5  1  0.708267  0.708267  0.500000  1
  Fe  Fe6  1  0.291733  0.000000  0.500000  1
  Fe  Fe7  1  0.000000  0.291733  0.500000  1
  P  P8  1  0.813422  0.813422  0.000000  1
  P  P9  1  0.186578  0.000000  0.000000  1
  P  P10  1  0.000000  0.186578  0.000000  1
  P  P11  1  0.164316  0.473617  0.500000  1
  P  P12  1  0.526383  0.690698  0.500000  1
  P  P13  1  0.309302  0.835684  0.500000  1
  P  P14  1  0.690698  0.526383  0.500000  1
  P  P15  1  0.835684  0.309302  0.500000  1
  P  P16  1  0.473617  0.164316  0.500000  1
  P  P17  1  0.364606  0.364606  0.000000  1
  P  P18  1  0.635394  0.000000  0.000000  1
  P  P19  1  0.000000  0.635394  0.000000  1
  Ir  Ir20  1  0.545988  0.545988  0.000000  1
  Ir  Ir21  1  0.454012  0.000000  0.000000  1
  Ir  Ir22  1  0.000000  0.454012  0.000000  1
  Ir  Ir23  1  0.180695  0.378306  0.000000  1
  Ir  Ir24  1  0.621694  0.802390  0.000000  1
  Ir  Ir25  1  0.197610  0.819305  0.000000  1
  Ir  Ir26  1  0.802390  0.621694  0.000000  1
  Ir  Ir27  1  0.819305  0.197610  0.000000  1
  Ir  Ir28  1  0.378306  0.180695  0.000000  1
  Ir  Ir29  1  0.364307  0.491641  0.500000  1
  Ir  Ir30  1  0.508359  0.872667  0.500000  1
  Ir  Ir31  1  0.127333  0.635693  0.500000  1
  Ir  Ir32  1  0.872667  0.508359  0.500000  1
  Ir  Ir33  1  0.635693  0.127333  0.500000  1
  Ir  Ir34  1  0.491641  0.364307  0.500000  1
  Ir  Ir35  1  0.000000  0.000000  0.000000  1
