# generated using pymatgen
data_Zr2BIr5Ru
_symmetry_space_group_name_H-M   'P 1'
_cell_length_a   5.75522665
_cell_length_b   5.75522688
_cell_length_c   5.73331700
_cell_angle_alpha   60.12584758
_cell_angle_beta   60.12584627
_cell_angle_gamma   59.74829647
_symmetry_Int_Tables_number   1
_chemical_formula_structural   Zr2BIr5Ru
_chemical_formula_sum   'Zr2 B1 Ir5 Ru1'
_cell_volume   134.27750593
_cell_formula_units_Z   1
loop_
 _symmetry_equiv_pos_site_id
 _symmetry_equiv_pos_as_xyz
  1  'x, y, z'
loop_
 _atom_site_type_symbol
 _atom_site_label
 _atom_site_symmetry_multiplicity
 _atom_site_fract_x
 _atom_site_fract_y
 _atom_site_fract_z
 _atom_site_occupancy
  Zr  Zr0  1  0.749933  0.749933  0.750067  1
  Zr  Zr1  1  0.249933  0.249933  0.250067  1
  B  B2  1  0.998311  0.998311  0.001689  1
  Ir  Ir3  1  0.258601  0.741686  0.258314  1
  Ir  Ir4  1  0.741686  0.258601  0.258314  1
  Ir  Ir5  1  0.258377  0.258377  0.741623  1
  Ir  Ir6  1  0.741686  0.258601  0.741399  1
  Ir  Ir7  1  0.258601  0.741686  0.741399  1
  Ru  Ru8  1  0.742870  0.742870  0.257130  1
