# generated using pymatgen
data_Tb3Dy(Lu4Bi3)4
_symmetry_space_group_name_H-M   'P 1'
_cell_length_a   8.17977805
_cell_length_b   9.38827300
_cell_length_c   11.86926307
_cell_angle_alpha   90.00000000
_cell_angle_beta   90.01278643
_cell_angle_gamma   90.00000000
_symmetry_Int_Tables_number   1
_chemical_formula_structural   Tb3Dy(Lu4Bi3)4
_chemical_formula_sum   'Tb3 Dy1 Lu16 Bi12'
_cell_volume   911.48804024
_cell_formula_units_Z   1
loop_
 _symmetry_equiv_pos_site_id
 _symmetry_equiv_pos_as_xyz
  1  'x, y, z'
loop_
 _atom_site_type_symbol
 _atom_site_label
 _atom_site_symmetry_multiplicity
 _atom_site_fract_x
 _atom_site_fract_y
 _atom_site_fract_z
 _atom_site_occupancy
  Tb  Tb0  1  0.812937  0.250000  0.281881  1
  Tb  Tb1  1  0.686995  0.750000  0.781836  1
  Tb  Tb2  1  0.187015  0.750000  0.718126  1
  Dy  Dy3  1  0.312948  0.250000  0.218075  1
  Lu  Lu4  1  0.352505  0.750000  0.218366  1
  Lu  Lu5  1  0.852455  0.750000  0.281630  1
  Lu  Lu6  1  0.647475  0.250000  0.781639  1
  Lu  Lu7  1  0.147550  0.250000  0.718363  1
  Lu  Lu8  1  0.693102  0.567288  0.060156  1
  Lu  Lu9  1  0.193064  0.932755  0.439841  1
  Lu  Lu10  1  0.306908  0.067285  0.939864  1
  Lu  Lu11  1  0.806950  0.432755  0.560147  1
  Lu  Lu12  1  0.306908  0.432715  0.939864  1
  Lu  Lu13  1  0.806950  0.067245  0.560147  1
  Lu  Lu14  1  0.693102  0.932712  0.060156  1
  Lu  Lu15  1  0.193064  0.567245  0.439841  1
  Lu  Lu16  1  0.476309  0.250000  0.489181  1
  Lu  Lu17  1  0.976363  0.250000  0.010826  1
  Lu  Lu18  1  0.523657  0.750000  0.510783  1
  Lu  Lu19  1  0.023717  0.750000  0.989223  1
  Bi  Bi20  1  0.403802  0.750000  0.959917  1
  Bi  Bi21  1  0.903763  0.750000  0.540075  1
  Bi  Bi22  1  0.596023  0.250000  0.040224  1
  Bi  Bi23  1  0.096324  0.250000  0.459861  1
  Bi  Bi24  1  0.565561  0.993925  0.326018  1
  Bi  Bi25  1  0.065842  0.506049  0.173929  1
  Bi  Bi26  1  0.434346  0.493834  0.673943  1
  Bi  Bi27  1  0.934309  0.006192  0.826100  1
  Bi  Bi28  1  0.434346  0.006166  0.673943  1
  Bi  Bi29  1  0.934309  0.493808  0.826100  1
  Bi  Bi30  1  0.565561  0.506075  0.326018  1
  Bi  Bi31  1  0.065842  0.993951  0.173929  1
