# generated using pymatgen
data_CsPr2NdCBr6
_symmetry_space_group_name_H-M   'P 1'
_cell_length_a   9.15464860
_cell_length_b   9.18774557
_cell_length_c   9.80515626
_cell_angle_alpha   69.63515381
_cell_angle_beta   85.93104943
_cell_angle_gamma   89.35691023
_symmetry_Int_Tables_number   1
_chemical_formula_structural   CsPr2NdCBr6
_chemical_formula_sum   'Cs2 Pr4 Nd2 C2 Br12'
_cell_volume   771.14013584
_cell_formula_units_Z   2
loop_
 _symmetry_equiv_pos_site_id
 _symmetry_equiv_pos_as_xyz
  1  'x, y, z'
loop_
 _atom_site_type_symbol
 _atom_site_label
 _atom_site_symmetry_multiplicity
 _atom_site_fract_x
 _atom_site_fract_y
 _atom_site_fract_z
 _atom_site_occupancy
  Cs  Cs0  1  0.474905  0.348903  0.334318  1
  Cs  Cs1  1  0.525096  0.651097  0.665682  1
  Pr  Pr2  1  0.913844  0.737840  0.003705  1
  Pr  Pr3  1  0.086156  0.262160  0.996294  1
  Pr  Pr4  1  0.737050  0.087690  0.000818  1
  Pr  Pr5  1  0.262949  0.912310  0.999183  1
  Nd  Nd6  1  0.979036  0.877344  0.326488  1
  Nd  Nd7  1  0.020963  0.122656  0.673513  1
  C  C8  1  0.004820  0.028253  0.923488  1
  C  C9  1  0.995179  0.971747  0.076512  1
  Br  Br10  1  0.085843  0.187498  0.327644  1
  Br  Br11  1  0.914157  0.812502  0.672356  1
  Br  Br12  1  0.207533  0.590392  0.000976  1
  Br  Br13  1  0.792468  0.409608  0.999024  1
  Br  Br14  1  0.406337  0.202628  0.005381  1
  Br  Br15  1  0.593662  0.797373  0.994618  1
  Br  Br16  1  0.673043  0.994485  0.327923  1
  Br  Br17  1  0.326957  0.005515  0.672077  1
  Br  Br18  1  0.284691  0.762769  0.324919  1
  Br  Br19  1  0.715309  0.237231  0.675081  1
  Br  Br20  1  0.849547  0.583927  0.327194  1
  Br  Br21  1  0.150452  0.416073  0.672806  1
