# generated using pymatgen
data_Nd2SiSn2GeRh6
_symmetry_space_group_name_H-M   'P 1'
_cell_length_a   6.97393351
_cell_length_b   6.97207058
_cell_length_c   6.97393170
_cell_angle_alpha   130.94363287
_cell_angle_beta   112.63753376
_cell_angle_gamma   87.70457832
_symmetry_Int_Tables_number   1
_chemical_formula_structural   Nd2SiSn2GeRh6
_chemical_formula_sum   'Nd2 Si1 Sn2 Ge1 Rh6'
_cell_volume   225.18685598
_cell_formula_units_Z   1
loop_
 _symmetry_equiv_pos_site_id
 _symmetry_equiv_pos_as_xyz
  1  'x, y, z'
loop_
 _atom_site_type_symbol
 _atom_site_label
 _atom_site_symmetry_multiplicity
 _atom_site_fract_x
 _atom_site_fract_y
 _atom_site_fract_z
 _atom_site_occupancy
  Nd  Nd0  1  0.771297  0.020529  0.249232  1
  Nd  Nd1  1  0.227890  0.978910  0.751019  1
  Si  Si2  1  0.905080  0.653983  0.748904  1
  Sn  Sn3  1  0.561250  0.310239  0.748989  1
  Sn  Sn4  1  0.426273  0.677053  0.250780  1
  Ge  Ge5  1  0.108997  0.360192  0.251195  1
  Rh  Rh6  1  0.214592  0.500947  0.717097  1
  Rh  Rh7  1  0.785357  0.997543  0.784405  1
  Rh  Rh8  1  0.783849  0.500947  0.286355  1
  Rh  Rh9  1  0.213138  0.997543  0.212186  1
  Rh  Rh10  1  0.515920  0.501057  0.514700  1
  Rh  Rh11  1  0.986357  0.501057  0.985138  1
