# generated using pymatgen
data_Ti8Al14Re2AsRh5
_symmetry_space_group_name_H-M   'P 1'
_cell_length_a   8.66932728
_cell_length_b   8.67105421
_cell_length_c   8.66932670
_cell_angle_alpha   119.59395855
_cell_angle_beta   119.69458521
_cell_angle_gamma   90.61151605
_symmetry_Int_Tables_number   1
_chemical_formula_structural   Ti8Al14Re2AsRh5
_chemical_formula_sum   'Ti8 Al14 Re2 As1 Rh5'
_cell_volume   463.28782907
_cell_formula_units_Z   1
loop_
 _symmetry_equiv_pos_site_id
 _symmetry_equiv_pos_as_xyz
  1  'x, y, z'
loop_
 _atom_site_type_symbol
 _atom_site_label
 _atom_site_symmetry_multiplicity
 _atom_site_fract_x
 _atom_site_fract_y
 _atom_site_fract_z
 _atom_site_occupancy
  Ti  Ti0  1  0.782036  0.282299  0.080051  1
  Ti  Ti1  1  0.202247  0.282299  0.500263  1
  Ti  Ti2  1  0.207811  0.729711  0.521900  1
  Ti  Ti3  1  0.222078  0.728480  0.920085  1
  Ti  Ti4  1  0.808396  0.728480  0.506402  1
  Ti  Ti5  1  0.786187  0.263292  0.477106  1
  Ti  Ti6  1  0.377436  0.120226  0.742790  1
  Ti  Ti7  1  0.379409  0.638928  0.259518  1
  Al  Al8  1  0.154286  0.343467  0.189180  1
  Al  Al9  1  0.163948  0.998901  0.834953  1
  Al  Al10  1  0.158223  0.347083  0.822077  1
  Al  Al11  1  0.525005  0.347083  0.188860  1
  Al  Al12  1  0.843339  0.650467  0.807128  1
  Al  Al13  1  0.839632  0.005774  0.166142  1
  Al  Al14  1  0.838690  0.653412  0.173722  1
  Al  Al15  1  0.479689  0.653412  0.814722  1
  Al  Al16  1  0.379551  0.125825  0.266045  1
  Al  Al17  1  0.859782  0.125825  0.746273  1
  Al  Al18  1  0.617242  0.870266  0.253024  1
  Al  Al19  1  0.620440  0.359096  0.738656  1
  Al  Al20  1  0.619089  0.876600  0.737005  1
  Al  Al21  1  0.139594  0.876600  0.257510  1
  Re  Re22  1  0.998429  0.000741  0.500046  1
  Re  Re23  1  0.500695  0.000741  0.002312  1
  As  As24  1  0.997764  0.496924  0.499160  1
  Rh  Rh25  1  0.498793  0.497944  0.999151  1
  Rh  Rh26  1  0.497972  0.500487  0.498291  1
  Rh  Rh27  1  0.002196  0.500487  0.002515  1
  Rh  Rh28  1  0.999910  0.997421  0.997511  1
  Rh  Rh29  1  0.500126  0.997727  0.497602  1
