# generated using pymatgen
data_Nb6Re3Si6MoW2
_symmetry_space_group_name_H-M   'P 1'
_cell_length_a   7.66782356
_cell_length_b   7.67626440
_cell_length_c   7.66765344
_cell_angle_alpha   126.20549219
_cell_angle_beta   128.44648737
_cell_angle_gamma   77.70860257
_symmetry_Int_Tables_number   1
_chemical_formula_structural   Nb6Re3Si6MoW2
_chemical_formula_sum   'Nb6 Re3 Si6 Mo1 W2'
_cell_volume   276.57259393
_cell_formula_units_Z   1
loop_
 _symmetry_equiv_pos_site_id
 _symmetry_equiv_pos_as_xyz
  1  'x, y, z'
loop_
 _atom_site_type_symbol
 _atom_site_label
 _atom_site_symmetry_multiplicity
 _atom_site_fract_x
 _atom_site_fract_y
 _atom_site_fract_z
 _atom_site_occupancy
  Nb  Nb0  1  0.551675  0.091594  0.038823  1
  Nb  Nb1  1  0.445961  0.490872  0.544450  1
  Nb  Nb2  1  0.946415  0.490848  0.044871  1
  Nb  Nb3  1  0.052767  0.091622  0.539943  1
  Nb  Nb4  1  0.752234  0.905806  0.654329  1
  Nb  Nb5  1  0.251467  0.905801  0.153569  1
  Re  Re6  1  0.869892  0.496029  0.626184  1
  Re  Re7  1  0.628466  0.753191  0.124707  1
  Re  Re8  1  0.370639  0.496546  0.125900  1
  Si  Si9  1  0.748989  0.502732  0.254164  1
  Si  Si10  1  0.248568  0.502749  0.753766  1
  Si  Si11  1  0.333342  0.824389  0.491033  1
  Si  Si12  1  0.669140  0.162699  0.493538  1
  Si  Si13  1  0.832001  0.823699  0.991710  1
  Si  Si14  1  0.169359  0.165341  0.995999  1
  Mo  Mo15  1  0.129334  0.755453  0.626113  1
  W  W16  1  0.500384  0.242053  0.741652  1
  W  W17  1  0.999366  0.240773  0.241449  1
