# generated using pymatgen
data_SmHo2TmCo5(Ni3B2)3
_symmetry_space_group_name_H-M   'P 1'
_cell_length_a   4.99314922
_cell_length_b   4.99314807
_cell_length_c   13.05729300
_cell_angle_alpha   90.00000000
_cell_angle_beta   90.00000000
_cell_angle_gamma   119.82732860
_symmetry_Int_Tables_number   1
_chemical_formula_structural   SmHo2TmCo5(Ni3B2)3
_chemical_formula_sum   'Sm1 Ho2 Tm1 Co5 Ni9 B6'
_cell_volume   282.41372311
_cell_formula_units_Z   1
loop_
 _symmetry_equiv_pos_site_id
 _symmetry_equiv_pos_as_xyz
  1  'x, y, z'
loop_
 _atom_site_type_symbol
 _atom_site_label
 _atom_site_symmetry_multiplicity
 _atom_site_fract_x
 _atom_site_fract_y
 _atom_site_fract_z
 _atom_site_occupancy
  Sm  Sm0  1  0.000000  0.000000  0.001598  1
  Ho  Ho1  1  0.000000  0.000000  0.498233  1
  Ho  Ho2  1  0.000000  0.000000  0.737572  1
  Tm  Tm3  1  0.000000  0.000000  0.263583  1
  Co  Co4  1  0.500000  0.000000  0.615719  1
  Co  Co5  1  0.000000  0.500000  0.615719  1
  Co  Co6  1  0.500000  0.500000  0.382460  1
  Co  Co7  1  0.500000  0.000000  0.383147  1
  Co  Co8  1  0.000000  0.500000  0.383147  1
  Ni  Ni9  1  0.666446  0.333554  0.000634  1
  Ni  Ni10  1  0.333554  0.666446  0.000634  1
  Ni  Ni11  1  0.500000  0.500000  0.842567  1
  Ni  Ni12  1  0.500000  0.000000  0.843182  1
  Ni  Ni13  1  0.000000  0.500000  0.843182  1
  Ni  Ni14  1  0.500000  0.500000  0.158809  1
  Ni  Ni15  1  0.500000  0.000000  0.158254  1
  Ni  Ni16  1  0.000000  0.500000  0.158254  1
  Ni  Ni17  1  0.500000  0.500000  0.615703  1
  B  B18  1  0.669039  0.330961  0.498091  1
  B  B19  1  0.330961  0.669039  0.498091  1
  B  B20  1  0.670010  0.329990  0.730620  1
  B  B21  1  0.329990  0.670010  0.730620  1
  B  B22  1  0.332777  0.667223  0.270090  1
  B  B23  1  0.667223  0.332777  0.270090  1
