# generated using pymatgen
data_Zr2Al3MoRu6
_symmetry_space_group_name_H-M   'P 1'
_cell_length_a   4.42935000
_cell_length_b   6.26835400
_cell_length_c   13.21700400
_cell_angle_alpha   89.99990661
_cell_angle_beta   89.99994385
_cell_angle_gamma   90.00002208
_symmetry_Int_Tables_number   1
_chemical_formula_structural   Zr2Al3MoRu6
_chemical_formula_sum   'Zr4 Al6 Mo2 Ru12'
_cell_volume   366.96659756
_cell_formula_units_Z   2
loop_
 _symmetry_equiv_pos_site_id
 _symmetry_equiv_pos_as_xyz
  1  'x, y, z'
loop_
 _atom_site_type_symbol
 _atom_site_label
 _atom_site_symmetry_multiplicity
 _atom_site_fract_x
 _atom_site_fract_y
 _atom_site_fract_z
 _atom_site_occupancy
  Zr  Zr0  1  0.999990  0.499999  0.332107  1
  Zr  Zr1  1  0.500001  0.000002  0.499853  1
  Zr  Zr2  1  0.000014  0.499999  0.666892  1
  Zr  Zr3  1  0.500007  0.000000  0.834568  1
  Al  Al4  1  0.000000  0.000003  0.000787  1
  Al  Al5  1  0.499988  0.500000  0.165859  1
  Al  Al6  1  0.999990  0.000000  0.331434  1
  Al  Al7  1  0.500001  0.500001  0.499164  1
  Al  Al8  1  0.000013  0.999999  0.667507  1
  Al  Al9  1  0.500009  0.500000  0.835307  1
  Mo  Mo10  1  0.999998  0.500004  0.999206  1
  Mo  Mo11  1  0.499987  0.999995  0.167346  1
  Ru  Ru12  1  0.500000  0.257024  0.005979  1
  Ru  Ru13  1  0.499999  0.742975  0.005981  1
  Ru  Ru14  1  0.999992  0.242963  0.160609  1
  Ru  Ru15  1  0.999992  0.757038  0.160608  1
  Ru  Ru16  1  0.499988  0.243518  0.324315  1
  Ru  Ru17  1  0.499988  0.756482  0.324313  1
  Ru  Ru18  1  0.000002  0.249553  0.497891  1
  Ru  Ru19  1  0.000002  0.750449  0.497890  1
  Ru  Ru20  1  0.500010  0.250480  0.668824  1
  Ru  Ru21  1  0.500010  0.749520  0.668824  1
  Ru  Ru22  1  0.000009  0.256573  0.842368  1
  Ru  Ru23  1  0.000009  0.743427  0.842369  1
