# generated using pymatgen
data_Tb2Gd6Cr(MoO8)3
_symmetry_space_group_name_H-M   'P 1'
_cell_length_a   5.45641987
_cell_length_b   10.11040816
_cell_length_c   10.04644931
_cell_angle_alpha   68.36547111
_cell_angle_beta   74.51482398
_cell_angle_gamma   74.31991099
_symmetry_Int_Tables_number   1
_chemical_formula_structural   Tb2Gd6Cr(MoO8)3
_chemical_formula_sum   'Tb2 Gd6 Cr1 Mo3 O24'
_cell_volume   487.26507972
_cell_formula_units_Z   1
loop_
 _symmetry_equiv_pos_site_id
 _symmetry_equiv_pos_as_xyz
  1  'x, y, z'
loop_
 _atom_site_type_symbol
 _atom_site_label
 _atom_site_symmetry_multiplicity
 _atom_site_fract_x
 _atom_site_fract_y
 _atom_site_fract_z
 _atom_site_occupancy
  Tb  Tb0  1  0.751100  0.391781  0.606774  1
  Tb  Tb1  1  0.236144  0.606509  0.395400  1
  Gd  Gd2  1  0.624030  0.776998  0.555855  1
  Gd  Gd3  1  0.124290  0.551637  0.787062  1
  Gd  Gd4  1  0.389305  0.217396  0.447311  1
  Gd  Gd5  1  0.875094  0.454523  0.213926  1
  Gd  Gd6  1  0.741966  0.861705  0.140448  1
  Gd  Gd7  1  0.254312  0.136947  0.864090  1
  Cr  Cr8  1  0.066974  0.033371  0.287800  1
  Mo  Mo9  1  0.435480  0.705870  0.989293  1
  Mo  Mo10  1  0.952988  0.989294  0.701989  1
  Mo  Mo11  1  0.562607  0.295299  0.013791  1
  O  O12  1  0.922380  0.565632  0.616990  1
  O  O13  1  0.578621  0.393346  0.426268  1
  O  O14  1  0.082158  0.422265  0.391249  1
  O  O15  1  0.418312  0.608299  0.573412  1
  O  O16  1  0.869930  0.771039  0.344620  1
  O  O17  1  0.561886  0.665707  0.191837  1
  O  O18  1  0.087652  0.195272  0.663402  1
  O  O19  1  0.426507  0.334911  0.808297  1
  O  O20  1  0.317512  0.895870  0.327551  1
  O  O21  1  0.123029  0.673425  0.110493  1
  O  O22  1  0.646417  0.116843  0.663299  1
  O  O23  1  0.873264  0.323653  0.890002  1
  O  O24  1  0.633865  0.292077  0.183167  1
  O  O25  1  0.877907  0.822599  0.705967  1
  O  O26  1  0.366589  0.709884  0.819058  1
  O  O27  1  0.141951  0.185390  0.282902  1
  O  O28  1  0.520539  0.112850  0.049403  1
  O  O29  1  0.983385  0.956880  0.887543  1
  O  O30  1  0.792501  0.017840  0.412587  1
  O  O31  1  0.017603  0.046546  0.124641  1
  O  O32  1  0.256850  0.429633  0.025286  1
  O  O33  1  0.264330  0.977701  0.572558  1
  O  O34  1  0.742132  0.571995  0.975026  1
  O  O35  1  0.480393  0.889013  0.950705  1
