# generated using pymatgen
data_Tm6Lu6In2Fe2Ru
_symmetry_space_group_name_H-M   'P 1'
_cell_length_a   8.22975491
_cell_length_b   8.22665374
_cell_length_c   8.22975621
_cell_angle_alpha   108.57780810
_cell_angle_beta   108.58229950
_cell_angle_gamma   111.28443397
_symmetry_Int_Tables_number   1
_chemical_formula_structural   Tm6Lu6In2Fe2Ru
_chemical_formula_sum   'Tm6 Lu6 In2 Fe2 Ru1'
_cell_volume   428.51482705
_cell_formula_units_Z   1
loop_
 _symmetry_equiv_pos_site_id
 _symmetry_equiv_pos_as_xyz
  1  'x, y, z'
loop_
 _atom_site_type_symbol
 _atom_site_label
 _atom_site_symmetry_multiplicity
 _atom_site_fract_x
 _atom_site_fract_y
 _atom_site_fract_z
 _atom_site_occupancy
  Tm  Tm0  1  0.307466  0.307496  0.615219  1
  Tm  Tm1  1  0.692534  0.692504  0.384781  1
  Tm  Tm2  1  0.692278  0.307496  0.000030  1
  Tm  Tm3  1  0.307722  0.692504  0.999970  1
  Tm  Tm4  1  0.192864  0.430744  0.237878  1
  Tm  Tm5  1  0.807136  0.569256  0.762122  1
  Lu  Lu6  1  0.192887  0.955125  0.762238  1
  Lu  Lu7  1  0.954920  0.192606  0.762056  1
  Lu  Lu8  1  0.807113  0.044875  0.237762  1
  Lu  Lu9  1  0.045080  0.807394  0.237944  1
  Lu  Lu10  1  0.430551  0.192606  0.237684  1
  Lu  Lu11  1  0.569449  0.807394  0.762316  1
  In  In12  1  0.000000  0.500000  0.500000  1
  In  In13  1  0.500000  0.000000  0.500000  1
  Fe  Fe14  1  0.383313  0.383285  0.999972  1
  Fe  Fe15  1  0.616687  0.616715  0.000028  1
  Ru  Ru16  1  0.000000  0.000000  0.000000  1
