# generated using pymatgen
data_Zr20ZnHg2Sb9
_symmetry_space_group_name_H-M   'P 1'
_cell_length_a   5.54902600
_cell_length_b   8.40175575
_cell_length_c   15.82059000
_cell_angle_alpha   90.00000000
_cell_angle_beta   90.00000000
_cell_angle_gamma   109.28274481
_symmetry_Int_Tables_number   1
_chemical_formula_structural   Zr20ZnHg2Sb9
_chemical_formula_sum   'Zr20 Zn1 Hg2 Sb9'
_cell_volume   696.20266051
_cell_formula_units_Z   1
loop_
 _symmetry_equiv_pos_site_id
 _symmetry_equiv_pos_as_xyz
  1  'x, y, z'
loop_
 _atom_site_type_symbol
 _atom_site_label
 _atom_site_symmetry_multiplicity
 _atom_site_fract_x
 _atom_site_fract_y
 _atom_site_fract_z
 _atom_site_occupancy
  Zr  Zr0  1  0.426987  0.851202  0.349058  1
  Zr  Zr1  1  0.922795  0.859214  0.853796  1
  Zr  Zr2  1  0.063581  0.140786  0.146204  1
  Zr  Zr3  1  0.575784  0.148798  0.650942  1
  Zr  Zr4  1  0.652209  0.295233  0.071088  1
  Zr  Zr5  1  0.149700  0.299666  0.573769  1
  Zr  Zr6  1  0.850034  0.700334  0.426231  1
  Zr  Zr7  1  0.356977  0.704767  0.928912  1
  Zr  Zr8  1  0.847791  0.704767  0.071088  1
  Zr  Zr9  1  0.350300  0.700334  0.573769  1
  Zr  Zr10  1  0.649966  0.299666  0.426231  1
  Zr  Zr11  1  0.143023  0.295233  0.928912  1
  Zr  Zr12  1  0.073013  0.148798  0.349058  1
  Zr  Zr13  1  0.577205  0.140786  0.853796  1
  Zr  Zr14  1  0.436419  0.859214  0.146204  1
  Zr  Zr15  1  0.924216  0.851202  0.650942  1
  Zr  Zr16  1  0.500103  0.501175  0.250018  1
  Zr  Zr17  1  0.998928  0.498825  0.749982  1
  Zr  Zr18  1  0.999897  0.498825  0.250018  1
  Zr  Zr19  1  0.501072  0.501175  0.749982  1
  Zn  Zn20  1  0.750000  0.000000  0.000000  1
  Hg  Hg21  1  0.750000  0.000000  0.500000  1
  Hg  Hg22  1  0.250000  0.000000  0.500000  1
  Sb  Sb23  1  0.916514  0.828903  0.250943  1
  Sb  Sb24  1  0.412389  0.828903  0.749057  1
  Sb  Sb25  1  0.583486  0.171097  0.250943  1
  Sb  Sb26  1  0.087611  0.171097  0.749057  1
  Sb  Sb27  1  0.250000  0.500000  0.085839  1
  Sb  Sb28  1  0.750000  0.500000  0.585265  1
  Sb  Sb29  1  0.250000  0.500000  0.414735  1
  Sb  Sb30  1  0.750000  0.500000  0.914161  1
  Sb  Sb31  1  0.250000  0.000000  0.000000  1
