# generated using pymatgen
data_Nd3Sc4U(ReB6)4
_symmetry_space_group_name_H-M   'P 1'
_cell_length_a   3.63322400
_cell_length_b   9.04783570
_cell_length_c   11.46522613
_cell_angle_alpha   89.92996456
_cell_angle_beta   90.00000000
_cell_angle_gamma   90.00000000
_symmetry_Int_Tables_number   1
_chemical_formula_structural   Nd3Sc4U(ReB6)4
_chemical_formula_sum   'Nd3 Sc4 U1 Re4 B24'
_cell_volume   376.89396228
_cell_formula_units_Z   1
loop_
 _symmetry_equiv_pos_site_id
 _symmetry_equiv_pos_as_xyz
  1  'x, y, z'
loop_
 _atom_site_type_symbol
 _atom_site_label
 _atom_site_symmetry_multiplicity
 _atom_site_fract_x
 _atom_site_fract_y
 _atom_site_fract_z
 _atom_site_occupancy
  Nd  Nd0  1  0.000000  0.321837  0.414256  1
  Nd  Nd1  1  0.000000  0.678160  0.585538  1
  Nd  Nd2  1  0.000000  0.819365  0.085051  1
  Sc  Sc3  1  0.000000  0.943901  0.369680  1
  Sc  Sc4  1  0.000000  0.055791  0.628396  1
  Sc  Sc5  1  0.000000  0.445316  0.127520  1
  Sc  Sc6  1  0.000000  0.555838  0.873171  1
  U  U7  1  0.000000  0.177702  0.914935  1
  Re  Re8  1  0.000000  0.640854  0.317292  1
  Re  Re9  1  0.000000  0.353956  0.688503  1
  Re  Re10  1  0.000000  0.141221  0.176432  1
  Re  Re11  1  0.000000  0.864962  0.819050  1
  B  B12  1  0.500000  0.555214  0.430751  1
  B  B13  1  0.500000  0.442704  0.572092  1
  B  B14  1  0.500000  0.058204  0.065638  1
  B  B15  1  0.500000  0.948447  0.930072  1
  B  B16  1  0.500000  0.754480  0.416039  1
  B  B17  1  0.500000  0.245600  0.585558  1
  B  B18  1  0.500000  0.253969  0.079406  1
  B  B19  1  0.500000  0.746581  0.916028  1
  B  B20  1  0.500000  0.794191  0.265024  1
  B  B21  1  0.500000  0.204991  0.738141  1
  B  B22  1  0.500000  0.293936  0.232374  1
  B  B23  1  0.500000  0.706594  0.766619  1
  B  B24  1  0.500000  0.627870  0.183433  1
  B  B25  1  0.500000  0.368377  0.819898  1
  B  B26  1  0.500000  0.128235  0.314468  1
  B  B27  1  0.500000  0.872883  0.684068  1
  B  B28  1  0.500000  0.983171  0.213940  1
  B  B29  1  0.500000  0.019809  0.787125  1
  B  B30  1  0.500000  0.482104  0.284254  1
  B  B31  1  0.500000  0.516098  0.717246  1
  B  B32  1  0.500000  0.596620  0.025712  1
  B  B33  1  0.500000  0.400396  0.973414  1
  B  B34  1  0.500000  0.094726  0.473793  1
  B  B35  1  0.500000  0.905900  0.525083  1
