# generated using pymatgen
data_Gd12Co3HgRu2
_symmetry_space_group_name_H-M   'P 1'
_cell_length_a   8.37487808
_cell_length_b   8.37487798
_cell_length_c   8.37487800
_cell_angle_alpha   110.32420673
_cell_angle_beta   111.95950758
_cell_angle_gamma   106.18363853
_symmetry_Int_Tables_number   1
_chemical_formula_structural   Gd12Co3HgRu2
_chemical_formula_sum   'Gd12 Co3 Hg1 Ru2'
_cell_volume   450.97621904
_cell_formula_units_Z   1
loop_
 _symmetry_equiv_pos_site_id
 _symmetry_equiv_pos_as_xyz
  1  'x, y, z'
loop_
 _atom_site_type_symbol
 _atom_site_label
 _atom_site_symmetry_multiplicity
 _atom_site_fract_x
 _atom_site_fract_y
 _atom_site_fract_z
 _atom_site_occupancy
  Gd  Gd0  1  0.276864  0.179973  0.456837  1
  Gd  Gd1  1  0.724183  0.822125  0.546308  1
  Gd  Gd2  1  0.275817  0.822125  0.097941  1
  Gd  Gd3  1  0.723136  0.179973  0.903109  1
  Gd  Gd4  1  0.636246  0.321908  0.314984  1
  Gd  Gd5  1  0.363754  0.678737  0.685661  1
  Gd  Gd6  1  0.006924  0.321908  0.685661  1
  Gd  Gd7  1  0.993076  0.678737  0.314984  1
  Gd  Gd8  1  0.232355  0.419656  0.187303  1
  Gd  Gd9  1  0.773212  0.580929  0.807716  1
  Gd  Gd10  1  0.226788  0.034503  0.807716  1
  Gd  Gd11  1  0.767645  0.954949  0.187303  1
  Co  Co12  1  0.000000  0.663145  0.663145  1
  Co  Co13  1  0.388159  0.889134  0.500975  1
  Co  Co14  1  0.611841  0.112816  0.500975  1
  Hg  Hg15  1  0.500000  0.496625  0.996625  1
  Ru  Ru16  1  0.000000  0.342742  0.342742  1
  Ru  Ru17  1  0.000000  0.000015  0.000015  1
