# generated using pymatgen
data_Pr11Cd9Pt4
_symmetry_space_group_name_H-M   'P 1'
_cell_length_a   13.59568337
_cell_length_b   13.59569121
_cell_length_c   3.83800100
_cell_angle_alpha   90.00000000
_cell_angle_beta   90.00000000
_cell_angle_gamma   112.22345521
_symmetry_Int_Tables_number   1
_chemical_formula_structural   Pr11Cd9Pt4
_chemical_formula_sum   'Pr11 Cd9 Pt4'
_cell_volume   656.72735746
_cell_formula_units_Z   1
loop_
 _symmetry_equiv_pos_site_id
 _symmetry_equiv_pos_as_xyz
  1  'x, y, z'
loop_
 _atom_site_type_symbol
 _atom_site_label
 _atom_site_symmetry_multiplicity
 _atom_site_fract_x
 _atom_site_fract_y
 _atom_site_fract_z
 _atom_site_occupancy
  Pr  Pr0  1  0.500000  0.500000  0.500000  1
  Pr  Pr1  1  0.810442  0.810442  0.500000  1
  Pr  Pr2  1  0.189558  0.189558  0.500000  1
  Pr  Pr3  1  0.575290  0.917326  0.500000  1
  Pr  Pr4  1  0.424710  0.082674  0.500000  1
  Pr  Pr5  1  0.917327  0.575290  0.500000  1
  Pr  Pr6  1  0.082673  0.424710  0.500000  1
  Pr  Pr7  1  0.127465  0.872535  0.500000  1
  Pr  Pr8  1  0.872535  0.127465  0.500000  1
  Pr  Pr9  1  0.337751  0.662248  0.500000  1
  Pr  Pr10  1  0.662249  0.337752  0.500000  1
  Cd  Cd11  1  0.338676  0.863819  0.000000  1
  Cd  Cd12  1  0.661324  0.136181  0.000000  1
  Cd  Cd13  1  0.863818  0.338676  0.000000  1
  Cd  Cd14  1  0.136182  0.661324  0.000000  1
  Cd  Cd15  1  0.574522  0.715578  0.000000  1
  Cd  Cd16  1  0.425478  0.284422  0.000000  1
  Cd  Cd17  1  0.715579  0.574522  0.000000  1
  Cd  Cd18  1  0.284421  0.425478  0.000000  1
  Cd  Cd19  1  0.000000  0.000000  0.000000  1
  Pt  Pt20  1  0.748568  0.950917  0.000000  1
  Pt  Pt21  1  0.251432  0.049083  0.000000  1
  Pt  Pt22  1  0.950918  0.748569  0.000000  1
  Pt  Pt23  1  0.049082  0.251431  0.000000  1
