# generated using pymatgen
data_TiMn2(TcSn4)3
_symmetry_space_group_name_H-M   'P 1'
_cell_length_a   5.47717400
_cell_length_b   5.52996331
_cell_length_c   14.14971700
_cell_angle_alpha   90.00000000
_cell_angle_beta   90.00000000
_cell_angle_gamma   119.68471839
_symmetry_Int_Tables_number   1
_chemical_formula_structural   TiMn2(TcSn4)3
_chemical_formula_sum   'Ti1 Mn2 Tc3 Sn12'
_cell_volume   372.33012234
_cell_formula_units_Z   1
loop_
 _symmetry_equiv_pos_site_id
 _symmetry_equiv_pos_as_xyz
  1  'x, y, z'
loop_
 _atom_site_type_symbol
 _atom_site_label
 _atom_site_symmetry_multiplicity
 _atom_site_fract_x
 _atom_site_fract_y
 _atom_site_fract_z
 _atom_site_occupancy
  Ti  Ti0  1  0.500000  0.000000  0.500000  1
  Mn  Mn1  1  0.000000  0.500000  0.167308  1
  Mn  Mn2  1  0.500000  0.500000  0.832692  1
  Tc  Tc3  1  0.000000  0.000000  0.500000  1
  Tc  Tc4  1  0.000000  0.000000  0.166777  1
  Tc  Tc5  1  0.000000  0.000000  0.833223  1
  Sn  Sn6  1  0.165857  0.331715  0.000000  1
  Sn  Sn7  1  0.667293  0.834214  0.669475  1
  Sn  Sn8  1  0.834143  0.668285  0.000000  1
  Sn  Sn9  1  0.332707  0.165786  0.669475  1
  Sn  Sn10  1  0.166921  0.834214  0.330525  1
  Sn  Sn11  1  0.833079  0.165786  0.330525  1
  Sn  Sn12  1  0.500000  0.000000  0.892816  1
  Sn  Sn13  1  0.000000  0.500000  0.560644  1
  Sn  Sn14  1  0.000000  0.500000  0.774523  1
  Sn  Sn15  1  0.500000  0.500000  0.225477  1
  Sn  Sn16  1  0.500000  0.000000  0.107184  1
  Sn  Sn17  1  0.500000  0.500000  0.439356  1
