# generated using pymatgen
data_La3Pr3(IrCl3)2
_symmetry_space_group_name_H-M   'P 1'
_cell_length_a   10.36026129
_cell_length_b   10.38359324
_cell_length_c   10.38359300
_cell_angle_alpha   108.72397988
_cell_angle_beta   109.57161332
_cell_angle_gamma   110.21445369
_symmetry_Int_Tables_number   1
_chemical_formula_structural   La3Pr3(IrCl3)2
_chemical_formula_sum   'La6 Pr6 Ir4 Cl12'
_cell_volume   858.75855252
_cell_formula_units_Z   2
loop_
 _symmetry_equiv_pos_site_id
 _symmetry_equiv_pos_as_xyz
  1  'x, y, z'
loop_
 _atom_site_type_symbol
 _atom_site_label
 _atom_site_symmetry_multiplicity
 _atom_site_fract_x
 _atom_site_fract_y
 _atom_site_fract_z
 _atom_site_occupancy
  La  La0  1  0.478162  0.489532  0.237856  1
  La  La1  1  0.744599  0.234997  0.260100  1
  La  La2  1  0.755398  0.015496  0.490393  1
  La  La3  1  0.235785  0.475866  0.490985  1
  La  La4  1  0.264222  0.755200  0.240084  1
  La  La5  1  0.021840  0.259696  0.011380  1
  Pr  Pr6  1  0.011991  0.021554  0.259693  1
  Pr  Pr7  1  0.488003  0.747696  0.009555  1
  Pr  Pr8  1  0.487084  0.241421  0.477994  1
  Pr  Pr9  1  0.012926  0.490910  0.754336  1
  Pr  Pr10  1  0.260638  0.010819  0.022526  1
  Pr  Pr11  1  0.239352  0.261886  0.750169  1
  Ir  Ir12  1  0.249918  0.252517  0.249254  1
  Ir  Ir13  1  0.501160  0.000192  0.251431  1
  Ir  Ir14  1  0.998837  0.250271  0.499031  1
  Ir  Ir15  1  0.250084  0.499335  0.002600  1
  Cl  Cl16  1  0.250083  0.750672  0.751919  1
  Cl  Cl17  1  0.500375  0.497271  0.750661  1
  Cl  Cl18  1  0.999619  0.750300  0.996900  1
  Cl  Cl19  1  0.748804  0.252787  0.748465  1
  Cl  Cl20  1  0.004368  0.999552  0.750972  1
  Cl  Cl21  1  0.249915  0.001843  0.500589  1
  Cl  Cl22  1  0.751188  0.499655  0.503976  1
  Cl  Cl23  1  0.495634  0.246601  0.995187  1
  Cl  Cl24  1  0.752132  0.751497  0.246259  1
  Cl  Cl25  1  0.747881  0.994136  0.999371  1
  Cl  Cl26  1  0.998579  0.498266  0.248615  1
  Cl  Cl27  1  0.501419  0.750030  0.499695  1
