# generated using pymatgen
data_Ni2Pd3O8
_symmetry_space_group_name_H-M   'P 1'
_cell_length_a   6.12431395
_cell_length_b   6.12431505
_cell_length_c   6.03015280
_cell_angle_alpha   59.96360927
_cell_angle_beta   59.96359498
_cell_angle_gamma   60.13214438
_symmetry_Int_Tables_number   1
_chemical_formula_structural   Ni2Pd3O8
_chemical_formula_sum   'Ni2 Pd3 O8'
_cell_volume   160.00019294
_cell_formula_units_Z   1
loop_
 _symmetry_equiv_pos_site_id
 _symmetry_equiv_pos_as_xyz
  1  'x, y, z'
loop_
 _atom_site_type_symbol
 _atom_site_label
 _atom_site_symmetry_multiplicity
 _atom_site_fract_x
 _atom_site_fract_y
 _atom_site_fract_z
 _atom_site_occupancy
  Ni  Ni0  1  0.000000  0.000000  0.000000  1
  Ni  Ni1  1  0.500000  0.500000  0.500000  1
  Pd  Pd2  1  0.500000  0.500000  0.000000  1
  Pd  Pd3  1  0.000000  0.500000  0.000000  1
  Pd  Pd4  1  0.500000  0.000000  0.000000  1
  O  O5  1  0.280829  0.750776  0.220122  1
  O  O6  1  0.719171  0.249224  0.779878  1
  O  O7  1  0.734272  0.734272  0.795027  1
  O  O8  1  0.265728  0.265728  0.204973  1
  O  O9  1  0.751191  0.751191  0.219937  1
  O  O10  1  0.248809  0.248809  0.780063  1
  O  O11  1  0.750776  0.280829  0.220122  1
  O  O12  1  0.249224  0.719171  0.779878  1
