# generated using pymatgen
data_Ce3Dy16ErSn16
_symmetry_space_group_name_H-M   'P 1'
_cell_length_a   8.13972500
_cell_length_b   8.30196886
_cell_length_c   15.75042500
_cell_angle_alpha   90.00000000
_cell_angle_beta   90.00000000
_cell_angle_gamma   89.97389864
_symmetry_Int_Tables_number   1
_chemical_formula_structural   Ce3Dy16ErSn16
_chemical_formula_sum   'Ce3 Dy16 Er1 Sn16'
_cell_volume   1064.34656923
_cell_formula_units_Z   1
loop_
 _symmetry_equiv_pos_site_id
 _symmetry_equiv_pos_as_xyz
  1  'x, y, z'
loop_
 _atom_site_type_symbol
 _atom_site_label
 _atom_site_symmetry_multiplicity
 _atom_site_fract_x
 _atom_site_fract_y
 _atom_site_fract_z
 _atom_site_occupancy
  Ce  Ce0  1  0.699090  0.995932  0.750000  1
  Ce  Ce1  1  0.802185  0.494647  0.250000  1
  Ce  Ce2  1  0.302468  0.004748  0.250000  1
  Dy  Dy3  1  0.366643  0.838204  0.877510  1
  Dy  Dy4  1  0.867283  0.662187  0.622157  1
  Dy  Dy5  1  0.632857  0.161697  0.376650  1
  Dy  Dy6  1  0.132779  0.338076  0.122428  1
  Dy  Dy7  1  0.632857  0.161697  0.123350  1
  Dy  Dy8  1  0.132779  0.338076  0.377572  1
  Dy  Dy9  1  0.366643  0.838204  0.622490  1
  Dy  Dy10  1  0.867283  0.662187  0.877843  1
  Dy  Dy11  1  0.522200  0.321541  0.900197  1
  Dy  Dy12  1  0.022987  0.180143  0.599632  1
  Dy  Dy13  1  0.477387  0.680463  0.400104  1
  Dy  Dy14  1  0.976993  0.819767  0.100568  1
  Dy  Dy15  1  0.477387  0.680463  0.099896  1
  Dy  Dy16  1  0.976993  0.819767  0.399432  1
  Dy  Dy17  1  0.522200  0.321541  0.599803  1
  Dy  Dy18  1  0.022987  0.180143  0.900368  1
  Er  Er19  1  0.198986  0.502655  0.750000  1
  Sn  Sn20  1  0.290510  0.035045  0.042445  1
  Sn  Sn21  1  0.790089  0.464352  0.457857  1
  Sn  Sn22  1  0.709026  0.964573  0.540846  1
  Sn  Sn23  1  0.208928  0.535611  0.957831  1
  Sn  Sn24  1  0.709026  0.964573  0.959154  1
  Sn  Sn25  1  0.208928  0.535611  0.542169  1
  Sn  Sn26  1  0.290510  0.035045  0.457555  1
  Sn  Sn27  1  0.790089  0.464352  0.042143  1
  Sn  Sn28  1  0.563139  0.618470  0.750000  1
  Sn  Sn29  1  0.067285  0.877722  0.750000  1
  Sn  Sn30  1  0.434123  0.381430  0.250000  1
  Sn  Sn31  1  0.934935  0.118488  0.250000  1
  Sn  Sn32  1  0.329488  0.149500  0.750000  1
  Sn  Sn33  1  0.831776  0.355089  0.750000  1
  Sn  Sn34  1  0.670610  0.852154  0.250000  1
  Sn  Sn35  1  0.170550  0.645841  0.250000  1
