# generated using pymatgen
data_Y2HoSc3Bi2Rh
_symmetry_space_group_name_H-M   'P 1'
_cell_length_a   8.05691679
_cell_length_b   8.05691748
_cell_length_c   4.15909800
_cell_angle_alpha   90.00000000
_cell_angle_beta   90.00000000
_cell_angle_gamma   120.40689582
_symmetry_Int_Tables_number   1
_chemical_formula_structural   Y2HoSc3Bi2Rh
_chemical_formula_sum   'Y2 Ho1 Sc3 Bi2 Rh1'
_cell_volume   232.84786706
_cell_formula_units_Z   1
loop_
 _symmetry_equiv_pos_site_id
 _symmetry_equiv_pos_as_xyz
  1  'x, y, z'
loop_
 _atom_site_type_symbol
 _atom_site_label
 _atom_site_symmetry_multiplicity
 _atom_site_fract_x
 _atom_site_fract_y
 _atom_site_fract_z
 _atom_site_occupancy
  Y  Y0  1  0.609539  0.000349  0.500000  1
  Y  Y1  1  0.000349  0.609539  0.500000  1
  Ho  Ho2  1  0.386407  0.386407  0.500000  1
  Sc  Sc3  1  0.226054  0.998141  0.000000  1
  Sc  Sc4  1  0.998141  0.226054  0.000000  1
  Sc  Sc5  1  0.771009  0.771009  0.000000  1
  Bi  Bi6  1  0.333112  0.665784  0.000000  1
  Bi  Bi7  1  0.665784  0.333112  0.000000  1
  Rh  Rh8  1  0.009606  0.009606  0.500000  1
