# generated using pymatgen
data_Dy10Sn3Bi3Se2
_symmetry_space_group_name_H-M   'P 1'
_cell_length_a   9.19472100
_cell_length_b   9.19471991
_cell_length_c   6.67244000
_cell_angle_alpha   90.00000000
_cell_angle_beta   90.00000000
_cell_angle_gamma   120.00000031
_symmetry_Int_Tables_number   1
_chemical_formula_structural   Dy10Sn3Bi3Se2
_chemical_formula_sum   'Dy10 Sn3 Bi3 Se2'
_cell_volume   488.53127040
_cell_formula_units_Z   1
loop_
 _symmetry_equiv_pos_site_id
 _symmetry_equiv_pos_as_xyz
  1  'x, y, z'
loop_
 _atom_site_type_symbol
 _atom_site_label
 _atom_site_symmetry_multiplicity
 _atom_site_fract_x
 _atom_site_fract_y
 _atom_site_fract_z
 _atom_site_occupancy
  Dy  Dy0  1  0.666667  0.333333  0.005188  1
  Dy  Dy1  1  0.333333  0.666667  0.005188  1
  Dy  Dy2  1  0.333333  0.666667  0.494812  1
  Dy  Dy3  1  0.666667  0.333333  0.494812  1
  Dy  Dy4  1  0.747820  0.747820  0.750000  1
  Dy  Dy5  1  0.252180  0.000000  0.750000  1
  Dy  Dy6  1  0.000000  0.252180  0.750000  1
  Dy  Dy7  1  0.252887  0.252887  0.250000  1
  Dy  Dy8  1  0.747113  0.000000  0.250000  1
  Dy  Dy9  1  0.000000  0.747113  0.250000  1
  Sn  Sn10  1  0.605403  0.605403  0.250000  1
  Sn  Sn11  1  0.394597  0.000000  0.250000  1
  Sn  Sn12  1  0.000000  0.394597  0.250000  1
  Bi  Bi13  1  0.395411  0.395411  0.750000  1
  Bi  Bi14  1  0.604589  0.000000  0.750000  1
  Bi  Bi15  1  0.000000  0.604589  0.750000  1
  Se  Se16  1  0.000000  0.000000  0.999435  1
  Se  Se17  1  0.000000  0.000000  0.500565  1
