# generated using pymatgen
data_LiTb8Lu11Si16
_symmetry_space_group_name_H-M   'P 1'
_cell_length_a   7.22549976
_cell_length_b   7.59203206
_cell_length_c   14.38863100
_cell_angle_alpha   90.00000000
_cell_angle_beta   90.00000000
_cell_angle_gamma   90.04726712
_symmetry_Int_Tables_number   1
_chemical_formula_structural   LiTb8Lu11Si16
_chemical_formula_sum   'Li1 Tb8 Lu11 Si16'
_cell_volume   789.30572345
_cell_formula_units_Z   1
loop_
 _symmetry_equiv_pos_site_id
 _symmetry_equiv_pos_as_xyz
  1  'x, y, z'
loop_
 _atom_site_type_symbol
 _atom_site_label
 _atom_site_symmetry_multiplicity
 _atom_site_fract_x
 _atom_site_fract_y
 _atom_site_fract_z
 _atom_site_occupancy
  Li  Li0  1  0.160447  0.506576  0.750000  1
  Tb  Tb1  1  0.013693  0.177854  0.096989  1
  Tb  Tb2  1  0.988003  0.813529  0.899899  1
  Tb  Tb3  1  0.480049  0.675356  0.900509  1
  Tb  Tb4  1  0.988003  0.813529  0.600101  1
  Tb  Tb5  1  0.513407  0.322591  0.096827  1
  Tb  Tb6  1  0.013693  0.177854  0.403011  1
  Tb  Tb7  1  0.513407  0.322591  0.403173  1
  Tb  Tb8  1  0.480049  0.675356  0.599491  1
  Lu  Lu9  1  0.837279  0.491431  0.250000  1
  Lu  Lu10  1  0.338968  0.008550  0.250000  1
  Lu  Lu11  1  0.659422  0.992315  0.750000  1
  Lu  Lu12  1  0.326166  0.184032  0.625250  1
  Lu  Lu13  1  0.672243  0.823136  0.376708  1
  Lu  Lu14  1  0.171692  0.679568  0.375683  1
  Lu  Lu15  1  0.672243  0.823136  0.123292  1
  Lu  Lu16  1  0.835648  0.326578  0.625743  1
  Lu  Lu17  1  0.326166  0.184032  0.874750  1
  Lu  Lu18  1  0.835648  0.326578  0.874257  1
  Lu  Lu19  1  0.171692  0.679568  0.124317  1
  Si  Si20  1  0.031395  0.098003  0.750000  1
  Si  Si21  1  0.967903  0.891471  0.250000  1
  Si  Si22  1  0.466606  0.611837  0.250000  1
  Si  Si23  1  0.533852  0.395044  0.750000  1
  Si  Si24  1  0.281672  0.877169  0.750000  1
  Si  Si25  1  0.717477  0.128464  0.250000  1
  Si  Si26  1  0.216417  0.371177  0.250000  1
  Si  Si27  1  0.776171  0.627776  0.750000  1
  Si  Si28  1  0.159427  0.463793  0.533238  1
  Si  Si29  1  0.843928  0.533138  0.462055  1
  Si  Si30  1  0.344541  0.968104  0.463416  1
  Si  Si31  1  0.843928  0.533138  0.037945  1
  Si  Si32  1  0.657400  0.032413  0.540149  1
  Si  Si33  1  0.159427  0.463793  0.966762  1
  Si  Si34  1  0.657400  0.032413  0.959851  1
  Si  Si35  1  0.344541  0.968104  0.036584  1
