# generated using pymatgen
data_HoEr7Zn3Si12Pd
_symmetry_space_group_name_H-M   'P 1'
_cell_length_a   8.09589400
_cell_length_b   8.09589411
_cell_length_c   7.97974900
_cell_angle_alpha   90.00000000
_cell_angle_beta   90.00000000
_cell_angle_gamma   119.99999954
_symmetry_Int_Tables_number   1
_chemical_formula_structural   HoEr7Zn3Si12Pd
_chemical_formula_sum   'Ho1 Er7 Zn3 Si12 Pd1'
_cell_volume   452.94920038
_cell_formula_units_Z   1
loop_
 _symmetry_equiv_pos_site_id
 _symmetry_equiv_pos_as_xyz
  1  'x, y, z'
loop_
 _atom_site_type_symbol
 _atom_site_label
 _atom_site_symmetry_multiplicity
 _atom_site_fract_x
 _atom_site_fract_y
 _atom_site_fract_z
 _atom_site_occupancy
  Ho  Ho0  1  0.000000  0.000000  0.750219  1
  Er  Er1  1  0.501397  0.002792  0.248961  1
  Er  Er2  1  0.499000  0.998002  0.750934  1
  Er  Er3  1  0.997208  0.498603  0.248961  1
  Er  Er4  1  0.001998  0.501000  0.750934  1
  Er  Er5  1  0.501397  0.498603  0.248961  1
  Er  Er6  1  0.499000  0.501000  0.750934  1
  Er  Er7  1  0.000000  0.000000  0.249872  1
  Zn  Zn8  1  0.333333  0.666667  0.007432  1
  Zn  Zn9  1  0.666667  0.333333  0.993294  1
  Zn  Zn10  1  0.666667  0.333333  0.502513  1
  Si  Si11  1  0.166575  0.333148  0.998433  1
  Si  Si12  1  0.832864  0.665729  0.001605  1
  Si  Si13  1  0.666852  0.833425  0.998433  1
  Si  Si14  1  0.834934  0.669871  0.501617  1
  Si  Si15  1  0.334271  0.167136  0.001605  1
  Si  Si16  1  0.167442  0.334883  0.498043  1
  Si  Si17  1  0.166575  0.833425  0.998433  1
  Si  Si18  1  0.330129  0.165066  0.501617  1
  Si  Si19  1  0.832864  0.167136  0.001605  1
  Si  Si20  1  0.665117  0.832558  0.498043  1
  Si  Si21  1  0.834934  0.165066  0.501617  1
  Si  Si22  1  0.167442  0.832558  0.498043  1
  Pd  Pd23  1  0.333333  0.666667  0.497893  1
