# generated using pymatgen
data_Ba2V5Fe(PO4)6
_symmetry_space_group_name_H-M   'P 1'
_cell_length_a   9.34361363
_cell_length_b   9.34361308
_cell_length_c   9.34102574
_cell_angle_alpha   137.43273767
_cell_angle_beta   110.31874663
_cell_angle_gamma   85.21447734
_symmetry_Int_Tables_number   1
_chemical_formula_structural   Ba2V5Fe(PO4)6
_chemical_formula_sum   'Ba2 V5 Fe1 P6 O24'
_cell_volume   497.87294636
_cell_formula_units_Z   1
loop_
 _symmetry_equiv_pos_site_id
 _symmetry_equiv_pos_as_xyz
  1  'x, y, z'
loop_
 _atom_site_type_symbol
 _atom_site_label
 _atom_site_symmetry_multiplicity
 _atom_site_fract_x
 _atom_site_fract_y
 _atom_site_fract_z
 _atom_site_occupancy
  Ba  Ba0  1  0.750245  0.141751  0.393108  1
  Ba  Ba1  1  0.248643  0.857138  0.606892  1
  V  V2  1  0.999956  0.000243  0.000430  1
  V  V3  1  0.499813  0.499526  0.999570  1
  V  V4  1  0.880769  0.380769  0.000000  1
  V  V5  1  0.119276  0.619276  0.000000  1
  V  V6  1  0.381464  0.381464  0.500000  1
  Fe  Fe7  1  0.618220  0.618220  0.500000  1
  P  P8  1  0.821755  0.821755  0.500000  1
  P  P9  1  0.677619  0.177619  0.000000  1
  P  P10  1  0.322342  0.822342  0.000000  1
  P  P11  1  0.177858  0.177858  0.500000  1
  P  P12  1  0.750087  0.650606  0.900205  1
  P  P13  1  0.250400  0.349882  0.099795  1
  O  O14  1  0.633377  0.511435  0.643863  1
  O  O15  1  0.132766  0.487823  0.120307  1
  O  O16  1  0.367572  0.489514  0.356137  1
  O  O17  1  0.867516  0.512459  0.879693  1
  O  O18  1  0.157835  0.129270  0.972368  1
  O  O19  1  0.842881  0.871917  0.029455  1
  O  O20  1  0.656901  0.685467  0.027632  1
  O  O21  1  0.342463  0.313427  0.970545  1
  O  O22  1  0.859370  0.794696  0.657622  1
  O  O23  1  0.862667  0.205859  0.065759  1
  O  O24  1  0.359520  0.702234  0.064989  1
  O  O25  1  0.362938  0.297990  0.657159  1
  O  O26  1  0.140831  0.205778  0.342841  1
  O  O27  1  0.137243  0.794530  0.935011  1
  O  O28  1  0.640100  0.296907  0.934241  1
  O  O29  1  0.637073  0.701748  0.342378  1
  O  O30  1  0.847395  0.063170  0.644294  1
  O  O31  1  0.581637  0.935427  0.783251  1
  O  O32  1  0.347499  0.703303  0.784110  1
  O  O33  1  0.081127  0.296889  0.644294  1
  O  O34  1  0.152595  0.936832  0.355706  1
  O  O35  1  0.419193  0.063390  0.215890  1
  O  O36  1  0.652177  0.298386  0.216749  1
  O  O37  1  0.918876  0.703101  0.355706  1
