# generated using pymatgen
data_Nd4HoIr2Rh
_symmetry_space_group_name_H-M   'P 1'
_cell_length_a   11.15983200
_cell_length_b   11.15983200
_cell_length_c   6.56420800
_cell_angle_alpha   90.00000000
_cell_angle_beta   90.00000000
_cell_angle_gamma   90.00000000
_symmetry_Int_Tables_number   1
_chemical_formula_structural   Nd4HoIr2Rh
_chemical_formula_sum   'Nd16 Ho4 Ir8 Rh4'
_cell_volume   817.51860987
_cell_formula_units_Z   4
loop_
 _symmetry_equiv_pos_site_id
 _symmetry_equiv_pos_as_xyz
  1  'x, y, z'
loop_
 _atom_site_type_symbol
 _atom_site_label
 _atom_site_symmetry_multiplicity
 _atom_site_fract_x
 _atom_site_fract_y
 _atom_site_fract_z
 _atom_site_occupancy
  Nd  Nd0  1  0.288470  0.088226  0.381819  1
  Nd  Nd1  1  0.288470  0.911774  0.881819  1
  Nd  Nd2  1  0.711530  0.088226  0.881819  1
  Nd  Nd3  1  0.711530  0.911774  0.381819  1
  Nd  Nd4  1  0.588226  0.788470  0.881819  1
  Nd  Nd5  1  0.588226  0.211530  0.381819  1
  Nd  Nd6  1  0.411774  0.788470  0.381819  1
  Nd  Nd7  1  0.411774  0.211530  0.881819  1
  Nd  Nd8  1  0.211530  0.411774  0.618181  1
  Nd  Nd9  1  0.211530  0.588226  0.118181  1
  Nd  Nd10  1  0.788470  0.411774  0.118181  1
  Nd  Nd11  1  0.788470  0.588226  0.618181  1
  Nd  Nd12  1  0.911774  0.711530  0.118181  1
  Nd  Nd13  1  0.911774  0.288470  0.618181  1
  Nd  Nd14  1  0.088226  0.711530  0.618181  1
  Nd  Nd15  1  0.088226  0.288470  0.118181  1
  Ho  Ho16  1  0.000000  0.000000  0.500000  1
  Ho  Ho17  1  0.000000  0.000000  0.000000  1
  Ho  Ho18  1  0.500000  0.500000  0.000000  1
  Ho  Ho19  1  0.500000  0.500000  0.500000  1
  Ir  Ir20  1  0.850687  0.149313  0.250000  1
  Ir  Ir21  1  0.850687  0.850687  0.750000  1
  Ir  Ir22  1  0.149313  0.149313  0.750000  1
  Ir  Ir23  1  0.149313  0.850687  0.250000  1
  Ir  Ir24  1  0.649313  0.350687  0.750000  1
  Ir  Ir25  1  0.649313  0.649313  0.250000  1
  Ir  Ir26  1  0.350687  0.350687  0.250000  1
  Ir  Ir27  1  0.350687  0.649313  0.750000  1
  Rh  Rh28  1  0.500000  0.000000  0.118986  1
  Rh  Rh29  1  0.500000  0.000000  0.618986  1
  Rh  Rh30  1  0.000000  0.500000  0.881014  1
  Rh  Rh31  1  0.000000  0.500000  0.381014  1
