# generated using pymatgen
data_GaSeIBr6
_symmetry_space_group_name_H-M   'P 1'
_cell_length_a   6.81215500
_cell_length_b   6.96035116
_cell_length_c   15.49877983
_cell_angle_alpha   76.12751196
_cell_angle_beta   90.00000000
_cell_angle_gamma   90.00000000
_symmetry_Int_Tables_number   1
_chemical_formula_structural   GaSeIBr6
_chemical_formula_sum   'Ga2 Se2 I2 Br12'
_cell_volume   713.43948092
_cell_formula_units_Z   2
loop_
 _symmetry_equiv_pos_site_id
 _symmetry_equiv_pos_as_xyz
  1  'x, y, z'
loop_
 _atom_site_type_symbol
 _atom_site_label
 _atom_site_symmetry_multiplicity
 _atom_site_fract_x
 _atom_site_fract_y
 _atom_site_fract_z
 _atom_site_occupancy
  Ga  Ga0  1  0.999387  0.336176  0.500954  1
  Ga  Ga1  1  0.000613  0.336176  0.000954  1
  Se  Se2  1  0.592115  0.047235  0.663661  1
  Se  Se3  1  0.407885  0.047235  0.163661  1
  I  I4  1  0.616842  0.183844  0.273293  1
  I  I5  1  0.383158  0.183844  0.773293  1
  Br  Br6  1  0.115399  0.014735  0.001773  1
  Br  Br7  1  0.884601  0.014735  0.501773  1
  Br  Br8  1  0.128636  0.410336  0.132538  1
  Br  Br9  1  0.871364  0.410336  0.632538  1
  Br  Br10  1  0.138025  0.556695  0.873283  1
  Br  Br11  1  0.861975  0.556695  0.373283  1
  Br  Br12  1  0.657432  0.367110  0.996252  1
  Br  Br13  1  0.342568  0.367110  0.496252  1
  Br  Br14  1  0.390500  0.794542  0.631673  1
  Br  Br15  1  0.609500  0.794542  0.131673  1
  Br  Br16  1  0.816805  0.842078  0.763444  1
  Br  Br17  1  0.183195  0.842078  0.263444  1
