# generated using pymatgen
data_Ta3Al2NiC
_symmetry_space_group_name_H-M   'P 1'
_cell_length_a   8.22000004
_cell_length_b   8.22000034
_cell_length_c   8.21846101
_cell_angle_alpha   60.00165405
_cell_angle_beta   60.00165407
_cell_angle_gamma   60.00756858
_symmetry_Int_Tables_number   1
_chemical_formula_structural   Ta3Al2NiC
_chemical_formula_sum   'Ta12 Al8 Ni4 C4'
_cell_volume   392.69452874
_cell_formula_units_Z   4
loop_
 _symmetry_equiv_pos_site_id
 _symmetry_equiv_pos_as_xyz
  1  'x, y, z'
loop_
 _atom_site_type_symbol
 _atom_site_label
 _atom_site_symmetry_multiplicity
 _atom_site_fract_x
 _atom_site_fract_y
 _atom_site_fract_z
 _atom_site_occupancy
  Ta  Ta0  1  0.564150  0.935832  0.564200  1
  Ta  Ta1  1  0.314168  0.685850  0.685800  1
  Ta  Ta2  1  0.685840  0.314171  0.314186  1
  Ta  Ta3  1  0.314171  0.685840  0.314186  1
  Ta  Ta4  1  0.685801  0.685801  0.314200  1
  Ta  Ta5  1  0.314152  0.314152  0.685840  1
  Ta  Ta6  1  0.564199  0.564199  0.935800  1
  Ta  Ta7  1  0.935832  0.564150  0.564200  1
  Ta  Ta8  1  0.564160  0.935829  0.935814  1
  Ta  Ta9  1  0.935848  0.935848  0.564160  1
  Ta  Ta10  1  0.685850  0.314168  0.685800  1
  Ta  Ta11  1  0.935829  0.564160  0.935814  1
  Al  Al12  1  0.917540  0.917540  0.917625  1
  Al  Al13  1  0.002718  0.332474  0.332390  1
  Al  Al14  1  0.332474  0.002718  0.332390  1
  Al  Al15  1  0.332448  0.332448  0.002707  1
  Al  Al16  1  0.917526  0.247282  0.917610  1
  Al  Al17  1  0.917552  0.917552  0.247293  1
  Al  Al18  1  0.247282  0.917526  0.917610  1
  Al  Al19  1  0.332460  0.332460  0.332375  1
  Ni  Ni20  1  0.125000  0.125000  0.125000  1
  Ni  Ni21  1  0.625000  0.125000  0.125000  1
  Ni  Ni22  1  0.125000  0.625000  0.125000  1
  Ni  Ni23  1  0.125000  0.125000  0.625000  1
  C  C24  1  0.625000  0.625000  0.625000  1
  C  C25  1  0.125000  0.625000  0.625000  1
  C  C26  1  0.625000  0.125000  0.625000  1
  C  C27  1  0.625000  0.625000  0.125000  1
