# generated using pymatgen
data_HoFeCo3TcP3
_symmetry_space_group_name_H-M   'P 1'
_cell_length_a   3.69452900
_cell_length_b   10.29616300
_cell_length_c   11.78051500
_cell_angle_alpha   90.00000000
_cell_angle_beta   90.00000000
_cell_angle_gamma   90.00000000
_symmetry_Int_Tables_number   1
_chemical_formula_structural   HoFeCo3TcP3
_chemical_formula_sum   'Ho4 Fe4 Co12 Tc4 P12'
_cell_volume   448.12457982
_cell_formula_units_Z   4
loop_
 _symmetry_equiv_pos_site_id
 _symmetry_equiv_pos_as_xyz
  1  'x, y, z'
loop_
 _atom_site_type_symbol
 _atom_site_label
 _atom_site_symmetry_multiplicity
 _atom_site_fract_x
 _atom_site_fract_y
 _atom_site_fract_z
 _atom_site_occupancy
  Ho  Ho0  1  0.250000  0.582577  0.705212  1
  Ho  Ho1  1  0.250000  0.917423  0.205212  1
  Ho  Ho2  1  0.750000  0.417423  0.294788  1
  Ho  Ho3  1  0.750000  0.082577  0.794788  1
  Fe  Fe4  1  0.250000  0.464296  0.932893  1
  Fe  Fe5  1  0.250000  0.035704  0.432893  1
  Fe  Fe6  1  0.750000  0.535704  0.067107  1
  Fe  Fe7  1  0.750000  0.964296  0.567107  1
  Co  Co8  1  0.250000  0.407107  0.488081  1
  Co  Co9  1  0.250000  0.092893  0.988081  1
  Co  Co10  1  0.750000  0.592893  0.511919  1
  Co  Co11  1  0.750000  0.907107  0.011919  1
  Co  Co12  1  0.250000  0.223318  0.174607  1
  Co  Co13  1  0.250000  0.276682  0.674607  1
  Co  Co14  1  0.750000  0.776682  0.825393  1
  Co  Co15  1  0.750000  0.723318  0.325393  1
  Co  Co16  1  0.250000  0.883846  0.703090  1
  Co  Co17  1  0.250000  0.616154  0.203090  1
  Co  Co18  1  0.750000  0.116154  0.296910  1
  Co  Co19  1  0.750000  0.383846  0.796910  1
  Tc  Tc20  1  0.250000  0.708692  0.990891  1
  Tc  Tc21  1  0.250000  0.791308  0.490891  1
  Tc  Tc22  1  0.750000  0.291308  0.009109  1
  Tc  Tc23  1  0.750000  0.208692  0.509109  1
  P  P24  1  0.250000  0.423137  0.113450  1
  P  P25  1  0.250000  0.076863  0.613450  1
  P  P26  1  0.750000  0.576863  0.886550  1
  P  P27  1  0.750000  0.923137  0.386550  1
  P  P28  1  0.250000  0.269098  0.863682  1
  P  P29  1  0.250000  0.230902  0.363682  1
  P  P30  1  0.750000  0.730902  0.136318  1
  P  P31  1  0.750000  0.769098  0.636318  1
  P  P32  1  0.250000  0.597249  0.391490  1
  P  P33  1  0.250000  0.902751  0.891490  1
  P  P34  1  0.750000  0.402751  0.608510  1
  P  P35  1  0.750000  0.097249  0.108510  1
