# generated using pymatgen
data_Sm(NbS2)5
_symmetry_space_group_name_H-M   'P 1'
_cell_length_a   5.87138305
_cell_length_b   7.68052072
_cell_length_c   8.42228800
_cell_angle_alpha   112.40355089
_cell_angle_beta   96.69818631
_cell_angle_gamma   104.69795717
_symmetry_Int_Tables_number   1
_chemical_formula_structural   Sm(NbS2)5
_chemical_formula_sum   'Sm1 Nb5 S10'
_cell_volume   329.84152048
_cell_formula_units_Z   1
loop_
 _symmetry_equiv_pos_site_id
 _symmetry_equiv_pos_as_xyz
  1  'x, y, z'
loop_
 _atom_site_type_symbol
 _atom_site_label
 _atom_site_symmetry_multiplicity
 _atom_site_fract_x
 _atom_site_fract_y
 _atom_site_fract_z
 _atom_site_occupancy
  Sm  Sm0  1  0.667554  0.510095  0.991995  1
  Nb  Nb1  1  0.003121  0.994977  0.001091  1
  Nb  Nb2  1  0.598587  0.203101  0.204853  1
  Nb  Nb3  1  0.197154  0.398165  0.398694  1
  Nb  Nb4  1  0.798882  0.601283  0.602276  1
  Nb  Nb5  1  0.402185  0.797695  0.796578  1
  S  S6  1  0.234571  0.058667  0.295257  1
  S  S7  1  0.052927  0.656917  0.892445  1
  S  S8  1  0.834248  0.260580  0.494048  1
  S  S9  1  0.633249  0.871041  0.103702  1
  S  S10  1  0.421973  0.447231  0.681143  1
  S  S11  1  0.901787  0.546420  0.312468  1
  S  S12  1  0.701814  0.135096  0.905803  1
  S  S13  1  0.496635  0.739151  0.506051  1
  S  S14  1  0.289159  0.337457  0.105866  1
  S  S15  1  0.098957  0.939723  0.709327  1
