# generated using pymatgen
data_Yb2NiGeI
_symmetry_space_group_name_H-M   'P 1'
_cell_length_a   4.15535700
_cell_length_b   4.15535749
_cell_length_c   16.62383800
_cell_angle_alpha   90.00000000
_cell_angle_beta   90.00000000
_cell_angle_gamma   120.00000407
_symmetry_Int_Tables_number   1
_chemical_formula_structural   Yb2NiGeI
_chemical_formula_sum   'Yb4 Ni2 Ge2 I2'
_cell_volume   248.58713310
_cell_formula_units_Z   2
loop_
 _symmetry_equiv_pos_site_id
 _symmetry_equiv_pos_as_xyz
  1  'x, y, z'
loop_
 _atom_site_type_symbol
 _atom_site_label
 _atom_site_symmetry_multiplicity
 _atom_site_fract_x
 _atom_site_fract_y
 _atom_site_fract_z
 _atom_site_occupancy
  Yb  Yb0  1  0.000000  0.000000  0.607607  1
  Yb  Yb1  1  0.000000  0.000000  0.393420  1
  Yb  Yb2  1  0.000000  0.000000  0.107607  1
  Yb  Yb3  1  0.000000  0.000000  0.893420  1
  Ni  Ni4  1  0.666667  0.333333  0.998447  1
  Ni  Ni5  1  0.333333  0.666667  0.498447  1
  Ge  Ge6  1  0.666667  0.333333  0.501853  1
  Ge  Ge7  1  0.333333  0.666667  0.001853  1
  I  I8  1  0.666667  0.333333  0.248673  1
  I  I9  1  0.333333  0.666667  0.748673  1
