# generated using pymatgen
data_Dy12Th4MgNi3Hg3Ru
_symmetry_space_group_name_H-M   'P 1'
_cell_length_a   9.67159708
_cell_length_b   9.71411674
_cell_length_c   9.71411700
_cell_angle_alpha   59.99999570
_cell_angle_beta   59.85445894
_cell_angle_gamma   59.85445970
_symmetry_Int_Tables_number   1
_chemical_formula_structural   Dy12Th4MgNi3Hg3Ru
_chemical_formula_sum   'Dy12 Th4 Mg1 Ni3 Hg3 Ru1'
_cell_volume   643.91855415
_cell_formula_units_Z   1
loop_
 _symmetry_equiv_pos_site_id
 _symmetry_equiv_pos_as_xyz
  1  'x, y, z'
loop_
 _atom_site_type_symbol
 _atom_site_label
 _atom_site_symmetry_multiplicity
 _atom_site_fract_x
 _atom_site_fract_y
 _atom_site_fract_z
 _atom_site_occupancy
  Dy  Dy0  1  0.811568  0.188939  0.188939  1
  Dy  Dy1  1  0.186082  0.813187  0.813187  1
  Dy  Dy2  1  0.186082  0.813187  0.187545  1
  Dy  Dy3  1  0.811568  0.188939  0.810555  1
  Dy  Dy4  1  0.186082  0.187545  0.813187  1
  Dy  Dy5  1  0.811568  0.810555  0.188939  1
  Dy  Dy6  1  0.933610  0.566985  0.566985  1
  Dy  Dy7  1  0.566980  0.934945  0.934945  1
  Dy  Dy8  1  0.566980  0.934945  0.563130  1
  Dy  Dy9  1  0.933610  0.566985  0.932421  1
  Dy  Dy10  1  0.566980  0.563130  0.934945  1
  Dy  Dy11  1  0.933610  0.932421  0.566985  1
  Th  Th12  1  0.344858  0.347654  0.347654  1
  Th  Th13  1  0.344858  0.347654  0.959833  1
  Th  Th14  1  0.344858  0.959833  0.347654  1
  Th  Th15  1  0.951761  0.349413  0.349413  1
  Mg  Mg16  1  0.277778  0.574074  0.574074  1
  Ni  Ni17  1  0.140754  0.143613  0.143613  1
  Ni  Ni18  1  0.140754  0.143613  0.572019  1
  Ni  Ni19  1  0.140754  0.572019  0.143613  1
  Hg  Hg20  1  0.585150  0.588174  0.588174  1
  Hg  Hg21  1  0.585150  0.588174  0.238502  1
  Hg  Hg22  1  0.585150  0.238502  0.588174  1
  Ru  Ru23  1  0.563452  0.145516  0.145516  1
