# generated using pymatgen
data_Nd2EuPa(Co5P3)4
_symmetry_space_group_name_H-M   'P 1'
_cell_length_a   3.68064600
_cell_length_b   10.36836039
_cell_length_c   11.77084204
_cell_angle_alpha   89.90692373
_cell_angle_beta   90.00000000
_cell_angle_gamma   90.00000000
_symmetry_Int_Tables_number   1
_chemical_formula_structural   Nd2EuPa(Co5P3)4
_chemical_formula_sum   'Nd2 Eu1 Pa1 Co20 P12'
_cell_volume   449.20139108
_cell_formula_units_Z   1
loop_
 _symmetry_equiv_pos_site_id
 _symmetry_equiv_pos_as_xyz
  1  'x, y, z'
loop_
 _atom_site_type_symbol
 _atom_site_label
 _atom_site_symmetry_multiplicity
 _atom_site_fract_x
 _atom_site_fract_y
 _atom_site_fract_z
 _atom_site_occupancy
  Nd  Nd0  1  0.750000  0.416847  0.299228  1
  Nd  Nd1  1  0.750000  0.083502  0.796938  1
  Eu  Eu2  1  0.250000  0.915369  0.201831  1
  Pa  Pa3  1  0.250000  0.582694  0.701705  1
  Co  Co4  1  0.250000  0.713549  0.989175  1
  Co  Co5  1  0.250000  0.783709  0.492325  1
  Co  Co6  1  0.750000  0.284521  0.006125  1
  Co  Co7  1  0.750000  0.214632  0.509274  1
  Co  Co8  1  0.250000  0.409236  0.492333  1
  Co  Co9  1  0.250000  0.094140  0.989854  1
  Co  Co10  1  0.750000  0.594600  0.520241  1
  Co  Co11  1  0.750000  0.904738  0.008382  1
  Co  Co12  1  0.250000  0.221160  0.175104  1
  Co  Co13  1  0.250000  0.279999  0.677118  1
  Co  Co14  1  0.750000  0.775326  0.821757  1
  Co  Co15  1  0.750000  0.718235  0.326705  1
  Co  Co16  1  0.250000  0.880265  0.697453  1
  Co  Co17  1  0.250000  0.617798  0.197106  1
  Co  Co18  1  0.750000  0.117835  0.301911  1
  Co  Co19  1  0.750000  0.389622  0.799817  1
  Co  Co20  1  0.250000  0.470327  0.929500  1
  Co  Co21  1  0.250000  0.029758  0.431821  1
  Co  Co22  1  0.750000  0.531701  0.067072  1
  Co  Co23  1  0.750000  0.968779  0.566628  1
  P  P24  1  0.250000  0.418333  0.109634  1
  P  P25  1  0.250000  0.082318  0.609278  1
  P  P26  1  0.750000  0.583356  0.890159  1
  P  P27  1  0.750000  0.917981  0.387548  1
  P  P28  1  0.250000  0.274281  0.871895  1
  P  P29  1  0.250000  0.224122  0.370047  1
  P  P30  1  0.750000  0.726768  0.130637  1
  P  P31  1  0.750000  0.776592  0.630356  1
  P  P32  1  0.250000  0.605844  0.392162  1
  P  P33  1  0.250000  0.895878  0.893182  1
  P  P34  1  0.750000  0.393060  0.608146  1
  P  P35  1  0.750000  0.103126  0.107553  1
