# generated using pymatgen
data_HoRhF7
_symmetry_space_group_name_H-M   'P 1'
_cell_length_a   5.50358900
_cell_length_b   8.82190484
_cell_length_c   11.88824250
_cell_angle_alpha   62.64187000
_cell_angle_beta   90.00000000
_cell_angle_gamma   90.00000000
_symmetry_Int_Tables_number   1
_chemical_formula_structural   HoRhF7
_chemical_formula_sum   'Ho4 Rh4 F28'
_cell_volume   512.64065684
_cell_formula_units_Z   4
loop_
 _symmetry_equiv_pos_site_id
 _symmetry_equiv_pos_as_xyz
  1  'x, y, z'
loop_
 _atom_site_type_symbol
 _atom_site_label
 _atom_site_symmetry_multiplicity
 _atom_site_fract_x
 _atom_site_fract_y
 _atom_site_fract_z
 _atom_site_occupancy
  Ho  Ho0  1  0.760580  0.812753  0.765220  1
  Ho  Ho1  1  0.260580  0.187247  0.734780  1
  Ho  Ho2  1  0.239420  0.187247  0.234780  1
  Ho  Ho3  1  0.739420  0.812753  0.265220  1
  Rh  Rh4  1  0.758331  0.273157  0.956281  1
  Rh  Rh5  1  0.258331  0.726843  0.543719  1
  Rh  Rh6  1  0.241669  0.726843  0.043719  1
  Rh  Rh7  1  0.741669  0.273157  0.456281  1
  F  F8  1  0.436527  0.703898  0.915818  1
  F  F9  1  0.936527  0.296102  0.584182  1
  F  F10  1  0.563473  0.296102  0.084182  1
  F  F11  1  0.063473  0.703898  0.415818  1
  F  F12  1  0.440380  0.277526  0.542740  1
  F  F13  1  0.940380  0.722474  0.957260  1
  F  F14  1  0.559620  0.722474  0.457260  1
  F  F15  1  0.059620  0.277526  0.042740  1
  F  F16  1  0.774965  0.519862  0.859374  1
  F  F17  1  0.274965  0.480138  0.640626  1
  F  F18  1  0.225035  0.480138  0.140626  1
  F  F19  1  0.725035  0.519862  0.359374  1
  F  F20  1  0.754728  0.026679  0.049388  1
  F  F21  1  0.254728  0.973321  0.450612  1
  F  F22  1  0.245272  0.973321  0.950612  1
  F  F23  1  0.745272  0.026679  0.549388  1
  F  F24  1  0.965202  0.725843  0.636218  1
  F  F25  1  0.465202  0.274157  0.863782  1
  F  F26  1  0.034798  0.274157  0.363782  1
  F  F27  1  0.534798  0.725843  0.136218  1
  F  F28  1  0.051241  0.746324  0.175270  1
  F  F29  1  0.551241  0.253676  0.324730  1
  F  F30  1  0.948759  0.253676  0.824730  1
  F  F31  1  0.448759  0.746324  0.675270  1
  F  F32  1  0.414558  0.969732  0.231905  1
  F  F33  1  0.914558  0.030268  0.268095  1
  F  F34  1  0.585442  0.030268  0.768095  1
  F  F35  1  0.085442  0.969732  0.731905  1
