# generated using pymatgen
data_TmFe4ReP3
_symmetry_space_group_name_H-M   'P 1'
_cell_length_a   3.71134600
_cell_length_b   10.35626700
_cell_length_c   11.76665900
_cell_angle_alpha   90.00000000
_cell_angle_beta   90.00000000
_cell_angle_gamma   90.00000000
_symmetry_Int_Tables_number   1
_chemical_formula_structural   TmFe4ReP3
_chemical_formula_sum   'Tm4 Fe16 Re4 P12'
_cell_volume   452.25965890
_cell_formula_units_Z   4
loop_
 _symmetry_equiv_pos_site_id
 _symmetry_equiv_pos_as_xyz
  1  'x, y, z'
loop_
 _atom_site_type_symbol
 _atom_site_label
 _atom_site_symmetry_multiplicity
 _atom_site_fract_x
 _atom_site_fract_y
 _atom_site_fract_z
 _atom_site_occupancy
  Tm  Tm0  1  0.250000  0.581644  0.704203  1
  Tm  Tm1  1  0.250000  0.918356  0.204203  1
  Tm  Tm2  1  0.750000  0.418356  0.295797  1
  Tm  Tm3  1  0.750000  0.081644  0.795797  1
  Fe  Fe4  1  0.250000  0.405237  0.489237  1
  Fe  Fe5  1  0.250000  0.094763  0.989237  1
  Fe  Fe6  1  0.750000  0.594763  0.510763  1
  Fe  Fe7  1  0.750000  0.905237  0.010763  1
  Fe  Fe8  1  0.250000  0.217539  0.177464  1
  Fe  Fe9  1  0.250000  0.282461  0.677464  1
  Fe  Fe10  1  0.750000  0.782461  0.822536  1
  Fe  Fe11  1  0.750000  0.717539  0.322536  1
  Fe  Fe12  1  0.250000  0.877497  0.702596  1
  Fe  Fe13  1  0.250000  0.622503  0.202596  1
  Fe  Fe14  1  0.750000  0.122503  0.297404  1
  Fe  Fe15  1  0.750000  0.377497  0.797404  1
  Fe  Fe16  1  0.250000  0.463011  0.933062  1
  Fe  Fe17  1  0.250000  0.036989  0.433062  1
  Fe  Fe18  1  0.750000  0.536989  0.066938  1
  Fe  Fe19  1  0.750000  0.963011  0.566938  1
  Re  Re20  1  0.250000  0.705482  0.987731  1
  Re  Re21  1  0.250000  0.794518  0.487731  1
  Re  Re22  1  0.750000  0.294518  0.012269  1
  Re  Re23  1  0.750000  0.205482  0.512269  1
  P  P24  1  0.250000  0.422947  0.115434  1
  P  P25  1  0.250000  0.077053  0.615434  1
  P  P26  1  0.750000  0.577053  0.884566  1
  P  P27  1  0.750000  0.922947  0.384566  1
  P  P28  1  0.250000  0.264226  0.869043  1
  P  P29  1  0.250000  0.235774  0.369043  1
  P  P30  1  0.750000  0.735774  0.130957  1
  P  P31  1  0.750000  0.764226  0.630957  1
  P  P32  1  0.250000  0.594059  0.394484  1
  P  P33  1  0.250000  0.905941  0.894484  1
  P  P34  1  0.750000  0.405941  0.605516  1
  P  P35  1  0.750000  0.094059  0.105516  1
