# generated using pymatgen
data_Y10Pb6Cl
_symmetry_space_group_name_H-M   'P 1'
_cell_length_a   9.12918600
_cell_length_b   9.12918601
_cell_length_c   6.64031500
_cell_angle_alpha   90.00000000
_cell_angle_beta   90.00000000
_cell_angle_gamma   119.99999997
_symmetry_Int_Tables_number   1
_chemical_formula_structural   Y10Pb6Cl
_chemical_formula_sum   'Y10 Pb6 Cl1'
_cell_volume   479.27350923
_cell_formula_units_Z   1
loop_
 _symmetry_equiv_pos_site_id
 _symmetry_equiv_pos_as_xyz
  1  'x, y, z'
loop_
 _atom_site_type_symbol
 _atom_site_label
 _atom_site_symmetry_multiplicity
 _atom_site_fract_x
 _atom_site_fract_y
 _atom_site_fract_z
 _atom_site_occupancy
  Y  Y0  1  0.333333  0.666667  0.500000  1
  Y  Y1  1  0.666667  0.333333  0.500000  1
  Y  Y2  1  0.666667  0.333333  0.000000  1
  Y  Y3  1  0.333333  0.666667  0.000000  1
  Y  Y4  1  0.000000  0.750305  0.238774  1
  Y  Y5  1  0.249695  0.249695  0.238774  1
  Y  Y6  1  0.750305  0.000000  0.238774  1
  Y  Y7  1  0.000000  0.249695  0.761226  1
  Y  Y8  1  0.750305  0.750305  0.761226  1
  Y  Y9  1  0.249695  0.000000  0.761226  1
  Pb  Pb10  1  0.000000  0.391242  0.248964  1
  Pb  Pb11  1  0.608758  0.608758  0.248964  1
  Pb  Pb12  1  0.391242  0.000000  0.248964  1
  Pb  Pb13  1  0.000000  0.608758  0.751036  1
  Pb  Pb14  1  0.391242  0.391242  0.751036  1
  Pb  Pb15  1  0.608758  0.000000  0.751036  1
  Cl  Cl16  1  0.000000  0.000000  0.500000  1
