# generated using pymatgen
data_Tm3Ta(ZnRh2)4
_symmetry_space_group_name_H-M   'P 1'
_cell_length_a   6.03992200
_cell_length_b   6.06561100
_cell_length_c   6.98100700
_cell_angle_alpha   89.99830943
_cell_angle_beta   89.99794134
_cell_angle_gamma   89.99745270
_symmetry_Int_Tables_number   1
_chemical_formula_structural   Tm3Ta(ZnRh2)4
_chemical_formula_sum   'Tm3 Ta1 Zn4 Rh8'
_cell_volume   255.75489692
_cell_formula_units_Z   1
loop_
 _symmetry_equiv_pos_site_id
 _symmetry_equiv_pos_as_xyz
  1  'x, y, z'
loop_
 _atom_site_type_symbol
 _atom_site_label
 _atom_site_symmetry_multiplicity
 _atom_site_fract_x
 _atom_site_fract_y
 _atom_site_fract_z
 _atom_site_occupancy
  Tm  Tm0  1  0.750006  0.249993  0.000003  1
  Tm  Tm1  1  0.249995  0.749999  0.000013  1
  Tm  Tm2  1  0.749999  0.250009  0.500001  1
  Ta  Ta3  1  0.250001  0.750025  0.499969  1
  Zn  Zn4  1  0.250009  0.249999  0.999985  1
  Zn  Zn5  1  0.749994  0.749992  0.999994  1
  Zn  Zn6  1  0.750006  0.750000  0.499999  1
  Zn  Zn7  1  0.250004  0.249994  0.500007  1
  Rh  Rh8  1  0.493928  0.994067  0.259655  1
  Rh  Rh9  1  0.006061  0.994077  0.259651  1
  Rh  Rh10  1  0.493920  0.505922  0.259640  1
  Rh  Rh11  1  0.006080  0.505926  0.259646  1
  Rh  Rh12  1  0.493933  0.994055  0.740358  1
  Rh  Rh13  1  0.006069  0.994065  0.740348  1
  Rh  Rh14  1  0.493919  0.505941  0.740364  1
  Rh  Rh15  1  0.006078  0.505936  0.740364  1
