# generated using pymatgen
data_SmTh5SCl15
_symmetry_space_group_name_H-M   'P 1'
_cell_length_a   9.61047853
_cell_length_b   9.61047872
_cell_length_c   9.61047900
_cell_angle_alpha   109.99941434
_cell_angle_beta   109.20777240
_cell_angle_gamma   109.20777192
_symmetry_Int_Tables_number   1
_chemical_formula_structural   SmTh5SCl15
_chemical_formula_sum   'Sm1 Th5 S1 Cl15'
_cell_volume   683.25914725
_cell_formula_units_Z   1
loop_
 _symmetry_equiv_pos_site_id
 _symmetry_equiv_pos_as_xyz
  1  'x, y, z'
loop_
 _atom_site_type_symbol
 _atom_site_label
 _atom_site_symmetry_multiplicity
 _atom_site_fract_x
 _atom_site_fract_y
 _atom_site_fract_z
 _atom_site_occupancy
  Sm  Sm0  1  0.000000  0.245132  0.245132  1
  Th  Th1  1  0.000000  0.752629  0.752629  1
  Th  Th2  1  0.244533  0.000531  0.245063  1
  Th  Th3  1  0.755467  0.000531  0.755999  1
  Th  Th4  1  0.244533  0.245063  0.000531  1
  Th  Th5  1  0.755467  0.755999  0.000531  1
  S  S6  1  0.000000  0.002563  0.002563  1
  Cl  Cl7  1  0.497944  0.249131  0.249131  1
  Cl  Cl8  1  0.502056  0.751187  0.751187  1
  Cl  Cl9  1  0.000000  0.249131  0.751187  1
  Cl  Cl10  1  0.000000  0.751187  0.249131  1
  Cl  Cl11  1  0.247947  0.497349  0.249403  1
  Cl  Cl12  1  0.752053  0.001456  0.249403  1
  Cl  Cl13  1  0.750013  0.498956  0.748942  1
  Cl  Cl14  1  0.249987  0.998930  0.748942  1
  Cl  Cl15  1  0.247947  0.249403  0.497349  1
  Cl  Cl16  1  0.750013  0.748942  0.498956  1
  Cl  Cl17  1  0.752053  0.249403  0.001456  1
  Cl  Cl18  1  0.249987  0.748942  0.998930  1
  Cl  Cl19  1  0.000000  0.503643  0.503643  1
  Cl  Cl20  1  0.500000  0.999946  0.499946  1
  Cl  Cl21  1  0.500000  0.499946  0.999946  1
