# generated using pymatgen
data_Eu4MnNb2WO14
_symmetry_space_group_name_H-M   'P 1'
_cell_length_a   7.58039940
_cell_length_b   7.58039862
_cell_length_c   7.52051427
_cell_angle_alpha   59.56249716
_cell_angle_beta   59.56248672
_cell_angle_gamma   59.84548736
_symmetry_Int_Tables_number   1
_chemical_formula_structural   Eu4MnNb2WO14
_chemical_formula_sum   'Eu4 Mn1 Nb2 W1 O14'
_cell_volume   303.18655297
_cell_formula_units_Z   1
loop_
 _symmetry_equiv_pos_site_id
 _symmetry_equiv_pos_as_xyz
  1  'x, y, z'
loop_
 _atom_site_type_symbol
 _atom_site_label
 _atom_site_symmetry_multiplicity
 _atom_site_fract_x
 _atom_site_fract_y
 _atom_site_fract_z
 _atom_site_occupancy
  Eu  Eu0  1  0.125000  0.625000  0.125000  1
  Eu  Eu1  1  0.125000  0.125000  0.625000  1
  Eu  Eu2  1  0.625000  0.125000  0.125000  1
  Eu  Eu3  1  0.125000  0.125000  0.125000  1
  Mn  Mn4  1  0.625000  0.625000  0.125000  1
  Nb  Nb5  1  0.125000  0.625000  0.625000  1
  Nb  Nb6  1  0.625000  0.125000  0.625000  1
  W  W7  1  0.625000  0.625000  0.625000  1
  O  O8  1  0.318376  0.697107  0.678286  1
  O  O9  1  0.544531  0.973736  0.944154  1
  O  O10  1  0.703769  0.703769  0.315386  1
  O  O11  1  0.306087  0.306087  0.681093  1
  O  O12  1  0.000602  0.000602  0.995644  1
  O  O13  1  0.276264  0.705469  0.305846  1
  O  O14  1  0.697107  0.318376  0.678286  1
  O  O15  1  0.973736  0.544531  0.944154  1
  O  O16  1  0.546231  0.546231  0.934614  1
  O  O17  1  0.943913  0.943913  0.568907  1
  O  O18  1  0.249398  0.249398  0.254356  1
  O  O19  1  0.552893  0.931624  0.571714  1
  O  O20  1  0.705469  0.276264  0.305846  1
  O  O21  1  0.931624  0.552893  0.571714  1
