# generated using pymatgen
data_Nd8Lu10Sc2Si15S
_symmetry_space_group_name_H-M   'P 1'
_cell_length_a   7.44714549
_cell_length_b   7.61778981
_cell_length_c   14.46927991
_cell_angle_alpha   89.80505113
_cell_angle_beta   87.67739855
_cell_angle_gamma   90.19834402
_symmetry_Int_Tables_number   1
_chemical_formula_structural   Nd8Lu10Sc2Si15S
_chemical_formula_sum   'Nd8 Lu10 Sc2 Si15 S1'
_cell_volume   820.16925350
_cell_formula_units_Z   1
loop_
 _symmetry_equiv_pos_site_id
 _symmetry_equiv_pos_as_xyz
  1  'x, y, z'
loop_
 _atom_site_type_symbol
 _atom_site_label
 _atom_site_symmetry_multiplicity
 _atom_site_fract_x
 _atom_site_fract_y
 _atom_site_fract_z
 _atom_site_occupancy
  Nd  Nd0  1  0.009262  0.174205  0.097366  1
  Nd  Nd1  1  0.991044  0.828541  0.901790  1
  Nd  Nd2  1  0.491608  0.676643  0.902452  1
  Nd  Nd3  1  0.004896  0.825306  0.600168  1
  Nd  Nd4  1  0.509145  0.324863  0.097141  1
  Nd  Nd5  1  0.990355  0.170467  0.396717  1
  Nd  Nd6  1  0.493180  0.314231  0.399758  1
  Nd  Nd7  1  0.509026  0.682763  0.599235  1
  Lu  Lu8  1  0.175785  0.506446  0.752845  1
  Lu  Lu9  1  0.823488  0.495491  0.252441  1
  Lu  Lu10  1  0.319990  0.998448  0.250543  1
  Lu  Lu11  1  0.679246  0.001038  0.748825  1
  Lu  Lu12  1  0.357894  0.170273  0.622690  1
  Lu  Lu13  1  0.642028  0.831085  0.377128  1
  Lu  Lu14  1  0.144834  0.658486  0.383756  1
  Lu  Lu15  1  0.662847  0.820931  0.122612  1
  Lu  Lu16  1  0.858037  0.337441  0.617338  1
  Lu  Lu17  1  0.337400  0.179216  0.876044  1
  Sc  Sc18  1  0.837648  0.325308  0.874613  1
  Sc  Sc19  1  0.162397  0.674521  0.124359  1
  Si  Si20  1  0.050528  0.127123  0.749737  1
  Si  Si21  1  0.949626  0.873275  0.248490  1
  Si  Si22  1  0.442886  0.615865  0.248188  1
  Si  Si23  1  0.555735  0.384260  0.750416  1
  Si  Si24  1  0.298883  0.879248  0.751540  1
  Si  Si25  1  0.701332  0.120583  0.246573  1
  Si  Si26  1  0.202958  0.378186  0.247343  1
  Si  Si27  1  0.799369  0.622252  0.751789  1
  Si  Si28  1  0.797374  0.535680  0.454249  1
  Si  Si29  1  0.302670  0.958617  0.458800  1
  Si  Si30  1  0.849252  0.532618  0.036980  1
  Si  Si31  1  0.693051  0.040578  0.543370  1
  Si  Si32  1  0.150415  0.469341  0.961287  1
  Si  Si33  1  0.658036  0.039173  0.959405  1
  Si  Si34  1  0.341239  0.962166  0.039715  1
  S  S35  1  0.206541  0.465333  0.554299  1
