# generated using pymatgen
data_La5Nd11Cd4OsPt3
_symmetry_space_group_name_H-M   'P 1'
_cell_length_a   10.08213270
_cell_length_b   10.11197504
_cell_length_c   10.11197539
_cell_angle_alpha   59.48593838
_cell_angle_beta   59.66287714
_cell_angle_gamma   59.66287432
_symmetry_Int_Tables_number   1
_chemical_formula_structural   La5Nd11Cd4OsPt3
_chemical_formula_sum   'La5 Nd11 Cd4 Os1 Pt3'
_cell_volume   722.40220074
_cell_formula_units_Z   1
loop_
 _symmetry_equiv_pos_site_id
 _symmetry_equiv_pos_as_xyz
  1  'x, y, z'
loop_
 _atom_site_type_symbol
 _atom_site_label
 _atom_site_symmetry_multiplicity
 _atom_site_fract_x
 _atom_site_fract_y
 _atom_site_fract_z
 _atom_site_occupancy
  La  La0  1  0.349743  0.351595  0.351595  1
  La  La1  1  0.346993  0.346614  0.952259  1
  La  La2  1  0.346993  0.952259  0.346614  1
  La  La3  1  0.951505  0.348894  0.348894  1
  La  La4  1  0.821291  0.186175  0.186175  1
  Nd  Nd5  1  0.187207  0.809687  0.809687  1
  Nd  Nd6  1  0.190058  0.814772  0.187661  1
  Nd  Nd7  1  0.808758  0.187497  0.808052  1
  Nd  Nd8  1  0.190058  0.187661  0.814772  1
  Nd  Nd9  1  0.808758  0.808052  0.187497  1
  Nd  Nd10  1  0.936112  0.565931  0.565931  1
  Nd  Nd11  1  0.558831  0.936058  0.936058  1
  Nd  Nd12  1  0.564372  0.936610  0.565730  1
  Nd  Nd13  1  0.937800  0.559106  0.935742  1
  Nd  Nd14  1  0.564372  0.565730  0.936610  1
  Nd  Nd15  1  0.937800  0.935742  0.559106  1
  Cd  Cd16  1  0.580317  0.580355  0.580355  1
  Cd  Cd17  1  0.580177  0.582663  0.255777  1
  Cd  Cd18  1  0.580177  0.255777  0.582663  1
  Cd  Cd19  1  0.255842  0.580982  0.580982  1
  Os  Os20  1  0.138654  0.144865  0.144865  1
  Pt  Pt21  1  0.144780  0.143857  0.574095  1
  Pt  Pt22  1  0.144780  0.574095  0.143857  1
  Pt  Pt23  1  0.574626  0.145025  0.145025  1
