# generated using pymatgen
data_V2Zn2C
_symmetry_space_group_name_H-M   'P 1'
_cell_length_a   2.91205800
_cell_length_b   2.91205732
_cell_length_c   8.64914900
_cell_angle_alpha   90.00000000
_cell_angle_beta   90.00000000
_cell_angle_gamma   119.99998498
_symmetry_Int_Tables_number   1
_chemical_formula_structural   V2Zn2C
_chemical_formula_sum   'V2 Zn2 C1'
_cell_volume   63.51905327
_cell_formula_units_Z   1
loop_
 _symmetry_equiv_pos_site_id
 _symmetry_equiv_pos_as_xyz
  1  'x, y, z'
loop_
 _atom_site_type_symbol
 _atom_site_label
 _atom_site_symmetry_multiplicity
 _atom_site_fract_x
 _atom_site_fract_y
 _atom_site_fract_z
 _atom_site_occupancy
  V  V0  1  0.333334  0.666668  0.127782  1
  V  V1  1  0.666665  0.333332  0.872218  1
  Zn  Zn2  1  0.666665  0.333332  0.375866  1
  Zn  Zn3  1  0.333334  0.666668  0.624134  1
  C  C4  1  0.000000  0.000000  0.000000  1
