# generated using pymatgen
data_Nd12Ru3AuCl12
_symmetry_space_group_name_H-M   'P 1'
_cell_length_a   10.30627804
_cell_length_b   10.30627738
_cell_length_c   10.16907400
_cell_angle_alpha   109.20176674
_cell_angle_beta   109.20176546
_cell_angle_gamma   109.73932503
_symmetry_Int_Tables_number   1
_chemical_formula_structural   Nd12Ru3AuCl12
_chemical_formula_sum   'Nd12 Ru3 Au1 Cl12'
_cell_volume   834.25078591
_cell_formula_units_Z   1
loop_
 _symmetry_equiv_pos_site_id
 _symmetry_equiv_pos_as_xyz
  1  'x, y, z'
loop_
 _atom_site_type_symbol
 _atom_site_label
 _atom_site_symmetry_multiplicity
 _atom_site_fract_x
 _atom_site_fract_y
 _atom_site_fract_z
 _atom_site_occupancy
  Nd  Nd0  1  0.254219  0.732871  0.232345  1
  Nd  Nd1  1  0.478652  0.732871  0.000526  1
  Nd  Nd2  1  0.238700  0.477399  0.488700  1
  Nd  Nd3  1  0.011259  0.022519  0.261259  1
  Nd  Nd4  1  0.238700  0.261300  0.750000  1
  Nd  Nd5  1  0.011259  0.488741  0.750000  1
  Nd  Nd6  1  0.478652  0.245781  0.478125  1
  Nd  Nd7  1  0.254219  0.021348  0.021875  1
  Nd  Nd8  1  0.767129  0.245781  0.267655  1
  Nd  Nd9  1  0.767129  0.021348  0.499474  1
  Nd  Nd10  1  0.477481  0.488741  0.238741  1
  Nd  Nd11  1  0.022601  0.261300  0.011300  1
  Ru  Ru12  1  0.248867  0.497733  0.998867  1
  Ru  Ru13  1  0.002267  0.251133  0.501133  1
  Ru  Ru14  1  0.248867  0.251133  0.250000  1
  Au  Au15  1  0.500000  0.000000  0.250000  1
  Cl  Cl16  1  0.248339  0.999704  0.497834  1
  Cl  Cl17  1  0.505095  0.502547  0.752547  1
  Cl  Cl18  1  0.248339  0.748636  0.750505  1
  Cl  Cl19  1  0.003316  0.751659  0.001659  1
  Cl  Cl20  1  0.997453  0.502547  0.250000  1
  Cl  Cl21  1  0.751364  0.999704  0.001868  1
  Cl  Cl22  1  0.748341  0.751659  0.250000  1
  Cl  Cl23  1  0.500296  0.748636  0.498132  1
  Cl  Cl24  1  0.500296  0.251661  0.002166  1
  Cl  Cl25  1  0.748341  0.496684  0.498341  1
  Cl  Cl26  1  0.751364  0.251661  0.749495  1
  Cl  Cl27  1  0.997453  0.994905  0.747453  1
