# generated using pymatgen
data_Ho7Er3(SnSb2)2
_symmetry_space_group_name_H-M   'P 1'
_cell_length_a   8.92382447
_cell_length_b   8.90825904
_cell_length_c   6.37017104
_cell_angle_alpha   89.98662694
_cell_angle_beta   90.00667118
_cell_angle_gamma   119.94231671
_symmetry_Int_Tables_number   1
_chemical_formula_structural   Ho7Er3(SnSb2)2
_chemical_formula_sum   'Ho7 Er3 Sn2 Sb4'
_cell_volume   438.81120856
_cell_formula_units_Z   1
loop_
 _symmetry_equiv_pos_site_id
 _symmetry_equiv_pos_as_xyz
  1  'x, y, z'
loop_
 _atom_site_type_symbol
 _atom_site_label
 _atom_site_symmetry_multiplicity
 _atom_site_fract_x
 _atom_site_fract_y
 _atom_site_fract_z
 _atom_site_occupancy
  Ho  Ho0  1  0.333794  0.666897  0.500000  1
  Ho  Ho1  1  0.755405  0.999282  0.750027  1
  Ho  Ho2  1  0.755405  0.756123  0.249973  1
  Ho  Ho3  1  0.000958  0.243793  0.249973  1
  Ho  Ho4  1  0.000958  0.757164  0.750027  1
  Ho  Ho5  1  0.243908  0.242305  0.750067  1
  Ho  Ho6  1  0.243908  0.001604  0.249933  1
  Er  Er7  1  0.333749  0.666875  0.000000  1
  Er  Er8  1  0.665104  0.332552  0.500000  1
  Er  Er9  1  0.665122  0.332561  0.000000  1
  Sn  Sn10  1  0.391800  0.999285  0.750267  1
  Sn  Sn11  1  0.391800  0.392514  0.249733  1
  Sb  Sb12  1  0.999140  0.609096  0.249816  1
  Sb  Sb13  1  0.999140  0.390045  0.750184  1
  Sb  Sb14  1  0.609904  0.609407  0.750198  1
  Sb  Sb15  1  0.609904  0.000497  0.249802  1
