# generated using pymatgen
data_Gd3CrTcC6
_symmetry_space_group_name_H-M   'P 1'
_cell_length_a   8.33620200
_cell_length_b   8.33620172
_cell_length_c   5.07717700
_cell_angle_alpha   90.00000000
_cell_angle_beta   90.00000000
_cell_angle_gamma   119.99999260
_symmetry_Int_Tables_number   1
_chemical_formula_structural   Gd3CrTcC6
_chemical_formula_sum   'Gd6 Cr2 Tc2 C12'
_cell_volume   305.55501288
_cell_formula_units_Z   2
loop_
 _symmetry_equiv_pos_site_id
 _symmetry_equiv_pos_as_xyz
  1  'x, y, z'
loop_
 _atom_site_type_symbol
 _atom_site_label
 _atom_site_symmetry_multiplicity
 _atom_site_fract_x
 _atom_site_fract_y
 _atom_site_fract_z
 _atom_site_occupancy
  Gd  Gd0  1  0.623620  0.692226  0.750000  1
  Gd  Gd1  1  0.931395  0.623620  0.250000  1
  Gd  Gd2  1  0.692226  0.068605  0.250000  1
  Gd  Gd3  1  0.307774  0.931395  0.750000  1
  Gd  Gd4  1  0.068605  0.376380  0.750000  1
  Gd  Gd5  1  0.376380  0.307774  0.250000  1
  Cr  Cr6  1  0.000000  0.000000  0.500000  1
  Cr  Cr7  1  0.000000  0.000000  0.000000  1
  Tc  Tc8  1  0.666667  0.333333  0.750000  1
  Tc  Tc9  1  0.333333  0.666667  0.250000  1
  C  C10  1  0.960914  0.777914  0.750000  1
  C  C11  1  0.183000  0.960914  0.250000  1
  C  C12  1  0.777914  0.817000  0.250000  1
  C  C13  1  0.222086  0.183000  0.750000  1
  C  C14  1  0.817000  0.039086  0.750000  1
  C  C15  1  0.039086  0.222086  0.250000  1
  C  C16  1  0.868457  0.588593  0.750000  1
  C  C17  1  0.279863  0.868457  0.250000  1
  C  C18  1  0.588593  0.720137  0.250000  1
  C  C19  1  0.411407  0.279863  0.750000  1
  C  C20  1  0.131543  0.411407  0.250000  1
  C  C21  1  0.720137  0.131543  0.750000  1
