# generated using pymatgen
data_TbTm2(SiPd)3
_symmetry_space_group_name_H-M   'P 1'
_cell_length_a   4.31106500
_cell_length_b   7.33886000
_cell_length_c   21.03768000
_cell_angle_alpha   90.00000000
_cell_angle_beta   90.00000000
_cell_angle_gamma   90.00000000
_symmetry_Int_Tables_number   1
_chemical_formula_structural   TbTm2(SiPd)3
_chemical_formula_sum   'Tb4 Tm8 Si12 Pd12'
_cell_volume   665.59648344
_cell_formula_units_Z   4
loop_
 _symmetry_equiv_pos_site_id
 _symmetry_equiv_pos_as_xyz
  1  'x, y, z'
loop_
 _atom_site_type_symbol
 _atom_site_label
 _atom_site_symmetry_multiplicity
 _atom_site_fract_x
 _atom_site_fract_y
 _atom_site_fract_z
 _atom_site_occupancy
  Tb  Tb0  1  0.250000  0.708759  0.001031  1
  Tb  Tb1  1  0.750000  0.291241  0.998969  1
  Tb  Tb2  1  0.750000  0.208759  0.498969  1
  Tb  Tb3  1  0.250000  0.791241  0.501031  1
  Tm  Tm4  1  0.250000  0.704459  0.332357  1
  Tm  Tm5  1  0.750000  0.295541  0.667643  1
  Tm  Tm6  1  0.750000  0.204459  0.167643  1
  Tm  Tm7  1  0.250000  0.795541  0.832357  1
  Tm  Tm8  1  0.250000  0.793765  0.167428  1
  Tm  Tm9  1  0.750000  0.206235  0.832572  1
  Tm  Tm10  1  0.750000  0.293765  0.332572  1
  Tm  Tm11  1  0.250000  0.706235  0.667428  1
  Si  Si12  1  0.250000  0.089580  0.072636  1
  Si  Si13  1  0.750000  0.910420  0.927364  1
  Si  Si14  1  0.750000  0.589580  0.427364  1
  Si  Si15  1  0.250000  0.410420  0.572636  1
  Si  Si16  1  0.250000  0.086318  0.271225  1
  Si  Si17  1  0.750000  0.913682  0.728775  1
  Si  Si18  1  0.750000  0.586318  0.228775  1
  Si  Si19  1  0.250000  0.413682  0.771225  1
  Si  Si20  1  0.250000  0.088436  0.393722  1
  Si  Si21  1  0.750000  0.911564  0.606278  1
  Si  Si22  1  0.750000  0.588436  0.106278  1
  Si  Si23  1  0.250000  0.411564  0.893722  1
  Pd  Pd24  1  0.250000  0.417006  0.237585  1
  Pd  Pd25  1  0.750000  0.582994  0.762415  1
  Pd  Pd26  1  0.750000  0.917006  0.262415  1
  Pd  Pd27  1  0.250000  0.082994  0.737585  1
  Pd  Pd28  1  0.250000  0.417329  0.435696  1
  Pd  Pd29  1  0.750000  0.582671  0.564304  1
  Pd  Pd30  1  0.750000  0.917329  0.064304  1
  Pd  Pd31  1  0.250000  0.082671  0.935696  1
  Pd  Pd32  1  0.250000  0.419011  0.096829  1
  Pd  Pd33  1  0.750000  0.580989  0.903171  1
  Pd  Pd34  1  0.750000  0.919011  0.403171  1
  Pd  Pd35  1  0.250000  0.080989  0.596829  1
