# generated using pymatgen
data_YHo9(In2Co)4
_symmetry_space_group_name_H-M   'P 1'
_cell_length_a   3.56823400
_cell_length_b   7.93538826
_cell_length_c   18.00421727
_cell_angle_alpha   89.99520469
_cell_angle_beta   90.00000000
_cell_angle_gamma   90.00000000
_symmetry_Int_Tables_number   1
_chemical_formula_structural   YHo9(In2Co)4
_chemical_formula_sum   'Y1 Ho9 In8 Co4'
_cell_volume   509.79521103
_cell_formula_units_Z   1
loop_
 _symmetry_equiv_pos_site_id
 _symmetry_equiv_pos_as_xyz
  1  'x, y, z'
loop_
 _atom_site_type_symbol
 _atom_site_label
 _atom_site_symmetry_multiplicity
 _atom_site_fract_x
 _atom_site_fract_y
 _atom_site_fract_z
 _atom_site_occupancy
  Y  Y0  1  0.000000  0.500000  0.500000  1
  Ho  Ho1  1  0.000000  0.000000  0.000000  1
  Ho  Ho2  1  0.000000  0.747724  0.277741  1
  Ho  Ho3  1  0.000000  0.252276  0.722259  1
  Ho  Ho4  1  0.000000  0.752454  0.777833  1
  Ho  Ho5  1  0.000000  0.247546  0.222167  1
  Ho  Ho6  1  0.000000  0.616580  0.090620  1
  Ho  Ho7  1  0.000000  0.383420  0.909380  1
  Ho  Ho8  1  0.000000  0.883644  0.590862  1
  Ho  Ho9  1  0.000000  0.116356  0.409138  1
  In  In10  1  0.500000  0.705225  0.930194  1
  In  In11  1  0.500000  0.294775  0.069806  1
  In  In12  1  0.500000  0.795559  0.430019  1
  In  In13  1  0.500000  0.204441  0.569981  1
  In  In14  1  0.500000  0.569332  0.652437  1
  In  In15  1  0.500000  0.430668  0.347563  1
  In  In16  1  0.500000  0.930997  0.152144  1
  In  In17  1  0.500000  0.069003  0.847856  1
  Co  Co18  1  0.500000  0.521946  0.195222  1
  Co  Co19  1  0.500000  0.478054  0.804778  1
  Co  Co20  1  0.500000  0.978181  0.695223  1
  Co  Co21  1  0.500000  0.021819  0.304777  1
