# generated using pymatgen
data_Nd2ErCd(Ir2O7)2
_symmetry_space_group_name_H-M   'P 1'
_cell_length_a   7.41679845
_cell_length_b   7.27488938
_cell_length_c   7.35911553
_cell_angle_alpha   59.24713730
_cell_angle_beta   59.74037108
_cell_angle_gamma   59.35259713
_symmetry_Int_Tables_number   1
_chemical_formula_structural   Nd2ErCd(Ir2O7)2
_chemical_formula_sum   'Nd2 Er1 Cd1 Ir4 O14'
_cell_volume   277.22596036
_cell_formula_units_Z   1
loop_
 _symmetry_equiv_pos_site_id
 _symmetry_equiv_pos_as_xyz
  1  'x, y, z'
loop_
 _atom_site_type_symbol
 _atom_site_label
 _atom_site_symmetry_multiplicity
 _atom_site_fract_x
 _atom_site_fract_y
 _atom_site_fract_z
 _atom_site_occupancy
  Nd  Nd0  1  0.625000  0.125000  0.125000  1
  Nd  Nd1  1  0.125000  0.125000  0.125000  1
  Er  Er2  1  0.125000  0.125000  0.625000  1
  Cd  Cd3  1  0.125000  0.625000  0.125000  1
  Ir  Ir4  1  0.125000  0.625000  0.625000  1
  Ir  Ir5  1  0.625000  0.125000  0.625000  1
  Ir  Ir6  1  0.625000  0.625000  0.125000  1
  Ir  Ir7  1  0.625000  0.625000  0.625000  1
  O  O8  1  0.704672  0.699577  0.298673  1
  O  O9  1  0.291888  0.288547  0.701153  1
  O  O10  1  0.718411  0.288547  0.701153  1
  O  O11  1  0.297079  0.699577  0.298673  1
  O  O12  1  0.299445  0.718230  0.682881  1
  O  O13  1  0.710401  0.288219  0.290978  1
  O  O14  1  0.545328  0.550423  0.951327  1
  O  O15  1  0.958112  0.961453  0.548847  1
  O  O16  1  0.531589  0.961453  0.548847  1
  O  O17  1  0.952921  0.550423  0.951327  1
  O  O18  1  0.950555  0.531770  0.567119  1
  O  O19  1  0.539599  0.961781  0.959022  1
  O  O20  1  0.242565  0.254238  0.260633  1
  O  O21  1  0.007435  0.995762  0.989367  1
