# generated using pymatgen
data_MnGaRhO4
_symmetry_space_group_name_H-M   'P 1'
_cell_length_a   6.12767160
_cell_length_b   6.12767093
_cell_length_c   6.12767050
_cell_angle_alpha   121.03436640
_cell_angle_beta   118.97903513
_cell_angle_gamma   89.99761189
_symmetry_Int_Tables_number   1
_chemical_formula_structural   MnGaRhO4
_chemical_formula_sum   'Mn2 Ga2 Rh2 O8'
_cell_volume   162.61201572
_cell_formula_units_Z   2
loop_
 _symmetry_equiv_pos_site_id
 _symmetry_equiv_pos_as_xyz
  1  'x, y, z'
loop_
 _atom_site_type_symbol
 _atom_site_label
 _atom_site_symmetry_multiplicity
 _atom_site_fract_x
 _atom_site_fract_y
 _atom_site_fract_z
 _atom_site_occupancy
  Mn  Mn0  1  0.120285  0.870285  0.250000  1
  Mn  Mn1  1  0.879715  0.129715  0.750000  1
  Ga  Ga2  1  0.500000  0.500000  0.500000  1
  Ga  Ga3  1  0.500000  0.000000  0.000000  1
  Rh  Rh4  1  0.500000  0.500000  0.000000  1
  Rh  Rh5  1  0.000000  0.500000  0.500000  1
  O  O6  1  0.731179  0.254670  0.023492  1
  O  O7  1  0.731179  0.707687  0.476508  1
  O  O8  1  0.728781  0.259727  0.469054  1
  O  O9  1  0.290673  0.259727  0.030946  1
  O  O10  1  0.268821  0.745330  0.976508  1
  O  O11  1  0.268821  0.292313  0.523492  1
  O  O12  1  0.271219  0.740273  0.530946  1
  O  O13  1  0.709327  0.740273  0.969054  1
