# generated using pymatgen
data_Tb14Er2MgHg3Ir4
_symmetry_space_group_name_H-M   'P 1'
_cell_length_a   9.65631110
_cell_length_b   9.67315353
_cell_length_c   9.67315368
_cell_angle_alpha   59.85129549
_cell_angle_beta   59.97098400
_cell_angle_gamma   59.97098141
_symmetry_Int_Tables_number   1
_chemical_formula_structural   Tb14Er2MgHg3Ir4
_chemical_formula_sum   'Tb14 Er2 Mg1 Hg3 Ir4'
_cell_volume   637.89878565
_cell_formula_units_Z   1
loop_
 _symmetry_equiv_pos_site_id
 _symmetry_equiv_pos_as_xyz
  1  'x, y, z'
loop_
 _atom_site_type_symbol
 _atom_site_label
 _atom_site_symmetry_multiplicity
 _atom_site_fract_x
 _atom_site_fract_y
 _atom_site_fract_z
 _atom_site_occupancy
  Tb  Tb0  1  0.062760  0.439292  0.060102  1
  Tb  Tb1  1  0.055523  0.647984  0.647984  1
  Tb  Tb2  1  0.650310  0.652429  0.652429  1
  Tb  Tb3  1  0.062760  0.060102  0.439292  1
  Tb  Tb4  1  0.191123  0.811089  0.190228  1
  Tb  Tb5  1  0.812928  0.811445  0.188453  1
  Tb  Tb6  1  0.812928  0.188453  0.811445  1
  Tb  Tb7  1  0.439187  0.060509  0.437665  1
  Tb  Tb8  1  0.439187  0.437665  0.060509  1
  Tb  Tb9  1  0.439906  0.061451  0.061451  1
  Tb  Tb10  1  0.062223  0.438123  0.438123  1
  Tb  Tb11  1  0.191123  0.190228  0.811089  1
  Tb  Tb12  1  0.649531  0.650212  0.046887  1
  Tb  Tb13  1  0.649531  0.046887  0.650212  1
  Er  Er14  1  0.192105  0.808891  0.808891  1
  Er  Er15  1  0.814221  0.188349  0.188349  1
  Mg  Mg16  1  0.717675  0.427904  0.427904  1
  Hg  Hg17  1  0.417854  0.413477  0.755898  1
  Hg  Hg18  1  0.417854  0.755898  0.413477  1
  Hg  Hg19  1  0.418657  0.413508  0.413508  1
  Ir  Ir20  1  0.858485  0.858293  0.424265  1
  Ir  Ir21  1  0.858485  0.424265  0.858293  1
  Ir  Ir22  1  0.861604  0.856762  0.856762  1
  Ir  Ir23  1  0.424045  0.856781  0.856781  1
