# generated using pymatgen
data_Mg4H8OsRu
_symmetry_space_group_name_H-M   'P 1'
_cell_length_a   5.49378733
_cell_length_b   5.49378821
_cell_length_c   4.82135900
_cell_angle_alpha   90.00000000
_cell_angle_beta   90.00000000
_cell_angle_gamma   100.77006142
_symmetry_Int_Tables_number   1
_chemical_formula_structural   Mg4H8OsRu
_chemical_formula_sum   'Mg4 H8 Os1 Ru1'
_cell_volume   142.95355585
_cell_formula_units_Z   1
loop_
 _symmetry_equiv_pos_site_id
 _symmetry_equiv_pos_as_xyz
  1  'x, y, z'
loop_
 _atom_site_type_symbol
 _atom_site_label
 _atom_site_symmetry_multiplicity
 _atom_site_fract_x
 _atom_site_fract_y
 _atom_site_fract_z
 _atom_site_occupancy
  Mg  Mg0  1  0.351231  0.067672  0.250000  1
  Mg  Mg1  1  0.069331  0.351658  0.750000  1
  Mg  Mg2  1  0.648342  0.930669  0.750000  1
  Mg  Mg3  1  0.932328  0.648769  0.250000  1
  H  H4  1  0.130860  0.354474  0.250000  1
  H  H5  1  0.353522  0.130173  0.750000  1
  H  H6  1  0.869827  0.646478  0.750000  1
  H  H7  1  0.645526  0.869140  0.250000  1
  H  H8  1  0.721563  0.278437  0.014697  1
  H  H9  1  0.278083  0.721917  0.984765  1
  H  H10  1  0.721563  0.278437  0.485303  1
  H  H11  1  0.278083  0.721917  0.515235  1
  Os  Os12  1  0.867660  0.132340  0.250000  1
  Ru  Ru13  1  0.132082  0.867918  0.750000  1
