# generated using pymatgen
data_Tb4ThMn2O12
_symmetry_space_group_name_H-M   'P 1'
_cell_length_a   6.87561516
_cell_length_b   6.87561642
_cell_length_c   7.27974108
_cell_angle_alpha   74.69195827
_cell_angle_beta   74.69195772
_cell_angle_gamma   50.21362432
_symmetry_Int_Tables_number   1
_chemical_formula_structural   Tb4ThMn2O12
_chemical_formula_sum   'Tb4 Th1 Mn2 O12'
_cell_volume   252.96252752
_cell_formula_units_Z   1
loop_
 _symmetry_equiv_pos_site_id
 _symmetry_equiv_pos_as_xyz
  1  'x, y, z'
loop_
 _atom_site_type_symbol
 _atom_site_label
 _atom_site_symmetry_multiplicity
 _atom_site_fract_x
 _atom_site_fract_y
 _atom_site_fract_z
 _atom_site_occupancy
  Tb  Tb0  1  0.696486  0.696486  0.656148  1
  Tb  Tb1  1  0.693407  0.693407  0.148717  1
  Tb  Tb2  1  0.306593  0.306593  0.851283  1
  Tb  Tb3  1  0.303514  0.303514  0.343852  1
  Th  Th4  1  0.000000  0.000000  0.000000  1
  Mn  Mn5  1  0.246139  0.753861  0.500000  1
  Mn  Mn6  1  0.753861  0.246139  0.500000  1
  O  O7  1  0.401501  0.904403  0.925003  1
  O  O8  1  0.578476  0.099297  0.581493  1
  O  O9  1  0.900703  0.421524  0.418507  1
  O  O10  1  0.095597  0.598499  0.074997  1
  O  O11  1  0.999694  0.999694  0.323355  1
  O  O12  1  0.500756  0.500756  0.679395  1
  O  O13  1  0.904403  0.401501  0.925003  1
  O  O14  1  0.099297  0.578476  0.581493  1
  O  O15  1  0.421524  0.900703  0.418507  1
  O  O16  1  0.598499  0.095597  0.074997  1
  O  O17  1  0.499244  0.499244  0.320605  1
  O  O18  1  0.000306  0.000306  0.676645  1
