# generated using pymatgen
data_Tb2DyAl3Ga2Ni
_symmetry_space_group_name_H-M   'P 1'
_cell_length_a   6.94359400
_cell_length_b   6.93744284
_cell_length_c   4.26550100
_cell_angle_alpha   90.00000000
_cell_angle_beta   90.00000000
_cell_angle_gamma   120.02933485
_symmetry_Int_Tables_number   1
_chemical_formula_structural   Tb2DyAl3Ga2Ni
_chemical_formula_sum   'Tb2 Dy1 Al3 Ga2 Ni1'
_cell_volume   177.89181438
_cell_formula_units_Z   1
loop_
 _symmetry_equiv_pos_site_id
 _symmetry_equiv_pos_as_xyz
  1  'x, y, z'
loop_
 _atom_site_type_symbol
 _atom_site_label
 _atom_site_symmetry_multiplicity
 _atom_site_fract_x
 _atom_site_fract_y
 _atom_site_fract_z
 _atom_site_occupancy
  Tb  Tb0  1  0.999604  0.407430  0.500000  1
  Tb  Tb1  1  0.592173  0.592570  0.500000  1
  Dy  Dy2  1  0.407633  0.000000  0.500000  1
  Al  Al3  1  0.769075  0.000000  0.000000  1
  Al  Al4  1  0.000128  0.769519  0.000000  1
  Al  Al5  1  0.230609  0.230481  0.000000  1
  Ga  Ga6  1  0.333673  0.667164  0.000000  1
  Ga  Ga7  1  0.666510  0.332836  0.000000  1
  Ni  Ni8  1  0.000596  0.000000  0.500000  1
