# generated using pymatgen
data_Fe3CoMo2(P2W)2
_symmetry_space_group_name_H-M   'P 1'
_cell_length_a   3.71571200
_cell_length_b   5.86457263
_cell_length_c   6.74308792
_cell_angle_alpha   89.67964915
_cell_angle_beta   90.00000000
_cell_angle_gamma   90.00000000
_symmetry_Int_Tables_number   1
_chemical_formula_structural   Fe3CoMo2(P2W)2
_chemical_formula_sum   'Fe3 Co1 Mo2 P4 W2'
_cell_volume   146.93675617
_cell_formula_units_Z   1
loop_
 _symmetry_equiv_pos_site_id
 _symmetry_equiv_pos_as_xyz
  1  'x, y, z'
loop_
 _atom_site_type_symbol
 _atom_site_label
 _atom_site_symmetry_multiplicity
 _atom_site_fract_x
 _atom_site_fract_y
 _atom_site_fract_z
 _atom_site_occupancy
  Fe  Fe0  1  0.250000  0.858341  0.937723  1
  Fe  Fe1  1  0.250000  0.364298  0.563512  1
  Fe  Fe2  1  0.750000  0.142803  0.065498  1
  Co  Co3  1  0.750000  0.638009  0.432413  1
  Mo  Mo4  1  0.250000  0.970416  0.327649  1
  Mo  Mo5  1  0.750000  0.028604  0.674212  1
  P  P6  1  0.250000  0.228191  0.874976  1
  P  P7  1  0.250000  0.735072  0.621083  1
  P  P8  1  0.750000  0.772692  0.122282  1
  P  P9  1  0.750000  0.264341  0.381898  1
  W  W10  1  0.250000  0.468589  0.168592  1
  W  W11  1  0.750000  0.528646  0.830160  1
