# generated using pymatgen
data_PrSe27
_symmetry_space_group_name_H-M   'P 1'
_cell_length_a   14.82758896
_cell_length_b   14.82758976
_cell_length_c   14.82758892
_cell_angle_alpha   118.72041106
_cell_angle_beta   118.72040618
_cell_angle_gamma   118.72040902
_symmetry_Int_Tables_number   1
_chemical_formula_structural   PrSe27
_chemical_formula_sum   'Pr1 Se27'
_cell_volume   952.27563188
_cell_formula_units_Z   1
loop_
 _symmetry_equiv_pos_site_id
 _symmetry_equiv_pos_as_xyz
  1  'x, y, z'
loop_
 _atom_site_type_symbol
 _atom_site_label
 _atom_site_symmetry_multiplicity
 _atom_site_fract_x
 _atom_site_fract_y
 _atom_site_fract_z
 _atom_site_occupancy
  Pr  Pr0  1  0.436305  0.436305  0.436305  1
  Se  Se1  1  0.022507  0.645064  0.645064  1
  Se  Se2  1  0.645064  0.645064  0.022507  1
  Se  Se3  1  0.645064  0.022507  0.645064  1
  Se  Se4  1  0.276593  0.901457  0.756653  1
  Se  Se5  1  0.901457  0.756653  0.276593  1
  Se  Se6  1  0.756653  0.276593  0.901457  1
  Se  Se7  1  0.901457  0.276593  0.756653  1
  Se  Se8  1  0.276593  0.756653  0.901457  1
  Se  Se9  1  0.756653  0.901457  0.276593  1
  Se  Se10  1  0.074459  0.606723  0.407554  1
  Se  Se11  1  0.606723  0.407554  0.074459  1
  Se  Se12  1  0.407554  0.074459  0.606723  1
  Se  Se13  1  0.606723  0.074459  0.407554  1
  Se  Se14  1  0.074459  0.407554  0.606723  1
  Se  Se15  1  0.407554  0.606723  0.074459  1
  Se  Se16  1  0.376647  0.746390  0.598102  1
  Se  Se17  1  0.746390  0.598102  0.376647  1
  Se  Se18  1  0.598102  0.376647  0.746390  1
  Se  Se19  1  0.746390  0.376647  0.598102  1
  Se  Se20  1  0.376647  0.598102  0.746390  1
  Se  Se21  1  0.598102  0.746390  0.376647  1
  Se  Se22  1  0.173545  0.411932  0.411932  1
  Se  Se23  1  0.411932  0.411932  0.173545  1
  Se  Se24  1  0.411932  0.173545  0.411932  1
  Se  Se25  1  0.015564  0.898018  0.898018  1
  Se  Se26  1  0.898018  0.898018  0.015564  1
  Se  Se27  1  0.898018  0.015564  0.898018  1
