# generated using pymatgen
data_Nd3Gd2Ga2Sn
_symmetry_space_group_name_H-M   'P 1'
_cell_length_a   9.17500937
_cell_length_b   9.17500870
_cell_length_c   9.15527300
_cell_angle_alpha   126.95769315
_cell_angle_beta   126.95769783
_cell_angle_gamma   78.47100336
_symmetry_Int_Tables_number   1
_chemical_formula_structural   Nd3Gd2Ga2Sn
_chemical_formula_sum   'Nd6 Gd4 Ga4 Sn2'
_cell_volume   476.09015006
_cell_formula_units_Z   2
loop_
 _symmetry_equiv_pos_site_id
 _symmetry_equiv_pos_as_xyz
  1  'x, y, z'
loop_
 _atom_site_type_symbol
 _atom_site_label
 _atom_site_symmetry_multiplicity
 _atom_site_fract_x
 _atom_site_fract_y
 _atom_site_fract_z
 _atom_site_occupancy
  Nd  Nd0  1  0.524073  0.024073  0.836635  1
  Nd  Nd1  1  0.187437  0.687437  0.163365  1
  Nd  Nd2  1  0.025389  0.189756  0.500000  1
  Nd  Nd3  1  0.689756  0.525389  0.500000  1
  Nd  Nd4  1  0.472798  0.972798  0.160002  1
  Nd  Nd5  1  0.812798  0.312798  0.839998  1
  Gd  Gd6  1  0.501584  0.501584  0.000000  1
  Gd  Gd7  1  0.001584  0.001584  0.000000  1
  Gd  Gd8  1  0.975384  0.808337  0.500000  1
  Gd  Gd9  1  0.308337  0.475384  0.500000  1
  Ga  Ga10  1  0.876770  0.376770  0.250298  1
  Ga  Ga11  1  0.126471  0.626471  0.749702  1
  Ga  Ga12  1  0.374340  0.126179  0.500000  1
  Ga  Ga13  1  0.626179  0.874340  0.500000  1
  Sn  Sn14  1  0.248549  0.248549  0.000000  1
  Sn  Sn15  1  0.748549  0.748549  0.000000  1
