# generated using pymatgen
data_Ta6Co16Si6As
_symmetry_space_group_name_H-M   'P 1'
_cell_length_a   7.91641345
_cell_length_b   7.91641296
_cell_length_c   7.91641300
_cell_angle_alpha   59.99999565
_cell_angle_beta   59.99999772
_cell_angle_gamma   60.00000124
_symmetry_Int_Tables_number   1
_chemical_formula_structural   Ta6Co16Si6As
_chemical_formula_sum   'Ta6 Co16 Si6 As1'
_cell_volume   350.80868530
_cell_formula_units_Z   1
loop_
 _symmetry_equiv_pos_site_id
 _symmetry_equiv_pos_as_xyz
  1  'x, y, z'
loop_
 _atom_site_type_symbol
 _atom_site_label
 _atom_site_symmetry_multiplicity
 _atom_site_fract_x
 _atom_site_fract_y
 _atom_site_fract_z
 _atom_site_occupancy
  Ta  Ta0  1  0.200592  0.799408  0.799408  1
  Ta  Ta1  1  0.200592  0.799408  0.200592  1
  Ta  Ta2  1  0.799408  0.200592  0.200592  1
  Ta  Ta3  1  0.799408  0.200592  0.799408  1
  Ta  Ta4  1  0.799408  0.799408  0.200592  1
  Ta  Ta5  1  0.200592  0.200592  0.799408  1
  Co  Co6  1  0.380643  0.380643  0.380643  1
  Co  Co7  1  0.497750  0.834083  0.834083  1
  Co  Co8  1  0.619357  0.619357  0.141928  1
  Co  Co9  1  0.165917  0.165917  0.502250  1
  Co  Co10  1  0.834083  0.834083  0.497750  1
  Co  Co11  1  0.165917  0.165917  0.165917  1
  Co  Co12  1  0.834083  0.834083  0.834083  1
  Co  Co13  1  0.380643  0.380643  0.858072  1
  Co  Co14  1  0.834083  0.497750  0.834083  1
  Co  Co15  1  0.619357  0.619357  0.619357  1
  Co  Co16  1  0.380643  0.858072  0.380643  1
  Co  Co17  1  0.141928  0.619357  0.619357  1
  Co  Co18  1  0.619357  0.141928  0.619357  1
  Co  Co19  1  0.165917  0.502250  0.165917  1
  Co  Co20  1  0.858072  0.380643  0.380643  1
  Co  Co21  1  0.502250  0.165917  0.165917  1
  Si  Si22  1  0.000000  0.000000  0.500000  1
  Si  Si23  1  0.500000  0.000000  0.500000  1
  Si  Si24  1  0.000000  0.500000  0.000000  1
  Si  Si25  1  0.500000  0.500000  0.000000  1
  Si  Si26  1  0.500000  0.000000  0.000000  1
  Si  Si27  1  0.000000  0.500000  0.500000  1
  As  As28  1  0.500000  0.500000  0.500000  1
