# generated using pymatgen
data_Sc4In2CoB4Rh9
_symmetry_space_group_name_H-M   'P 1'
_cell_length_a   9.42398058
_cell_length_b   9.42398052
_cell_length_c   3.13486500
_cell_angle_alpha   90.00000000
_cell_angle_beta   90.00000000
_cell_angle_gamma   90.43821150
_symmetry_Int_Tables_number   1
_chemical_formula_structural   Sc4In2CoB4Rh9
_chemical_formula_sum   'Sc4 In2 Co1 B4 Rh9'
_cell_volume   278.40363603
_cell_formula_units_Z   1
loop_
 _symmetry_equiv_pos_site_id
 _symmetry_equiv_pos_as_xyz
  1  'x, y, z'
loop_
 _atom_site_type_symbol
 _atom_site_label
 _atom_site_symmetry_multiplicity
 _atom_site_fract_x
 _atom_site_fract_y
 _atom_site_fract_z
 _atom_site_occupancy
  Sc  Sc0  1  0.822537  0.322537  0.000000  1
  Sc  Sc1  1  0.329117  0.170883  0.000000  1
  Sc  Sc2  1  0.670883  0.829117  0.000000  1
  Sc  Sc3  1  0.177463  0.677463  0.000000  1
  In  In4  1  0.000000  0.000000  0.000000  1
  In  In5  1  0.500000  0.500000  0.000000  1
  Co  Co6  1  0.500000  0.000000  0.500000  1
  B  B7  1  0.611213  0.111213  0.000000  1
  B  B8  1  0.122968  0.377032  0.000000  1
  B  B9  1  0.877032  0.622968  0.000000  1
  B  B10  1  0.388787  0.888787  0.000000  1
  Rh  Rh11  1  0.070848  0.223871  0.500000  1
  Rh  Rh12  1  0.230334  0.933228  0.500000  1
  Rh  Rh13  1  0.769666  0.066772  0.500000  1
  Rh  Rh14  1  0.929152  0.776129  0.500000  1
  Rh  Rh15  1  0.433228  0.730334  0.500000  1
  Rh  Rh16  1  0.566772  0.269666  0.500000  1
  Rh  Rh17  1  0.723871  0.570848  0.500000  1
  Rh  Rh18  1  0.276129  0.429152  0.500000  1
  Rh  Rh19  1  0.000000  0.500000  0.500000  1
