# generated using pymatgen
data_Tb9Dy(SiBi)4
_symmetry_space_group_name_H-M   'P 1'
_cell_length_a   8.69412608
_cell_length_b   8.69412596
_cell_length_c   7.96144700
_cell_angle_alpha   90.00018242
_cell_angle_beta   90.00017860
_cell_angle_gamma   125.60936315
_symmetry_Int_Tables_number   1
_chemical_formula_structural   Tb9Dy(SiBi)4
_chemical_formula_sum   'Tb9 Dy1 Si4 Bi4'
_cell_volume   489.25741714
_cell_formula_units_Z   1
loop_
 _symmetry_equiv_pos_site_id
 _symmetry_equiv_pos_as_xyz
  1  'x, y, z'
loop_
 _atom_site_type_symbol
 _atom_site_label
 _atom_site_symmetry_multiplicity
 _atom_site_fract_x
 _atom_site_fract_y
 _atom_site_fract_z
 _atom_site_occupancy
  Tb  Tb0  1  0.043988  0.288575  0.334210  1
  Tb  Tb1  1  0.956012  0.711425  0.665790  1
  Tb  Tb2  1  0.456053  0.211470  0.834182  1
  Tb  Tb3  1  0.788530  0.543947  0.165818  1
  Tb  Tb4  1  0.543947  0.788530  0.165818  1
  Tb  Tb5  1  0.211470  0.456053  0.834182  1
  Tb  Tb6  1  0.711425  0.956012  0.665790  1
  Tb  Tb7  1  0.288575  0.043988  0.334210  1
  Tb  Tb8  1  0.000000  0.000000  0.000000  1
  Dy  Dy9  1  0.500000  0.500000  0.500000  1
  Si  Si10  1  0.367680  0.367680  0.131374  1
  Si  Si11  1  0.632320  0.632320  0.868626  1
  Si  Si12  1  0.132405  0.132405  0.631277  1
  Si  Si13  1  0.867595  0.867595  0.368723  1
  Bi  Bi14  1  0.792141  0.207859  0.000000  1
  Bi  Bi15  1  0.207859  0.792141  0.000000  1
  Bi  Bi16  1  0.707798  0.292202  0.500000  1
  Bi  Bi17  1  0.292202  0.707798  0.500000  1
