# generated using pymatgen
data_Na2B2PdPt5
_symmetry_space_group_name_H-M   'P 1'
_cell_length_a   5.61321934
_cell_length_b   5.61321973
_cell_length_c   5.56497400
_cell_angle_alpha   90.00000000
_cell_angle_beta   90.00000000
_cell_angle_gamma   120.03975922
_symmetry_Int_Tables_number   1
_chemical_formula_structural   Na2B2PdPt5
_chemical_formula_sum   'Na2 B2 Pd1 Pt5'
_cell_volume   151.79018546
_cell_formula_units_Z   1
loop_
 _symmetry_equiv_pos_site_id
 _symmetry_equiv_pos_as_xyz
  1  'x, y, z'
loop_
 _atom_site_type_symbol
 _atom_site_label
 _atom_site_symmetry_multiplicity
 _atom_site_fract_x
 _atom_site_fract_y
 _atom_site_fract_z
 _atom_site_occupancy
  Na  Na0  1  0.000000  0.000000  0.499706  1
  Na  Na1  1  0.000000  0.000000  0.000232  1
  B  B2  1  0.668531  0.331469  0.498954  1
  B  B3  1  0.331469  0.668531  0.498954  1
  Pd  Pd4  1  0.500000  0.500000  0.761919  1
  Pt  Pt5  1  0.000000  0.500000  0.754896  1
  Pt  Pt6  1  0.500000  0.000000  0.754896  1
  Pt  Pt7  1  0.000000  0.500000  0.240296  1
  Pt  Pt8  1  0.500000  0.500000  0.249850  1
  Pt  Pt9  1  0.500000  0.000000  0.240296  1
