# generated using pymatgen
data_Ac2Si3Ge
_symmetry_space_group_name_H-M   'P 1'
_cell_length_a   4.50375899
_cell_length_b   4.35866864
_cell_length_c   8.10185955
_cell_angle_alpha   74.39571516
_cell_angle_beta   73.86236279
_cell_angle_gamma   90.00000665
_symmetry_Int_Tables_number   1
_chemical_formula_structural   Ac2Si3Ge
_chemical_formula_sum   'Ac2 Si3 Ge1'
_cell_volume   146.66370823
_cell_formula_units_Z   1
loop_
 _symmetry_equiv_pos_site_id
 _symmetry_equiv_pos_as_xyz
  1  'x, y, z'
loop_
 _atom_site_type_symbol
 _atom_site_label
 _atom_site_symmetry_multiplicity
 _atom_site_fract_x
 _atom_site_fract_y
 _atom_site_fract_z
 _atom_site_occupancy
  Ac  Ac0  1  0.876371  0.626371  0.747259  1
  Ac  Ac1  1  0.123412  0.373412  0.253177  1
  Si  Si2  1  0.461807  0.211807  0.576386  1
  Si  Si3  1  0.542048  0.792048  0.415903  1
  Si  Si4  1  0.704479  0.954479  0.091041  1
  Ge  Ge5  1  0.291883  0.041883  0.916234  1
