# generated using pymatgen
data_Zr4InRe24
_symmetry_space_group_name_H-M   'P 1'
_cell_length_a   8.48986360
_cell_length_b   8.48986404
_cell_length_c   8.48986400
_cell_angle_alpha   109.47122292
_cell_angle_beta   109.47122397
_cell_angle_gamma   109.47121624
_symmetry_Int_Tables_number   1
_chemical_formula_structural   Zr4InRe24
_chemical_formula_sum   'Zr4 In1 Re24'
_cell_volume   471.06439993
_cell_formula_units_Z   1
loop_
 _symmetry_equiv_pos_site_id
 _symmetry_equiv_pos_as_xyz
  1  'x, y, z'
loop_
 _atom_site_type_symbol
 _atom_site_label
 _atom_site_symmetry_multiplicity
 _atom_site_fract_x
 _atom_site_fract_y
 _atom_site_fract_z
 _atom_site_occupancy
  Zr  Zr0  1  0.632096  0.000000  0.000000  1
  Zr  Zr1  1  0.000000  0.632096  0.000000  1
  Zr  Zr2  1  0.367902  0.367902  0.367902  1
  Zr  Zr3  1  0.000000  0.000000  0.632096  1
  In  In4  1  0.000000  0.000000  0.000000  1
  Re  Re5  1  0.377202  0.194515  0.000000  1
  Re  Re6  1  0.194515  0.377202  0.000000  1
  Re  Re7  1  0.676092  0.394559  0.000000  1
  Re  Re8  1  0.394559  0.676092  0.000000  1
  Re  Re9  1  0.805485  0.805485  0.182687  1
  Re  Re10  1  0.377202  0.000000  0.194515  1
  Re  Re11  1  0.000000  0.377202  0.194515  1
  Re  Re12  1  0.605440  0.605440  0.281533  1
  Re  Re13  1  0.718466  0.323907  0.323907  1
  Re  Re14  1  0.323907  0.718466  0.323907  1
  Re  Re15  1  0.194515  0.000000  0.377202  1
  Re  Re16  1  0.000000  0.194515  0.377202  1
  Re  Re17  1  0.676092  0.000000  0.394559  1
  Re  Re18  1  0.000000  0.676092  0.394559  1
  Re  Re19  1  0.605440  0.281533  0.605440  1
  Re  Re20  1  0.281533  0.605440  0.605440  1
  Re  Re21  1  0.817313  0.622798  0.622798  1
  Re  Re22  1  0.622798  0.817313  0.622798  1
  Re  Re23  1  0.394559  0.000000  0.676092  1
  Re  Re24  1  0.000000  0.394559  0.676092  1
  Re  Re25  1  0.323907  0.323907  0.718466  1
  Re  Re26  1  0.805485  0.182687  0.805485  1
  Re  Re27  1  0.182687  0.805485  0.805485  1
  Re  Re28  1  0.622798  0.622798  0.817313  1
