# generated using pymatgen
data_Mn2GaFe3Br16
_symmetry_space_group_name_H-M   'P 1'
_cell_length_a   10.68101265
_cell_length_b   10.62882521
_cell_length_c   12.64839973
_cell_angle_alpha   55.34852719
_cell_angle_beta   55.45601834
_cell_angle_gamma   48.80264105
_symmetry_Int_Tables_number   1
_chemical_formula_structural   Mn2GaFe3Br16
_chemical_formula_sum   'Mn2 Ga1 Fe3 Br16'
_cell_volume   844.72025011
_cell_formula_units_Z   1
loop_
 _symmetry_equiv_pos_site_id
 _symmetry_equiv_pos_as_xyz
  1  'x, y, z'
loop_
 _atom_site_type_symbol
 _atom_site_label
 _atom_site_symmetry_multiplicity
 _atom_site_fract_x
 _atom_site_fract_y
 _atom_site_fract_z
 _atom_site_occupancy
  Mn  Mn0  1  0.995346  0.005155  0.250397  1
  Mn  Mn1  1  0.004602  0.994530  0.750180  1
  Ga  Ga2  1  0.325614  0.840498  0.470134  1
  Fe  Fe3  1  0.156616  0.678386  0.029224  1
  Fe  Fe4  1  0.677279  0.157830  0.529332  1
  Fe  Fe5  1  0.842522  0.321902  0.971241  1
  Br  Br6  1  0.616016  0.696306  0.448395  1
  Br  Br7  1  0.302339  0.386794  0.050534  1
  Br  Br8  1  0.387629  0.302896  0.549973  1
  Br  Br9  1  0.697619  0.613411  0.949623  1
  Br  Br10  1  0.163531  0.127896  0.490172  1
  Br  Br11  1  0.872350  0.834080  0.010808  1
  Br  Br12  1  0.834477  0.871874  0.510162  1
  Br  Br13  1  0.127142  0.165234  0.990604  1
  Br  Br14  1  0.307046  0.857629  0.281454  1
  Br  Br15  1  0.142932  0.692921  0.218189  1
  Br  Br16  1  0.692254  0.143087  0.718338  1
  Br  Br17  1  0.857666  0.307471  0.781809  1
  Br  Br18  1  0.160700  0.711858  0.679109  1
  Br  Br19  1  0.289402  0.837510  0.820152  1
  Br  Br20  1  0.836760  0.290317  0.320378  1
  Br  Br21  1  0.710158  0.162415  0.179793  1
