# generated using pymatgen
data_Ce2PaTcOs2
_symmetry_space_group_name_H-M   'P 1'
_cell_length_a   5.84517248
_cell_length_b   5.36290561
_cell_length_c   5.85080379
_cell_angle_alpha   55.92065741
_cell_angle_beta   60.03183822
_cell_angle_gamma   56.97785933
_symmetry_Int_Tables_number   1
_chemical_formula_structural   Ce2PaTcOs2
_chemical_formula_sum   'Ce2 Pa1 Tc1 Os2'
_cell_volume   122.28996701
_cell_formula_units_Z   1
loop_
 _symmetry_equiv_pos_site_id
 _symmetry_equiv_pos_as_xyz
  1  'x, y, z'
loop_
 _atom_site_type_symbol
 _atom_site_label
 _atom_site_symmetry_multiplicity
 _atom_site_fract_x
 _atom_site_fract_y
 _atom_site_fract_z
 _atom_site_occupancy
  Ce  Ce0  1  0.744763  0.767854  0.742620  1
  Ce  Ce1  1  0.505237  0.482146  0.507380  1
  Pa  Pa2  1  0.125000  0.625000  0.125000  1
  Tc  Tc3  1  0.125000  0.125000  0.625000  1
  Os  Os4  1  0.625000  0.125000  0.125000  1
  Os  Os5  1  0.125000  0.125000  0.125000  1
