# generated using pymatgen
data_Hf8Ti8Nb4Si2Ge13P
_symmetry_space_group_name_H-M   'P 1'
_cell_length_a   6.77137400
_cell_length_b   6.89815224
_cell_length_c   13.13531400
_cell_angle_alpha   90.00000000
_cell_angle_beta   90.00000000
_cell_angle_gamma   89.91701512
_symmetry_Int_Tables_number   1
_chemical_formula_structural   Hf8Ti8Nb4Si2Ge13P
_chemical_formula_sum   'Hf8 Ti8 Nb4 Si2 Ge13 P1'
_cell_volume   613.54946219
_cell_formula_units_Z   1
loop_
 _symmetry_equiv_pos_site_id
 _symmetry_equiv_pos_as_xyz
  1  'x, y, z'
loop_
 _atom_site_type_symbol
 _atom_site_label
 _atom_site_symmetry_multiplicity
 _atom_site_fract_x
 _atom_site_fract_y
 _atom_site_fract_z
 _atom_site_occupancy
  Hf  Hf0  1  0.490535  0.669035  0.596179  1
  Hf  Hf1  1  0.990696  0.828111  0.905557  1
  Hf  Hf2  1  0.508767  0.327982  0.093604  1
  Hf  Hf3  1  0.008414  0.175426  0.405724  1
  Hf  Hf4  1  0.508767  0.327982  0.406396  1
  Hf  Hf5  1  0.008414  0.175426  0.094276  1
  Hf  Hf6  1  0.490535  0.669035  0.903821  1
  Hf  Hf7  1  0.990696  0.828111  0.594443  1
  Ti  Ti8  1  0.655059  0.174355  0.626384  1
  Ti  Ti9  1  0.164824  0.330708  0.873073  1
  Ti  Ti10  1  0.346186  0.827221  0.124895  1
  Ti  Ti11  1  0.836949  0.667767  0.375434  1
  Ti  Ti12  1  0.346186  0.827221  0.375105  1
  Ti  Ti13  1  0.836949  0.667767  0.124566  1
  Ti  Ti14  1  0.655059  0.174355  0.873616  1
  Ti  Ti15  1  0.164824  0.330708  0.626927  1
  Nb  Nb16  1  0.823853  0.490507  0.750000  1
  Nb  Nb17  1  0.328501  0.010812  0.750000  1
  Nb  Nb18  1  0.173478  0.505072  0.250000  1
  Nb  Nb19  1  0.669716  0.990252  0.250000  1
  Si  Si20  1  0.955320  0.121413  0.750000  1
  Si  Si21  1  0.543989  0.619013  0.250000  1
  Ge  Ge22  1  0.683023  0.960710  0.463331  1
  Ge  Ge23  1  0.182429  0.540362  0.037416  1
  Ge  Ge24  1  0.317363  0.038676  0.962617  1
  Ge  Ge25  1  0.819946  0.459491  0.538176  1
  Ge  Ge26  1  0.317363  0.038676  0.537383  1
  Ge  Ge27  1  0.819946  0.459491  0.961824  1
  Ge  Ge28  1  0.683023  0.960710  0.036669  1
  Ge  Ge29  1  0.182429  0.540362  0.462584  1
  Ge  Ge30  1  0.043834  0.878766  0.250000  1
  Ge  Ge31  1  0.695305  0.862827  0.750000  1
  Ge  Ge32  1  0.189468  0.643684  0.750000  1
  Ge  Ge33  1  0.308381  0.141212  0.250000  1
  Ge  Ge34  1  0.804028  0.360228  0.250000  1
  P  P35  1  0.455744  0.376529  0.750000  1
