# generated using pymatgen
data_TbTh2(AlPd)3
_symmetry_space_group_name_H-M   'P 1'
_cell_length_a   7.20241600
_cell_length_b   7.28409775
_cell_length_c   4.18726700
_cell_angle_alpha   90.00000000
_cell_angle_beta   90.00000000
_cell_angle_gamma   119.62975066
_symmetry_Int_Tables_number   1
_chemical_formula_structural   TbTh2(AlPd)3
_chemical_formula_sum   'Tb1 Th2 Al3 Pd3'
_cell_volume   190.95168403
_cell_formula_units_Z   1
loop_
 _symmetry_equiv_pos_site_id
 _symmetry_equiv_pos_as_xyz
  1  'x, y, z'
loop_
 _atom_site_type_symbol
 _atom_site_label
 _atom_site_symmetry_multiplicity
 _atom_site_fract_x
 _atom_site_fract_y
 _atom_site_fract_z
 _atom_site_occupancy
  Tb  Tb0  1  0.584175  0.000000  0.500000  1
  Th  Th1  1  0.001462  0.581483  0.500000  1
  Th  Th2  1  0.419979  0.418517  0.500000  1
  Al  Al3  1  0.766997  0.771152  0.000000  1
  Al  Al4  1  0.235335  0.000000  0.000000  1
  Al  Al5  1  0.995845  0.228848  0.000000  1
  Pd  Pd6  1  0.331079  0.665220  0.000000  1
  Pd  Pd7  1  0.665860  0.334780  0.000000  1
  Pd  Pd8  1  0.999268  0.000000  0.500000  1
