# generated using pymatgen
data_AcTiCu12
_symmetry_space_group_name_H-M   'P 1'
_cell_length_a   8.32874497
_cell_length_b   8.32874420
_cell_length_c   8.32874400
_cell_angle_alpha   60.00000081
_cell_angle_beta   60.00000383
_cell_angle_gamma   59.99999724
_symmetry_Int_Tables_number   1
_chemical_formula_structural   AcTiCu12
_chemical_formula_sum   'Ac2 Ti2 Cu24'
_cell_volume   408.52967595
_cell_formula_units_Z   2
loop_
 _symmetry_equiv_pos_site_id
 _symmetry_equiv_pos_as_xyz
  1  'x, y, z'
loop_
 _atom_site_type_symbol
 _atom_site_label
 _atom_site_symmetry_multiplicity
 _atom_site_fract_x
 _atom_site_fract_y
 _atom_site_fract_z
 _atom_site_occupancy
  Ac  Ac0  1  0.250000  0.250000  0.250000  1
  Ac  Ac1  1  0.750000  0.750000  0.750000  1
  Ti  Ti2  1  0.500000  0.500000  0.500000  1
  Ti  Ti3  1  0.000000  0.000000  0.000000  1
  Cu  Cu4  1  0.797839  0.565079  0.202161  1
  Cu  Cu5  1  0.202161  0.434921  0.797839  1
  Cu  Cu6  1  0.565079  0.797839  0.434921  1
  Cu  Cu7  1  0.434921  0.202161  0.565079  1
  Cu  Cu8  1  0.297839  0.934921  0.702161  1
  Cu  Cu9  1  0.702161  0.065079  0.297839  1
  Cu  Cu10  1  0.934921  0.297839  0.065079  1
  Cu  Cu11  1  0.065079  0.702161  0.934921  1
  Cu  Cu12  1  0.202161  0.797839  0.565079  1
  Cu  Cu13  1  0.797839  0.202161  0.434921  1
  Cu  Cu14  1  0.434921  0.565079  0.797839  1
  Cu  Cu15  1  0.565079  0.434921  0.202161  1
  Cu  Cu16  1  0.702161  0.297839  0.934921  1
  Cu  Cu17  1  0.297839  0.702161  0.065079  1
  Cu  Cu18  1  0.065079  0.934921  0.297839  1
  Cu  Cu19  1  0.934921  0.065079  0.702161  1
  Cu  Cu20  1  0.565079  0.202161  0.797839  1
  Cu  Cu21  1  0.434921  0.797839  0.202161  1
  Cu  Cu22  1  0.797839  0.434921  0.565079  1
  Cu  Cu23  1  0.202161  0.565079  0.434921  1
  Cu  Cu24  1  0.934921  0.702161  0.297839  1
  Cu  Cu25  1  0.065079  0.297839  0.702161  1
  Cu  Cu26  1  0.297839  0.065079  0.934921  1
  Cu  Cu27  1  0.702161  0.934921  0.065079  1
