# generated using pymatgen
data_Ba3AlS4I
_symmetry_space_group_name_H-M   'P 1'
_cell_length_a   8.78397900
_cell_length_b   9.77097200
_cell_length_c   12.80811800
_cell_angle_alpha   90.00000000
_cell_angle_beta   90.00000000
_cell_angle_gamma   90.00000000
_symmetry_Int_Tables_number   1
_chemical_formula_structural   Ba3AlS4I
_chemical_formula_sum   'Ba12 Al4 S16 I4'
_cell_volume   1099.29531639
_cell_formula_units_Z   4
loop_
 _symmetry_equiv_pos_site_id
 _symmetry_equiv_pos_as_xyz
  1  'x, y, z'
loop_
 _atom_site_type_symbol
 _atom_site_label
 _atom_site_symmetry_multiplicity
 _atom_site_fract_x
 _atom_site_fract_y
 _atom_site_fract_z
 _atom_site_occupancy
  Ba  Ba0  1  0.927509  0.750000  0.466006  1
  Ba  Ba1  1  0.572491  0.750000  0.966006  1
  Ba  Ba2  1  0.072491  0.250000  0.533994  1
  Ba  Ba3  1  0.427509  0.250000  0.033994  1
  Ba  Ba4  1  0.596514  0.474980  0.652632  1
  Ba  Ba5  1  0.903486  0.025020  0.152632  1
  Ba  Ba6  1  0.403486  0.974980  0.347368  1
  Ba  Ba7  1  0.096514  0.525020  0.847368  1
  Ba  Ba8  1  0.403486  0.525020  0.347368  1
  Ba  Ba9  1  0.096514  0.974980  0.847368  1
  Ba  Ba10  1  0.596514  0.025020  0.652632  1
  Ba  Ba11  1  0.903486  0.474980  0.152632  1
  Al  Al12  1  0.308054  0.750000  0.606057  1
  Al  Al13  1  0.191946  0.750000  0.106057  1
  Al  Al14  1  0.691946  0.250000  0.393943  1
  Al  Al15  1  0.808054  0.250000  0.893943  1
  S  S16  1  0.810518  0.446718  0.432429  1
  S  S17  1  0.689482  0.053282  0.932429  1
  S  S18  1  0.189482  0.946718  0.567571  1
  S  S19  1  0.310518  0.553282  0.067571  1
  S  S20  1  0.189482  0.553282  0.567571  1
  S  S21  1  0.310518  0.946718  0.067571  1
  S  S22  1  0.810518  0.053282  0.432429  1
  S  S23  1  0.689482  0.446718  0.932429  1
  S  S24  1  0.145653  0.750000  0.279514  1
  S  S25  1  0.354347  0.750000  0.779514  1
  S  S26  1  0.854347  0.250000  0.720486  1
  S  S27  1  0.645653  0.250000  0.220486  1
  S  S28  1  0.528758  0.750000  0.512426  1
  S  S29  1  0.971242  0.750000  0.012426  1
  S  S30  1  0.471242  0.250000  0.487574  1
  S  S31  1  0.028758  0.250000  0.987574  1
  I  I32  1  0.669129  0.750000  0.232504  1
  I  I33  1  0.830871  0.750000  0.732504  1
  I  I34  1  0.330871  0.250000  0.767496  1
  I  I35  1  0.169129  0.250000  0.267496  1
