# generated using pymatgen
data_Y9Tm(GaSb)4
_symmetry_space_group_name_H-M   'P 1'
_cell_length_a   8.65402732
_cell_length_b   8.65402743
_cell_length_c   7.92231462
_cell_angle_alpha   90.04264336
_cell_angle_beta   90.04263947
_cell_angle_gamma   125.47146211
_symmetry_Int_Tables_number   1
_chemical_formula_structural   Y9Tm(GaSb)4
_chemical_formula_sum   'Y9 Tm1 Ga4 Sb4'
_cell_volume   483.20151658
_cell_formula_units_Z   1
loop_
 _symmetry_equiv_pos_site_id
 _symmetry_equiv_pos_as_xyz
  1  'x, y, z'
loop_
 _atom_site_type_symbol
 _atom_site_label
 _atom_site_symmetry_multiplicity
 _atom_site_fract_x
 _atom_site_fract_y
 _atom_site_fract_z
 _atom_site_occupancy
  Y  Y0  1  0.539320  0.801250  0.167563  1
  Y  Y1  1  0.299991  0.038664  0.331756  1
  Y  Y2  1  0.198750  0.460680  0.832437  1
  Y  Y3  1  0.961336  0.700009  0.668244  1
  Y  Y4  1  0.700009  0.961336  0.668244  1
  Y  Y5  1  0.460680  0.198750  0.832437  1
  Y  Y6  1  0.801250  0.539320  0.167563  1
  Y  Y7  1  0.038664  0.299991  0.331756  1
  Y  Y8  1  0.500000  0.500000  0.500000  1
  Tm  Tm9  1  0.000000  0.000000  0.000000  1
  Ga  Ga10  1  0.625948  0.625948  0.876492  1
  Ga  Ga11  1  0.124031  0.124031  0.625537  1
  Ga  Ga12  1  0.875969  0.875969  0.374463  1
  Ga  Ga13  1  0.374052  0.374052  0.123508  1
  Sb  Sb14  1  0.294768  0.705232  0.500000  1
  Sb  Sb15  1  0.204423  0.795577  0.000000  1
  Sb  Sb16  1  0.705232  0.294768  0.500000  1
  Sb  Sb17  1  0.795577  0.204423  0.000000  1
