# generated using pymatgen
data_Tm16Al4Pt3Rh
_symmetry_space_group_name_H-M   'P 1'
_cell_length_a   9.45216028
_cell_length_b   9.44320420
_cell_length_c   9.45216100
_cell_angle_alpha   59.96862271
_cell_angle_beta   60.00000097
_cell_angle_gamma   59.96862036
_symmetry_Int_Tables_number   1
_chemical_formula_structural   Tm16Al4Pt3Rh
_chemical_formula_sum   'Tm16 Al4 Pt3 Rh1'
_cell_volume   596.29398939
_cell_formula_units_Z   1
loop_
 _symmetry_equiv_pos_site_id
 _symmetry_equiv_pos_as_xyz
  1  'x, y, z'
loop_
 _atom_site_type_symbol
 _atom_site_label
 _atom_site_symmetry_multiplicity
 _atom_site_fract_x
 _atom_site_fract_y
 _atom_site_fract_z
 _atom_site_occupancy
  Tm  Tm0  1  0.063873  0.064088  0.436020  1
  Tm  Tm1  1  0.436020  0.064088  0.436020  1
  Tm  Tm2  1  0.064052  0.435420  0.064052  1
  Tm  Tm3  1  0.060434  0.644409  0.647580  1
  Tm  Tm4  1  0.436476  0.435420  0.064052  1
  Tm  Tm5  1  0.645450  0.063651  0.645450  1
  Tm  Tm6  1  0.193796  0.806152  0.193796  1
  Tm  Tm7  1  0.190216  0.195455  0.807164  1
  Tm  Tm8  1  0.806255  0.806152  0.193796  1
  Tm  Tm9  1  0.436020  0.064088  0.063873  1
  Tm  Tm10  1  0.807164  0.195455  0.190216  1
  Tm  Tm11  1  0.064052  0.435420  0.436476  1
  Tm  Tm12  1  0.807164  0.195455  0.807164  1
  Tm  Tm13  1  0.193796  0.806152  0.806255  1
  Tm  Tm14  1  0.647580  0.644409  0.060434  1
  Tm  Tm15  1  0.647580  0.644409  0.647580  1
  Al  Al16  1  0.421797  0.422021  0.421797  1
  Al  Al17  1  0.734385  0.422021  0.421797  1
  Al  Al18  1  0.421858  0.734427  0.421858  1
  Al  Al19  1  0.421797  0.422021  0.734385  1
  Pt  Pt20  1  0.856809  0.857037  0.429343  1
  Pt  Pt21  1  0.856809  0.857037  0.856809  1
  Pt  Pt22  1  0.429343  0.857037  0.856809  1
  Rh  Rh23  1  0.857275  0.428174  0.857275  1
