# generated using pymatgen
data_Dy6B14MoW
_symmetry_space_group_name_H-M   'P 1'
_cell_length_a   8.18379352
_cell_length_b   8.18379350
_cell_length_c   9.49658300
_cell_angle_alpha   90.00000000
_cell_angle_beta   90.00000000
_cell_angle_gamma   155.56446087
_symmetry_Int_Tables_number   1
_chemical_formula_structural   Dy6B14MoW
_chemical_formula_sum   'Dy6 B14 Mo1 W1'
_cell_volume   263.10548758
_cell_formula_units_Z   1
loop_
 _symmetry_equiv_pos_site_id
 _symmetry_equiv_pos_as_xyz
  1  'x, y, z'
loop_
 _atom_site_type_symbol
 _atom_site_label
 _atom_site_symmetry_multiplicity
 _atom_site_fract_x
 _atom_site_fract_y
 _atom_site_fract_z
 _atom_site_occupancy
  Dy  Dy0  1  0.892919  0.107081  0.439210  1
  Dy  Dy1  1  0.107139  0.892861  0.559871  1
  Dy  Dy2  1  0.892919  0.107081  0.060790  1
  Dy  Dy3  1  0.107139  0.892861  0.940129  1
  Dy  Dy4  1  0.244246  0.755754  0.250000  1
  Dy  Dy5  1  0.755331  0.244669  0.750000  1
  B  B6  1  0.727366  0.272634  0.467418  1
  B  B7  1  0.272596  0.727404  0.532527  1
  B  B8  1  0.727366  0.272634  0.032582  1
  B  B9  1  0.272596  0.727404  0.967473  1
  B  B10  1  0.634951  0.365049  0.147346  1
  B  B11  1  0.365049  0.634951  0.852802  1
  B  B12  1  0.634951  0.365049  0.352654  1
  B  B13  1  0.365049  0.634951  0.647198  1
  B  B14  1  0.519770  0.480230  0.092080  1
  B  B15  1  0.480289  0.519711  0.908222  1
  B  B16  1  0.519770  0.480230  0.407920  1
  B  B17  1  0.480289  0.519711  0.591778  1
  B  B18  1  0.456058  0.543942  0.250000  1
  B  B19  1  0.544165  0.455835  0.750000  1
  Mo  Mo20  1  0.053283  0.946717  0.250000  1
  W  W21  1  0.946758  0.053242  0.750000  1
