# generated using pymatgen
data_CaNpSc2(ReB6)2
_symmetry_space_group_name_H-M   'P 1'
_cell_length_a   3.58155200
_cell_length_b   9.01671345
_cell_length_c   11.38292103
_cell_angle_alpha   90.16702158
_cell_angle_beta   90.00000000
_cell_angle_gamma   90.00000000
_symmetry_Int_Tables_number   1
_chemical_formula_structural   CaNpSc2(ReB6)2
_chemical_formula_sum   'Ca2 Np2 Sc4 Re4 B24'
_cell_volume   367.59653300
_cell_formula_units_Z   2
loop_
 _symmetry_equiv_pos_site_id
 _symmetry_equiv_pos_as_xyz
  1  'x, y, z'
loop_
 _atom_site_type_symbol
 _atom_site_label
 _atom_site_symmetry_multiplicity
 _atom_site_fract_x
 _atom_site_fract_y
 _atom_site_fract_z
 _atom_site_occupancy
  Ca  Ca0  1  0.000000  0.822417  0.085102  1
  Ca  Ca1  1  0.000000  0.177583  0.914898  1
  Np  Np2  1  0.000000  0.320174  0.413929  1
  Np  Np3  1  0.000000  0.679826  0.586071  1
  Sc  Sc4  1  0.000000  0.945473  0.371386  1
  Sc  Sc5  1  0.000000  0.054527  0.628614  1
  Sc  Sc6  1  0.000000  0.443345  0.129251  1
  Sc  Sc7  1  0.000000  0.556655  0.870749  1
  Re  Re8  1  0.000000  0.637152  0.323456  1
  Re  Re9  1  0.000000  0.362848  0.676544  1
  Re  Re10  1  0.000000  0.145023  0.186700  1
  Re  Re11  1  0.000000  0.854977  0.813300  1
  B  B12  1  0.500000  0.553509  0.433924  1
  B  B13  1  0.500000  0.446491  0.566076  1
  B  B14  1  0.500000  0.054526  0.068439  1
  B  B15  1  0.500000  0.945474  0.931561  1
  B  B16  1  0.500000  0.753426  0.419469  1
  B  B17  1  0.500000  0.246574  0.580531  1
  B  B18  1  0.500000  0.253881  0.082374  1
  B  B19  1  0.500000  0.746119  0.917626  1
  B  B20  1  0.500000  0.794457  0.265837  1
  B  B21  1  0.500000  0.205543  0.734163  1
  B  B22  1  0.500000  0.296084  0.237098  1
  B  B23  1  0.500000  0.703916  0.762902  1
  B  B24  1  0.500000  0.628756  0.183705  1
  B  B25  1  0.500000  0.371244  0.816295  1
  B  B26  1  0.500000  0.131161  0.318584  1
  B  B27  1  0.500000  0.868839  0.681416  1
  B  B28  1  0.500000  0.981916  0.214344  1
  B  B29  1  0.500000  0.018084  0.785656  1
  B  B30  1  0.500000  0.480905  0.287088  1
  B  B31  1  0.500000  0.519095  0.712912  1
  B  B32  1  0.500000  0.593988  0.025720  1
  B  B33  1  0.500000  0.406012  0.974280  1
  B  B34  1  0.500000  0.099003  0.473561  1
  B  B35  1  0.500000  0.900997  0.526439  1
