# generated using pymatgen
data_DyHoTaSb5O18
_symmetry_space_group_name_H-M   'P 1'
_cell_length_a   7.52323560
_cell_length_b   5.37022520
_cell_length_c   8.21223566
_cell_angle_alpha   86.23284395
_cell_angle_beta   89.81953364
_cell_angle_gamma   90.01490246
_symmetry_Int_Tables_number   1
_chemical_formula_structural   DyHoTaSb5O18
_chemical_formula_sum   'Dy1 Ho1 Ta1 Sb5 O18'
_cell_volume   331.06781716
_cell_formula_units_Z   1
loop_
 _symmetry_equiv_pos_site_id
 _symmetry_equiv_pos_as_xyz
  1  'x, y, z'
loop_
 _atom_site_type_symbol
 _atom_site_label
 _atom_site_symmetry_multiplicity
 _atom_site_fract_x
 _atom_site_fract_y
 _atom_site_fract_z
 _atom_site_occupancy
  Dy  Dy0  1  0.249723  0.965814  0.431792  1
  Ho  Ho1  1  0.750287  0.034772  0.568634  1
  Ta  Ta2  1  0.500012  0.000069  0.999861  1
  Sb  Sb3  1  0.999948  0.000082  0.999909  1
  Sb  Sb4  1  0.494989  0.534327  0.695039  1
  Sb  Sb5  1  0.004913  0.530756  0.696643  1
  Sb  Sb6  1  0.994625  0.469310  0.303421  1
  Sb  Sb7  1  0.505477  0.465788  0.305028  1
  O  O8  1  0.250337  0.900559  0.984757  1
  O  O9  1  0.937371  0.857864  0.778686  1
  O  O10  1  0.564225  0.855215  0.779449  1
  O  O11  1  0.958922  0.739331  0.472928  1
  O  O12  1  0.540845  0.739524  0.470885  1
  O  O13  1  0.249803  0.668691  0.655202  1
  O  O14  1  0.931913  0.674734  0.114044  1
  O  O15  1  0.556183  0.680204  0.117619  1
  O  O16  1  0.249694  0.591457  0.312002  1
  O  O17  1  0.750293  0.407019  0.688050  1
  O  O18  1  0.068004  0.325412  0.885882  1
  O  O19  1  0.443886  0.319915  0.882312  1
  O  O20  1  0.750201  0.330157  0.345328  1
  O  O21  1  0.040056  0.260899  0.527295  1
  O  O22  1  0.460152  0.260673  0.529309  1
  O  O23  1  0.062162  0.142639  0.220813  1
  O  O24  1  0.436371  0.145344  0.219963  1
  O  O25  1  0.749606  0.099445  0.015148  1
