# generated using pymatgen
data_Sc2Ti2ReSi4
_symmetry_space_group_name_H-M   'P 1'
_cell_length_a   6.75499000
_cell_length_b   6.75499000
_cell_length_c   12.42723200
_cell_angle_alpha   90.00000000
_cell_angle_beta   90.00000000
_cell_angle_gamma   90.00000000
_symmetry_Int_Tables_number   1
_chemical_formula_structural   Sc2Ti2ReSi4
_chemical_formula_sum   'Sc8 Ti8 Re4 Si16'
_cell_volume   567.05322792
_cell_formula_units_Z   4
loop_
 _symmetry_equiv_pos_site_id
 _symmetry_equiv_pos_as_xyz
  1  'x, y, z'
loop_
 _atom_site_type_symbol
 _atom_site_label
 _atom_site_symmetry_multiplicity
 _atom_site_fract_x
 _atom_site_fract_y
 _atom_site_fract_z
 _atom_site_occupancy
  Sc  Sc0  1  0.002432  0.662498  0.029528  1
  Sc  Sc1  1  0.997568  0.337502  0.529528  1
  Sc  Sc2  1  0.337502  0.997568  0.470472  1
  Sc  Sc3  1  0.162498  0.497568  0.779528  1
  Sc  Sc4  1  0.837502  0.502432  0.279528  1
  Sc  Sc5  1  0.497568  0.162498  0.220472  1
  Sc  Sc6  1  0.502432  0.837502  0.720472  1
  Sc  Sc7  1  0.662498  0.002432  0.970472  1
  Ti  Ti8  1  0.995394  0.847173  0.626695  1
  Ti  Ti9  1  0.004606  0.152827  0.126695  1
  Ti  Ti10  1  0.847173  0.995394  0.373305  1
  Ti  Ti11  1  0.347173  0.504606  0.376695  1
  Ti  Ti12  1  0.652827  0.495394  0.876695  1
  Ti  Ti13  1  0.504606  0.347173  0.623305  1
  Ti  Ti14  1  0.495394  0.652827  0.123305  1
  Ti  Ti15  1  0.152827  0.004606  0.873305  1
  Re  Re16  1  0.670191  0.670191  0.500000  1
  Re  Re17  1  0.170191  0.829809  0.250000  1
  Re  Re18  1  0.329809  0.329809  0.000000  1
  Re  Re19  1  0.829809  0.170191  0.750000  1
  Si  Si20  1  0.042161  0.701915  0.434176  1
  Si  Si21  1  0.633566  0.294760  0.428062  1
  Si  Si22  1  0.366434  0.705240  0.928062  1
  Si  Si23  1  0.205240  0.133566  0.678062  1
  Si  Si24  1  0.294760  0.633566  0.571938  1
  Si  Si25  1  0.705240  0.366434  0.071938  1
  Si  Si26  1  0.794760  0.866434  0.178062  1
  Si  Si27  1  0.133566  0.205240  0.321938  1
  Si  Si28  1  0.957839  0.298085  0.934176  1
  Si  Si29  1  0.701915  0.042161  0.565824  1
  Si  Si30  1  0.201915  0.457839  0.184176  1
  Si  Si31  1  0.798085  0.542161  0.684176  1
  Si  Si32  1  0.457839  0.201915  0.815824  1
  Si  Si33  1  0.542161  0.798085  0.315824  1
  Si  Si34  1  0.298085  0.957839  0.065824  1
  Si  Si35  1  0.866434  0.794760  0.821938  1
