# generated using pymatgen
data_Ho4TmLu5Ir4
_symmetry_space_group_name_H-M   'P 1'
_cell_length_a   6.39678780
_cell_length_b   7.15257791
_cell_length_c   8.37103415
_cell_angle_alpha   96.81219435
_cell_angle_beta   112.46248471
_cell_angle_gamma   90.00000221
_symmetry_Int_Tables_number   1
_chemical_formula_structural   Ho4TmLu5Ir4
_chemical_formula_sum   'Ho4 Tm1 Lu5 Ir4'
_cell_volume   351.01806146
_cell_formula_units_Z   1
loop_
 _symmetry_equiv_pos_site_id
 _symmetry_equiv_pos_as_xyz
  1  'x, y, z'
loop_
 _atom_site_type_symbol
 _atom_site_label
 _atom_site_symmetry_multiplicity
 _atom_site_fract_x
 _atom_site_fract_y
 _atom_site_fract_z
 _atom_site_occupancy
  Ho  Ho0  1  0.972109  0.919102  0.185405  1
  Ho  Ho1  1  0.786703  0.580898  0.814595  1
  Ho  Ho2  1  0.028112  0.080424  0.814361  1
  Ho  Ho3  1  0.213752  0.419576  0.185639  1
  Tm  Tm4  1  0.573035  0.250000  0.000000  1
  Lu  Lu5  1  0.651043  0.817421  0.440454  1
  Lu  Lu6  1  0.210589  0.682579  0.559546  1
  Lu  Lu7  1  0.348504  0.182357  0.559137  1
  Lu  Lu8  1  0.789368  0.317643  0.440863  1
  Lu  Lu9  1  0.427597  0.750000  0.000000  1
  Ir  Ir10  1  0.822592  0.573956  0.221299  1
  Ir  Ir11  1  0.601294  0.926044  0.778701  1
  Ir  Ir12  1  0.177004  0.426993  0.778704  1
  Ir  Ir13  1  0.398298  0.073007  0.221296  1
