# generated using pymatgen
data_PaN(OF3)2
_symmetry_space_group_name_H-M   'P 1'
_cell_length_a   5.53310719
_cell_length_b   5.53310730
_cell_length_c   6.06507600
_cell_angle_alpha   90.00000000
_cell_angle_beta   90.00000000
_cell_angle_gamma   100.40575214
_symmetry_Int_Tables_number   1
_chemical_formula_structural   PaN(OF3)2
_chemical_formula_sum   'Pa1 N1 O2 F6'
_cell_volume   182.63009369
_cell_formula_units_Z   1
loop_
 _symmetry_equiv_pos_site_id
 _symmetry_equiv_pos_as_xyz
  1  'x, y, z'
loop_
 _atom_site_type_symbol
 _atom_site_label
 _atom_site_symmetry_multiplicity
 _atom_site_fract_x
 _atom_site_fract_y
 _atom_site_fract_z
 _atom_site_occupancy
  Pa  Pa0  1  0.500000  0.500000  0.000000  1
  N  N1  1  0.000000  0.000000  0.500000  1
  O  O2  1  0.133769  0.866231  0.500000  1
  O  O3  1  0.866231  0.133769  0.500000  1
  F  F4  1  0.708369  0.708369  0.251880  1
  F  F5  1  0.291631  0.291631  0.251880  1
  F  F6  1  0.708369  0.708369  0.748120  1
  F  F7  1  0.291631  0.291631  0.748120  1
  F  F8  1  0.746769  0.253231  0.000000  1
  F  F9  1  0.253231  0.746769  0.000000  1
