# generated using pymatgen
data_Te3As4SeI4
_symmetry_space_group_name_H-M   'P 1'
_cell_length_a   4.06622109
_cell_length_b   9.92950845
_cell_length_c   14.19613363
_cell_angle_alpha   51.21206578
_cell_angle_beta   89.26295583
_cell_angle_gamma   89.09900198
_symmetry_Int_Tables_number   1
_chemical_formula_structural   Te3As4SeI4
_chemical_formula_sum   'Te3 As4 Se1 I4'
_cell_volume   446.71570721
_cell_formula_units_Z   1
loop_
 _symmetry_equiv_pos_site_id
 _symmetry_equiv_pos_as_xyz
  1  'x, y, z'
loop_
 _atom_site_type_symbol
 _atom_site_label
 _atom_site_symmetry_multiplicity
 _atom_site_fract_x
 _atom_site_fract_y
 _atom_site_fract_z
 _atom_site_occupancy
  Te  Te0  1  0.795383  0.294287  0.802246  1
  Te  Te1  1  0.720317  0.287575  0.300701  1
  Te  Te2  1  0.280430  0.710776  0.698826  1
  As  As3  1  0.779857  0.503120  0.866033  1
  As  As4  1  0.221419  0.501885  0.137075  1
  As  As5  1  0.732308  0.501643  0.358419  1
  As  As6  1  0.287447  0.503517  0.634646  1
  Se  Se7  1  0.200134  0.681591  0.207803  1
  I  I8  1  0.713164  0.752945  0.938549  1
  I  I9  1  0.793566  0.749754  0.436391  1
  I  I10  1  0.196793  0.258201  0.554732  1
  I  I11  1  0.279182  0.254706  0.064580  1
