# generated using pymatgen
data_Sr2Pr4Zr2Ga7FeO24
_symmetry_space_group_name_H-M   'P 1'
_cell_length_a   11.10221038
_cell_length_b   11.16049478
_cell_length_c   11.17187700
_cell_angle_alpha   109.51391173
_cell_angle_beta   109.33032689
_cell_angle_gamma   109.25399607
_symmetry_Int_Tables_number   1
_chemical_formula_structural   Sr2Pr4Zr2Ga7FeO24
_chemical_formula_sum   'Sr4 Pr8 Zr4 Ga14 Fe2 O48'
_cell_volume   1069.73093669
_cell_formula_units_Z   2
loop_
 _symmetry_equiv_pos_site_id
 _symmetry_equiv_pos_as_xyz
  1  'x, y, z'
loop_
 _atom_site_type_symbol
 _atom_site_label
 _atom_site_symmetry_multiplicity
 _atom_site_fract_x
 _atom_site_fract_y
 _atom_site_fract_z
 _atom_site_occupancy
  Sr  Sr0  1  0.623086  0.241177  0.373649  1
  Sr  Sr1  1  0.874468  0.121757  0.245272  1
  Sr  Sr2  1  0.125532  0.878243  0.754728  1
  Sr  Sr3  1  0.376914  0.758823  0.626351  1
  Pr  Pr4  1  0.249887  0.623390  0.876949  1
  Pr  Pr5  1  0.628741  0.370939  0.750295  1
  Pr  Pr6  1  0.126523  0.252278  0.881158  1
  Pr  Pr7  1  0.249640  0.122907  0.368928  1
  Pr  Pr8  1  0.873477  0.747722  0.118842  1
  Pr  Pr9  1  0.750360  0.877093  0.631072  1
  Pr  Pr10  1  0.371259  0.629061  0.249705  1
  Pr  Pr11  1  0.750113  0.376610  0.123051  1
  Zr  Zr12  1  0.000000  0.000000  0.500000  1
  Zr  Zr13  1  0.500000  0.000000  0.000000  1
  Zr  Zr14  1  0.000000  0.500000  0.500000  1
  Zr  Zr15  1  0.500000  0.500000  0.500000  1
  Ga  Ga16  1  0.881507  0.633487  0.760913  1
  Ga  Ga17  1  0.625032  0.747999  0.875035  1
  Ga  Ga18  1  0.871179  0.253755  0.631231  1
  Ga  Ga19  1  0.245895  0.869402  0.128093  1
  Ga  Ga20  1  0.255124  0.374810  0.633181  1
  Ga  Ga21  1  0.500000  0.500000  0.000000  1
  Ga  Ga22  1  0.623238  0.871081  0.248310  1
  Ga  Ga23  1  0.376762  0.128919  0.751690  1
  Ga  Ga24  1  0.754105  0.130598  0.871906  1
  Ga  Ga25  1  0.744876  0.625190  0.366819  1
  Ga  Ga26  1  0.128821  0.746245  0.368769  1
  Ga  Ga27  1  0.000000  0.500000  0.000000  1
  Ga  Ga28  1  0.374968  0.252001  0.124965  1
  Ga  Ga29  1  0.118493  0.366513  0.239087  1
  Fe  Fe30  1  0.000000  0.000000  0.000000  1
  Fe  Fe31  1  0.500000  0.000000  0.500000  1
  O  O32  1  0.297940  0.876724  0.985221  1
  O  O33  1  0.413805  0.294778  0.316948  1
  O  O34  1  0.687545  0.486884  0.608911  1
  O  O35  1  0.023010  0.618490  0.708341  1
  O  O36  1  0.478113  0.792855  0.883093  1
  O  O37  1  0.204023  0.516869  0.623664  1
  O  O38  1  0.885478  0.299711  0.488259  1
  O  O39  1  0.021723  0.403006  0.823665  1
  O  O40  1  0.678734  0.202763  0.589751  1
  O  O41  1  0.394760  0.014620  0.319482  1
  O  O42  1  0.616424  0.014259  0.200435  1
  O  O43  1  0.617885  0.595403  0.916853  1
  O  O44  1  0.087075  0.179202  0.200244  1
  O  O45  1  0.403410  0.378233  0.585753  1
  O  O46  1  0.300780  0.418993  0.825384  1
  O  O47  1  0.107052  0.184216  0.483700  1
  O  O48  1  0.882241  0.582529  0.905994  1
  O  O49  1  0.818443  0.895600  0.016183  1
  O  O50  1  0.916410  0.101258  0.624241  1
  O  O51  1  0.198158  0.674558  0.079952  1
  O  O52  1  0.584226  0.879404  0.402029  1
  O  O53  1  0.815890  0.908893  0.293985  1
  O  O54  1  0.524054  0.323233  0.902378  1
  O  O55  1  0.095339  0.914836  0.119293  1
  O  O56  1  0.904661  0.085164  0.880707  1
  O  O57  1  0.475946  0.676767  0.097622  1
  O  O58  1  0.184110  0.091107  0.706015  1
  O  O59  1  0.415774  0.120596  0.597971  1
  O  O60  1  0.801842  0.325442  0.920048  1
  O  O61  1  0.083590  0.898742  0.375759  1
  O  O62  1  0.181557  0.104400  0.983817  1
  O  O63  1  0.117759  0.417471  0.094006  1
  O  O64  1  0.892948  0.815784  0.516300  1
  O  O65  1  0.699220  0.581007  0.174616  1
  O  O66  1  0.596590  0.621767  0.414247  1
  O  O67  1  0.912925  0.820798  0.799756  1
  O  O68  1  0.382115  0.404597  0.083147  1
  O  O69  1  0.383576  0.985741  0.799565  1
  O  O70  1  0.605240  0.985380  0.680518  1
  O  O71  1  0.321266  0.797237  0.410249  1
  O  O72  1  0.978277  0.596994  0.176335  1
  O  O73  1  0.114522  0.700289  0.511741  1
  O  O74  1  0.795977  0.483131  0.376336  1
  O  O75  1  0.521887  0.207145  0.116907  1
  O  O76  1  0.976990  0.381510  0.291659  1
  O  O77  1  0.312455  0.513116  0.391089  1
  O  O78  1  0.586195  0.705222  0.683052  1
  O  O79  1  0.702060  0.123276  0.014779  1
