# generated using pymatgen
data_Tb3(ZnSi2)2
_symmetry_space_group_name_H-M   'P 1'
_cell_length_a   4.09289800
_cell_length_b   5.74611472
_cell_length_c   8.11285709
_cell_angle_alpha   100.40282160
_cell_angle_beta   90.00000000
_cell_angle_gamma   110.86362414
_symmetry_Int_Tables_number   1
_chemical_formula_structural   Tb3(ZnSi2)2
_chemical_formula_sum   'Tb3 Zn2 Si4'
_cell_volume   174.92924506
_cell_formula_units_Z   1
loop_
 _symmetry_equiv_pos_site_id
 _symmetry_equiv_pos_as_xyz
  1  'x, y, z'
loop_
 _atom_site_type_symbol
 _atom_site_label
 _atom_site_symmetry_multiplicity
 _atom_site_fract_x
 _atom_site_fract_y
 _atom_site_fract_z
 _atom_site_occupancy
  Tb  Tb0  1  0.000000  0.000000  0.000000  1
  Tb  Tb1  1  0.335556  0.671112  0.329357  1
  Tb  Tb2  1  0.664443  0.328887  0.670641  1
  Zn  Zn3  1  0.612288  0.224577  0.280917  1
  Zn  Zn4  1  0.387711  0.775423  0.719083  1
  Si  Si5  1  0.719104  0.438208  0.053704  1
  Si  Si6  1  0.058586  0.117173  0.391890  1
  Si  Si7  1  0.941413  0.882826  0.608110  1
  Si  Si8  1  0.280897  0.561793  0.946296  1
