# generated using pymatgen
data_Ho8CdInPd2
_symmetry_space_group_name_H-M   'P 1'
_cell_length_a   9.65584335
_cell_length_b   9.65584331
_cell_length_c   9.66216600
_cell_angle_alpha   59.97833688
_cell_angle_beta   59.97833702
_cell_angle_gamma   60.02240770
_symmetry_Int_Tables_number   1
_chemical_formula_structural   Ho8CdInPd2
_chemical_formula_sum   'Ho16 Cd2 In2 Pd4'
_cell_volume   636.89975261
_cell_formula_units_Z   2
loop_
 _symmetry_equiv_pos_site_id
 _symmetry_equiv_pos_as_xyz
  1  'x, y, z'
loop_
 _atom_site_type_symbol
 _atom_site_label
 _atom_site_symmetry_multiplicity
 _atom_site_fract_x
 _atom_site_fract_y
 _atom_site_fract_z
 _atom_site_occupancy
  Ho  Ho0  1  0.352761  0.352761  0.352963  1
  Ho  Ho1  1  0.352761  0.352761  0.941515  1
  Ho  Ho2  1  0.353362  0.940292  0.353174  1
  Ho  Ho3  1  0.940292  0.353362  0.353174  1
  Ho  Ho4  1  0.810244  0.190056  0.189885  1
  Ho  Ho5  1  0.190056  0.810244  0.809814  1
  Ho  Ho6  1  0.190056  0.810244  0.189885  1
  Ho  Ho7  1  0.810244  0.190056  0.809814  1
  Ho  Ho8  1  0.189387  0.189387  0.810613  1
  Ho  Ho9  1  0.809474  0.809474  0.190526  1
  Ho  Ho10  1  0.935763  0.565588  0.565595  1
  Ho  Ho11  1  0.565588  0.935763  0.933054  1
  Ho  Ho12  1  0.565588  0.935763  0.565595  1
  Ho  Ho13  1  0.935763  0.565588  0.933054  1
  Ho  Ho14  1  0.565939  0.565939  0.934061  1
  Ho  Ho15  1  0.935075  0.935075  0.564925  1
  Cd  Cd16  1  0.582010  0.251801  0.583094  1
  Cd  Cd17  1  0.251801  0.582010  0.583094  1
  In  In18  1  0.582125  0.582125  0.583105  1
  In  In19  1  0.582125  0.582125  0.252645  1
  Pd  Pd20  1  0.143983  0.143983  0.144296  1
  Pd  Pd21  1  0.143983  0.143983  0.567738  1
  Pd  Pd22  1  0.143576  0.568043  0.144190  1
  Pd  Pd23  1  0.568043  0.143576  0.144190  1
