# generated using pymatgen
data_TbNp3Ga12Ag
_symmetry_space_group_name_H-M   'P 1'
_cell_length_a   7.53020993
_cell_length_b   7.53020934
_cell_length_c   7.57190400
_cell_angle_alpha   109.58342292
_cell_angle_beta   109.58342131
_cell_angle_gamma   109.35879267
_symmetry_Int_Tables_number   1
_chemical_formula_structural   TbNp3Ga12Ag
_chemical_formula_sum   'Tb1 Np3 Ga12 Ag1'
_cell_volume   330.06088450
_cell_formula_units_Z   1
loop_
 _symmetry_equiv_pos_site_id
 _symmetry_equiv_pos_as_xyz
  1  'x, y, z'
loop_
 _atom_site_type_symbol
 _atom_site_label
 _atom_site_symmetry_multiplicity
 _atom_site_fract_x
 _atom_site_fract_y
 _atom_site_fract_z
 _atom_site_occupancy
  Tb  Tb0  1  0.000000  0.000000  0.500000  1
  Np  Np1  1  0.500000  0.500000  0.500000  1
  Np  Np2  1  0.000000  0.500000  0.000000  1
  Np  Np3  1  0.500000  0.000000  0.000000  1
  Ga  Ga4  1  0.498907  0.749454  0.249454  1
  Ga  Ga5  1  0.501093  0.250546  0.750546  1
  Ga  Ga6  1  0.250546  0.501093  0.750546  1
  Ga  Ga7  1  0.749454  0.498907  0.249454  1
  Ga  Ga8  1  0.749454  0.250546  0.500000  1
  Ga  Ga9  1  0.250546  0.749454  0.500000  1
  Ga  Ga10  1  0.000000  0.303643  0.301624  1
  Ga  Ga11  1  0.000000  0.696357  0.698376  1
  Ga  Ga12  1  0.303643  0.000000  0.301624  1
  Ga  Ga13  1  0.696357  0.000000  0.698376  1
  Ga  Ga14  1  0.303643  0.303643  0.002018  1
  Ga  Ga15  1  0.696357  0.696357  0.997982  1
  Ag  Ag16  1  0.000000  0.000000  0.000000  1
