# generated using pymatgen
data_Dy3Y2IrRu
_symmetry_space_group_name_H-M   'P 1'
_cell_length_a   6.43054893
_cell_length_b   7.27816792
_cell_length_c   8.52607876
_cell_angle_alpha   96.77886114
_cell_angle_beta   112.15483222
_cell_angle_gamma   89.99999963
_symmetry_Int_Tables_number   1
_chemical_formula_structural   Dy3Y2IrRu
_chemical_formula_sum   'Dy6 Y4 Ir2 Ru2'
_cell_volume   366.56691512
_cell_formula_units_Z   2
loop_
 _symmetry_equiv_pos_site_id
 _symmetry_equiv_pos_as_xyz
  1  'x, y, z'
loop_
 _atom_site_type_symbol
 _atom_site_label
 _atom_site_symmetry_multiplicity
 _atom_site_fract_x
 _atom_site_fract_y
 _atom_site_fract_z
 _atom_site_occupancy
  Dy  Dy0  1  0.210787  0.185664  0.562574  1
  Dy  Dy1  1  0.648212  0.314336  0.437426  1
  Dy  Dy2  1  0.789880  0.816193  0.435676  1
  Dy  Dy3  1  0.354204  0.683807  0.564324  1
  Dy  Dy4  1  0.426975  0.250000  0.000000  1
  Dy  Dy5  1  0.574728  0.750000  0.000000  1
  Y  Y6  1  0.790847  0.084202  0.814780  1
  Y  Y7  1  0.976067  0.415798  0.185220  1
  Y  Y8  1  0.207451  0.918039  0.186467  1
  Y  Y9  1  0.020984  0.581961  0.813533  1
  Ir  Ir10  1  0.399571  0.575169  0.222376  1
  Ir  Ir11  1  0.177194  0.924831  0.777624  1
  Ru  Ru12  1  0.600476  0.427174  0.777852  1
  Ru  Ru13  1  0.822624  0.072826  0.222148  1
