# generated using pymatgen
data_Nd4B4ICl4
_symmetry_space_group_name_H-M   'P 1'
_cell_length_a   10.84517037
_cell_length_b   10.84517036
_cell_length_c   10.01230763
_cell_angle_alpha   50.87645803
_cell_angle_beta   50.87645894
_cell_angle_gamma   22.98133745
_symmetry_Int_Tables_number   1
_chemical_formula_structural   Nd4B4ICl4
_chemical_formula_sum   'Nd4 B4 I1 Cl4'
_cell_volume   351.78323061
_cell_formula_units_Z   1
loop_
 _symmetry_equiv_pos_site_id
 _symmetry_equiv_pos_as_xyz
  1  'x, y, z'
loop_
 _atom_site_type_symbol
 _atom_site_label
 _atom_site_symmetry_multiplicity
 _atom_site_fract_x
 _atom_site_fract_y
 _atom_site_fract_z
 _atom_site_occupancy
  Nd  Nd0  1  0.148562  0.148562  0.778296  1
  Nd  Nd1  1  0.517154  0.517154  0.219417  1
  Nd  Nd2  1  0.482846  0.482846  0.780583  1
  Nd  Nd3  1  0.851438  0.851438  0.221704  1
  B  B4  1  0.004858  0.004858  0.089536  1
  B  B5  1  0.687635  0.312365  0.000000  1
  B  B6  1  0.995142  0.995142  0.910464  1
  B  B7  1  0.312365  0.687635  0.000000  1
  I  I8  1  0.000000  0.000000  0.500000  1
  Cl  Cl9  1  0.310336  0.310336  0.089523  1
  Cl  Cl10  1  0.331840  0.331840  0.453970  1
  Cl  Cl11  1  0.668160  0.668160  0.546030  1
  Cl  Cl12  1  0.689664  0.689664  0.910477  1
