# generated using pymatgen
data_MgSc2GaPt
_symmetry_space_group_name_H-M   'P 1'
_cell_length_a   7.60861300
_cell_length_b   7.59545900
_cell_length_c   3.43086200
_cell_angle_alpha   90.00000000
_cell_angle_beta   90.00000000
_cell_angle_gamma   90.00000000
_symmetry_Int_Tables_number   1
_chemical_formula_structural   MgSc2GaPt
_chemical_formula_sum   'Mg2 Sc4 Ga2 Pt2'
_cell_volume   198.27263051
_cell_formula_units_Z   2
loop_
 _symmetry_equiv_pos_site_id
 _symmetry_equiv_pos_as_xyz
  1  'x, y, z'
loop_
 _atom_site_type_symbol
 _atom_site_label
 _atom_site_symmetry_multiplicity
 _atom_site_fract_x
 _atom_site_fract_y
 _atom_site_fract_z
 _atom_site_occupancy
  Mg  Mg0  1  0.503292  0.502033  0.000000  1
  Mg  Mg1  1  0.003292  0.997967  0.000000  1
  Sc  Sc2  1  0.170124  0.351105  0.500000  1
  Sc  Sc3  1  0.337406  0.819593  0.500000  1
  Sc  Sc4  1  0.837406  0.680407  0.500000  1
  Sc  Sc5  1  0.670124  0.148895  0.500000  1
  Ga  Ga6  1  0.865783  0.368830  0.000000  1
  Ga  Ga7  1  0.365783  0.131170  0.000000  1
  Pt  Pt8  1  0.623395  0.874751  0.000000  1
  Pt  Pt9  1  0.123395  0.625249  0.000000  1
