# generated using pymatgen
data_Dy3BiRh4F28
_symmetry_space_group_name_H-M   'P 1'
_cell_length_a   5.54870076
_cell_length_b   8.96459980
_cell_length_c   11.97478200
_cell_angle_alpha   62.50433355
_cell_angle_beta   90.05048547
_cell_angle_gamma   89.91481949
_symmetry_Int_Tables_number   1
_chemical_formula_structural   Dy3BiRh4F28
_chemical_formula_sum   'Dy3 Bi1 Rh4 F28'
_cell_volume   528.36578986
_cell_formula_units_Z   1
loop_
 _symmetry_equiv_pos_site_id
 _symmetry_equiv_pos_as_xyz
  1  'x, y, z'
loop_
 _atom_site_type_symbol
 _atom_site_label
 _atom_site_symmetry_multiplicity
 _atom_site_fract_x
 _atom_site_fract_y
 _atom_site_fract_z
 _atom_site_occupancy
  Dy  Dy0  1  0.260689  0.194594  0.733388  1
  Dy  Dy1  1  0.238775  0.186668  0.234990  1
  Dy  Dy2  1  0.739625  0.813478  0.265598  1
  Bi  Bi3  1  0.764372  0.820401  0.763308  1
  Rh  Rh4  1  0.757005  0.269615  0.958073  1
  Rh  Rh5  1  0.256438  0.726582  0.540606  1
  Rh  Rh6  1  0.242400  0.726478  0.046138  1
  Rh  Rh7  1  0.742138  0.275523  0.455114  1
  F  F8  1  0.432540  0.704200  0.918347  1
  F  F9  1  0.941674  0.294584  0.582778  1
  F  F10  1  0.559681  0.291638  0.084050  1
  F  F11  1  0.062364  0.705479  0.413288  1
  F  F12  1  0.446678  0.279703  0.544363  1
  F  F13  1  0.941673  0.719057  0.962055  1
  F  F14  1  0.556347  0.720814  0.455539  1
  F  F15  1  0.053586  0.276764  0.045478  1
  F  F16  1  0.772737  0.509108  0.861637  1
  F  F17  1  0.270799  0.483070  0.637617  1
  F  F18  1  0.230260  0.482970  0.141696  1
  F  F19  1  0.728948  0.518442  0.359624  1
  F  F20  1  0.755931  0.027100  0.051170  1
  F  F21  1  0.255276  0.969346  0.449222  1
  F  F22  1  0.243616  0.969038  0.950585  1
  F  F23  1  0.743711  0.031216  0.547156  1
  F  F24  1  0.962920  0.725852  0.629505  1
  F  F25  1  0.466810  0.269478  0.864605  1
  F  F26  1  0.029814  0.271604  0.362246  1
  F  F27  1  0.533429  0.729342  0.137668  1
  F  F28  1  0.050871  0.746661  0.175757  1
  F  F29  1  0.546025  0.255117  0.326574  1
  F  F30  1  0.951037  0.250215  0.828163  1
  F  F31  1  0.438873  0.742955  0.673271  1
  F  F32  1  0.417385  0.972411  0.231783  1
  F  F33  1  0.917256  0.027894  0.268759  1
  F  F34  1  0.591319  0.037669  0.770639  1
  F  F35  1  0.096997  0.974933  0.729210  1
