# generated using pymatgen
data_La2Pr7Y(Al2Ru3)2
_symmetry_space_group_name_H-M   'P 1'
_cell_length_a   8.51868752
_cell_length_b   8.65115989
_cell_length_c   8.58495259
_cell_angle_alpha   109.33881173
_cell_angle_beta   109.47990536
_cell_angle_gamma   109.48642703
_symmetry_Int_Tables_number   1
_chemical_formula_structural   La2Pr7Y(Al2Ru3)2
_chemical_formula_sum   'La2 Pr7 Y1 Al4 Ru6'
_cell_volume   487.68861574
_cell_formula_units_Z   1
loop_
 _symmetry_equiv_pos_site_id
 _symmetry_equiv_pos_as_xyz
  1  'x, y, z'
loop_
 _atom_site_type_symbol
 _atom_site_label
 _atom_site_symmetry_multiplicity
 _atom_site_fract_x
 _atom_site_fract_y
 _atom_site_fract_z
 _atom_site_occupancy
  La  La0  1  0.751695  0.811296  0.060082  1
  La  La1  1  0.438745  0.244930  0.687273  1
  Pr  Pr2  1  0.689923  0.436843  0.255244  1
  Pr  Pr3  1  0.065574  0.749355  0.810179  1
  Pr  Pr4  1  0.815313  0.063187  0.748619  1
  Pr  Pr5  1  0.217414  0.218582  0.214398  1
  Pr  Pr6  1  0.493832  0.994211  0.281194  1
  Pr  Pr7  1  0.287127  0.502175  0.003378  1
  Pr  Pr8  1  0.003070  0.286102  0.503514  1
  Y  Y9  1  0.249252  0.681208  0.432600  1
  Al  Al10  1  0.584451  0.589606  0.587416  1
  Al  Al11  1  0.503189  0.002662  0.911541  1
  Al  Al12  1  0.915741  0.499632  0.003108  1
  Al  Al13  1  0.998494  0.905425  0.497567  1
  Ru  Ru14  1  0.253868  0.125306  0.862300  1
  Ru  Ru15  1  0.736841  0.376544  0.630799  1
  Ru  Ru16  1  0.875073  0.257292  0.123171  1
  Ru  Ru17  1  0.103838  0.862436  0.242173  1
  Ru  Ru18  1  0.625378  0.747486  0.383491  1
  Ru  Ru19  1  0.391182  0.645722  0.761954  1
