# generated using pymatgen
data_Dy8Ti12Si15Ge
_symmetry_space_group_name_H-M   'P 1'
_cell_length_a   7.03747803
_cell_length_b   7.02692840
_cell_length_c   12.91781400
_cell_angle_alpha   89.99412930
_cell_angle_beta   89.93868619
_cell_angle_gamma   89.96435372
_symmetry_Int_Tables_number   1
_chemical_formula_structural   Dy8Ti12Si15Ge
_chemical_formula_sum   'Dy8 Ti12 Si15 Ge1'
_cell_volume   638.80936186
_cell_formula_units_Z   1
loop_
 _symmetry_equiv_pos_site_id
 _symmetry_equiv_pos_as_xyz
  1  'x, y, z'
loop_
 _atom_site_type_symbol
 _atom_site_label
 _atom_site_symmetry_multiplicity
 _atom_site_fract_x
 _atom_site_fract_y
 _atom_site_fract_z
 _atom_site_occupancy
  Dy  Dy0  1  0.341166  0.001934  0.465557  1
  Dy  Dy1  1  0.498407  0.839937  0.717008  1
  Dy  Dy2  1  0.502708  0.159710  0.216724  1
  Dy  Dy3  1  0.840565  0.496927  0.283161  1
  Dy  Dy4  1  0.159538  0.503490  0.783823  1
  Dy  Dy5  1  0.660325  0.996546  0.967249  1
  Dy  Dy6  1  0.000401  0.342247  0.532150  1
  Dy  Dy7  1  0.997741  0.659413  0.033462  1
  Ti  Ti8  1  0.326476  0.326362  0.000169  1
  Ti  Ti9  1  0.173553  0.826403  0.250027  1
  Ti  Ti10  1  0.823412  0.174158  0.750645  1
  Ti  Ti11  1  0.673113  0.673569  0.499916  1
  Ti  Ti12  1  0.152468  0.008731  0.877540  1
  Ti  Ti13  1  0.491802  0.651088  0.126295  1
  Ti  Ti14  1  0.510052  0.349631  0.626494  1
  Ti  Ti15  1  0.652692  0.492248  0.874253  1
  Ti  Ti16  1  0.347891  0.508721  0.373585  1
  Ti  Ti17  1  0.847964  0.991930  0.376113  1
  Ti  Ti18  1  0.008814  0.151469  0.123810  1
  Ti  Ti19  1  0.988705  0.845463  0.622579  1
  Si  Si20  1  0.369697  0.702920  0.934551  1
  Si  Si21  1  0.629759  0.297194  0.434168  1
  Si  Si22  1  0.703472  0.369336  0.065999  1
  Si  Si23  1  0.296923  0.630568  0.565738  1
  Si  Si24  1  0.796959  0.869297  0.184301  1
  Si  Si25  1  0.130507  0.202801  0.315580  1
  Si  Si26  1  0.869994  0.797757  0.815679  1
  Si  Si27  1  0.291186  0.952286  0.065248  1
  Si  Si28  1  0.547856  0.790360  0.314482  1
  Si  Si29  1  0.455573  0.209789  0.816607  1
  Si  Si30  1  0.791233  0.547386  0.685538  1
  Si  Si31  1  0.209287  0.452400  0.185237  1
  Si  Si32  1  0.708562  0.047798  0.564780  1
  Si  Si33  1  0.952929  0.290672  0.935351  1
  Si  Si34  1  0.047436  0.709803  0.434723  1
  Ge  Ge35  1  0.200833  0.129662  0.681462  1
