# generated using pymatgen
data_Y2Ta3Si7Pd9
_symmetry_space_group_name_H-M   'P 1'
_cell_length_a   9.89452300
_cell_length_b   9.89452301
_cell_length_c   4.02754500
_cell_angle_alpha   90.00000000
_cell_angle_beta   90.00000000
_cell_angle_gamma   120.00000331
_symmetry_Int_Tables_number   1
_chemical_formula_structural   Y2Ta3Si7Pd9
_chemical_formula_sum   'Y2 Ta3 Si7 Pd9'
_cell_volume   341.47643908
_cell_formula_units_Z   1
loop_
 _symmetry_equiv_pos_site_id
 _symmetry_equiv_pos_as_xyz
  1  'x, y, z'
loop_
 _atom_site_type_symbol
 _atom_site_label
 _atom_site_symmetry_multiplicity
 _atom_site_fract_x
 _atom_site_fract_y
 _atom_site_fract_z
 _atom_site_occupancy
  Y  Y0  1  0.000000  0.000000  0.000000  1
  Y  Y1  1  0.333333  0.666667  0.500000  1
  Ta  Ta2  1  0.879604  0.451707  0.500000  1
  Ta  Ta3  1  0.572103  0.120396  0.500000  1
  Ta  Ta4  1  0.548293  0.427897  0.500000  1
  Si  Si5  1  0.257675  0.215152  0.500000  1
  Si  Si6  1  0.784848  0.042524  0.500000  1
  Si  Si7  1  0.957476  0.742325  0.500000  1
  Si  Si8  1  0.551707  0.630247  0.000000  1
  Si  Si9  1  0.369753  0.921459  0.000000  1
  Si  Si10  1  0.078541  0.448293  0.000000  1
  Si  Si11  1  0.666667  0.333333  0.000000  1
  Pd  Pd12  1  0.229298  0.945912  0.500000  1
  Pd  Pd13  1  0.054088  0.283388  0.500000  1
  Pd  Pd14  1  0.716612  0.770702  0.500000  1
  Pd  Pd15  1  0.298158  0.400426  0.000000  1
  Pd  Pd16  1  0.599574  0.897732  0.000000  1
  Pd  Pd17  1  0.102268  0.701842  0.000000  1
  Pd  Pd18  1  0.384825  0.174540  0.000000  1
  Pd  Pd19  1  0.825460  0.210285  0.000000  1
  Pd  Pd20  1  0.789715  0.615175  0.000000  1
