# generated using pymatgen
data_Zr10ZnBiPb5Au
_symmetry_space_group_name_H-M   'P 1'
_cell_length_a   8.86742594
_cell_length_b   8.86355386
_cell_length_c   5.99546064
_cell_angle_alpha   90.02637090
_cell_angle_beta   89.94728122
_cell_angle_gamma   120.01444833
_symmetry_Int_Tables_number   1
_chemical_formula_structural   Zr10ZnBiPb5Au
_chemical_formula_sum   'Zr10 Zn1 Bi1 Pb5 Au1'
_cell_volume   408.03292986
_cell_formula_units_Z   1
loop_
 _symmetry_equiv_pos_site_id
 _symmetry_equiv_pos_as_xyz
  1  'x, y, z'
loop_
 _atom_site_type_symbol
 _atom_site_label
 _atom_site_symmetry_multiplicity
 _atom_site_fract_x
 _atom_site_fract_y
 _atom_site_fract_z
 _atom_site_occupancy
  Zr  Zr0  1  0.333086  0.666537  0.999528  1
  Zr  Zr1  1  0.666524  0.333352  0.500484  1
  Zr  Zr2  1  0.666550  0.333463  0.999528  1
  Zr  Zr3  1  0.333172  0.666648  0.500484  1
  Zr  Zr4  1  0.267588  0.000000  0.256449  1
  Zr  Zr5  1  0.267798  0.267603  0.743386  1
  Zr  Zr6  1  0.000195  0.732397  0.743386  1
  Zr  Zr7  1  0.000629  0.268128  0.256674  1
  Zr  Zr8  1  0.732500  0.731872  0.256674  1
  Zr  Zr9  1  0.732168  0.000000  0.743525  1
  Zn  Zn10  1  0.000314  0.000000  0.500349  1
  Bi  Bi11  1  0.614783  0.000000  0.248241  1
  Pb  Pb12  1  0.615170  0.615063  0.751995  1
  Pb  Pb13  1  0.000107  0.384937  0.751995  1
  Pb  Pb14  1  0.999914  0.615198  0.248046  1
  Pb  Pb15  1  0.384716  0.384802  0.248046  1
  Pb  Pb16  1  0.384211  0.000000  0.751752  1
  Au  Au17  1  0.000575  0.000000  0.999459  1
