# generated using pymatgen
data_Zr10Bi2PPb4Au
_symmetry_space_group_name_H-M   'P 1'
_cell_length_a   8.80857991
_cell_length_b   8.80792233
_cell_length_c   6.05056089
_cell_angle_alpha   89.93643860
_cell_angle_beta   90.03178190
_cell_angle_gamma   119.99753230
_symmetry_Int_Tables_number   1
_chemical_formula_structural   Zr10Bi2PPb4Au
_chemical_formula_sum   'Zr10 Bi2 P1 Pb4 Au1'
_cell_volume   406.55206749
_cell_formula_units_Z   1
loop_
 _symmetry_equiv_pos_site_id
 _symmetry_equiv_pos_as_xyz
  1  'x, y, z'
loop_
 _atom_site_type_symbol
 _atom_site_label
 _atom_site_symmetry_multiplicity
 _atom_site_fract_x
 _atom_site_fract_y
 _atom_site_fract_z
 _atom_site_occupancy
  Zr  Zr0  1  0.666674  0.333195  0.001081  1
  Zr  Zr1  1  0.333326  0.666522  0.001081  1
  Zr  Zr2  1  0.333173  0.666541  0.498027  1
  Zr  Zr3  1  0.666827  0.333367  0.498027  1
  Zr  Zr4  1  0.743201  0.741831  0.728234  1
  Zr  Zr5  1  0.256799  0.998631  0.728234  1
  Zr  Zr6  1  0.000000  0.258375  0.728544  1
  Zr  Zr7  1  0.259793  0.260363  0.271518  1
  Zr  Zr8  1  0.740207  0.000571  0.271518  1
  Zr  Zr9  1  0.000000  0.740152  0.271958  1
  Bi  Bi10  1  0.393867  0.393575  0.758166  1
  Bi  Bi11  1  0.606133  0.999708  0.758166  1
  P  P12  1  0.000000  0.000299  0.497899  1
  Pb  Pb13  1  0.000000  0.606617  0.757767  1
  Pb  Pb14  1  0.609065  0.608768  0.242490  1
  Pb  Pb15  1  0.390935  0.999703  0.242490  1
  Pb  Pb16  1  0.000000  0.392624  0.241531  1
  Au  Au17  1  0.000000  0.999157  0.003274  1
