# generated using pymatgen
data_Zr4Al4Re3Pt
_symmetry_space_group_name_H-M   'P 1'
_cell_length_a   5.25774616
_cell_length_b   5.25774647
_cell_length_c   8.69399000
_cell_angle_alpha   90.00000000
_cell_angle_beta   90.00000000
_cell_angle_gamma   119.39280763
_symmetry_Int_Tables_number   1
_chemical_formula_structural   Zr4Al4Re3Pt
_chemical_formula_sum   'Zr4 Al4 Re3 Pt1'
_cell_volume   209.39864016
_cell_formula_units_Z   1
loop_
 _symmetry_equiv_pos_site_id
 _symmetry_equiv_pos_as_xyz
  1  'x, y, z'
loop_
 _atom_site_type_symbol
 _atom_site_label
 _atom_site_symmetry_multiplicity
 _atom_site_fract_x
 _atom_site_fract_y
 _atom_site_fract_z
 _atom_site_occupancy
  Zr  Zr0  1  0.333338  0.666662  0.192654  1
  Zr  Zr1  1  0.666002  0.333998  0.319345  1
  Zr  Zr2  1  0.666002  0.333998  0.680655  1
  Zr  Zr3  1  0.333338  0.666662  0.807346  1
  Al  Al4  1  0.996550  0.003450  0.246077  1
  Al  Al5  1  0.996550  0.003450  0.753923  1
  Al  Al6  1  0.832944  0.651283  0.000000  1
  Al  Al7  1  0.348717  0.167056  0.000000  1
  Re  Re8  1  0.166618  0.341508  0.500000  1
  Re  Re9  1  0.658492  0.833382  0.500000  1
  Re  Re10  1  0.166763  0.833237  0.500000  1
  Pt  Pt11  1  0.834839  0.165161  0.000000  1
