# generated using pymatgen
data_Eu4Al2PdPt3
_symmetry_space_group_name_H-M   'P 1'
_cell_length_a   5.82752000
_cell_length_b   5.80713128
_cell_length_c   7.98106925
_cell_angle_alpha   79.63757576
_cell_angle_beta   79.55572589
_cell_angle_gamma   61.13474601
_symmetry_Int_Tables_number   1
_chemical_formula_structural   Eu4Al2PdPt3
_chemical_formula_sum   'Eu4 Al2 Pd1 Pt3'
_cell_volume   231.27181785
_cell_formula_units_Z   1
loop_
 _symmetry_equiv_pos_site_id
 _symmetry_equiv_pos_as_xyz
  1  'x, y, z'
loop_
 _atom_site_type_symbol
 _atom_site_label
 _atom_site_symmetry_multiplicity
 _atom_site_fract_x
 _atom_site_fract_y
 _atom_site_fract_z
 _atom_site_occupancy
  Eu  Eu0  1  0.781537  0.518539  0.351151  1
  Eu  Eu1  1  0.480391  0.219250  0.147207  1
  Eu  Eu2  1  0.220528  0.480620  0.649713  1
  Eu  Eu3  1  0.517137  0.780278  0.851769  1
  Al  Al4  1  0.118613  0.884011  0.247985  1
  Al  Al5  1  0.888370  0.115740  0.751077  1
  Pd  Pd6  1  0.739588  0.002536  0.503781  1
  Pt  Pt7  1  0.000714  0.740547  0.004055  1
  Pt  Pt8  1  0.256092  0.997079  0.495444  1
  Pt  Pt9  1  0.997033  0.261401  0.997818  1
