# generated using pymatgen
data_TbDy2Y5Pt4
_symmetry_space_group_name_H-M   'P 1'
_cell_length_a   4.77374100
_cell_length_b   7.19260509
_cell_length_c   8.83661553
_cell_angle_alpha   89.92263836
_cell_angle_beta   90.00000000
_cell_angle_gamma   90.00000000
_symmetry_Int_Tables_number   1
_chemical_formula_structural   TbDy2Y5Pt4
_chemical_formula_sum   'Tb1 Dy2 Y5 Pt4'
_cell_volume   303.41051830
_cell_formula_units_Z   1
loop_
 _symmetry_equiv_pos_site_id
 _symmetry_equiv_pos_as_xyz
  1  'x, y, z'
loop_
 _atom_site_type_symbol
 _atom_site_label
 _atom_site_symmetry_multiplicity
 _atom_site_fract_x
 _atom_site_fract_y
 _atom_site_fract_z
 _atom_site_occupancy
  Tb  Tb0  1  0.750000  0.144922  0.080287  1
  Dy  Dy1  1  0.250000  0.855231  0.919769  1
  Dy  Dy2  1  0.250000  0.355106  0.580025  1
  Y  Y3  1  0.750000  0.645322  0.419782  1
  Y  Y4  1  0.250000  0.989876  0.332018  1
  Y  Y5  1  0.250000  0.490266  0.168055  1
  Y  Y6  1  0.750000  0.009931  0.668799  1
  Y  Y7  1  0.750000  0.510496  0.831417  1
  Pt  Pt8  1  0.250000  0.257340  0.905883  1
  Pt  Pt9  1  0.250000  0.757295  0.594656  1
  Pt  Pt10  1  0.750000  0.742749  0.092623  1
  Pt  Pt11  1  0.750000  0.241465  0.406685  1
