# generated using pymatgen
data_SmGdBi2O7
_symmetry_space_group_name_H-M   'P 1'
_cell_length_a   6.67659452
_cell_length_b   6.78317220
_cell_length_c   7.86405700
_cell_angle_alpha   106.54740119
_cell_angle_beta   89.62171230
_cell_angle_gamma   98.11136589
_symmetry_Int_Tables_number   1
_chemical_formula_structural   SmGdBi2O7
_chemical_formula_sum   'Sm2 Gd2 Bi4 O14'
_cell_volume   337.77387805
_cell_formula_units_Z   2
loop_
 _symmetry_equiv_pos_site_id
 _symmetry_equiv_pos_as_xyz
  1  'x, y, z'
loop_
 _atom_site_type_symbol
 _atom_site_label
 _atom_site_symmetry_multiplicity
 _atom_site_fract_x
 _atom_site_fract_y
 _atom_site_fract_z
 _atom_site_occupancy
  Sm  Sm0  1  0.258633  0.536412  0.885041  1
  Sm  Sm1  1  0.741367  0.463588  0.114959  1
  Gd  Gd2  1  0.460100  0.003964  0.250980  1
  Gd  Gd3  1  0.539900  0.996036  0.749020  1
  Bi  Bi4  1  0.000000  0.000000  0.500000  1
  Bi  Bi5  1  0.000000  0.000000  0.000000  1
  Bi  Bi6  1  0.724583  0.461253  0.612534  1
  Bi  Bi7  1  0.275417  0.538747  0.387466  1
  O  O8  1  0.444822  0.650048  0.168092  1
  O  O9  1  0.555178  0.349952  0.831908  1
  O  O10  1  0.300457  0.924902  0.948909  1
  O  O11  1  0.699543  0.075098  0.051091  1
  O  O12  1  0.298812  0.918053  0.511359  1
  O  O13  1  0.701188  0.081947  0.488641  1
  O  O14  1  0.541928  0.360666  0.344582  1
  O  O15  1  0.458072  0.639334  0.655418  1
  O  O16  1  0.932562  0.673806  0.962645  1
  O  O17  1  0.067438  0.326194  0.037355  1
  O  O18  1  0.089511  0.321884  0.626180  1
  O  O19  1  0.910489  0.678116  0.373820  1
  O  O20  1  0.880379  0.925553  0.732170  1
  O  O21  1  0.119621  0.074447  0.267830  1
