# generated using pymatgen
data_KCd10Au
_symmetry_space_group_name_H-M   'P 1'
_cell_length_a   9.51852042
_cell_length_b   9.51852059
_cell_length_c   9.52386946
_cell_angle_alpha   99.52603214
_cell_angle_beta   99.52603062
_cell_angle_gamma   132.22732945
_symmetry_Int_Tables_number   1
_chemical_formula_structural   KCd10Au
_chemical_formula_sum   'K2 Cd20 Au2'
_cell_volume   583.14890024
_cell_formula_units_Z   2
loop_
 _symmetry_equiv_pos_site_id
 _symmetry_equiv_pos_as_xyz
  1  'x, y, z'
loop_
 _atom_site_type_symbol
 _atom_site_label
 _atom_site_symmetry_multiplicity
 _atom_site_fract_x
 _atom_site_fract_y
 _atom_site_fract_z
 _atom_site_occupancy
  K  K0  1  0.749497  0.250503  0.500000  1
  K  K1  1  0.500503  0.499497  0.000000  1
  Cd  Cd2  1  0.923172  0.011528  0.326233  1
  Cd  Cd3  1  0.681288  0.604604  0.677883  1
  Cd  Cd4  1  0.254196  0.745804  0.500000  1
  Cd  Cd5  1  0.995804  0.004196  0.000000  1
  Cd  Cd6  1  0.125000  0.875000  0.250000  1
  Cd  Cd7  1  0.125000  0.875000  0.750000  1
  Cd  Cd8  1  0.921404  0.594711  0.914672  1
  Cd  Cd9  1  0.854604  0.431288  0.177883  1
  Cd  Cd10  1  0.261528  0.673172  0.826233  1
  Cd  Cd11  1  0.685531  0.007843  0.079925  1
  Cd  Cd12  1  0.405289  0.078596  0.085328  1
  Cd  Cd13  1  0.992157  0.314469  0.920075  1
  Cd  Cd14  1  0.568712  0.145396  0.822117  1
  Cd  Cd15  1  0.326828  0.738472  0.173767  1
  Cd  Cd16  1  0.328596  0.155289  0.585328  1
  Cd  Cd17  1  0.395396  0.318712  0.322117  1
  Cd  Cd18  1  0.988472  0.076828  0.673767  1
  Cd  Cd19  1  0.564469  0.742157  0.420075  1
  Cd  Cd20  1  0.844711  0.671404  0.414672  1
  Cd  Cd21  1  0.257843  0.435531  0.579925  1
  Au  Au22  1  0.125000  0.375000  0.250000  1
  Au  Au23  1  0.625000  0.875000  0.750000  1
