# generated using pymatgen
data_Na3AgO3
_symmetry_space_group_name_H-M   'P 1'
_cell_length_a   9.69668200
_cell_length_b   9.69668200
_cell_length_c   4.49271800
_cell_angle_alpha   90.00000000
_cell_angle_beta   90.00000000
_cell_angle_gamma   90.00000000
_symmetry_Int_Tables_number   1
_chemical_formula_structural   Na3AgO3
_chemical_formula_sum   'Na12 Ag4 O12'
_cell_volume   422.43069342
_cell_formula_units_Z   4
loop_
 _symmetry_equiv_pos_site_id
 _symmetry_equiv_pos_as_xyz
  1  'x, y, z'
loop_
 _atom_site_type_symbol
 _atom_site_label
 _atom_site_symmetry_multiplicity
 _atom_site_fract_x
 _atom_site_fract_y
 _atom_site_fract_z
 _atom_site_occupancy
  Na  Na0  1  0.129745  0.618052  0.000000  1
  Na  Na1  1  0.881948  0.629745  0.500000  1
  Na  Na2  1  0.348528  0.651472  0.500000  1
  Na  Na3  1  0.848528  0.848528  0.000000  1
  Na  Na4  1  0.381948  0.870255  0.000000  1
  Na  Na5  1  0.629745  0.881948  0.500000  1
  Na  Na6  1  0.370255  0.118052  0.500000  1
  Na  Na7  1  0.618052  0.129745  0.000000  1
  Na  Na8  1  0.151472  0.151472  0.000000  1
  Na  Na9  1  0.651472  0.348528  0.500000  1
  Na  Na10  1  0.118052  0.370255  0.500000  1
  Na  Na11  1  0.870255  0.381948  0.000000  1
  Ag  Ag12  1  0.614184  0.614184  0.000000  1
  Ag  Ag13  1  0.114184  0.885816  0.500000  1
  Ag  Ag14  1  0.885816  0.114184  0.500000  1
  Ag  Ag15  1  0.385816  0.385816  0.000000  1
  O  O16  1  0.398988  0.601012  0.000000  1
  O  O17  1  0.823195  0.612529  0.000000  1
  O  O18  1  0.112529  0.676805  0.500000  1
  O  O19  1  0.612529  0.823195  0.000000  1
  O  O20  1  0.323195  0.887471  0.500000  1
  O  O21  1  0.898988  0.898988  0.500000  1
  O  O22  1  0.101012  0.101012  0.500000  1
  O  O23  1  0.676805  0.112529  0.500000  1
  O  O24  1  0.387471  0.176805  0.000000  1
  O  O25  1  0.887471  0.323195  0.500000  1
  O  O26  1  0.176805  0.387471  0.000000  1
  O  O27  1  0.601012  0.398988  0.000000  1
