# generated using pymatgen
data_Dy3Er3Al24Ru7Pt
_symmetry_space_group_name_H-M   'P 1'
_cell_length_a   8.79817376
_cell_length_b   8.79505698
_cell_length_c   9.52875336
_cell_angle_alpha   89.82248918
_cell_angle_beta   90.17011041
_cell_angle_gamma   119.89417664
_symmetry_Int_Tables_number   1
_chemical_formula_structural   Dy3Er3Al24Ru7Pt
_chemical_formula_sum   'Dy3 Er3 Al24 Ru7 Pt1'
_cell_volume   639.23031098
_cell_formula_units_Z   1
loop_
 _symmetry_equiv_pos_site_id
 _symmetry_equiv_pos_as_xyz
  1  'x, y, z'
loop_
 _atom_site_type_symbol
 _atom_site_label
 _atom_site_symmetry_multiplicity
 _atom_site_fract_x
 _atom_site_fract_y
 _atom_site_fract_z
 _atom_site_occupancy
  Dy  Dy0  1  0.192176  0.386824  0.250291  1
  Dy  Dy1  1  0.807734  0.613115  0.749695  1
  Dy  Dy2  1  0.613108  0.807788  0.250293  1
  Er  Er3  1  0.387595  0.192433  0.749796  1
  Er  Er4  1  0.194778  0.805164  0.250229  1
  Er  Er5  1  0.805188  0.194755  0.749811  1
  Al  Al6  1  0.330599  0.669341  0.020239  1
  Al  Al7  1  0.669068  0.330561  0.979509  1
  Al  Al8  1  0.666672  0.332917  0.516990  1
  Al  Al9  1  0.333023  0.666914  0.483228  1
  Al  Al10  1  0.162655  0.323872  0.579136  1
  Al  Al11  1  0.837507  0.675990  0.421043  1
  Al  Al12  1  0.676047  0.837545  0.579067  1
  Al  Al13  1  0.842606  0.676466  0.078179  1
  Al  Al14  1  0.323957  0.162426  0.421261  1
  Al  Al15  1  0.157511  0.323440  0.921646  1
  Al  Al16  1  0.162762  0.837683  0.578598  1
  Al  Al17  1  0.323502  0.157387  0.077960  1
  Al  Al18  1  0.837376  0.162611  0.421575  1
  Al  Al19  1  0.676508  0.842616  0.921702  1
  Al  Al20  1  0.837460  0.162528  0.077852  1
  Al  Al21  1  0.162673  0.837755  0.921958  1
  Al  Al22  1  0.560274  0.121699  0.248665  1
  Al  Al23  1  0.439618  0.878756  0.751279  1
  Al  Al24  1  0.878360  0.439724  0.248686  1
  Al  Al25  1  0.121687  0.560315  0.751298  1
  Al  Al26  1  0.562098  0.437855  0.252040  1
  Al  Al27  1  0.437831  0.561644  0.747979  1
  Al  Al28  1  0.999835  0.000129  0.249977  1
  Al  Al29  1  0.000667  0.000130  0.750016  1
  Ru  Ru30  1  0.499870  0.000152  0.999768  1
  Ru  Ru31  1  0.999845  0.499917  0.999913  1
  Ru  Ru32  1  0.499882  0.000140  0.500181  1
  Ru  Ru33  1  0.999796  0.499904  0.500085  1
  Ru  Ru34  1  0.499889  0.499702  0.500224  1
  Ru  Ru35  1  0.999971  0.999991  0.999978  1
  Ru  Ru36  1  0.999960  0.999981  0.500007  1
  Pt  Pt37  1  0.499915  0.499830  0.999846  1
