# generated using pymatgen
data_Ca8DyEr(Sn3H)2
_symmetry_space_group_name_H-M   'P 1'
_cell_length_a   9.41244620
_cell_length_b   9.42835310
_cell_length_c   9.42563500
_cell_angle_alpha   129.14424776
_cell_angle_beta   129.18843983
_cell_angle_gamma   74.65619930
_symmetry_Int_Tables_number   1
_chemical_formula_structural   Ca8DyEr(Sn3H)2
_chemical_formula_sum   'Ca8 Dy1 Er1 Sn6 H2'
_cell_volume   490.10730795
_cell_formula_units_Z   1
loop_
 _symmetry_equiv_pos_site_id
 _symmetry_equiv_pos_as_xyz
  1  'x, y, z'
loop_
 _atom_site_type_symbol
 _atom_site_label
 _atom_site_symmetry_multiplicity
 _atom_site_fract_x
 _atom_site_fract_y
 _atom_site_fract_z
 _atom_site_occupancy
  Ca  Ca0  1  0.497803  0.500987  0.000463  1
  Ca  Ca1  1  0.185474  0.685011  0.173849  1
  Ca  Ca2  1  0.008623  0.186706  0.499959  1
  Ca  Ca3  1  0.684974  0.507288  0.497488  1
  Ca  Ca4  1  0.489674  0.989509  0.177495  1
  Ca  Ca5  1  0.812149  0.312096  0.821971  1
  Ca  Ca6  1  0.989041  0.813033  0.499604  1
  Ca  Ca7  1  0.312448  0.488848  0.499360  1
  Dy  Dy8  1  0.516032  0.014050  0.826195  1
  Er  Er9  1  0.001606  0.997274  0.000161  1
  Sn  Sn10  1  0.251370  0.240420  0.995068  1
  Sn  Sn11  1  0.747702  0.760698  0.994785  1
  Sn  Sn12  1  0.871511  0.362144  0.234597  1
  Sn  Sn13  1  0.121410  0.631734  0.755016  1
  Sn  Sn14  1  0.364838  0.123573  0.495038  1
  Sn  Sn15  1  0.633078  0.873851  0.512154  1
  H  H16  1  0.262581  0.762790  0.514399  1
  H  H17  1  0.749683  0.249988  0.502397  1
