# generated using pymatgen
data_KBa3O8
_symmetry_space_group_name_H-M   'P 1'
_cell_length_a   5.46923945
_cell_length_b   4.42523711
_cell_length_c   8.85101666
_cell_angle_alpha   77.31830446
_cell_angle_beta   90.09234808
_cell_angle_gamma   90.03236421
_symmetry_Int_Tables_number   1
_chemical_formula_structural   KBa3O8
_chemical_formula_sum   'K1 Ba3 O8'
_cell_volume   208.99214542
_cell_formula_units_Z   1
loop_
 _symmetry_equiv_pos_site_id
 _symmetry_equiv_pos_as_xyz
  1  'x, y, z'
loop_
 _atom_site_type_symbol
 _atom_site_label
 _atom_site_symmetry_multiplicity
 _atom_site_fract_x
 _atom_site_fract_y
 _atom_site_fract_z
 _atom_site_occupancy
  K  K0  1  0.749688  0.749546  0.124169  1
  Ba  Ba1  1  0.750355  0.750989  0.624590  1
  Ba  Ba2  1  0.251329  0.238892  0.880205  1
  Ba  Ba3  1  0.248816  0.261097  0.370242  1
  O  O4  1  0.249255  0.639341  0.572592  1
  O  O5  1  0.752280  0.363014  0.920849  1
  O  O6  1  0.748384  0.350173  0.433527  1
  O  O7  1  0.252067  0.645808  0.072848  1
  O  O8  1  0.751575  0.154405  0.814187  1
  O  O9  1  0.251539  0.858046  0.679001  1
  O  O10  1  0.246682  0.853258  0.178020  1
  O  O11  1  0.748030  0.135430  0.329771  1
