# generated using pymatgen
data_LiIrOF4
_symmetry_space_group_name_H-M   'P 1'
_cell_length_a   5.67852338
_cell_length_b   5.87246234
_cell_length_c   7.20039458
_cell_angle_alpha   104.95396462
_cell_angle_beta   100.23221014
_cell_angle_gamma   108.48885749
_symmetry_Int_Tables_number   1
_chemical_formula_structural   LiIrOF4
_chemical_formula_sum   'Li2 Ir2 O2 F8'
_cell_volume   211.00013729
_cell_formula_units_Z   2
loop_
 _symmetry_equiv_pos_site_id
 _symmetry_equiv_pos_as_xyz
  1  'x, y, z'
loop_
 _atom_site_type_symbol
 _atom_site_label
 _atom_site_symmetry_multiplicity
 _atom_site_fract_x
 _atom_site_fract_y
 _atom_site_fract_z
 _atom_site_occupancy
  Li  Li0  1  0.693154  0.327979  0.751206  1
  Li  Li1  1  0.306846  0.672021  0.248794  1
  Ir  Ir2  1  0.000000  0.000000  0.000000  1
  Ir  Ir3  1  0.000000  0.000000  0.500000  1
  O  O4  1  0.956107  0.027559  0.249664  1
  O  O5  1  0.043893  0.972441  0.750336  1
  F  F6  1  0.748918  0.155391  0.937982  1
  F  F7  1  0.053646  0.683285  0.389067  1
  F  F8  1  0.723827  0.657934  0.891335  1
  F  F9  1  0.373188  0.187434  0.555088  1
  F  F10  1  0.626812  0.812566  0.444912  1
  F  F11  1  0.276173  0.342066  0.108665  1
  F  F12  1  0.946354  0.316715  0.610933  1
  F  F13  1  0.251082  0.844609  0.062018  1
