# generated using pymatgen
data_Nd20Si15Ru
_symmetry_space_group_name_H-M   'P 1'
_cell_length_a   7.79762655
_cell_length_b   7.94173585
_cell_length_c   15.14774653
_cell_angle_alpha   89.80634755
_cell_angle_beta   89.70895497
_cell_angle_gamma   89.90853181
_symmetry_Int_Tables_number   1
_chemical_formula_structural   Nd20Si15Ru
_chemical_formula_sum   'Nd20 Si15 Ru1'
_cell_volume   938.03117876
_cell_formula_units_Z   1
loop_
 _symmetry_equiv_pos_site_id
 _symmetry_equiv_pos_as_xyz
  1  'x, y, z'
loop_
 _atom_site_type_symbol
 _atom_site_label
 _atom_site_symmetry_multiplicity
 _atom_site_fract_x
 _atom_site_fract_y
 _atom_site_fract_z
 _atom_site_occupancy
  Nd  Nd0  1  0.134635  0.510654  0.747528  1
  Nd  Nd1  1  0.811937  0.333527  0.614056  1
  Nd  Nd2  1  0.458657  0.685976  0.898593  1
  Nd  Nd3  1  0.958663  0.814416  0.898713  1
  Nd  Nd4  1  0.186282  0.682179  0.121205  1
  Nd  Nd5  1  0.690673  0.818099  0.121073  1
  Nd  Nd6  1  0.309384  0.180182  0.878043  1
  Nd  Nd7  1  0.185784  0.678826  0.379624  1
  Nd  Nd8  1  0.042871  0.187953  0.102940  1
  Nd  Nd9  1  0.313307  0.180465  0.622032  1
  Nd  Nd10  1  0.858219  0.491184  0.260427  1
  Nd  Nd11  1  0.364810  0.008301  0.254650  1
  Nd  Nd12  1  0.538041  0.317626  0.398876  1
  Nd  Nd13  1  0.810397  0.316760  0.878456  1
  Nd  Nd14  1  0.961133  0.811017  0.598180  1
  Nd  Nd15  1  0.463031  0.685141  0.600494  1
  Nd  Nd16  1  0.038592  0.190630  0.401177  1
  Nd  Nd17  1  0.696125  0.809190  0.384654  1
  Nd  Nd18  1  0.640944  0.993122  0.748129  1
  Nd  Nd19  1  0.543649  0.311981  0.102985  1
  Si  Si20  1  0.478857  0.602841  0.245676  1
  Si  Si21  1  0.251639  0.378563  0.247457  1
  Si  Si22  1  0.516965  0.400614  0.751288  1
  Si  Si23  1  0.632289  0.025953  0.959177  1
  Si  Si24  1  0.017654  0.101361  0.748696  1
  Si  Si25  1  0.745765  0.621757  0.750732  1
  Si  Si26  1  0.750067  0.119645  0.247568  1
  Si  Si27  1  0.365028  0.970595  0.460956  1
  Si  Si28  1  0.981948  0.902625  0.248683  1
  Si  Si29  1  0.364562  0.974632  0.041120  1
  Si  Si30  1  0.633790  0.024472  0.541839  1
  Si  Si31  1  0.133908  0.474473  0.958563  1
  Si  Si32  1  0.143701  0.474582  0.540225  1
  Si  Si33  1  0.866261  0.525353  0.039392  1
  Si  Si34  1  0.248172  0.878198  0.750899  1
  Ru  Ru35  1  0.862264  0.517107  0.455895  1
