# generated using pymatgen
data_Gd3Mg3Ag2Pd
_symmetry_space_group_name_H-M   'P 1'
_cell_length_a   7.91135800
_cell_length_b   7.91135626
_cell_length_c   3.84942800
_cell_angle_alpha   90.00000000
_cell_angle_beta   90.00000000
_cell_angle_gamma   120.00000727
_symmetry_Int_Tables_number   1
_chemical_formula_structural   Gd3Mg3Ag2Pd
_chemical_formula_sum   'Gd3 Mg3 Ag2 Pd1'
_cell_volume   208.65499235
_cell_formula_units_Z   1
loop_
 _symmetry_equiv_pos_site_id
 _symmetry_equiv_pos_as_xyz
  1  'x, y, z'
loop_
 _atom_site_type_symbol
 _atom_site_label
 _atom_site_symmetry_multiplicity
 _atom_site_fract_x
 _atom_site_fract_y
 _atom_site_fract_z
 _atom_site_occupancy
  Gd  Gd0  1  0.401094  0.418364  0.500000  1
  Gd  Gd1  1  0.017270  0.598906  0.500000  1
  Gd  Gd2  1  0.581636  0.982730  0.500000  1
  Mg  Mg3  1  0.747242  0.743380  0.000000  1
  Mg  Mg4  1  0.256620  0.003862  0.000000  1
  Mg  Mg5  1  0.996138  0.252758  0.000000  1
  Ag  Ag6  1  0.666667  0.333333  0.000000  1
  Ag  Ag7  1  0.000000  0.000000  0.500000  1
  Pd  Pd8  1  0.333333  0.666667  0.000000  1
