# generated using pymatgen
data_Er3Sc2In2Bi
_symmetry_space_group_name_H-M   'P 1'
_cell_length_a   8.83469066
_cell_length_b   8.79241856
_cell_length_c   6.32368900
_cell_angle_alpha   90.00000000
_cell_angle_beta   90.00000000
_cell_angle_gamma   119.84184671
_symmetry_Int_Tables_number   1
_chemical_formula_structural   Er3Sc2In2Bi
_chemical_formula_sum   'Er6 Sc4 In4 Bi2'
_cell_volume   426.07960820
_cell_formula_units_Z   2
loop_
 _symmetry_equiv_pos_site_id
 _symmetry_equiv_pos_as_xyz
  1  'x, y, z'
loop_
 _atom_site_type_symbol
 _atom_site_label
 _atom_site_symmetry_multiplicity
 _atom_site_fract_x
 _atom_site_fract_y
 _atom_site_fract_z
 _atom_site_occupancy
  Er  Er0  1  0.769684  0.762431  0.750000  1
  Er  Er1  1  0.230316  0.992747  0.750000  1
  Er  Er2  1  0.000000  0.238432  0.750000  1
  Er  Er3  1  0.235206  0.234798  0.250000  1
  Er  Er4  1  0.764794  0.999592  0.250000  1
  Er  Er5  1  0.000000  0.764130  0.250000  1
  Sc  Sc6  1  0.669726  0.336465  0.008323  1
  Sc  Sc7  1  0.330274  0.666740  0.008323  1
  Sc  Sc8  1  0.330274  0.666740  0.491677  1
  Sc  Sc9  1  0.669726  0.336465  0.491677  1
  In  In10  1  0.000000  0.593191  0.750000  1
  In  In11  1  0.597004  0.599079  0.250000  1
  In  In12  1  0.402996  0.002076  0.250000  1
  In  In13  1  0.000000  0.405473  0.250000  1
  Bi  Bi14  1  0.400785  0.401212  0.750000  1
  Bi  Bi15  1  0.599215  0.000427  0.750000  1
