# generated using pymatgen
data_HfZn(InRh2)2
_symmetry_space_group_name_H-M   'P 1'
_cell_length_a   6.25640902
_cell_length_b   6.26189803
_cell_length_c   6.66111304
_cell_angle_alpha   89.99959641
_cell_angle_beta   90.00015882
_cell_angle_gamma   89.99537580
_symmetry_Int_Tables_number   1
_chemical_formula_structural   HfZn(InRh2)2
_chemical_formula_sum   'Hf2 Zn2 In4 Rh8'
_cell_volume   260.96239338
_cell_formula_units_Z   2
loop_
 _symmetry_equiv_pos_site_id
 _symmetry_equiv_pos_as_xyz
  1  'x, y, z'
loop_
 _atom_site_type_symbol
 _atom_site_label
 _atom_site_symmetry_multiplicity
 _atom_site_fract_x
 _atom_site_fract_y
 _atom_site_fract_z
 _atom_site_occupancy
  Hf  Hf0  1  0.250008  0.749990  0.499997  1
  Hf  Hf1  1  0.749992  0.250010  0.500004  1
  Zn  Zn2  1  0.750026  0.249977  0.999996  1
  Zn  Zn3  1  0.249975  0.750023  0.000004  1
  In  In4  1  0.250013  0.250012  0.000005  1
  In  In5  1  0.749988  0.749988  0.999995  1
  In  In6  1  0.750011  0.749995  0.500005  1
  In  In7  1  0.249989  0.250005  0.499995  1
  Rh  Rh8  1  0.000002  0.999997  0.245743  1
  Rh  Rh9  1  0.000003  0.500007  0.245719  1
  Rh  Rh10  1  0.500017  0.499986  0.245709  1
  Rh  Rh11  1  0.500013  0.999998  0.245752  1
  Rh  Rh12  1  0.499987  0.000002  0.754248  1
  Rh  Rh13  1  0.499984  0.500014  0.754290  1
  Rh  Rh14  1  0.999997  0.499993  0.754281  1
  Rh  Rh15  1  0.999998  0.000003  0.754257  1
