# generated using pymatgen
data_La2TmCuSe5
_symmetry_space_group_name_H-M   'P 1'
_cell_length_a   12.19179800
_cell_length_b   4.13001700
_cell_length_c   17.84491500
_cell_angle_alpha   90.00000000
_cell_angle_beta   90.00000000
_cell_angle_gamma   90.00000000
_symmetry_Int_Tables_number   1
_chemical_formula_structural   La2TmCuSe5
_chemical_formula_sum   'La8 Tm4 Cu4 Se20'
_cell_volume   898.53310245
_cell_formula_units_Z   4
loop_
 _symmetry_equiv_pos_site_id
 _symmetry_equiv_pos_as_xyz
  1  'x, y, z'
loop_
 _atom_site_type_symbol
 _atom_site_label
 _atom_site_symmetry_multiplicity
 _atom_site_fract_x
 _atom_site_fract_y
 _atom_site_fract_z
 _atom_site_occupancy
  La  La0  1  0.361954  0.250000  0.103005  1
  La  La1  1  0.012534  0.250000  0.174965  1
  La  La2  1  0.512534  0.250000  0.325036  1
  La  La3  1  0.861953  0.250000  0.396995  1
  La  La4  1  0.138047  0.749999  0.603005  1
  La  La5  1  0.487466  0.749999  0.674965  1
  La  La6  1  0.987466  0.749999  0.825036  1
  La  La7  1  0.638046  0.749999  0.896995  1
  Tm  Tm8  1  0.698947  0.749999  0.135522  1
  Tm  Tm9  1  0.198947  0.749999  0.364479  1
  Tm  Tm10  1  0.801053  0.250000  0.635522  1
  Tm  Tm11  1  0.301053  0.250000  0.864479  1
  Cu  Cu12  1  0.825015  0.250000  0.020056  1
  Cu  Cu13  1  0.325014  0.250000  0.479944  1
  Cu  Cu14  1  0.674986  0.749999  0.520056  1
  Cu  Cu15  1  0.174986  0.749999  0.979944  1
  Se  Se16  1  0.616250  0.250000  0.033641  1
  Se  Se17  1  0.905155  0.749999  0.070932  1
  Se  Se18  1  0.182639  0.749999  0.115290  1
  Se  Se19  1  0.486835  0.749999  0.197956  1
  Se  Se20  1  0.759584  0.250000  0.230644  1
  Se  Se21  1  0.259583  0.250000  0.269356  1
  Se  Se22  1  0.986834  0.749999  0.302044  1
  Se  Se23  1  0.682639  0.749999  0.384710  1
  Se  Se24  1  0.405155  0.749999  0.429068  1
  Se  Se25  1  0.116250  0.250000  0.466358  1
  Se  Se26  1  0.883750  0.749999  0.533641  1
  Se  Se27  1  0.594845  0.250000  0.570932  1
  Se  Se28  1  0.317362  0.250000  0.615290  1
  Se  Se29  1  0.013166  0.250000  0.697957  1
  Se  Se30  1  0.740417  0.749999  0.730644  1
  Se  Se31  1  0.240416  0.749999  0.769356  1
  Se  Se32  1  0.513165  0.250000  0.802044  1
  Se  Se33  1  0.817361  0.250000  0.884710  1
  Se  Se34  1  0.094845  0.250000  0.929068  1
  Se  Se35  1  0.383750  0.749999  0.966358  1
