# generated using pymatgen
data_Er3Ga2Co7(NiB2)2
_symmetry_space_group_name_H-M   'P 1'
_cell_length_a   5.10650342
_cell_length_b   5.10650427
_cell_length_c   9.55925000
_cell_angle_alpha   90.00000000
_cell_angle_beta   90.00000000
_cell_angle_gamma   119.41994382
_symmetry_Int_Tables_number   1
_chemical_formula_structural   Er3Ga2Co7(NiB2)2
_chemical_formula_sum   'Er3 Ga2 Co7 Ni2 B4'
_cell_volume   217.12542568
_cell_formula_units_Z   1
loop_
 _symmetry_equiv_pos_site_id
 _symmetry_equiv_pos_as_xyz
  1  'x, y, z'
loop_
 _atom_site_type_symbol
 _atom_site_label
 _atom_site_symmetry_multiplicity
 _atom_site_fract_x
 _atom_site_fract_y
 _atom_site_fract_z
 _atom_site_occupancy
  Er  Er0  1  0.000000  0.000000  0.000000  1
  Er  Er1  1  0.000000  0.000000  0.658858  1
  Er  Er2  1  0.000000  0.000000  0.341142  1
  Ga  Ga3  1  0.670033  0.329967  0.000000  1
  Ga  Ga4  1  0.329967  0.670033  0.000000  1
  Co  Co5  1  0.500000  0.500000  0.500000  1
  Co  Co6  1  0.500000  0.000000  0.500000  1
  Co  Co7  1  0.000000  0.500000  0.500000  1
  Co  Co8  1  0.500000  0.000000  0.791424  1
  Co  Co9  1  0.000000  0.500000  0.791424  1
  Co  Co10  1  0.500000  0.000000  0.208576  1
  Co  Co11  1  0.000000  0.500000  0.208576  1
  Ni  Ni12  1  0.500000  0.500000  0.792672  1
  Ni  Ni13  1  0.500000  0.500000  0.207328  1
  B  B14  1  0.670123  0.329877  0.649318  1
  B  B15  1  0.329877  0.670123  0.649318  1
  B  B16  1  0.329877  0.670123  0.350682  1
  B  B17  1  0.670123  0.329877  0.350682  1
