# generated using pymatgen
data_Dy20IrOsPt10
_symmetry_space_group_name_H-M   'P 1'
_cell_length_a   11.01760200
_cell_length_b   11.01760200
_cell_length_c   6.46113600
_cell_angle_alpha   90.00000000
_cell_angle_beta   90.00000000
_cell_angle_gamma   90.00000000
_symmetry_Int_Tables_number   1
_chemical_formula_structural   Dy20IrOsPt10
_chemical_formula_sum   'Dy20 Ir1 Os1 Pt10'
_cell_volume   784.30149401
_cell_formula_units_Z   1
loop_
 _symmetry_equiv_pos_site_id
 _symmetry_equiv_pos_as_xyz
  1  'x, y, z'
loop_
 _atom_site_type_symbol
 _atom_site_label
 _atom_site_symmetry_multiplicity
 _atom_site_fract_x
 _atom_site_fract_y
 _atom_site_fract_z
 _atom_site_occupancy
  Dy  Dy0  1  0.292441  0.088832  0.376555  1
  Dy  Dy1  1  0.292657  0.911288  0.876545  1
  Dy  Dy2  1  0.707343  0.088712  0.876545  1
  Dy  Dy3  1  0.707559  0.911168  0.376555  1
  Dy  Dy4  1  0.588712  0.792657  0.876545  1
  Dy  Dy5  1  0.588832  0.207559  0.376555  1
  Dy  Dy6  1  0.411168  0.792441  0.376555  1
  Dy  Dy7  1  0.411288  0.207343  0.876545  1
  Dy  Dy8  1  0.203291  0.412762  0.626308  1
  Dy  Dy9  1  0.203020  0.587125  0.122313  1
  Dy  Dy10  1  0.796980  0.412875  0.122313  1
  Dy  Dy11  1  0.796709  0.587238  0.626308  1
  Dy  Dy12  1  0.912875  0.703020  0.122313  1
  Dy  Dy13  1  0.912762  0.296709  0.626308  1
  Dy  Dy14  1  0.087238  0.703291  0.626308  1
  Dy  Dy15  1  0.087125  0.296980  0.122313  1
  Dy  Dy16  1  0.000000  0.000000  0.501271  1
  Dy  Dy17  1  0.000000  0.000000  0.001177  1
  Dy  Dy18  1  0.500000  0.500000  0.001177  1
  Dy  Dy19  1  0.500000  0.500000  0.501271  1
  Ir  Ir20  1  0.000000  0.500000  0.377377  1
  Os  Os21  1  0.000000  0.500000  0.875494  1
  Pt  Pt22  1  0.845485  0.152034  0.250062  1
  Pt  Pt23  1  0.845243  0.848011  0.749882  1
  Pt  Pt24  1  0.154757  0.151989  0.749882  1
  Pt  Pt25  1  0.154515  0.847966  0.250062  1
  Pt  Pt26  1  0.651989  0.345243  0.749882  1
  Pt  Pt27  1  0.652034  0.654515  0.250062  1
  Pt  Pt28  1  0.347966  0.345485  0.250062  1
  Pt  Pt29  1  0.348011  0.654757  0.749882  1
  Pt  Pt30  1  0.500000  0.000000  0.117769  1
  Pt  Pt31  1  0.500000  0.000000  0.617810  1
