# generated using pymatgen
data_TbPr4GdNb2O14
_symmetry_space_group_name_H-M   'P 1'
_cell_length_a   6.67406736
_cell_length_b   6.65483087
_cell_length_c   7.74221400
_cell_angle_alpha   90.00000000
_cell_angle_beta   90.00000000
_cell_angle_gamma   108.84900677
_symmetry_Int_Tables_number   1
_chemical_formula_structural   TbPr4GdNb2O14
_chemical_formula_sum   'Tb1 Pr4 Gd1 Nb2 O14'
_cell_volume   325.42824594
_cell_formula_units_Z   1
loop_
 _symmetry_equiv_pos_site_id
 _symmetry_equiv_pos_as_xyz
  1  'x, y, z'
loop_
 _atom_site_type_symbol
 _atom_site_label
 _atom_site_symmetry_multiplicity
 _atom_site_fract_x
 _atom_site_fract_y
 _atom_site_fract_z
 _atom_site_occupancy
  Tb  Tb0  1  0.997419  0.463993  0.750000  1
  Pr  Pr1  1  0.469864  0.470633  0.500540  1
  Pr  Pr2  1  0.469864  0.470633  0.999460  1
  Pr  Pr3  1  0.536567  0.995372  0.750000  1
  Pr  Pr4  1  0.995202  0.536015  0.250000  1
  Gd  Gd5  1  0.465833  0.997145  0.250000  1
  Nb  Nb6  1  0.997047  0.996415  0.500542  1
  Nb  Nb7  1  0.997047  0.996415  0.999458  1
  O  O8  1  0.694623  0.944443  0.460597  1
  O  O9  1  0.948397  0.695482  0.542206  1
  O  O10  1  0.694623  0.944443  0.039403  1
  O  O11  1  0.948397  0.695482  0.957794  1
  O  O12  1  0.323128  0.077263  0.523104  1
  O  O13  1  0.076210  0.324243  0.478660  1
  O  O14  1  0.323128  0.077263  0.976896  1
  O  O15  1  0.076210  0.324243  0.021340  1
  O  O16  1  0.356684  0.623120  0.750000  1
  O  O17  1  0.624554  0.359584  0.250000  1
  O  O18  1  0.643871  0.364647  0.750000  1
  O  O19  1  0.363506  0.641356  0.250000  1
  O  O20  1  0.937972  0.063706  0.750000  1
  O  O21  1  0.059857  0.938106  0.250000  1
