# generated using pymatgen
data_Sc8TiGa7Si9Mo11
_symmetry_space_group_name_H-M   'P 1'
_cell_length_a   6.60467555
_cell_length_b   6.77345691
_cell_length_c   13.15023533
_cell_angle_alpha   89.84171744
_cell_angle_beta   90.05120352
_cell_angle_gamma   89.98296114
_symmetry_Int_Tables_number   1
_chemical_formula_structural   Sc8TiGa7Si9Mo11
_chemical_formula_sum   'Sc8 Ti1 Ga7 Si9 Mo11'
_cell_volume   588.29280294
_cell_formula_units_Z   1
loop_
 _symmetry_equiv_pos_site_id
 _symmetry_equiv_pos_as_xyz
  1  'x, y, z'
loop_
 _atom_site_type_symbol
 _atom_site_label
 _atom_site_symmetry_multiplicity
 _atom_site_fract_x
 _atom_site_fract_y
 _atom_site_fract_z
 _atom_site_occupancy
  Sc  Sc0  1  0.491608  0.329261  0.097133  1
  Sc  Sc1  1  0.994571  0.172795  0.403607  1
  Sc  Sc2  1  0.500919  0.671592  0.596742  1
  Sc  Sc3  1  0.007496  0.829914  0.903163  1
  Sc  Sc4  1  0.506768  0.671657  0.902133  1
  Sc  Sc5  1  0.006213  0.827916  0.596817  1
  Sc  Sc6  1  0.490610  0.329479  0.405248  1
  Sc  Sc7  1  0.992321  0.170701  0.096702  1
  Ti  Ti8  1  0.840344  0.333094  0.630341  1
  Ga  Ga9  1  0.672546  0.040391  0.539522  1
  Ga  Ga10  1  0.174493  0.460631  0.959982  1
  Ga  Ga11  1  0.326751  0.958522  0.039489  1
  Ga  Ga12  1  0.826258  0.538561  0.460696  1
  Ga  Ga13  1  0.327970  0.959437  0.460410  1
  Ga  Ga14  1  0.826402  0.540638  0.039054  1
  Ga  Ga15  1  0.672733  0.040878  0.960341  1
  Si  Si16  1  0.171081  0.459962  0.539470  1
  Si  Si17  1  0.532603  0.381006  0.749606  1
  Si  Si18  1  0.036145  0.115583  0.750892  1
  Si  Si19  1  0.467296  0.617602  0.250556  1
  Si  Si20  1  0.968153  0.879297  0.251322  1
  Si  Si21  1  0.798229  0.644012  0.748935  1
  Si  Si22  1  0.304412  0.860170  0.749784  1
  Si  Si23  1  0.197531  0.356122  0.250327  1
  Si  Si24  1  0.698548  0.143218  0.250645  1
  Mo  Mo25  1  0.332141  0.164994  0.868417  1
  Mo  Mo26  1  0.166526  0.663279  0.132524  1
  Mo  Mo27  1  0.665984  0.835729  0.368299  1
  Mo  Mo28  1  0.169718  0.657842  0.372296  1
  Mo  Mo29  1  0.667813  0.836729  0.131545  1
  Mo  Mo30  1  0.837360  0.334796  0.866853  1
  Mo  Mo31  1  0.326676  0.171346  0.629033  1
  Mo  Mo32  1  0.665246  0.007111  0.750112  1
  Mo  Mo33  1  0.161041  0.497659  0.746883  1
  Mo  Mo34  1  0.338521  0.993319  0.250625  1
  Mo  Mo35  1  0.836972  0.504755  0.250494  1
