# generated using pymatgen
data_Ce2Gd6Be3Si12Pd
_symmetry_space_group_name_H-M   'P 1'
_cell_length_a   7.98139500
_cell_length_b   7.98139490
_cell_length_c   8.25841500
_cell_angle_alpha   90.00000000
_cell_angle_beta   90.00000000
_cell_angle_gamma   119.99999627
_symmetry_Int_Tables_number   1
_chemical_formula_structural   Ce2Gd6Be3Si12Pd
_chemical_formula_sum   'Ce2 Gd6 Be3 Si12 Pd1'
_cell_volume   455.60130031
_cell_formula_units_Z   1
loop_
 _symmetry_equiv_pos_site_id
 _symmetry_equiv_pos_as_xyz
  1  'x, y, z'
loop_
 _atom_site_type_symbol
 _atom_site_label
 _atom_site_symmetry_multiplicity
 _atom_site_fract_x
 _atom_site_fract_y
 _atom_site_fract_z
 _atom_site_occupancy
  Ce  Ce0  1  0.000000  0.000000  0.248844  1
  Ce  Ce1  1  0.000000  0.000000  0.751101  1
  Gd  Gd2  1  0.502054  0.004108  0.248419  1
  Gd  Gd3  1  0.501873  0.003747  0.751561  1
  Gd  Gd4  1  0.995892  0.497946  0.248419  1
  Gd  Gd5  1  0.996253  0.498127  0.751561  1
  Gd  Gd6  1  0.502054  0.497946  0.248419  1
  Gd  Gd7  1  0.501873  0.498127  0.751561  1
  Be  Be8  1  0.333333  0.666667  0.000611  1
  Be  Be9  1  0.666667  0.333333  0.999846  1
  Be  Be10  1  0.666667  0.333333  0.500042  1
  Si  Si11  1  0.172475  0.344950  0.999945  1
  Si  Si12  1  0.827425  0.654852  0.999932  1
  Si  Si13  1  0.655050  0.827525  0.999945  1
  Si  Si14  1  0.827984  0.655969  0.500075  1
  Si  Si15  1  0.345148  0.172575  0.999932  1
  Si  Si16  1  0.165274  0.330547  0.499983  1
  Si  Si17  1  0.172475  0.827525  0.999945  1
  Si  Si18  1  0.344031  0.172016  0.500075  1
  Si  Si19  1  0.827425  0.172575  0.999932  1
  Si  Si20  1  0.669453  0.834726  0.499983  1
  Si  Si21  1  0.827984  0.172016  0.500075  1
  Si  Si22  1  0.165274  0.834726  0.499983  1
  Pd  Pd23  1  0.333333  0.666667  0.499815  1
