# generated using pymatgen
data_La2Pr2CdIr
_symmetry_space_group_name_H-M   'P 1'
_cell_length_a   10.08054335
_cell_length_b   10.08054269
_cell_length_c   10.12455300
_cell_angle_alpha   59.85547616
_cell_angle_beta   59.85547834
_cell_angle_gamma   60.28905485
_symmetry_Int_Tables_number   1
_chemical_formula_structural   La2Pr2CdIr
_chemical_formula_sum   'La8 Pr8 Cd4 Ir4'
_cell_volume   727.46502262
_cell_formula_units_Z   4
loop_
 _symmetry_equiv_pos_site_id
 _symmetry_equiv_pos_as_xyz
  1  'x, y, z'
loop_
 _atom_site_type_symbol
 _atom_site_label
 _atom_site_symmetry_multiplicity
 _atom_site_fract_x
 _atom_site_fract_y
 _atom_site_fract_z
 _atom_site_occupancy
  La  La0  1  0.346971  0.346971  0.348165  1
  La  La1  1  0.346971  0.346971  0.957892  1
  La  La2  1  0.348165  0.957892  0.346971  1
  La  La3  1  0.957892  0.348165  0.346971  1
  La  La4  1  0.810247  0.189753  0.189753  1
  La  La5  1  0.189753  0.810247  0.810247  1
  La  La6  1  0.189753  0.810247  0.189753  1
  La  La7  1  0.810247  0.189753  0.810247  1
  Pr  Pr8  1  0.191624  0.191624  0.808376  1
  Pr  Pr9  1  0.808376  0.808376  0.191624  1
  Pr  Pr10  1  0.937686  0.562314  0.562314  1
  Pr  Pr11  1  0.562314  0.937686  0.937686  1
  Pr  Pr12  1  0.562314  0.937686  0.562314  1
  Pr  Pr13  1  0.937686  0.562314  0.937686  1
  Pr  Pr14  1  0.562280  0.562280  0.937720  1
  Pr  Pr15  1  0.937720  0.937720  0.562280  1
  Cd  Cd16  1  0.580282  0.580282  0.579146  1
  Cd  Cd17  1  0.580282  0.580282  0.260289  1
  Cd  Cd18  1  0.579146  0.260289  0.580282  1
  Cd  Cd19  1  0.260289  0.579146  0.580282  1
  Ir  Ir20  1  0.139808  0.139808  0.144423  1
  Ir  Ir21  1  0.139808  0.139808  0.575961  1
  Ir  Ir22  1  0.144423  0.575961  0.139808  1
  Ir  Ir23  1  0.575961  0.144423  0.139808  1
