# generated using pymatgen
data_La3Nd5(Ho3Si4)4
_symmetry_space_group_name_H-M   'P 1'
_cell_length_a   7.79132419
_cell_length_b   7.78912795
_cell_length_c   14.45352000
_cell_angle_alpha   90.00058847
_cell_angle_beta   90.03172426
_cell_angle_gamma   89.87361846
_symmetry_Int_Tables_number   1
_chemical_formula_structural   La3Nd5(Ho3Si4)4
_chemical_formula_sum   'La3 Nd5 Ho12 Si16'
_cell_volume   877.14747614
_cell_formula_units_Z   1
loop_
 _symmetry_equiv_pos_site_id
 _symmetry_equiv_pos_as_xyz
  1  'x, y, z'
loop_
 _atom_site_type_symbol
 _atom_site_label
 _atom_site_symmetry_multiplicity
 _atom_site_fract_x
 _atom_site_fract_y
 _atom_site_fract_z
 _atom_site_occupancy
  La  La0  1  0.638716  0.990598  0.456513  1
  La  La1  1  0.361029  0.008960  0.956961  1
  La  La2  1  0.990938  0.638449  0.543785  1
  Nd  Nd3  1  0.492253  0.862187  0.205605  1
  Nd  Nd4  1  0.507984  0.137921  0.706501  1
  Nd  Nd5  1  0.861878  0.491847  0.793784  1
  Nd  Nd6  1  0.138627  0.508483  0.293501  1
  Nd  Nd7  1  0.009413  0.362141  0.043400  1
  Ho  Ho8  1  0.490878  0.363410  0.124805  1
  Ho  Ho9  1  0.989451  0.138063  0.625896  1
  Ho  Ho10  1  0.862506  0.010448  0.874683  1
  Ho  Ho11  1  0.138049  0.989848  0.373923  1
  Ho  Ho12  1  0.508695  0.636470  0.625425  1
  Ho  Ho13  1  0.363262  0.490332  0.875273  1
  Ho  Ho14  1  0.636437  0.508866  0.374635  1
  Ho  Ho15  1  0.010111  0.862635  0.125336  1
  Ho  Ho16  1  0.315654  0.315404  0.500064  1
  Ho  Ho17  1  0.183471  0.816428  0.750356  1
  Ho  Ho18  1  0.816825  0.184040  0.249835  1
  Ho  Ho19  1  0.684603  0.684292  0.999980  1
  Si  Si20  1  0.287780  0.934118  0.561875  1
  Si  Si21  1  0.713216  0.067031  0.061598  1
  Si  Si22  1  0.933953  0.288159  0.438233  1
  Si  Si23  1  0.432897  0.211530  0.310826  1
  Si  Si24  1  0.566200  0.788848  0.811429  1
  Si  Si25  1  0.211120  0.433584  0.688901  1
  Si  Si26  1  0.789260  0.565687  0.188278  1
  Si  Si27  1  0.064998  0.710473  0.938577  1
  Si  Si28  1  0.797061  0.844525  0.692526  1
  Si  Si29  1  0.201727  0.156238  0.190878  1
  Si  Si30  1  0.844866  0.797055  0.307597  1
  Si  Si31  1  0.343642  0.700446  0.441371  1
  Si  Si32  1  0.657876  0.300353  0.941554  1
  Si  Si33  1  0.700323  0.343948  0.558997  1
  Si  Si34  1  0.298489  0.654861  0.058951  1
  Si  Si35  1  0.155809  0.202324  0.808146  1
