# generated using pymatgen
data_Pr7NdZn8AgRh7
_symmetry_space_group_name_H-M   'P 1'
_cell_length_a   4.02491500
_cell_length_b   7.43217140
_cell_length_c   16.81714588
_cell_angle_alpha   90.24210594
_cell_angle_beta   90.00000000
_cell_angle_gamma   90.00000000
_symmetry_Int_Tables_number   1
_chemical_formula_structural   Pr7NdZn8AgRh7
_chemical_formula_sum   'Pr7 Nd1 Zn8 Ag1 Rh7'
_cell_volume   503.06122534
_cell_formula_units_Z   1
loop_
 _symmetry_equiv_pos_site_id
 _symmetry_equiv_pos_as_xyz
  1  'x, y, z'
loop_
 _atom_site_type_symbol
 _atom_site_label
 _atom_site_symmetry_multiplicity
 _atom_site_fract_x
 _atom_site_fract_y
 _atom_site_fract_z
 _atom_site_occupancy
  Pr  Pr0  1  0.250000  0.169778  0.939291  1
  Pr  Pr1  1  0.250000  0.665504  0.571636  1
  Pr  Pr2  1  0.750000  0.324559  0.440017  1
  Pr  Pr3  1  0.750000  0.959523  0.275755  1
  Pr  Pr4  1  0.750000  0.828613  0.059582  1
  Pr  Pr5  1  0.250000  0.052860  0.717515  1
  Pr  Pr6  1  0.250000  0.548596  0.787663  1
  Nd  Nd7  1  0.750000  0.447688  0.212585  1
  Zn  Zn8  1  0.750000  0.008713  0.566792  1
  Zn  Zn9  1  0.250000  0.613167  0.339491  1
  Zn  Zn10  1  0.750000  0.377370  0.653721  1
  Zn  Zn11  1  0.250000  0.498186  0.059540  1
  Zn  Zn12  1  0.750000  0.500575  0.940838  1
  Zn  Zn13  1  0.250000  0.006874  0.439733  1
  Zn  Zn14  1  0.250000  0.123535  0.147369  1
  Zn  Zn15  1  0.750000  0.878748  0.849623  1
  Ag  Ag16  1  0.750000  0.754469  0.432531  1
  Rh  Rh17  1  0.250000  0.244313  0.314479  1
  Rh  Rh18  1  0.750000  0.251703  0.814219  1
  Rh  Rh19  1  0.750000  0.756137  0.686743  1
  Rh  Rh20  1  0.250000  0.245147  0.565318  1
  Rh  Rh21  1  0.250000  0.745499  0.186643  1
  Rh  Rh22  1  0.750000  0.254985  0.064392  1
  Rh  Rh23  1  0.250000  0.743457  0.934523  1
