# generated using pymatgen
data_Zr6Ti4Ga5As
_symmetry_space_group_name_H-M   'P 1'
_cell_length_a   7.95610200
_cell_length_b   7.93495142
_cell_length_c   5.46677300
_cell_angle_alpha   90.00000000
_cell_angle_beta   90.00000000
_cell_angle_gamma   120.08821314
_symmetry_Int_Tables_number   1
_chemical_formula_structural   Zr6Ti4Ga5As
_chemical_formula_sum   'Zr6 Ti4 Ga5 As1'
_cell_volume   298.62045884
_cell_formula_units_Z   1
loop_
 _symmetry_equiv_pos_site_id
 _symmetry_equiv_pos_as_xyz
  1  'x, y, z'
loop_
 _atom_site_type_symbol
 _atom_site_label
 _atom_site_symmetry_multiplicity
 _atom_site_fract_x
 _atom_site_fract_y
 _atom_site_fract_z
 _atom_site_occupancy
  Zr  Zr0  1  0.248049  0.000000  0.250000  1
  Zr  Zr1  1  0.242403  0.245403  0.750000  1
  Zr  Zr2  1  0.996999  0.754597  0.750000  1
  Zr  Zr3  1  0.001703  0.245229  0.250000  1
  Zr  Zr4  1  0.756474  0.754771  0.250000  1
  Zr  Zr5  1  0.749486  0.000000  0.750000  1
  Ti  Ti6  1  0.667083  0.332048  0.999965  1
  Ti  Ti7  1  0.335035  0.667952  0.500035  1
  Ti  Ti8  1  0.667083  0.332048  0.500035  1
  Ti  Ti9  1  0.335035  0.667952  0.999965  1
  Ga  Ga10  1  0.394049  0.000000  0.750000  1
  Ga  Ga11  1  0.000890  0.599947  0.250000  1
  Ga  Ga12  1  0.000595  0.401474  0.750000  1
  Ga  Ga13  1  0.599122  0.598526  0.750000  1
  Ga  Ga14  1  0.400943  0.400053  0.250000  1
  As  As15  1  0.605050  0.000000  0.250000  1
