# generated using pymatgen
data_Sr8VMo3O16
_symmetry_space_group_name_H-M   'P 1'
_cell_length_a   5.69412670
_cell_length_b   5.69412674
_cell_length_c   12.74649803
_cell_angle_alpha   89.85008575
_cell_angle_beta   90.14991057
_cell_angle_gamma   89.51553121
_symmetry_Int_Tables_number   1
_chemical_formula_structural   Sr8VMo3O16
_chemical_formula_sum   'Sr8 V1 Mo3 O16'
_cell_volume   413.26308647
_cell_formula_units_Z   1
loop_
 _symmetry_equiv_pos_site_id
 _symmetry_equiv_pos_as_xyz
  1  'x, y, z'
loop_
 _atom_site_type_symbol
 _atom_site_label
 _atom_site_symmetry_multiplicity
 _atom_site_fract_x
 _atom_site_fract_y
 _atom_site_fract_z
 _atom_site_occupancy
  Sr  Sr0  1  0.263428  0.758313  0.104371  1
  Sr  Sr1  1  0.261201  0.238799  0.600346  1
  Sr  Sr2  1  0.739398  0.760602  0.597235  1
  Sr  Sr3  1  0.741687  0.236572  0.104371  1
  Sr  Sr4  1  0.758313  0.263428  0.395629  1
  Sr  Sr5  1  0.760602  0.739398  0.902765  1
  Sr  Sr6  1  0.238799  0.261201  0.899654  1
  Sr  Sr7  1  0.236572  0.741687  0.395629  1
  V  V8  1  0.750000  0.750000  0.250000  1
  Mo  Mo9  1  0.250000  0.750000  0.750000  1
  Mo  Mo10  1  0.250000  0.250000  0.250000  1
  Mo  Mo11  1  0.750000  0.250000  0.750000  1
  O  O12  1  0.280695  0.219305  0.089625  1
  O  O13  1  0.283095  0.784931  0.585440  1
  O  O14  1  0.499446  0.000554  0.780340  1
  O  O15  1  0.490136  0.009864  0.268002  1
  O  O16  1  0.499620  0.499620  0.750000  1
  O  O17  1  0.500944  0.500944  0.250000  1
  O  O18  1  0.715069  0.216905  0.585440  1
  O  O19  1  0.717949  0.782051  0.091103  1
  O  O20  1  0.784931  0.283095  0.914560  1
  O  O21  1  0.782051  0.717949  0.408897  1
  O  O22  1  0.999056  0.999056  0.250000  1
  O  O23  1  0.009864  0.490136  0.231998  1
  O  O24  1  0.000380  0.000380  0.750000  1
  O  O25  1  0.000554  0.499446  0.719660  1
  O  O26  1  0.216905  0.715069  0.914560  1
  O  O27  1  0.219305  0.280695  0.410375  1
