# generated using pymatgen
data_YLu2(Al3Ru)4
_symmetry_space_group_name_H-M   'P 1'
_cell_length_a   8.76444000
_cell_length_b   8.75078920
_cell_length_c   9.57570100
_cell_angle_alpha   90.00000000
_cell_angle_beta   90.00000000
_cell_angle_gamma   120.05161620
_symmetry_Int_Tables_number   1
_chemical_formula_structural   YLu2(Al3Ru)4
_chemical_formula_sum   'Y2 Lu4 Al24 Ru8'
_cell_volume   635.69161488
_cell_formula_units_Z   2
loop_
 _symmetry_equiv_pos_site_id
 _symmetry_equiv_pos_as_xyz
  1  'x, y, z'
loop_
 _atom_site_type_symbol
 _atom_site_label
 _atom_site_symmetry_multiplicity
 _atom_site_fract_x
 _atom_site_fract_y
 _atom_site_fract_z
 _atom_site_occupancy
  Y  Y0  1  0.193349  0.386696  0.250000  1
  Y  Y1  1  0.806651  0.613304  0.750000  1
  Lu  Lu2  1  0.610069  0.805320  0.250000  1
  Lu  Lu3  1  0.389931  0.194680  0.750000  1
  Lu  Lu4  1  0.195252  0.805320  0.250000  1
  Lu  Lu5  1  0.804748  0.194680  0.750000  1
  Al  Al6  1  0.333523  0.667046  0.019004  1
  Al  Al7  1  0.666477  0.332954  0.980996  1
  Al  Al8  1  0.666477  0.332954  0.519004  1
  Al  Al9  1  0.333523  0.667046  0.480996  1
  Al  Al10  1  0.162612  0.325224  0.578749  1
  Al  Al11  1  0.837388  0.674776  0.421251  1
  Al  Al12  1  0.674337  0.837615  0.577428  1
  Al  Al13  1  0.837388  0.674776  0.078749  1
  Al  Al14  1  0.325663  0.162385  0.422572  1
  Al  Al15  1  0.162612  0.325224  0.921251  1
  Al  Al16  1  0.163277  0.837615  0.577428  1
  Al  Al17  1  0.325663  0.162385  0.077428  1
  Al  Al18  1  0.836723  0.162385  0.422572  1
  Al  Al19  1  0.674337  0.837615  0.922572  1
  Al  Al20  1  0.836723  0.162385  0.077428  1
  Al  Al21  1  0.163277  0.837615  0.922572  1
  Al  Al22  1  0.561026  0.122050  0.250000  1
  Al  Al23  1  0.438974  0.877950  0.750000  1
  Al  Al24  1  0.876852  0.439244  0.250000  1
  Al  Al25  1  0.123148  0.560756  0.750000  1
  Al  Al26  1  0.562393  0.439244  0.250000  1
  Al  Al27  1  0.437607  0.560756  0.750000  1
  Al  Al28  1  0.998266  0.996533  0.250000  1
  Al  Al29  1  0.001734  0.003467  0.750000  1
  Ru  Ru30  1  0.500000  0.000000  0.000000  1
  Ru  Ru31  1  0.000000  0.500000  0.000000  1
  Ru  Ru32  1  0.500000  0.000000  0.500000  1
  Ru  Ru33  1  0.500000  0.500000  0.000000  1
  Ru  Ru34  1  0.000000  0.500000  0.500000  1
  Ru  Ru35  1  0.500000  0.500000  0.500000  1
  Ru  Ru36  1  0.000000  0.000000  0.000000  1
  Ru  Ru37  1  0.000000  0.000000  0.500000  1
