# generated using pymatgen
data_Ho4TlPt
_symmetry_space_group_name_H-M   'P 1'
_cell_length_a   9.68607251
_cell_length_b   9.68607223
_cell_length_c   9.68607200
_cell_angle_alpha   60.00000078
_cell_angle_beta   60.00000173
_cell_angle_gamma   60.00000218
_symmetry_Int_Tables_number   1
_chemical_formula_structural   Ho4TlPt
_chemical_formula_sum   'Ho16 Tl4 Pt4'
_cell_volume   642.58136906
_cell_formula_units_Z   4
loop_
 _symmetry_equiv_pos_site_id
 _symmetry_equiv_pos_as_xyz
  1  'x, y, z'
loop_
 _atom_site_type_symbol
 _atom_site_label
 _atom_site_symmetry_multiplicity
 _atom_site_fract_x
 _atom_site_fract_y
 _atom_site_fract_z
 _atom_site_occupancy
  Ho  Ho0  1  0.188188  0.188188  0.811812  1
  Ho  Ho1  1  0.601040  0.601040  0.196882  1
  Ho  Ho2  1  0.439378  0.060622  0.439378  1
  Ho  Ho3  1  0.439378  0.439378  0.060622  1
  Ho  Ho4  1  0.811812  0.188188  0.811812  1
  Ho  Ho5  1  0.188188  0.811812  0.188188  1
  Ho  Ho6  1  0.439378  0.060622  0.060622  1
  Ho  Ho7  1  0.188188  0.811812  0.811812  1
  Ho  Ho8  1  0.060622  0.439378  0.060622  1
  Ho  Ho9  1  0.811812  0.811812  0.188188  1
  Ho  Ho10  1  0.196882  0.601040  0.601040  1
  Ho  Ho11  1  0.060622  0.439378  0.439378  1
  Ho  Ho12  1  0.060622  0.060622  0.439378  1
  Ho  Ho13  1  0.811812  0.188188  0.188188  1
  Ho  Ho14  1  0.601040  0.196882  0.601040  1
  Ho  Ho15  1  0.601040  0.601040  0.601040  1
  Tl  Tl16  1  0.836160  0.836160  0.836160  1
  Tl  Tl17  1  0.836160  0.836160  0.491519  1
  Tl  Tl18  1  0.491519  0.836160  0.836160  1
  Tl  Tl19  1  0.836160  0.491519  0.836160  1
  Pt  Pt20  1  0.392939  0.821183  0.392939  1
  Pt  Pt21  1  0.392939  0.392939  0.392939  1
  Pt  Pt22  1  0.821183  0.392939  0.392939  1
  Pt  Pt23  1  0.392939  0.392939  0.821183  1
