# generated using pymatgen
data_Ti5VSe3S5
_symmetry_space_group_name_H-M   'P 1'
_cell_length_a   9.63144865
_cell_length_b   9.50660503
_cell_length_c   3.41806900
_cell_angle_alpha   90.00000000
_cell_angle_beta   90.00000000
_cell_angle_gamma   119.61289517
_symmetry_Int_Tables_number   1
_chemical_formula_structural   Ti5VSe3S5
_chemical_formula_sum   'Ti5 V1 Se3 S5'
_cell_volume   272.08800910
_cell_formula_units_Z   1
loop_
 _symmetry_equiv_pos_site_id
 _symmetry_equiv_pos_as_xyz
  1  'x, y, z'
loop_
 _atom_site_type_symbol
 _atom_site_label
 _atom_site_symmetry_multiplicity
 _atom_site_fract_x
 _atom_site_fract_y
 _atom_site_fract_z
 _atom_site_occupancy
  Ti  Ti0  1  0.496029  0.125257  0.249999  1
  Ti  Ti1  1  0.869287  0.362222  0.249999  1
  Ti  Ti2  1  0.636742  0.507382  0.249999  1
  Ti  Ti3  1  0.349244  0.492066  0.750001  1
  Ti  Ti4  1  0.141992  0.654165  0.750001  1
  V  V5  1  0.507209  0.859444  0.750001  1
  Se  Se6  1  0.706267  0.039145  0.249999  1
  Se  Se7  1  0.340894  0.290443  0.249999  1
  Se  Se8  1  0.951032  0.663554  0.249999  1
  S  S9  1  0.334495  0.671097  0.249999  1
  S  S10  1  0.667512  0.331924  0.750001  1
  S  S11  1  0.050463  0.365368  0.750001  1
  S  S12  1  0.631514  0.685841  0.750001  1
  S  S13  1  0.317323  0.952091  0.750001  1
