# generated using pymatgen
data_DySc4P12Ir10Ru9
_symmetry_space_group_name_H-M   'P 1'
_cell_length_a   12.57395298
_cell_length_b   12.47582839
_cell_length_c   3.92555800
_cell_angle_alpha   90.00000000
_cell_angle_beta   90.00000000
_cell_angle_gamma   119.96592200
_symmetry_Int_Tables_number   1
_chemical_formula_structural   DySc4P12Ir10Ru9
_chemical_formula_sum   'Dy1 Sc4 P12 Ir10 Ru9'
_cell_volume   533.48508926
_cell_formula_units_Z   1
loop_
 _symmetry_equiv_pos_site_id
 _symmetry_equiv_pos_as_xyz
  1  'x, y, z'
loop_
 _atom_site_type_symbol
 _atom_site_label
 _atom_site_symmetry_multiplicity
 _atom_site_fract_x
 _atom_site_fract_y
 _atom_site_fract_z
 _atom_site_occupancy
  Dy  Dy0  1  0.335276  0.667383  0.000000  1
  Sc  Sc1  1  0.666895  0.331276  0.000000  1
  Sc  Sc2  1  0.812347  0.001279  0.500000  1
  Sc  Sc3  1  0.183563  0.185390  0.500000  1
  Sc  Sc4  1  0.000174  0.815462  0.500000  1
  P  P5  1  0.634914  0.998854  0.000000  1
  P  P6  1  0.362433  0.367698  0.000000  1
  P  P7  1  0.001109  0.637853  0.000000  1
  P  P8  1  0.689537  0.517773  0.500000  1
  P  P9  1  0.828342  0.307072  0.500000  1
  P  P10  1  0.318283  0.835581  0.500000  1
  P  P11  1  0.519189  0.685417  0.500000  1
  P  P12  1  0.178425  0.002398  0.000000  1
  P  P13  1  0.822141  0.821915  0.000000  1
  P  P14  1  0.993244  0.177365  0.000000  1
  P  P15  1  0.480612  0.168807  0.500000  1
  P  P16  1  0.171056  0.479949  0.500000  1
  Ir  Ir17  1  0.629989  0.808841  0.000000  1
  Ir  Ir18  1  0.178837  0.371066  0.000000  1
  Ir  Ir19  1  0.371472  0.184393  0.000000  1
  Ir  Ir20  1  0.189285  0.819858  0.000000  1
  Ir  Ir21  1  0.810414  0.626515  0.000000  1
  Ir  Ir22  1  0.867267  0.504898  0.500000  1
  Ir  Ir23  1  0.495760  0.360757  0.500000  1
  Ir  Ir24  1  0.636405  0.130565  0.500000  1
  Ir  Ir25  1  0.131766  0.640962  0.500000  1
  Ir  Ir26  1  0.999973  0.000664  0.000000  1
  Ru  Ru27  1  0.360723  0.485327  0.500000  1
  Ru  Ru28  1  0.513142  0.870753  0.500000  1
  Ru  Ru29  1  0.717457  0.714724  0.500000  1
  Ru  Ru30  1  0.999021  0.284372  0.500000  1
  Ru  Ru31  1  0.449684  0.999350  0.000000  1
  Ru  Ru32  1  0.550867  0.547560  0.000000  1
  Ru  Ru33  1  0.000224  0.453589  0.000000  1
  Ru  Ru34  1  0.815614  0.192601  0.000000  1
  Ru  Ru35  1  0.284560  0.001734  0.500000  1
