# generated using pymatgen
data_RbFeAsO4
_symmetry_space_group_name_H-M   'P 1'
_cell_length_a   5.62290707
_cell_length_b   9.73375514
_cell_length_c   9.42142703
_cell_angle_alpha   90.00788946
_cell_angle_beta   90.00424633
_cell_angle_gamma   90.01748487
_symmetry_Int_Tables_number   1
_chemical_formula_structural   RbFeAsO4
_chemical_formula_sum   'Rb4 Fe4 As4 O16'
_cell_volume   515.65351922
_cell_formula_units_Z   4
loop_
 _symmetry_equiv_pos_site_id
 _symmetry_equiv_pos_as_xyz
  1  'x, y, z'
loop_
 _atom_site_type_symbol
 _atom_site_label
 _atom_site_symmetry_multiplicity
 _atom_site_fract_x
 _atom_site_fract_y
 _atom_site_fract_z
 _atom_site_occupancy
  Rb  Rb0  1  0.000840  0.793663  0.010119  1
  Rb  Rb1  1  0.500664  0.293732  0.489940  1
  Rb  Rb2  1  0.000800  0.706317  0.510172  1
  Rb  Rb3  1  0.500912  0.206373  0.989781  1
  Fe  Fe4  1  0.013833  0.410131  0.174789  1
  Fe  Fe5  1  0.514333  0.909837  0.325204  1
  Fe  Fe6  1  0.013713  0.090045  0.674401  1
  Fe  Fe7  1  0.514135  0.590129  0.825705  1
  As  As8  1  0.500032  0.580135  0.208151  1
  As  As9  1  0.000147  0.080176  0.291790  1
  As  As10  1  0.499898  0.919803  0.707971  1
  As  As11  1  0.999915  0.419905  0.791950  1
  O  O12  1  0.453729  0.617664  0.032489  1
  O  O13  1  0.673185  0.436467  0.236109  1
  O  O14  1  0.139528  0.218098  0.213628  1
  O  O15  1  0.225026  0.543259  0.282931  1
  O  O16  1  0.725119  0.043268  0.217064  1
  O  O17  1  0.639449  0.718076  0.286117  1
  O  O18  1  0.173203  0.936472  0.264140  1
  O  O19  1  0.953839  0.118106  0.467537  1
  O  O20  1  0.454300  0.881829  0.532234  1
  O  O21  1  0.672958  0.063605  0.735780  1
  O  O22  1  0.139172  0.281980  0.713856  1
  O  O23  1  0.224639  0.956599  0.782433  1
  O  O24  1  0.724705  0.456621  0.717376  1
  O  O25  1  0.638991  0.782070  0.786427  1
  O  O26  1  0.173036  0.563572  0.764150  1
  O  O27  1  0.953753  0.382063  0.967763  1
