# generated using pymatgen
data_Tm4Al17SiPtRh5
_symmetry_space_group_name_H-M   'P 1'
_cell_length_a   7.53487874
_cell_length_b   7.53594250
_cell_length_c   9.37056424
_cell_angle_alpha   89.98137373
_cell_angle_beta   89.96770697
_cell_angle_gamma   119.50151912
_symmetry_Int_Tables_number   1
_chemical_formula_structural   Tm4Al17SiPtRh5
_chemical_formula_sum   'Tm4 Al17 Si1 Pt1 Rh5'
_cell_volume   463.09455379
_cell_formula_units_Z   1
loop_
 _symmetry_equiv_pos_site_id
 _symmetry_equiv_pos_as_xyz
  1  'x, y, z'
loop_
 _atom_site_type_symbol
 _atom_site_label
 _atom_site_symmetry_multiplicity
 _atom_site_fract_x
 _atom_site_fract_y
 _atom_site_fract_z
 _atom_site_occupancy
  Tm  Tm0  1  0.992560  0.675377  0.250385  1
  Tm  Tm1  1  0.002936  0.328526  0.749944  1
  Tm  Tm2  1  0.677757  0.995269  0.250075  1
  Tm  Tm3  1  0.330508  0.005442  0.749717  1
  Al  Al4  1  0.875793  0.875008  0.749462  1
  Al  Al5  1  0.004546  0.337080  0.078976  1
  Al  Al6  1  0.003093  0.668880  0.923115  1
  Al  Al7  1  0.000736  0.665049  0.575441  1
  Al  Al8  1  0.336969  0.998880  0.422809  1
  Al  Al9  1  0.000681  0.336863  0.422397  1
  Al  Al10  1  0.665157  0.999206  0.575675  1
  Al  Al11  1  0.664882  0.995308  0.923068  1
  Al  Al12  1  0.333128  0.996563  0.078825  1
  Al  Al13  1  0.331224  0.331159  0.555743  1
  Al  Al14  1  0.665033  0.664984  0.448346  1
  Al  Al15  1  0.663981  0.667284  0.054625  1
  Al  Al16  1  0.328936  0.332418  0.941089  1
  Al  Al17  1  0.337516  0.553188  0.250646  1
  Al  Al18  1  0.661294  0.453796  0.746655  1
  Al  Al19  1  0.547131  0.336684  0.253442  1
  Al  Al20  1  0.448958  0.660792  0.749445  1
  Si  Si21  1  0.130080  0.128637  0.250251  1
  Pt  Pt22  1  0.670983  0.325744  0.000366  1
  Rh  Rh23  1  0.326446  0.670232  0.000377  1
  Rh  Rh24  1  0.326616  0.670065  0.499740  1
  Rh  Rh25  1  0.670857  0.325897  0.499747  1
  Rh  Rh26  1  0.000952  0.001018  0.006696  1
  Rh  Rh27  1  0.001249  0.000652  0.492942  1
