# generated using pymatgen
data_TlCdGeSbO7
_symmetry_space_group_name_H-M   'P 1'
_cell_length_a   7.15650900
_cell_length_b   7.15650900
_cell_length_c   10.10122000
_cell_angle_alpha   90.00000000
_cell_angle_beta   90.00000000
_cell_angle_gamma   90.00000000
_symmetry_Int_Tables_number   1
_chemical_formula_structural   TlCdGeSbO7
_chemical_formula_sum   'Tl4 Cd4 Ge4 Sb4 O28'
_cell_volume   517.34025584
_cell_formula_units_Z   4
loop_
 _symmetry_equiv_pos_site_id
 _symmetry_equiv_pos_as_xyz
  1  'x, y, z'
loop_
 _atom_site_type_symbol
 _atom_site_label
 _atom_site_symmetry_multiplicity
 _atom_site_fract_x
 _atom_site_fract_y
 _atom_site_fract_z
 _atom_site_occupancy
  Tl  Tl0  1  0.000000  0.759952  0.000000  1
  Tl  Tl1  1  0.000000  0.240048  0.500000  1
  Tl  Tl2  1  0.240048  0.000000  0.250000  1
  Tl  Tl3  1  0.759952  0.000000  0.750000  1
  Cd  Cd4  1  0.500000  0.756792  0.000000  1
  Cd  Cd5  1  0.243208  0.500000  0.250000  1
  Cd  Cd6  1  0.500000  0.243208  0.500000  1
  Cd  Cd7  1  0.756792  0.500000  0.750000  1
  Ge  Ge8  1  0.753658  0.000000  0.250000  1
  Ge  Ge9  1  0.000000  0.753658  0.500000  1
  Ge  Ge10  1  0.246342  0.000000  0.750000  1
  Ge  Ge11  1  0.000000  0.246342  0.000000  1
  Sb  Sb12  1  0.246013  0.500000  0.750000  1
  Sb  Sb13  1  0.500000  0.753987  0.500000  1
  Sb  Sb14  1  0.500000  0.246013  0.000000  1
  Sb  Sb15  1  0.753987  0.500000  0.250000  1
  O  O16  1  0.243077  0.756923  0.125000  1
  O  O17  1  0.552221  0.952820  0.369852  1
  O  O18  1  0.753570  0.756508  0.174701  1
  O  O19  1  0.756923  0.243077  0.625000  1
  O  O20  1  0.945508  0.945508  0.375000  1
  O  O21  1  0.054492  0.054492  0.875000  1
  O  O22  1  0.047180  0.447779  0.880148  1
  O  O23  1  0.054492  0.945508  0.625000  1
  O  O24  1  0.243492  0.246430  0.075299  1
  O  O25  1  0.246430  0.243492  0.674701  1
  O  O26  1  0.243492  0.753570  0.424701  1
  O  O27  1  0.447779  0.952820  0.630148  1
  O  O28  1  0.447779  0.047180  0.869852  1
  O  O29  1  0.455873  0.455873  0.875000  1
  O  O30  1  0.544127  0.544127  0.375000  1
  O  O31  1  0.552221  0.047180  0.130148  1
  O  O32  1  0.544127  0.455873  0.125000  1
  O  O33  1  0.756508  0.753570  0.575299  1
  O  O34  1  0.753570  0.243492  0.325299  1
  O  O35  1  0.756923  0.756923  0.875000  1
  O  O36  1  0.756508  0.246430  0.924701  1
  O  O37  1  0.952820  0.552221  0.380148  1
  O  O38  1  0.945508  0.054492  0.125000  1
  O  O39  1  0.952820  0.447779  0.119852  1
  O  O40  1  0.047180  0.552221  0.619852  1
  O  O41  1  0.246430  0.756508  0.825299  1
  O  O42  1  0.243077  0.243077  0.375000  1
  O  O43  1  0.455873  0.544127  0.625000  1
