# generated using pymatgen
data_Nd3Al12PdRu3
_symmetry_space_group_name_H-M   'P 1'
_cell_length_a   8.90697049
_cell_length_b   8.90697181
_cell_length_c   9.66385800
_cell_angle_alpha   90.00000000
_cell_angle_beta   90.00000000
_cell_angle_gamma   119.23498628
_symmetry_Int_Tables_number   1
_chemical_formula_structural   Nd3Al12PdRu3
_chemical_formula_sum   'Nd6 Al24 Pd2 Ru6'
_cell_volume   669.01798320
_cell_formula_units_Z   2
loop_
 _symmetry_equiv_pos_site_id
 _symmetry_equiv_pos_as_xyz
  1  'x, y, z'
loop_
 _atom_site_type_symbol
 _atom_site_label
 _atom_site_symmetry_multiplicity
 _atom_site_fract_x
 _atom_site_fract_y
 _atom_site_fract_z
 _atom_site_occupancy
  Nd  Nd0  1  0.187135  0.382568  0.250000  1
  Nd  Nd1  1  0.812865  0.617432  0.750000  1
  Nd  Nd2  1  0.617432  0.812865  0.250000  1
  Nd  Nd3  1  0.382568  0.187135  0.750000  1
  Nd  Nd4  1  0.192236  0.807764  0.250000  1
  Nd  Nd5  1  0.807764  0.192236  0.750000  1
  Al  Al6  1  0.329652  0.670348  0.013296  1
  Al  Al7  1  0.670348  0.329652  0.986704  1
  Al  Al8  1  0.670348  0.329652  0.513296  1
  Al  Al9  1  0.329652  0.670348  0.486704  1
  Al  Al10  1  0.155860  0.322494  0.577238  1
  Al  Al11  1  0.844140  0.677506  0.422762  1
  Al  Al12  1  0.677506  0.844140  0.577238  1
  Al  Al13  1  0.844140  0.677506  0.077238  1
  Al  Al14  1  0.322494  0.155860  0.422762  1
  Al  Al15  1  0.155860  0.322494  0.922762  1
  Al  Al16  1  0.163079  0.836921  0.575746  1
  Al  Al17  1  0.322494  0.155860  0.077238  1
  Al  Al18  1  0.836921  0.163079  0.424254  1
  Al  Al19  1  0.677506  0.844140  0.922762  1
  Al  Al20  1  0.836921  0.163079  0.075746  1
  Al  Al21  1  0.163079  0.836921  0.924254  1
  Al  Al22  1  0.561584  0.124788  0.250000  1
  Al  Al23  1  0.438416  0.875212  0.750000  1
  Al  Al24  1  0.875212  0.438416  0.250000  1
  Al  Al25  1  0.124788  0.561584  0.750000  1
  Al  Al26  1  0.563853  0.436147  0.250000  1
  Al  Al27  1  0.436147  0.563853  0.750000  1
  Al  Al28  1  0.998776  0.001224  0.250000  1
  Al  Al29  1  0.001224  0.998776  0.750000  1
  Pd  Pd30  1  0.500000  0.500000  0.000000  1
  Pd  Pd31  1  0.500000  0.500000  0.500000  1
  Ru  Ru32  1  0.500000  0.000000  0.000000  1
  Ru  Ru33  1  0.000000  0.500000  0.000000  1
  Ru  Ru34  1  0.500000  0.000000  0.500000  1
  Ru  Ru35  1  0.000000  0.500000  0.500000  1
  Ru  Ru36  1  0.000000  0.000000  0.000000  1
  Ru  Ru37  1  0.000000  0.000000  0.500000  1
