# generated using pymatgen
data_Ho16MgIn3Ir3Pt
_symmetry_space_group_name_H-M   'P 1'
_cell_length_a   9.62774629
_cell_length_b   9.63662066
_cell_length_c   9.63662235
_cell_angle_alpha   60.16188052
_cell_angle_beta   60.06588783
_cell_angle_gamma   60.06588785
_symmetry_Int_Tables_number   1
_chemical_formula_structural   Ho16MgIn3Ir3Pt
_chemical_formula_sum   'Ho16 Mg1 In3 Ir3 Pt1'
_cell_volume   633.60792607
_cell_formula_units_Z   1
loop_
 _symmetry_equiv_pos_site_id
 _symmetry_equiv_pos_as_xyz
  1  'x, y, z'
loop_
 _atom_site_type_symbol
 _atom_site_label
 _atom_site_symmetry_multiplicity
 _atom_site_fract_x
 _atom_site_fract_y
 _atom_site_fract_z
 _atom_site_occupancy
  Ho  Ho0  1  0.438159  0.434448  0.062065  1
  Ho  Ho1  1  0.652218  0.647786  0.049498  1
  Ho  Ho2  1  0.185733  0.811750  0.192265  1
  Ho  Ho3  1  0.060545  0.440212  0.059512  1
  Ho  Ho4  1  0.188576  0.809003  0.809003  1
  Ho  Ho5  1  0.062020  0.436747  0.436747  1
  Ho  Ho6  1  0.812804  0.188293  0.188293  1
  Ho  Ho7  1  0.653627  0.650577  0.650577  1
  Ho  Ho8  1  0.809614  0.191681  0.808557  1
  Ho  Ho9  1  0.185733  0.192265  0.811750  1
  Ho  Ho10  1  0.045734  0.650801  0.650801  1
  Ho  Ho11  1  0.441000  0.060898  0.060898  1
  Ho  Ho12  1  0.060545  0.059512  0.440212  1
  Ho  Ho13  1  0.652218  0.049498  0.647786  1
  Ho  Ho14  1  0.809614  0.808557  0.191681  1
  Ho  Ho15  1  0.438159  0.062065  0.434448  1
  Mg  Mg16  1  0.421923  0.421921  0.421921  1
  In  In17  1  0.417004  0.417099  0.748588  1
  In  In18  1  0.417004  0.748588  0.417099  1
  In  In19  1  0.749014  0.416970  0.416970  1
  Ir  Ir20  1  0.857307  0.858405  0.858405  1
  Ir  Ir21  1  0.857997  0.424946  0.859338  1
  Ir  Ir22  1  0.857997  0.859338  0.424946  1
  Pt  Pt23  1  0.425455  0.858645  0.858645  1
