# generated using pymatgen
data_DyEr(GaRh)2
_symmetry_space_group_name_H-M   'P 1'
_cell_length_a   4.30590900
_cell_length_b   6.80609100
_cell_length_c   7.78398700
_cell_angle_alpha   90.00000000
_cell_angle_beta   90.00000000
_cell_angle_gamma   90.00000000
_symmetry_Int_Tables_number   1
_chemical_formula_structural   DyEr(GaRh)2
_chemical_formula_sum   'Dy2 Er2 Ga4 Rh4'
_cell_volume   228.12070272
_cell_formula_units_Z   2
loop_
 _symmetry_equiv_pos_site_id
 _symmetry_equiv_pos_as_xyz
  1  'x, y, z'
loop_
 _atom_site_type_symbol
 _atom_site_label
 _atom_site_symmetry_multiplicity
 _atom_site_fract_x
 _atom_site_fract_y
 _atom_site_fract_z
 _atom_site_occupancy
  Dy  Dy0  1  0.250000  0.974976  0.309560  1
  Dy  Dy1  1  0.250000  0.474976  0.190440  1
  Er  Er2  1  0.750000  0.024967  0.691847  1
  Er  Er3  1  0.750000  0.524967  0.808153  1
  Ga  Ga4  1  0.250000  0.341094  0.571734  1
  Ga  Ga5  1  0.250000  0.841094  0.928266  1
  Ga  Ga6  1  0.750000  0.659079  0.429409  1
  Ga  Ga7  1  0.750000  0.159079  0.070591  1
  Rh  Rh8  1  0.250000  0.231439  0.893080  1
  Rh  Rh9  1  0.250000  0.731439  0.606920  1
  Rh  Rh10  1  0.750000  0.768446  0.105417  1
  Rh  Rh11  1  0.750000  0.268446  0.394583  1
