# generated using pymatgen
data_Tb2Cr3Tc14C3
_symmetry_space_group_name_H-M   'P 1'
_cell_length_a   6.91751925
_cell_length_b   6.91751941
_cell_length_c   6.91751911
_cell_angle_alpha   82.46715794
_cell_angle_beta   82.46716102
_cell_angle_gamma   82.46715258
_symmetry_Int_Tables_number   1
_chemical_formula_structural   Tb2Cr3Tc14C3
_chemical_formula_sum   'Tb2 Cr3 Tc14 C3'
_cell_volume   323.13639462
_cell_formula_units_Z   1
loop_
 _symmetry_equiv_pos_site_id
 _symmetry_equiv_pos_as_xyz
  1  'x, y, z'
loop_
 _atom_site_type_symbol
 _atom_site_label
 _atom_site_symmetry_multiplicity
 _atom_site_fract_x
 _atom_site_fract_y
 _atom_site_fract_z
 _atom_site_occupancy
  Tb  Tb0  1  0.650614  0.650614  0.650614  1
  Tb  Tb1  1  0.349386  0.349386  0.349386  1
  Cr  Cr2  1  0.000000  0.000000  0.500000  1
  Cr  Cr3  1  0.500000  0.000000  0.000000  1
  Cr  Cr4  1  0.000000  0.500000  0.000000  1
  Tc  Tc5  1  0.722049  0.277951  0.000000  1
  Tc  Tc6  1  0.000000  0.722049  0.277951  1
  Tc  Tc7  1  0.277951  0.000000  0.722049  1
  Tc  Tc8  1  0.000000  0.277951  0.722049  1
  Tc  Tc9  1  0.722049  0.000000  0.277951  1
  Tc  Tc10  1  0.277951  0.722049  0.000000  1
  Tc  Tc11  1  0.344854  0.344854  0.866554  1
  Tc  Tc12  1  0.866554  0.344854  0.344854  1
  Tc  Tc13  1  0.344854  0.866554  0.344854  1
  Tc  Tc14  1  0.655146  0.655146  0.133446  1
  Tc  Tc15  1  0.133446  0.655146  0.655146  1
  Tc  Tc16  1  0.655146  0.133446  0.655146  1
  Tc  Tc17  1  0.900631  0.900631  0.900631  1
  Tc  Tc18  1  0.099369  0.099369  0.099369  1
  C  C19  1  0.500000  0.500000  0.000000  1
  C  C20  1  0.000000  0.500000  0.500000  1
  C  C21  1  0.500000  0.000000  0.500000  1
