# generated using pymatgen
data_Tb2NbIrRu2
_symmetry_space_group_name_H-M   'P 1'
_cell_length_a   5.68680413
_cell_length_b   5.68888085
_cell_length_c   8.15663000
_cell_angle_alpha   90.00000000
_cell_angle_beta   90.00000000
_cell_angle_gamma   120.01208689
_symmetry_Int_Tables_number   1
_chemical_formula_structural   Tb2NbIrRu2
_chemical_formula_sum   'Tb4 Nb2 Ir2 Ru4'
_cell_volume   228.49862632
_cell_formula_units_Z   2
loop_
 _symmetry_equiv_pos_site_id
 _symmetry_equiv_pos_as_xyz
  1  'x, y, z'
loop_
 _atom_site_type_symbol
 _atom_site_label
 _atom_site_symmetry_multiplicity
 _atom_site_fract_x
 _atom_site_fract_y
 _atom_site_fract_z
 _atom_site_occupancy
  Tb  Tb0  1  0.333303  0.666652  0.436461  1
  Tb  Tb1  1  0.666938  0.333468  0.559755  1
  Tb  Tb2  1  0.666938  0.333468  0.940245  1
  Tb  Tb3  1  0.333303  0.666652  0.063539  1
  Nb  Nb4  1  0.002979  0.001489  0.505483  1
  Nb  Nb5  1  0.002979  0.001489  0.994517  1
  Ir  Ir6  1  0.826084  0.169570  0.250000  1
  Ir  Ir7  1  0.826084  0.656513  0.250000  1
  Ru  Ru8  1  0.338601  0.169301  0.250000  1
  Ru  Ru9  1  0.174947  0.827255  0.750000  1
  Ru  Ru10  1  0.174947  0.347692  0.750000  1
  Ru  Ru11  1  0.652898  0.826449  0.750000  1
