# generated using pymatgen
data_HoCoAs3Rh4
_symmetry_space_group_name_H-M   'P 1'
_cell_length_a   3.92398300
_cell_length_b   11.27076000
_cell_length_c   12.83671200
_cell_angle_alpha   90.00000000
_cell_angle_beta   90.00000000
_cell_angle_gamma   90.00000000
_symmetry_Int_Tables_number   1
_chemical_formula_structural   HoCoAs3Rh4
_chemical_formula_sum   'Ho4 Co4 As12 Rh16'
_cell_volume   567.71989900
_cell_formula_units_Z   4
loop_
 _symmetry_equiv_pos_site_id
 _symmetry_equiv_pos_as_xyz
  1  'x, y, z'
loop_
 _atom_site_type_symbol
 _atom_site_label
 _atom_site_symmetry_multiplicity
 _atom_site_fract_x
 _atom_site_fract_y
 _atom_site_fract_z
 _atom_site_occupancy
  Ho  Ho0  1  0.250000  0.583765  0.706947  1
  Ho  Ho1  1  0.250000  0.916235  0.206947  1
  Ho  Ho2  1  0.750000  0.416235  0.293053  1
  Ho  Ho3  1  0.750000  0.083765  0.793053  1
  Co  Co4  1  0.250000  0.466306  0.932003  1
  Co  Co5  1  0.250000  0.033694  0.432003  1
  Co  Co6  1  0.750000  0.533694  0.067997  1
  Co  Co7  1  0.750000  0.966306  0.567997  1
  As  As8  1  0.250000  0.420749  0.106883  1
  As  As9  1  0.250000  0.079251  0.606883  1
  As  As10  1  0.750000  0.579251  0.893117  1
  As  As11  1  0.750000  0.920749  0.393117  1
  As  As12  1  0.250000  0.271481  0.872974  1
  As  As13  1  0.250000  0.228519  0.372974  1
  As  As14  1  0.750000  0.728519  0.127026  1
  As  As15  1  0.750000  0.771481  0.627026  1
  As  As16  1  0.250000  0.599720  0.388400  1
  As  As17  1  0.250000  0.900280  0.888400  1
  As  As18  1  0.750000  0.400280  0.611600  1
  As  As19  1  0.750000  0.099720  0.111600  1
  Rh  Rh20  1  0.250000  0.712133  0.988342  1
  Rh  Rh21  1  0.250000  0.787867  0.488342  1
  Rh  Rh22  1  0.750000  0.287867  0.011658  1
  Rh  Rh23  1  0.750000  0.212133  0.511658  1
  Rh  Rh24  1  0.250000  0.407962  0.479637  1
  Rh  Rh25  1  0.250000  0.092038  0.979637  1
  Rh  Rh26  1  0.750000  0.592038  0.520363  1
  Rh  Rh27  1  0.750000  0.907962  0.020363  1
  Rh  Rh28  1  0.250000  0.223818  0.178601  1
  Rh  Rh29  1  0.250000  0.276182  0.678601  1
  Rh  Rh30  1  0.750000  0.776182  0.821399  1
  Rh  Rh31  1  0.750000  0.723818  0.321399  1
  Rh  Rh32  1  0.250000  0.888368  0.697626  1
  Rh  Rh33  1  0.250000  0.611632  0.197626  1
  Rh  Rh34  1  0.750000  0.111632  0.302374  1
  Rh  Rh35  1  0.750000  0.388368  0.802374  1
