# generated using pymatgen
data_Tb7CeAlPt24
_symmetry_space_group_name_H-M   'P 1'
_cell_length_a   8.39198183
_cell_length_b   8.39198183
_cell_length_c   8.39198082
_cell_angle_alpha   89.96624082
_cell_angle_beta   90.03376050
_cell_angle_gamma   90.03376058
_symmetry_Int_Tables_number   1
_chemical_formula_structural   Tb7CeAlPt24
_chemical_formula_sum   'Tb7 Ce1 Al1 Pt24'
_cell_volume   591.00795460
_cell_formula_units_Z   1
loop_
 _symmetry_equiv_pos_site_id
 _symmetry_equiv_pos_as_xyz
  1  'x, y, z'
loop_
 _atom_site_type_symbol
 _atom_site_label
 _atom_site_symmetry_multiplicity
 _atom_site_fract_x
 _atom_site_fract_y
 _atom_site_fract_z
 _atom_site_occupancy
  Tb  Tb0  1  0.250839  0.251321  0.251321  1
  Tb  Tb1  1  0.748936  0.748565  0.748565  1
  Tb  Tb2  1  0.748679  0.749161  0.251321  1
  Tb  Tb3  1  0.748679  0.251321  0.749161  1
  Tb  Tb4  1  0.251435  0.251064  0.748565  1
  Tb  Tb5  1  0.251435  0.748565  0.251064  1
  Tb  Tb6  1  0.251361  0.748639  0.748639  1
  Ce  Ce7  1  0.747399  0.252601  0.252601  1
  Al  Al8  1  0.000554  0.999446  0.999446  1
  Pt  Pt9  1  0.260416  0.499744  0.999501  1
  Pt  Pt10  1  0.739372  0.499105  0.001135  1
  Pt  Pt11  1  0.998865  0.260628  0.499105  1
  Pt  Pt12  1  0.500895  0.260628  0.001135  1
  Pt  Pt13  1  0.000499  0.739584  0.499744  1
  Pt  Pt14  1  0.500256  0.739584  0.999501  1
  Pt  Pt15  1  0.500895  0.001135  0.260628  1
  Pt  Pt16  1  0.260416  0.999501  0.499744  1
  Pt  Pt17  1  0.500256  0.999501  0.739584  1
  Pt  Pt18  1  0.739372  0.001135  0.499105  1
  Pt  Pt19  1  0.998865  0.499105  0.260628  1
  Pt  Pt20  1  0.000499  0.499744  0.739584  1
  Pt  Pt21  1  0.252966  0.500128  0.500128  1
  Pt  Pt22  1  0.746526  0.499445  0.499445  1
  Pt  Pt23  1  0.500555  0.253474  0.499445  1
  Pt  Pt24  1  0.499872  0.747034  0.500128  1
  Pt  Pt25  1  0.500555  0.499445  0.253474  1
  Pt  Pt26  1  0.499872  0.500128  0.747034  1
  Pt  Pt27  1  0.291187  0.999880  0.999880  1
  Pt  Pt28  1  0.708787  0.000241  0.000241  1
  Pt  Pt29  1  0.999759  0.291213  0.000241  1
  Pt  Pt30  1  0.000120  0.708813  0.999880  1
  Pt  Pt31  1  0.999759  0.000241  0.291213  1
  Pt  Pt32  1  0.000120  0.999880  0.708813  1
