# generated using pymatgen
data_NdZn2SiAu
_symmetry_space_group_name_H-M   'P 1'
_cell_length_a   6.36178274
_cell_length_b   6.36178293
_cell_length_c   6.36178264
_cell_angle_alpha   141.78668208
_cell_angle_beta   141.78668449
_cell_angle_gamma   55.15025602
_symmetry_Int_Tables_number   1
_chemical_formula_structural   NdZn2SiAu
_chemical_formula_sum   'Nd1 Zn2 Si1 Au1'
_cell_volume   97.81242978
_cell_formula_units_Z   1
loop_
 _symmetry_equiv_pos_site_id
 _symmetry_equiv_pos_as_xyz
  1  'x, y, z'
loop_
 _atom_site_type_symbol
 _atom_site_label
 _atom_site_symmetry_multiplicity
 _atom_site_fract_x
 _atom_site_fract_y
 _atom_site_fract_z
 _atom_site_occupancy
  Nd  Nd0  1  0.020477  0.020477  0.000000  1
  Zn  Zn1  1  0.742644  0.242644  0.500000  1
  Zn  Zn2  1  0.242644  0.742644  0.500000  1
  Si  Si3  1  0.607167  0.607167  0.000000  1
  Au  Au4  1  0.387068  0.387068  0.000000  1
