# generated using pymatgen
data_TbYbGd2(Pt2O7)2
_symmetry_space_group_name_H-M   'P 1'
_cell_length_a   7.29922314
_cell_length_b   7.29378670
_cell_length_c   7.30510759
_cell_angle_alpha   60.01887725
_cell_angle_beta   60.02664447
_cell_angle_gamma   59.97534799
_symmetry_Int_Tables_number   1
_chemical_formula_structural   TbYbGd2(Pt2O7)2
_chemical_formula_sum   'Tb1 Yb1 Gd2 Pt4 O14'
_cell_volume   275.04870547
_cell_formula_units_Z   1
loop_
 _symmetry_equiv_pos_site_id
 _symmetry_equiv_pos_as_xyz
  1  'x, y, z'
loop_
 _atom_site_type_symbol
 _atom_site_label
 _atom_site_symmetry_multiplicity
 _atom_site_fract_x
 _atom_site_fract_y
 _atom_site_fract_z
 _atom_site_occupancy
  Tb  Tb0  1  0.625000  0.625000  0.125000  1
  Yb  Yb1  1  0.625000  0.125000  0.625000  1
  Gd  Gd2  1  0.625000  0.625000  0.625000  1
  Gd  Gd3  1  0.125000  0.625000  0.625000  1
  Pt  Pt4  1  0.125000  0.125000  0.125000  1
  Pt  Pt5  1  0.625000  0.125000  0.125000  1
  Pt  Pt6  1  0.125000  0.625000  0.125000  1
  Pt  Pt7  1  0.125000  0.125000  0.625000  1
  O  O8  1  0.037615  0.463081  0.461688  1
  O  O9  1  0.787222  0.786260  0.211692  1
  O  O10  1  0.788374  0.215603  0.207651  1
  O  O11  1  0.460968  0.036916  0.460505  1
  O  O12  1  0.035173  0.463740  0.038308  1
  O  O13  1  0.750450  0.746303  0.752798  1
  O  O14  1  0.041610  0.036916  0.460505  1
  O  O15  1  0.214827  0.786260  0.211692  1
  O  O16  1  0.208390  0.213084  0.789495  1
  O  O17  1  0.499550  0.503697  0.497202  1
  O  O18  1  0.789032  0.213084  0.789495  1
  O  O19  1  0.461626  0.034397  0.042349  1
  O  O20  1  0.462778  0.463740  0.038308  1
  O  O21  1  0.212385  0.786919  0.788312  1
