# generated using pymatgen
data_Ho7Er9(TmPb4)4
_symmetry_space_group_name_H-M   'P 1'
_cell_length_a   8.16010201
_cell_length_b   15.53551212
_cell_length_c   8.22502374
_cell_angle_alpha   90.00555057
_cell_angle_beta   89.87795003
_cell_angle_gamma   90.07418323
_symmetry_Int_Tables_number   1
_chemical_formula_structural   Ho7Er9(TmPb4)4
_chemical_formula_sum   'Ho7 Er9 Tm4 Pb16'
_cell_volume   1042.69423227
_cell_formula_units_Z   1
loop_
 _symmetry_equiv_pos_site_id
 _symmetry_equiv_pos_as_xyz
  1  'x, y, z'
loop_
 _atom_site_type_symbol
 _atom_site_label
 _atom_site_symmetry_multiplicity
 _atom_site_fract_x
 _atom_site_fract_y
 _atom_site_fract_z
 _atom_site_occupancy
  Ho  Ho0  1  0.963715  0.900199  0.823461  1
  Ho  Ho1  1  0.536482  0.099639  0.323694  1
  Ho  Ho2  1  0.036765  0.400252  0.176191  1
  Ho  Ho3  1  0.536845  0.400319  0.323912  1
  Ho  Ho4  1  0.036446  0.099597  0.176397  1
  Ho  Ho5  1  0.463795  0.900420  0.676360  1
  Ho  Ho6  1  0.963461  0.599737  0.823577  1
  Er  Er7  1  0.623052  0.621383  0.158420  1
  Er  Er8  1  0.123497  0.878633  0.341789  1
  Er  Er9  1  0.376733  0.121367  0.841750  1
  Er  Er10  1  0.877124  0.378755  0.658444  1
  Er  Er11  1  0.377194  0.378908  0.841486  1
  Er  Er12  1  0.876578  0.121292  0.658286  1
  Er  Er13  1  0.623298  0.878448  0.158195  1
  Er  Er14  1  0.123017  0.621325  0.341758  1
  Er  Er15  1  0.462416  0.599990  0.675665  1
  Tm  Tm16  1  0.791298  0.749778  0.495656  1
  Tm  Tm17  1  0.291533  0.749844  0.004527  1
  Tm  Tm18  1  0.208593  0.250108  0.504402  1
  Tm  Tm19  1  0.708512  0.250083  0.995531  1
  Pb  Pb20  1  0.718445  0.457318  0.966666  1
  Pb  Pb21  1  0.218088  0.042661  0.534107  1
  Pb  Pb22  1  0.282025  0.957150  0.033766  1
  Pb  Pb23  1  0.780817  0.542834  0.467102  1
  Pb  Pb24  1  0.281952  0.542918  0.033173  1
  Pb  Pb25  1  0.782093  0.957163  0.465956  1
  Pb  Pb26  1  0.718063  0.042595  0.966148  1
  Pb  Pb27  1  0.218598  0.457673  0.533924  1
  Pb  Pb28  1  0.428653  0.750019  0.373152  1
  Pb  Pb29  1  0.928836  0.750007  0.127238  1
  Pb  Pb30  1  0.571155  0.250085  0.627085  1
  Pb  Pb31  1  0.071098  0.250009  0.872667  1
  Pb  Pb32  1  0.651230  0.749584  0.845191  1
  Pb  Pb33  1  0.152074  0.749960  0.654209  1
  Pb  Pb34  1  0.348312  0.250044  0.154190  1
  Pb  Pb35  1  0.848208  0.249907  0.345925  1
