# generated using pymatgen
data_Tm4Fe5P12Ru8Rh7
_symmetry_space_group_name_H-M   'P 1'
_cell_length_a   3.81455300
_cell_length_b   10.59673464
_cell_length_c   12.29472306
_cell_angle_alpha   89.71332207
_cell_angle_beta   90.00000000
_cell_angle_gamma   90.00000000
_symmetry_Int_Tables_number   1
_chemical_formula_structural   Tm4Fe5P12Ru8Rh7
_chemical_formula_sum   'Tm4 Fe5 P12 Ru8 Rh7'
_cell_volume   496.96868831
_cell_formula_units_Z   1
loop_
 _symmetry_equiv_pos_site_id
 _symmetry_equiv_pos_as_xyz
  1  'x, y, z'
loop_
 _atom_site_type_symbol
 _atom_site_label
 _atom_site_symmetry_multiplicity
 _atom_site_fract_x
 _atom_site_fract_y
 _atom_site_fract_z
 _atom_site_occupancy
  Tm  Tm0  1  0.250000  0.576724  0.709936  1
  Tm  Tm1  1  0.250000  0.919472  0.206843  1
  Tm  Tm2  1  0.750000  0.415597  0.292349  1
  Tm  Tm3  1  0.750000  0.087366  0.792415  1
  Fe  Fe4  1  0.750000  0.382501  0.802112  1
  Fe  Fe5  1  0.250000  0.464678  0.934847  1
  Fe  Fe6  1  0.250000  0.036083  0.436518  1
  Fe  Fe7  1  0.750000  0.540761  0.062096  1
  Fe  Fe8  1  0.750000  0.959947  0.565197  1
  P  P9  1  0.250000  0.425702  0.106753  1
  P  P10  1  0.250000  0.076616  0.608383  1
  P  P11  1  0.750000  0.563245  0.886068  1
  P  P12  1  0.750000  0.926432  0.393144  1
  P  P13  1  0.250000  0.274576  0.865612  1
  P  P14  1  0.250000  0.231926  0.370120  1
  P  P15  1  0.750000  0.731244  0.128116  1
  P  P16  1  0.750000  0.767828  0.630740  1
  P  P17  1  0.250000  0.595129  0.391912  1
  P  P18  1  0.250000  0.904549  0.890852  1
  P  P19  1  0.750000  0.394584  0.617123  1
  P  P20  1  0.750000  0.107420  0.106371  1
  Ru  Ru21  1  0.250000  0.709865  0.987191  1
  Ru  Ru22  1  0.250000  0.790546  0.487195  1
  Ru  Ru23  1  0.750000  0.297862  0.010167  1
  Ru  Ru24  1  0.750000  0.205477  0.513983  1
  Ru  Ru25  1  0.250000  0.404247  0.485786  1
  Ru  Ru26  1  0.250000  0.097936  0.983209  1
  Ru  Ru27  1  0.250000  0.229733  0.176205  1
  Ru  Ru28  1  0.250000  0.273678  0.677924  1
  Rh  Rh29  1  0.750000  0.592717  0.519042  1
  Rh  Rh30  1  0.750000  0.907295  0.015802  1
  Rh  Rh31  1  0.750000  0.765726  0.822677  1
  Rh  Rh32  1  0.750000  0.730385  0.322181  1
  Rh  Rh33  1  0.250000  0.885511  0.701985  1
  Rh  Rh34  1  0.250000  0.614452  0.200723  1
  Rh  Rh35  1  0.750000  0.112185  0.298422  1
