# generated using pymatgen
data_La3Dy(Re2Si)8
_symmetry_space_group_name_H-M   'P 1'
_cell_length_a   4.17613500
_cell_length_b   7.34610122
_cell_length_c   15.59200124
_cell_angle_alpha   90.24641900
_cell_angle_beta   90.00000000
_cell_angle_gamma   90.00000000
_symmetry_Int_Tables_number   1
_chemical_formula_structural   La3Dy(Re2Si)8
_chemical_formula_sum   'La3 Dy1 Re16 Si8'
_cell_volume   478.33183035
_cell_formula_units_Z   1
loop_
 _symmetry_equiv_pos_site_id
 _symmetry_equiv_pos_as_xyz
  1  'x, y, z'
loop_
 _atom_site_type_symbol
 _atom_site_label
 _atom_site_symmetry_multiplicity
 _atom_site_fract_x
 _atom_site_fract_y
 _atom_site_fract_z
 _atom_site_occupancy
  La  La0  1  0.000000  0.422180  0.883604  1
  La  La1  1  0.500000  0.078667  0.379629  1
  La  La2  1  0.500000  0.918819  0.617927  1
  Dy  Dy3  1  0.000000  0.582403  0.118527  1
  Re  Re4  1  0.000000  0.146052  0.054158  1
  Re  Re5  1  0.000000  0.866327  0.951112  1
  Re  Re6  1  0.500000  0.634850  0.446717  1
  Re  Re7  1  0.500000  0.362567  0.551635  1
  Re  Re8  1  0.000000  0.729773  0.318342  1
  Re  Re9  1  0.000000  0.266274  0.680305  1
  Re  Re10  1  0.500000  0.237573  0.177294  1
  Re  Re11  1  0.500000  0.766963  0.822339  1
  Re  Re12  1  0.000000  0.431359  0.417450  1
  Re  Re13  1  0.000000  0.565003  0.580657  1
  Re  Re14  1  0.500000  0.934589  0.083441  1
  Re  Re15  1  0.500000  0.068681  0.921290  1
  Re  Re16  1  0.000000  0.986911  0.204193  1
  Re  Re17  1  0.000000  0.005718  0.794981  1
  Re  Re18  1  0.500000  0.492446  0.291536  1
  Re  Re19  1  0.500000  0.504643  0.707111  1
  Si  Si20  1  0.000000  0.822690  0.473714  1
  Si  Si21  1  0.000000  0.174801  0.524501  1
  Si  Si22  1  0.500000  0.334934  0.025588  1
  Si  Si23  1  0.500000  0.675854  0.978109  1
  Si  Si24  1  0.000000  0.294957  0.270019  1
  Si  Si25  1  0.000000  0.703491  0.726700  1
  Si  Si26  1  0.500000  0.788066  0.223858  1
  Si  Si27  1  0.500000  0.203412  0.775266  1
