# generated using pymatgen
data_TlCrCoF6
_symmetry_space_group_name_H-M   'P 1'
_cell_length_a   7.44749931
_cell_length_b   7.44750035
_cell_length_c   7.44750000
_cell_angle_alpha   121.11808655
_cell_angle_beta   120.04194180
_cell_angle_gamma   89.00085918
_symmetry_Int_Tables_number   1
_chemical_formula_structural   TlCrCoF6
_chemical_formula_sum   'Tl2 Cr2 Co2 F12'
_cell_volume   289.44881429
_cell_formula_units_Z   2
loop_
 _symmetry_equiv_pos_site_id
 _symmetry_equiv_pos_as_xyz
  1  'x, y, z'
loop_
 _atom_site_type_symbol
 _atom_site_label
 _atom_site_symmetry_multiplicity
 _atom_site_fract_x
 _atom_site_fract_y
 _atom_site_fract_z
 _atom_site_occupancy
  Tl  Tl0  1  0.365557  0.615557  0.750000  1
  Tl  Tl1  1  0.634443  0.384443  0.250000  1
  Cr  Cr2  1  0.000000  0.000000  0.000000  1
  Cr  Cr3  1  0.500000  0.000000  0.500000  1
  Co  Co4  1  0.000000  0.000000  0.500000  1
  Co  Co5  1  0.000000  0.500000  0.000000  1
  F  F6  1  0.309329  0.059329  0.250000  1
  F  F7  1  0.924482  0.674482  0.250000  1
  F  F8  1  0.332096  0.686762  0.263324  1
  F  F9  1  0.923436  0.068771  0.236676  1
  F  F10  1  0.332096  0.068771  0.645334  1
  F  F11  1  0.923436  0.686762  0.854666  1
  F  F12  1  0.690671  0.940671  0.750000  1
  F  F13  1  0.075518  0.325518  0.750000  1
  F  F14  1  0.667904  0.313238  0.736676  1
  F  F15  1  0.076564  0.931229  0.763324  1
  F  F16  1  0.667904  0.931229  0.354666  1
  F  F17  1  0.076564  0.313238  0.145334  1
