# generated using pymatgen
data_Hf5Zr3Fe7Si14Pt
_symmetry_space_group_name_H-M   'P 1'
_cell_length_a   9.51095264
_cell_length_b   9.50895019
_cell_length_c   9.50612141
_cell_angle_alpha   94.14264185
_cell_angle_beta   94.14449237
_cell_angle_gamma   148.48900987
_symmetry_Int_Tables_number   1
_chemical_formula_structural   Hf5Zr3Fe7Si14Pt
_chemical_formula_sum   'Hf5 Zr3 Fe7 Si14 Pt1'
_cell_volume   433.14464511
_cell_formula_units_Z   1
loop_
 _symmetry_equiv_pos_site_id
 _symmetry_equiv_pos_as_xyz
  1  'x, y, z'
loop_
 _atom_site_type_symbol
 _atom_site_label
 _atom_site_symmetry_multiplicity
 _atom_site_fract_x
 _atom_site_fract_y
 _atom_site_fract_z
 _atom_site_occupancy
  Hf  Hf0  1  0.698605  0.501539  0.195283  1
  Hf  Hf1  1  0.496039  0.695106  0.197243  1
  Hf  Hf2  1  0.498304  0.301650  0.804462  1
  Hf  Hf3  1  0.304836  0.503450  0.802458  1
  Hf  Hf4  1  0.862744  0.863898  0.724581  1
  Zr  Zr5  1  0.138015  0.861936  0.999867  1
  Zr  Zr6  1  0.862279  0.137543  0.999880  1
  Zr  Zr7  1  0.135357  0.136290  0.273907  1
  Fe  Fe8  1  0.905455  0.400191  0.802559  1
  Fe  Fe9  1  0.599726  0.094385  0.197506  1
  Fe  Fe10  1  0.101231  0.604295  0.209217  1
  Fe  Fe11  1  0.601638  0.399675  0.500816  1
  Fe  Fe12  1  0.395675  0.898578  0.790689  1
  Fe  Fe13  1  0.901724  0.098828  0.501172  1
  Fe  Fe14  1  0.392350  0.607685  0.500361  1
  Si  Si15  1  0.747564  0.747714  0.999263  1
  Si  Si16  1  0.251156  0.251381  0.998692  1
  Si  Si17  1  0.085861  0.496553  0.592802  1
  Si  Si18  1  0.544708  0.128539  0.597666  1
  Si  Si19  1  0.503421  0.913894  0.407294  1
  Si  Si20  1  0.871604  0.455631  0.402388  1
  Si  Si21  1  0.704943  0.004907  0.699349  1
  Si  Si22  1  0.985250  0.681672  0.705548  1
  Si  Si23  1  0.685593  0.692999  0.418966  1
  Si  Si24  1  0.289589  0.710244  0.999944  1
  Si  Si25  1  0.319048  0.014817  0.294914  1
  Si  Si26  1  0.710780  0.289107  0.999966  1
  Si  Si27  1  0.307824  0.315099  0.581403  1
  Si  Si28  1  0.994801  0.295459  0.301290  1
  Pt  Pt29  1  0.103877  0.896933  0.500514  1
