# generated using pymatgen
data_NaSc(TaS2)6
_symmetry_space_group_name_H-M   'P 1'
_cell_length_a   5.76481800
_cell_length_b   5.76481851
_cell_length_c   13.72610000
_cell_angle_alpha   90.00000000
_cell_angle_beta   90.00000000
_cell_angle_gamma   119.99998561
_symmetry_Int_Tables_number   1
_chemical_formula_structural   NaSc(TaS2)6
_chemical_formula_sum   'Na1 Sc1 Ta6 S12'
_cell_volume   395.04729567
_cell_formula_units_Z   1
loop_
 _symmetry_equiv_pos_site_id
 _symmetry_equiv_pos_as_xyz
  1  'x, y, z'
loop_
 _atom_site_type_symbol
 _atom_site_label
 _atom_site_symmetry_multiplicity
 _atom_site_fract_x
 _atom_site_fract_y
 _atom_site_fract_z
 _atom_site_occupancy
  Na  Na0  1  0.333333  0.666667  0.250000  1
  Sc  Sc1  1  0.666667  0.333333  0.750000  1
  Ta  Ta2  1  0.000000  0.000000  0.512738  1
  Ta  Ta3  1  0.000000  0.000000  0.987262  1
  Ta  Ta4  1  0.333333  0.666667  0.987471  1
  Ta  Ta5  1  0.666667  0.333333  0.986699  1
  Ta  Ta6  1  0.666667  0.333333  0.513301  1
  Ta  Ta7  1  0.333333  0.666667  0.512529  1
  S  S8  1  0.334075  0.330183  0.398991  1
  S  S9  1  0.669817  0.003890  0.398991  1
  S  S10  1  0.996110  0.665925  0.398991  1
  S  S11  1  0.329538  0.333669  0.628048  1
  S  S12  1  0.004131  0.670462  0.628048  1
  S  S13  1  0.666331  0.995869  0.628048  1
  S  S14  1  0.666331  0.670462  0.871952  1
  S  S15  1  0.329538  0.995869  0.871952  1
  S  S16  1  0.004131  0.333669  0.871952  1
  S  S17  1  0.669817  0.665925  0.101009  1
  S  S18  1  0.996110  0.330183  0.101009  1
  S  S19  1  0.334075  0.003890  0.101009  1
