# generated using pymatgen
data_KV3O5
_symmetry_space_group_name_H-M   'P 1'
_cell_length_a   3.12269900
_cell_length_b   9.24467100
_cell_length_c   15.74026200
_cell_angle_alpha   90.00000000
_cell_angle_beta   90.00000000
_cell_angle_gamma   90.00000000
_symmetry_Int_Tables_number   1
_chemical_formula_structural   KV3O5
_chemical_formula_sum   'K4 V12 O20'
_cell_volume   454.39499722
_cell_formula_units_Z   4
loop_
 _symmetry_equiv_pos_site_id
 _symmetry_equiv_pos_as_xyz
  1  'x, y, z'
loop_
 _atom_site_type_symbol
 _atom_site_label
 _atom_site_symmetry_multiplicity
 _atom_site_fract_x
 _atom_site_fract_y
 _atom_site_fract_z
 _atom_site_occupancy
  K  K0  1  0.750000  0.502735  0.378218  1
  K  K1  1  0.250000  0.497265  0.621782  1
  K  K2  1  0.250000  0.997265  0.878218  1
  K  K3  1  0.750000  0.002735  0.121782  1
  V  V4  1  0.750000  0.849157  0.309594  1
  V  V5  1  0.250000  0.150843  0.690406  1
  V  V6  1  0.250000  0.650843  0.809594  1
  V  V7  1  0.750000  0.349157  0.190406  1
  V  V8  1  0.750000  0.649219  0.980724  1
  V  V9  1  0.250000  0.350781  0.019276  1
  V  V10  1  0.250000  0.850781  0.480724  1
  V  V11  1  0.750000  0.149219  0.519276  1
  V  V12  1  0.750000  0.861691  0.653428  1
  V  V13  1  0.250000  0.138309  0.346572  1
  V  V14  1  0.250000  0.638309  0.153428  1
  V  V15  1  0.750000  0.361691  0.846572  1
  O  O16  1  0.750000  0.992254  0.421251  1
  O  O17  1  0.250000  0.007746  0.578749  1
  O  O18  1  0.250000  0.507746  0.921251  1
  O  O19  1  0.750000  0.492254  0.078749  1
  O  O20  1  0.750000  0.756670  0.540222  1
  O  O21  1  0.250000  0.243330  0.459778  1
  O  O22  1  0.250000  0.743330  0.040222  1
  O  O23  1  0.750000  0.256670  0.959778  1
  O  O24  1  0.750000  0.738611  0.202937  1
  O  O25  1  0.250000  0.261389  0.797063  1
  O  O26  1  0.250000  0.761389  0.702937  1
  O  O27  1  0.750000  0.238611  0.297063  1
  O  O28  1  0.750000  0.755200  0.874096  1
  O  O29  1  0.250000  0.244800  0.125904  1
  O  O30  1  0.250000  0.744800  0.374096  1
  O  O31  1  0.750000  0.255200  0.625904  1
  O  O32  1  0.750000  0.527138  0.769763  1
  O  O33  1  0.250000  0.472862  0.230237  1
  O  O34  1  0.250000  0.972862  0.269763  1
  O  O35  1  0.750000  0.027138  0.730237  1
