# generated using pymatgen
data_Nb12Al9Fe3C4
_symmetry_space_group_name_H-M   'P 1'
_cell_length_a   8.29357801
_cell_length_b   8.29357861
_cell_length_c   8.27511121
_cell_angle_alpha   59.92614733
_cell_angle_beta   59.92614751
_cell_angle_gamma   59.99999695
_symmetry_Int_Tables_number   1
_chemical_formula_structural   Nb12Al9Fe3C4
_chemical_formula_sum   'Nb12 Al9 Fe3 C4'
_cell_volume   402.02867740
_cell_formula_units_Z   1
loop_
 _symmetry_equiv_pos_site_id
 _symmetry_equiv_pos_as_xyz
  1  'x, y, z'
loop_
 _atom_site_type_symbol
 _atom_site_label
 _atom_site_symmetry_multiplicity
 _atom_site_fract_x
 _atom_site_fract_y
 _atom_site_fract_z
 _atom_site_occupancy
  Nb  Nb0  1  0.808248  0.808248  0.191362  1
  Nb  Nb1  1  0.189512  0.189512  0.810995  1
  Nb  Nb2  1  0.809981  0.189512  0.810995  1
  Nb  Nb3  1  0.192141  0.808248  0.191362  1
  Nb  Nb4  1  0.189512  0.809981  0.810995  1
  Nb  Nb5  1  0.808248  0.192141  0.191362  1
  Nb  Nb6  1  0.441752  0.441752  0.058638  1
  Nb  Nb7  1  0.060488  0.060488  0.439005  1
  Nb  Nb8  1  0.440019  0.060488  0.439005  1
  Nb  Nb9  1  0.057859  0.441752  0.058638  1
  Nb  Nb10  1  0.060488  0.440019  0.439005  1
  Nb  Nb11  1  0.441752  0.057859  0.058638  1
  Al  Al12  1  0.625000  0.625000  0.125000  1
  Al  Al13  1  0.749279  0.409765  0.431193  1
  Al  Al14  1  0.409765  0.749279  0.431193  1
  Al  Al15  1  0.416308  0.416308  0.751075  1
  Al  Al16  1  0.409765  0.409765  0.431193  1
  Al  Al17  1  0.500721  0.840235  0.818807  1
  Al  Al18  1  0.840235  0.500721  0.818807  1
  Al  Al19  1  0.833692  0.833692  0.498925  1
  Al  Al20  1  0.840235  0.840235  0.818807  1
  Fe  Fe21  1  0.125000  0.625000  0.625000  1
  Fe  Fe22  1  0.625000  0.125000  0.625000  1
  Fe  Fe23  1  0.625000  0.625000  0.625000  1
  C  C24  1  0.625000  0.125000  0.125000  1
  C  C25  1  0.125000  0.625000  0.125000  1
  C  C26  1  0.125000  0.125000  0.625000  1
  C  C27  1  0.125000  0.125000  0.125000  1
