# generated using pymatgen
data_Dy8Zr11Si16W
_symmetry_space_group_name_H-M   'P 1'
_cell_length_a   7.09654051
_cell_length_b   7.26852893
_cell_length_c   13.88031613
_cell_angle_alpha   90.16088731
_cell_angle_beta   89.65118697
_cell_angle_gamma   89.74100168
_symmetry_Int_Tables_number   1
_chemical_formula_structural   Dy8Zr11Si16W
_chemical_formula_sum   'Dy8 Zr11 Si16 W1'
_cell_volume   715.94281626
_cell_formula_units_Z   1
loop_
 _symmetry_equiv_pos_site_id
 _symmetry_equiv_pos_as_xyz
  1  'x, y, z'
loop_
 _atom_site_type_symbol
 _atom_site_label
 _atom_site_symmetry_multiplicity
 _atom_site_fract_x
 _atom_site_fract_y
 _atom_site_fract_z
 _atom_site_occupancy
  Dy  Dy0  1  0.013223  0.175972  0.096984  1
  Dy  Dy1  1  0.988003  0.825692  0.899495  1
  Dy  Dy2  1  0.485258  0.676707  0.899017  1
  Dy  Dy3  1  0.990338  0.826246  0.596182  1
  Dy  Dy4  1  0.513669  0.324670  0.096848  1
  Dy  Dy5  1  0.011416  0.176815  0.402574  1
  Dy  Dy6  1  0.508859  0.323665  0.408177  1
  Dy  Dy7  1  0.488520  0.671606  0.597001  1
  Zr  Zr8  1  0.160986  0.494379  0.745838  1
  Zr  Zr9  1  0.842333  0.502902  0.251078  1
  Zr  Zr10  1  0.341174  0.998909  0.251544  1
  Zr  Zr11  1  0.655929  0.003973  0.747141  1
  Zr  Zr12  1  0.666025  0.827756  0.378601  1
  Zr  Zr13  1  0.168803  0.679401  0.378153  1
  Zr  Zr14  1  0.670275  0.821077  0.124858  1
  Zr  Zr15  1  0.832258  0.321550  0.622704  1
  Zr  Zr16  1  0.329225  0.177545  0.874846  1
  Zr  Zr17  1  0.830550  0.321118  0.872727  1
  Zr  Zr18  1  0.170949  0.677230  0.125100  1
  Si  Si19  1  0.040910  0.119289  0.745683  1
  Si  Si20  1  0.965252  0.882958  0.251208  1
  Si  Si21  1  0.466069  0.618727  0.251834  1
  Si  Si22  1  0.532094  0.375854  0.746115  1
  Si  Si23  1  0.285814  0.878251  0.746182  1
  Si  Si24  1  0.714806  0.128351  0.251169  1
  Si  Si25  1  0.217147  0.373538  0.251107  1
  Si  Si26  1  0.784549  0.624596  0.747296  1
  Si  Si27  1  0.169559  0.455936  0.541692  1
  Si  Si28  1  0.842718  0.531343  0.459453  1
  Si  Si29  1  0.335421  0.970918  0.469264  1
  Si  Si30  1  0.844566  0.532154  0.038327  1
  Si  Si31  1  0.643675  0.034204  0.545310  1
  Si  Si32  1  0.154367  0.469279  0.958909  1
  Si  Si33  1  0.657216  0.031894  0.959484  1
  Si  Si34  1  0.345863  0.967407  0.039868  1
  W  W35  1  0.332183  0.178088  0.628231  1
