# generated using pymatgen
data_Nd5TaMoO12
_symmetry_space_group_name_H-M   'P 1'
_cell_length_a   7.12995623
_cell_length_b   7.12995638
_cell_length_c   7.64042123
_cell_angle_alpha   74.50681137
_cell_angle_beta   74.50680172
_cell_angle_gamma   51.06512210
_symmetry_Int_Tables_number   1
_chemical_formula_structural   Nd5TaMoO12
_chemical_formula_sum   'Nd5 Ta1 Mo1 O12'
_cell_volume   288.58706697
_cell_formula_units_Z   1
loop_
 _symmetry_equiv_pos_site_id
 _symmetry_equiv_pos_as_xyz
  1  'x, y, z'
loop_
 _atom_site_type_symbol
 _atom_site_label
 _atom_site_symmetry_multiplicity
 _atom_site_fract_x
 _atom_site_fract_y
 _atom_site_fract_z
 _atom_site_occupancy
  Nd  Nd0  1  0.300313  0.304401  0.360600  1
  Nd  Nd1  1  0.695599  0.699687  0.639400  1
  Nd  Nd2  1  0.305125  0.305791  0.832152  1
  Nd  Nd3  1  0.694209  0.694875  0.167848  1
  Nd  Nd4  1  0.998816  0.001184  0.500000  1
  Ta  Ta5  1  0.761690  0.238310  0.000000  1
  Mo  Mo6  1  0.247053  0.752947  0.000000  1
  O  O7  1  0.896251  0.425514  0.918278  1
  O  O8  1  0.428324  0.898339  0.917853  1
  O  O9  1  0.101661  0.571676  0.082147  1
  O  O10  1  0.574486  0.103749  0.081722  1
  O  O11  1  0.094843  0.596928  0.576207  1
  O  O12  1  0.596770  0.096181  0.575054  1
  O  O13  1  0.903819  0.403230  0.424946  1
  O  O14  1  0.403072  0.905157  0.423793  1
  O  O15  1  0.989483  0.010349  0.818370  1
  O  O16  1  0.989651  0.010517  0.181630  1
  O  O17  1  0.508122  0.489285  0.821576  1
  O  O18  1  0.510715  0.491878  0.178424  1
