# generated using pymatgen
data_NdDy5NiCl10
_symmetry_space_group_name_H-M   'P 1'
_cell_length_a   7.06311109
_cell_length_b   8.81785845
_cell_length_c   8.91504000
_cell_angle_alpha   108.15724843
_cell_angle_beta   96.39586593
_cell_angle_gamma   105.82625141
_symmetry_Int_Tables_number   1
_chemical_formula_structural   NdDy5NiCl10
_chemical_formula_sum   'Nd1 Dy5 Ni1 Cl10'
_cell_volume   495.74405399
_cell_formula_units_Z   1
loop_
 _symmetry_equiv_pos_site_id
 _symmetry_equiv_pos_as_xyz
  1  'x, y, z'
loop_
 _atom_site_type_symbol
 _atom_site_label
 _atom_site_symmetry_multiplicity
 _atom_site_fract_x
 _atom_site_fract_y
 _atom_site_fract_z
 _atom_site_occupancy
  Nd  Nd0  1  0.138088  0.054468  0.748676  1
  Dy  Dy1  1  0.865276  0.947507  0.244528  1
  Dy  Dy2  1  0.967935  0.302763  0.099311  1
  Dy  Dy3  1  0.031633  0.698619  0.905111  1
  Dy  Dy4  1  0.361622  0.138573  0.182315  1
  Dy  Dy5  1  0.638654  0.861141  0.817091  1
  Ni  Ni6  1  0.999805  0.000823  0.000080  1
  Cl  Cl7  1  0.556123  0.176740  0.924230  1
  Cl  Cl8  1  0.452651  0.826302  0.081225  1
  Cl  Cl9  1  0.346585  0.450688  0.269641  1
  Cl  Cl10  1  0.653819  0.549083  0.732167  1
  Cl  Cl11  1  0.243062  0.076266  0.441452  1
  Cl  Cl12  1  0.746181  0.918375  0.544527  1
  Cl  Cl13  1  0.779910  0.248702  0.341902  1
  Cl  Cl14  1  0.221738  0.740806  0.660118  1
  Cl  Cl15  1  0.082489  0.377244  0.837466  1
  Cl  Cl16  1  0.914429  0.631898  0.170161  1
