# generated using pymatgen
data_Ce2Co3Ni
_symmetry_space_group_name_H-M   'P 1'
_cell_length_a   4.95509900
_cell_length_b   4.95509872
_cell_length_c   4.95509900
_cell_angle_alpha   61.46519408
_cell_angle_beta   61.46520188
_cell_angle_gamma   61.46520215
_symmetry_Int_Tables_number   1
_chemical_formula_structural   Ce2Co3Ni
_chemical_formula_sum   'Ce2 Co3 Ni1'
_cell_volume   88.85858915
_cell_formula_units_Z   1
loop_
 _symmetry_equiv_pos_site_id
 _symmetry_equiv_pos_as_xyz
  1  'x, y, z'
loop_
 _atom_site_type_symbol
 _atom_site_label
 _atom_site_symmetry_multiplicity
 _atom_site_fract_x
 _atom_site_fract_y
 _atom_site_fract_z
 _atom_site_occupancy
  Ce  Ce0  1  0.624727  0.624727  0.624727  1
  Ce  Ce1  1  0.375273  0.375273  0.375273  1
  Co  Co2  1  0.000000  0.500000  0.000000  1
  Co  Co3  1  0.500000  0.000000  0.000000  1
  Co  Co4  1  0.000000  0.000000  0.500000  1
  Ni  Ni5  1  0.000000  0.000000  0.000000  1
