# generated using pymatgen
data_Eu2ZrMoO7
_symmetry_space_group_name_H-M   'P 1'
_cell_length_a   7.57585281
_cell_length_b   7.57585298
_cell_length_c   7.58992400
_cell_angle_alpha   59.93854025
_cell_angle_beta   59.93853953
_cell_angle_gamma   60.00943198
_symmetry_Int_Tables_number   1
_chemical_formula_structural   Eu2ZrMoO7
_chemical_formula_sum   'Eu4 Zr2 Mo2 O14'
_cell_volume   307.76009980
_cell_formula_units_Z   2
loop_
 _symmetry_equiv_pos_site_id
 _symmetry_equiv_pos_as_xyz
  1  'x, y, z'
loop_
 _atom_site_type_symbol
 _atom_site_label
 _atom_site_symmetry_multiplicity
 _atom_site_fract_x
 _atom_site_fract_y
 _atom_site_fract_z
 _atom_site_occupancy
  Eu  Eu0  1  0.625000  0.125000  0.625000  1
  Eu  Eu1  1  0.625000  0.625000  0.125000  1
  Eu  Eu2  1  0.125000  0.625000  0.625000  1
  Eu  Eu3  1  0.625000  0.625000  0.625000  1
  Zr  Zr4  1  0.125000  0.125000  0.125000  1
  Zr  Zr5  1  0.125000  0.125000  0.625000  1
  Mo  Mo6  1  0.625000  0.125000  0.125000  1
  Mo  Mo7  1  0.125000  0.625000  0.125000  1
  O  O8  1  0.205021  0.789829  0.809406  1
  O  O9  1  0.804915  0.804915  0.195085  1
  O  O10  1  0.789829  0.205021  0.809406  1
  O  O11  1  0.205021  0.789829  0.195744  1
  O  O12  1  0.208698  0.208698  0.791302  1
  O  O13  1  0.789829  0.205021  0.195744  1
  O  O14  1  0.460171  0.044979  0.054256  1
  O  O15  1  0.041302  0.041302  0.458698  1
  O  O16  1  0.044979  0.460171  0.054256  1
  O  O17  1  0.460171  0.044979  0.440594  1
  O  O18  1  0.748520  0.748520  0.751480  1
  O  O19  1  0.445085  0.445085  0.054915  1
  O  O20  1  0.044979  0.460171  0.440594  1
  O  O21  1  0.501480  0.501480  0.498520  1
