# generated using pymatgen
data_In4Pd3PtO14
_symmetry_space_group_name_H-M   'P 1'
_cell_length_a   7.15254057
_cell_length_b   7.14328588
_cell_length_c   7.15254100
_cell_angle_alpha   59.95713596
_cell_angle_beta   60.00000264
_cell_angle_gamma   59.95714043
_symmetry_Int_Tables_number   1
_chemical_formula_structural   In4Pd3PtO14
_chemical_formula_sum   'In4 Pd3 Pt1 O14'
_cell_volume   258.23913803
_cell_formula_units_Z   1
loop_
 _symmetry_equiv_pos_site_id
 _symmetry_equiv_pos_as_xyz
  1  'x, y, z'
loop_
 _atom_site_type_symbol
 _atom_site_label
 _atom_site_symmetry_multiplicity
 _atom_site_fract_x
 _atom_site_fract_y
 _atom_site_fract_z
 _atom_site_occupancy
  In  In0  1  0.125000  0.125000  0.125000  1
  In  In1  1  0.625000  0.125000  0.125000  1
  In  In2  1  0.125000  0.625000  0.125000  1
  In  In3  1  0.125000  0.125000  0.625000  1
  Pd  Pd4  1  0.625000  0.625000  0.125000  1
  Pd  Pd5  1  0.125000  0.625000  0.625000  1
  Pd  Pd6  1  0.625000  0.625000  0.625000  1
  Pt  Pt7  1  0.625000  0.125000  0.625000  1
  O  O8  1  0.250085  0.249745  0.250085  1
  O  O9  1  0.717093  0.282070  0.283744  1
  O  O10  1  0.717093  0.282070  0.717093  1
  O  O11  1  0.283020  0.717178  0.283020  1
  O  O12  1  0.716782  0.717178  0.283020  1
  O  O13  1  0.283744  0.282070  0.717093  1
  O  O14  1  0.966980  0.532822  0.533218  1
  O  O15  1  0.283020  0.717178  0.716782  1
  O  O16  1  0.966256  0.967930  0.532907  1
  O  O17  1  0.532907  0.967930  0.532907  1
  O  O18  1  0.533218  0.532822  0.966980  1
  O  O19  1  0.966980  0.532822  0.966980  1
  O  O20  1  0.532907  0.967930  0.966256  1
  O  O21  1  0.999915  0.000255  0.999915  1
