# generated using pymatgen
data_CaCrSbF12
_symmetry_space_group_name_H-M   'P 1'
_cell_length_a   11.54679780
_cell_length_b   5.78485509
_cell_length_c   5.80825855
_cell_angle_alpha   57.55969148
_cell_angle_beta   57.18274268
_cell_angle_gamma   57.12153723
_symmetry_Int_Tables_number   1
_chemical_formula_structural   CaCrSbF12
_chemical_formula_sum   'Ca1 Cr1 Sb1 F12'
_cell_volume   257.19743512
_cell_formula_units_Z   1
loop_
 _symmetry_equiv_pos_site_id
 _symmetry_equiv_pos_as_xyz
  1  'x, y, z'
loop_
 _atom_site_type_symbol
 _atom_site_label
 _atom_site_symmetry_multiplicity
 _atom_site_fract_x
 _atom_site_fract_y
 _atom_site_fract_z
 _atom_site_occupancy
  Ca  Ca0  1  0.741549  0.505336  0.506531  1
  Cr  Cr1  1  0.489591  0.013959  0.001583  1
  Sb  Sb2  1  0.012926  0.986281  0.995611  1
  F  F3  1  0.169138  0.129791  0.763651  1
  F  F4  1  0.654070  0.134897  0.780762  1
  F  F5  1  0.059261  0.775964  0.338116  1
  F  F6  1  0.564427  0.782729  0.301989  1
  F  F7  1  0.114019  0.660326  0.873920  1
  F  F8  1  0.609593  0.691925  0.873932  1
  F  F9  1  0.443736  0.203032  0.690260  1
  F  F10  1  0.931958  0.226691  0.682842  1
  F  F11  1  0.344175  0.881708  0.215780  1
  F  F12  1  0.836437  0.876616  0.220557  1
  F  F13  1  0.394800  0.305769  0.126796  1
  F  F14  1  0.884321  0.324976  0.127673  1
