# generated using pymatgen
data_Er3AlZn2CuSi2
_symmetry_space_group_name_H-M   'P 1'
_cell_length_a   6.79421259
_cell_length_b   6.79421284
_cell_length_c   4.19558000
_cell_angle_alpha   90.00000000
_cell_angle_beta   90.00000000
_cell_angle_gamma   120.70448297
_symmetry_Int_Tables_number   1
_chemical_formula_structural   Er3AlZn2CuSi2
_chemical_formula_sum   'Er3 Al1 Zn2 Cu1 Si2'
_cell_volume   166.52289436
_cell_formula_units_Z   1
loop_
 _symmetry_equiv_pos_site_id
 _symmetry_equiv_pos_as_xyz
  1  'x, y, z'
loop_
 _atom_site_type_symbol
 _atom_site_label
 _atom_site_symmetry_multiplicity
 _atom_site_fract_x
 _atom_site_fract_y
 _atom_site_fract_z
 _atom_site_occupancy
  Er  Er0  1  0.415682  0.997165  0.500000  1
  Er  Er1  1  0.997165  0.415682  0.500000  1
  Er  Er2  1  0.586628  0.586628  0.500000  1
  Al  Al3  1  0.228759  0.228759  0.000000  1
  Zn  Zn4  1  0.759773  0.005759  0.000000  1
  Zn  Zn5  1  0.005759  0.759773  0.000000  1
  Cu  Cu6  1  0.005989  0.005989  0.500000  1
  Si  Si7  1  0.335740  0.664505  0.000000  1
  Si  Si8  1  0.664505  0.335740  0.000000  1
