# generated using pymatgen
data_CrP3PbN5O2
_symmetry_space_group_name_H-M   'P 1'
_cell_length_a   6.73792400
_cell_length_b   7.16074448
_cell_length_c   14.02439300
_cell_angle_alpha   60.27824870
_cell_angle_beta   90.00000000
_cell_angle_gamma   90.00000000
_symmetry_Int_Tables_number   1
_chemical_formula_structural   CrP3PbN5O2
_chemical_formula_sum   'Cr4 P12 Pb4 N20 O8'
_cell_volume   587.63798041
_cell_formula_units_Z   4
loop_
 _symmetry_equiv_pos_site_id
 _symmetry_equiv_pos_as_xyz
  1  'x, y, z'
loop_
 _atom_site_type_symbol
 _atom_site_label
 _atom_site_symmetry_multiplicity
 _atom_site_fract_x
 _atom_site_fract_y
 _atom_site_fract_z
 _atom_site_occupancy
  Cr  Cr0  1  0.488948  0.985155  0.873405  1
  Cr  Cr1  1  0.988948  0.014845  0.626595  1
  Cr  Cr2  1  0.511052  0.014845  0.126595  1
  Cr  Cr3  1  0.011052  0.985155  0.373405  1
  P  P4  1  0.006153  0.941992  0.879103  1
  P  P5  1  0.506153  0.058008  0.620897  1
  P  P6  1  0.993847  0.058008  0.120897  1
  P  P7  1  0.493847  0.941992  0.379103  1
  P  P8  1  0.279847  0.744013  0.590294  1
  P  P9  1  0.779847  0.255987  0.909706  1
  P  P10  1  0.720153  0.255987  0.409706  1
  P  P11  1  0.220153  0.744013  0.090294  1
  P  P12  1  0.757562  0.716479  0.793740  1
  P  P13  1  0.257562  0.283521  0.706260  1
  P  P14  1  0.242438  0.283521  0.206260  1
  P  P15  1  0.742438  0.716479  0.293740  1
  Pb  Pb16  1  0.749890  0.510915  0.611092  1
  Pb  Pb17  1  0.249890  0.489085  0.888908  1
  Pb  Pb18  1  0.250110  0.489085  0.388908  1
  Pb  Pb19  1  0.750110  0.510915  0.111092  1
  N  N20  1  0.303346  0.931389  0.624271  1
  N  N21  1  0.803346  0.068611  0.875729  1
  N  N22  1  0.696654  0.068611  0.375729  1
  N  N23  1  0.196654  0.931389  0.124271  1
  N  N24  1  0.695978  0.893489  0.666101  1
  N  N25  1  0.195978  0.106511  0.833899  1
  N  N26  1  0.304022  0.106511  0.333899  1
  N  N27  1  0.804022  0.893489  0.166101  1
  N  N28  1  0.972502  0.821244  0.804920  1
  N  N29  1  0.472502  0.178756  0.695080  1
  N  N30  1  0.027498  0.178756  0.195080  1
  N  N31  1  0.527498  0.821244  0.304920  1
  N  N32  1  0.801415  0.489349  0.796674  1
  N  N33  1  0.301415  0.510651  0.703326  1
  N  N34  1  0.198585  0.510651  0.203326  1
  N  N35  1  0.698585  0.489349  0.296674  1
  N  N36  1  0.558126  0.252922  0.496970  1
  N  N37  1  0.058126  0.747078  0.003030  1
  N  N38  1  0.441874  0.747078  0.503030  1
  N  N39  1  0.941874  0.252922  0.996970  1
  O  O40  1  0.064279  0.778519  0.542324  1
  O  O41  1  0.564279  0.221481  0.957676  1
  O  O42  1  0.935721  0.221481  0.457676  1
  O  O43  1  0.435721  0.778519  0.042324  1
  O  O44  1  0.603679  0.688609  0.880913  1
  O  O45  1  0.103679  0.311391  0.619087  1
  O  O46  1  0.396321  0.311391  0.119087  1
  O  O47  1  0.896321  0.688609  0.380913  1
