# generated using pymatgen
data_Y3Lu2InPb2
_symmetry_space_group_name_H-M   'P 1'
_cell_length_a   8.98412146
_cell_length_b   8.99778082
_cell_length_c   6.59539700
_cell_angle_alpha   90.00000000
_cell_angle_beta   90.00000000
_cell_angle_gamma   120.05030233
_symmetry_Int_Tables_number   1
_chemical_formula_structural   Y3Lu2InPb2
_chemical_formula_sum   'Y6 Lu4 In2 Pb4'
_cell_volume   461.48994212
_cell_formula_units_Z   2
loop_
 _symmetry_equiv_pos_site_id
 _symmetry_equiv_pos_as_xyz
  1  'x, y, z'
loop_
 _atom_site_type_symbol
 _atom_site_label
 _atom_site_symmetry_multiplicity
 _atom_site_fract_x
 _atom_site_fract_y
 _atom_site_fract_z
 _atom_site_occupancy
  Y  Y0  1  0.758347  0.763237  0.750000  1
  Y  Y1  1  0.241653  0.004889  0.750000  1
  Y  Y2  1  0.000000  0.238329  0.750000  1
  Y  Y3  1  0.237511  0.236897  0.250000  1
  Y  Y4  1  0.762489  0.999386  0.250000  1
  Y  Y5  1  0.000000  0.761423  0.250000  1
  Lu  Lu6  1  0.662824  0.329845  0.995756  1
  Lu  Lu7  1  0.337176  0.667022  0.995756  1
  Lu  Lu8  1  0.337176  0.667022  0.504244  1
  Lu  Lu9  1  0.662824  0.329845  0.504244  1
  In  In10  1  0.397987  0.398695  0.750000  1
  In  In11  1  0.602013  0.000708  0.750000  1
  Pb  Pb12  1  0.000000  0.606499  0.750000  1
  Pb  Pb13  1  0.602482  0.600227  0.250000  1
  Pb  Pb14  1  0.397518  0.997745  0.250000  1
  Pb  Pb15  1  0.000000  0.398229  0.250000  1
