# generated using pymatgen
data_SrLi8Ac7Pb8
_symmetry_space_group_name_H-M   'P 1'
_cell_length_a   9.96911200
_cell_length_b   9.96911229
_cell_length_c   8.28567300
_cell_angle_alpha   90.00000000
_cell_angle_beta   90.00000000
_cell_angle_gamma   120.00000568
_symmetry_Int_Tables_number   1
_chemical_formula_structural   SrLi8Ac7Pb8
_chemical_formula_sum   'Sr1 Li8 Ac7 Pb8'
_cell_volume   713.13435561
_cell_formula_units_Z   1
loop_
 _symmetry_equiv_pos_site_id
 _symmetry_equiv_pos_as_xyz
  1  'x, y, z'
loop_
 _atom_site_type_symbol
 _atom_site_label
 _atom_site_symmetry_multiplicity
 _atom_site_fract_x
 _atom_site_fract_y
 _atom_site_fract_z
 _atom_site_occupancy
  Sr  Sr0  1  0.000000  0.000000  0.000855  1
  Li  Li1  1  0.833518  0.166482  0.715181  1
  Li  Li2  1  0.833518  0.667037  0.715181  1
  Li  Li3  1  0.332963  0.166482  0.715181  1
  Li  Li4  1  0.165385  0.834615  0.206706  1
  Li  Li5  1  0.165385  0.330772  0.206706  1
  Li  Li6  1  0.669228  0.834615  0.206706  1
  Li  Li7  1  0.666667  0.333333  0.331214  1
  Li  Li8  1  0.333333  0.666667  0.833920  1
  Ac  Ac9  1  0.485999  0.514001  0.504399  1
  Ac  Ac10  1  0.485999  0.971998  0.504399  1
  Ac  Ac11  1  0.028002  0.514001  0.504399  1
  Ac  Ac12  1  0.513915  0.486085  0.004078  1
  Ac  Ac13  1  0.513915  0.027830  0.004078  1
  Ac  Ac14  1  0.972170  0.486085  0.004078  1
  Ac  Ac15  1  0.000000  0.000000  0.500143  1
  Pb  Pb16  1  0.832699  0.167301  0.275760  1
  Pb  Pb17  1  0.832699  0.665398  0.275760  1
  Pb  Pb18  1  0.334602  0.167301  0.275760  1
  Pb  Pb19  1  0.167139  0.832861  0.776703  1
  Pb  Pb20  1  0.167139  0.334279  0.776703  1
  Pb  Pb21  1  0.665721  0.832861  0.776703  1
  Pb  Pb22  1  0.666667  0.333333  0.720267  1
  Pb  Pb23  1  0.333333  0.666667  0.223124  1
