# generated using pymatgen
data_Pr20(Ir3Ru)3
_symmetry_space_group_name_H-M   'P 1'
_cell_length_a   11.32668800
_cell_length_b   11.32668800
_cell_length_c   6.66375600
_cell_angle_alpha   90.00000000
_cell_angle_beta   90.00000000
_cell_angle_gamma   90.00000000
_symmetry_Int_Tables_number   1
_chemical_formula_structural   Pr20(Ir3Ru)3
_chemical_formula_sum   'Pr20 Ir9 Ru3'
_cell_volume   854.91898633
_cell_formula_units_Z   1
loop_
 _symmetry_equiv_pos_site_id
 _symmetry_equiv_pos_as_xyz
  1  'x, y, z'
loop_
 _atom_site_type_symbol
 _atom_site_label
 _atom_site_symmetry_multiplicity
 _atom_site_fract_x
 _atom_site_fract_y
 _atom_site_fract_z
 _atom_site_occupancy
  Pr  Pr0  1  0.293381  0.087706  0.381112  1
  Pr  Pr1  1  0.293441  0.912533  0.881274  1
  Pr  Pr2  1  0.706559  0.087467  0.881274  1
  Pr  Pr3  1  0.706619  0.912294  0.381112  1
  Pr  Pr4  1  0.587467  0.793441  0.881274  1
  Pr  Pr5  1  0.587706  0.206619  0.381112  1
  Pr  Pr6  1  0.412294  0.793381  0.381112  1
  Pr  Pr7  1  0.412533  0.206559  0.881274  1
  Pr  Pr8  1  0.208186  0.411489  0.620133  1
  Pr  Pr9  1  0.207973  0.588509  0.117376  1
  Pr  Pr10  1  0.792027  0.411491  0.117376  1
  Pr  Pr11  1  0.791814  0.588511  0.620133  1
  Pr  Pr12  1  0.911491  0.707973  0.117376  1
  Pr  Pr13  1  0.911489  0.291814  0.620133  1
  Pr  Pr14  1  0.088511  0.708186  0.620133  1
  Pr  Pr15  1  0.088509  0.292027  0.117376  1
  Pr  Pr16  1  0.000000  0.000000  0.499306  1
  Pr  Pr17  1  0.000000  0.000000  0.999514  1
  Pr  Pr18  1  0.500000  0.500000  0.999514  1
  Pr  Pr19  1  0.500000  0.500000  0.499306  1
  Ir  Ir20  1  0.847033  0.153645  0.250357  1
  Ir  Ir21  1  0.846930  0.846309  0.750025  1
  Ir  Ir22  1  0.153070  0.153691  0.750025  1
  Ir  Ir23  1  0.152967  0.846355  0.250357  1
  Ir  Ir24  1  0.653691  0.346930  0.750025  1
  Ir  Ir25  1  0.653645  0.652967  0.250357  1
  Ir  Ir26  1  0.346355  0.347033  0.250357  1
  Ir  Ir27  1  0.346309  0.653070  0.750025  1
  Ir  Ir28  1  0.000000  0.500000  0.384653  1
  Ru  Ru29  1  0.500000  0.000000  0.115143  1
  Ru  Ru30  1  0.500000  0.000000  0.614793  1
  Ru  Ru31  1  0.000000  0.500000  0.886664  1
