# generated using pymatgen
data_Nb12Al8CrAg3C4
_symmetry_space_group_name_H-M   'P 1'
_cell_length_a   8.47144801
_cell_length_b   8.37759961
_cell_length_c   8.37759900
_cell_angle_alpha   60.00000636
_cell_angle_beta   60.36579852
_cell_angle_gamma   60.36579920
_symmetry_Int_Tables_number   1
_chemical_formula_structural   Nb12Al8CrAg3C4
_chemical_formula_sum   'Nb12 Al8 Cr1 Ag3 C4'
_cell_volume   422.72806220
_cell_formula_units_Z   1
loop_
 _symmetry_equiv_pos_site_id
 _symmetry_equiv_pos_as_xyz
  1  'x, y, z'
loop_
 _atom_site_type_symbol
 _atom_site_label
 _atom_site_symmetry_multiplicity
 _atom_site_fract_x
 _atom_site_fract_y
 _atom_site_fract_z
 _atom_site_occupancy
  Nb  Nb0  1  0.822853  0.818822  0.179162  1
  Nb  Nb1  1  0.178420  0.198351  0.811615  1
  Nb  Nb2  1  0.822853  0.179162  0.818822  1
  Nb  Nb3  1  0.178420  0.811615  0.198351  1
  Nb  Nb4  1  0.178420  0.811615  0.811615  1
  Nb  Nb5  1  0.822853  0.179162  0.179162  1
  Nb  Nb6  1  0.427147  0.431178  0.070838  1
  Nb  Nb7  1  0.071580  0.051649  0.438385  1
  Nb  Nb8  1  0.427147  0.070838  0.431178  1
  Nb  Nb9  1  0.071580  0.438385  0.051649  1
  Nb  Nb10  1  0.071580  0.438385  0.438385  1
  Nb  Nb11  1  0.427147  0.070838  0.070838  1
  Al  Al12  1  0.769218  0.410261  0.410261  1
  Al  Al13  1  0.408909  0.750810  0.420140  1
  Al  Al14  1  0.408909  0.420140  0.750810  1
  Al  Al15  1  0.408909  0.420140  0.420140  1
  Al  Al16  1  0.480782  0.839739  0.839739  1
  Al  Al17  1  0.841091  0.499190  0.829860  1
  Al  Al18  1  0.841091  0.829860  0.499190  1
  Al  Al19  1  0.841091  0.829860  0.829860  1
  Cr  Cr20  1  0.125000  0.625000  0.625000  1
  Ag  Ag21  1  0.625000  0.125000  0.625000  1
  Ag  Ag22  1  0.625000  0.625000  0.125000  1
  Ag  Ag23  1  0.625000  0.625000  0.625000  1
  C  C24  1  0.625000  0.125000  0.125000  1
  C  C25  1  0.125000  0.625000  0.125000  1
  C  C26  1  0.125000  0.125000  0.625000  1
  C  C27  1  0.125000  0.125000  0.125000  1
