# generated using pymatgen
data_ScBe9Mo2
_symmetry_space_group_name_H-M   'P 1'
_cell_length_a   7.57384446
_cell_length_b   7.57384371
_cell_length_c   7.57384460
_cell_angle_alpha   34.44904363
_cell_angle_beta   34.44903852
_cell_angle_gamma   34.44903857
_symmetry_Int_Tables_number   1
_chemical_formula_structural   ScBe9Mo2
_chemical_formula_sum   'Sc1 Be9 Mo2'
_cell_volume   124.01309691
_cell_formula_units_Z   1
loop_
 _symmetry_equiv_pos_site_id
 _symmetry_equiv_pos_as_xyz
  1  'x, y, z'
loop_
 _atom_site_type_symbol
 _atom_site_label
 _atom_site_symmetry_multiplicity
 _atom_site_fract_x
 _atom_site_fract_y
 _atom_site_fract_z
 _atom_site_occupancy
  Sc  Sc0  1  0.000000  0.000000  0.000000  1
  Be  Be1  1  0.500000  0.500000  0.500000  1
  Be  Be2  1  0.334644  0.334644  0.334645  1
  Be  Be3  1  0.665356  0.665356  0.665355  1
  Be  Be4  1  0.079076  0.585995  0.585995  1
  Be  Be5  1  0.585995  0.585995  0.079076  1
  Be  Be6  1  0.585995  0.079076  0.585995  1
  Be  Be7  1  0.414005  0.920924  0.414005  1
  Be  Be8  1  0.920924  0.414005  0.414005  1
  Be  Be9  1  0.414005  0.414005  0.920924  1
  Mo  Mo10  1  0.146232  0.146232  0.146232  1
  Mo  Mo11  1  0.853768  0.853768  0.853768  1
