# generated using pymatgen
data_Y9ScCd3Ru
_symmetry_space_group_name_H-M   'P 1'
_cell_length_a   9.55310000
_cell_length_b   9.55309975
_cell_length_c   9.80827800
_cell_angle_alpha   90.00000000
_cell_angle_beta   90.00000000
_cell_angle_gamma   120.00000085
_symmetry_Int_Tables_number   1
_chemical_formula_structural   Y9ScCd3Ru
_chemical_formula_sum   'Y18 Sc2 Cd6 Ru2'
_cell_volume   775.19690701
_cell_formula_units_Z   2
loop_
 _symmetry_equiv_pos_site_id
 _symmetry_equiv_pos_as_xyz
  1  'x, y, z'
loop_
 _atom_site_type_symbol
 _atom_site_label
 _atom_site_symmetry_multiplicity
 _atom_site_fract_x
 _atom_site_fract_y
 _atom_site_fract_z
 _atom_site_occupancy
  Y  Y0  1  0.208293  0.791707  0.440784  1
  Y  Y1  1  0.208293  0.416586  0.440784  1
  Y  Y2  1  0.583414  0.791707  0.440784  1
  Y  Y3  1  0.791707  0.208293  0.559216  1
  Y  Y4  1  0.791707  0.583414  0.559216  1
  Y  Y5  1  0.416586  0.208293  0.559216  1
  Y  Y6  1  0.791707  0.208293  0.940784  1
  Y  Y7  1  0.791707  0.583414  0.940784  1
  Y  Y8  1  0.416586  0.208293  0.940784  1
  Y  Y9  1  0.208293  0.791707  0.059216  1
  Y  Y10  1  0.208293  0.416586  0.059216  1
  Y  Y11  1  0.583414  0.791707  0.059216  1
  Y  Y12  1  0.541034  0.458966  0.250000  1
  Y  Y13  1  0.541034  0.082068  0.250000  1
  Y  Y14  1  0.917932  0.458966  0.250000  1
  Y  Y15  1  0.458966  0.541034  0.750000  1
  Y  Y16  1  0.458966  0.917932  0.750000  1
  Y  Y17  1  0.082068  0.541034  0.750000  1
  Sc  Sc18  1  0.000000  0.000000  0.500000  1
  Sc  Sc19  1  0.000000  0.000000  0.000000  1
  Cd  Cd20  1  0.889027  0.110973  0.250000  1
  Cd  Cd21  1  0.889027  0.778056  0.250000  1
  Cd  Cd22  1  0.221944  0.110973  0.250000  1
  Cd  Cd23  1  0.110973  0.889027  0.750000  1
  Cd  Cd24  1  0.110973  0.221944  0.750000  1
  Cd  Cd25  1  0.778056  0.889027  0.750000  1
  Ru  Ru26  1  0.333333  0.666667  0.250000  1
  Ru  Ru27  1  0.666667  0.333333  0.750000  1
