# generated using pymatgen
data_Y16MgCd3RuPt3
_symmetry_space_group_name_H-M   'P 1'
_cell_length_a   9.76367475
_cell_length_b   9.76367511
_cell_length_c   9.76367553
_cell_angle_alpha   59.51785019
_cell_angle_beta   59.51784768
_cell_angle_gamma   59.51785096
_symmetry_Int_Tables_number   1
_chemical_formula_structural   Y16MgCd3RuPt3
_chemical_formula_sum   'Y16 Mg1 Cd3 Ru1 Pt3'
_cell_volume   650.93402501
_cell_formula_units_Z   1
loop_
 _symmetry_equiv_pos_site_id
 _symmetry_equiv_pos_as_xyz
  1  'x, y, z'
loop_
 _atom_site_type_symbol
 _atom_site_label
 _atom_site_symmetry_multiplicity
 _atom_site_fract_x
 _atom_site_fract_y
 _atom_site_fract_z
 _atom_site_occupancy
  Y  Y0  1  0.352588  0.352588  0.352588  1
  Y  Y1  1  0.348520  0.348520  0.950218  1
  Y  Y2  1  0.348520  0.950218  0.348520  1
  Y  Y3  1  0.950218  0.348520  0.348520  1
  Y  Y4  1  0.813763  0.189614  0.189614  1
  Y  Y5  1  0.188315  0.810672  0.810672  1
  Y  Y6  1  0.189614  0.813763  0.189614  1
  Y  Y7  1  0.810672  0.188315  0.810672  1
  Y  Y8  1  0.189614  0.189614  0.813763  1
  Y  Y9  1  0.810672  0.810672  0.188315  1
  Y  Y10  1  0.936925  0.565483  0.565483  1
  Y  Y11  1  0.561127  0.936597  0.936597  1
  Y  Y12  1  0.565483  0.936925  0.565483  1
  Y  Y13  1  0.936597  0.561127  0.936597  1
  Y  Y14  1  0.565483  0.565483  0.936925  1
  Y  Y15  1  0.936597  0.936597  0.561127  1
  Mg  Mg16  1  0.575710  0.575710  0.575710  1
  Cd  Cd17  1  0.581584  0.581584  0.253864  1
  Cd  Cd18  1  0.581584  0.253864  0.581584  1
  Cd  Cd19  1  0.253864  0.581584  0.581584  1
  Ru  Ru20  1  0.142631  0.142631  0.142631  1
  Pt  Pt21  1  0.143906  0.143906  0.572108  1
  Pt  Pt22  1  0.143906  0.572108  0.143906  1
  Pt  Pt23  1  0.572108  0.143906  0.143906  1
