# generated using pymatgen
data_Ta2Ti5Co8Si14W
_symmetry_space_group_name_H-M   'P 1'
_cell_length_a   9.15534057
_cell_length_b   9.15532314
_cell_length_c   9.15722155
_cell_angle_alpha   94.18624124
_cell_angle_beta   94.20834741
_cell_angle_gamma   148.60386079
_symmetry_Int_Tables_number   1
_chemical_formula_structural   Ta2Ti5Co8Si14W
_chemical_formula_sum   'Ta2 Ti5 Co8 Si14 W1'
_cell_volume   384.95373163
_cell_formula_units_Z   1
loop_
 _symmetry_equiv_pos_site_id
 _symmetry_equiv_pos_as_xyz
  1  'x, y, z'
loop_
 _atom_site_type_symbol
 _atom_site_label
 _atom_site_symmetry_multiplicity
 _atom_site_fract_x
 _atom_site_fract_y
 _atom_site_fract_z
 _atom_site_occupancy
  Ta  Ta0  1  0.867694  0.867288  0.734967  1
  Ta  Ta1  1  0.865444  0.133440  0.998866  1
  Ti  Ti2  1  0.133808  0.864924  0.998759  1
  Ti  Ti3  1  0.500308  0.691186  0.191497  1
  Ti  Ti4  1  0.499758  0.309080  0.808841  1
  Ti  Ti5  1  0.309184  0.500360  0.809546  1
  Ti  Ti6  1  0.691753  0.501214  0.192940  1
  Co  Co7  1  0.400107  0.900067  0.799487  1
  Co  Co8  1  0.100300  0.600437  0.201170  1
  Co  Co9  1  0.100519  0.899975  0.499261  1
  Co  Co10  1  0.399033  0.599528  0.499369  1
  Co  Co11  1  0.599299  0.398744  0.499276  1
  Co  Co12  1  0.899841  0.100319  0.499378  1
  Co  Co13  1  0.899428  0.399381  0.799504  1
  Co  Co14  1  0.600752  0.100880  0.201178  1
  Si  Si15  1  0.293639  0.293665  0.587292  1
  Si  Si16  1  0.705758  0.705806  0.411590  1
  Si  Si17  1  0.704968  0.295288  0.000281  1
  Si  Si18  1  0.294355  0.705884  0.000213  1
  Si  Si19  1  0.001515  0.295002  0.296508  1
  Si  Si20  1  0.000554  0.704221  0.704756  1
  Si  Si21  1  0.702422  0.999533  0.701962  1
  Si  Si22  1  0.293353  0.000415  0.293787  1
  Si  Si23  1  0.499860  0.905548  0.405406  1
  Si  Si24  1  0.499745  0.094398  0.594166  1
  Si  Si25  1  0.094360  0.500232  0.594626  1
  Si  Si26  1  0.905571  0.500425  0.405932  1
  Si  Si27  1  0.751339  0.749867  0.002573  1
  Si  Si28  1  0.252715  0.251235  0.002580  1
  W  W29  1  0.132614  0.131657  0.264285  1
