# generated using pymatgen
data_Ho4Sc16SiBi11
_symmetry_space_group_name_H-M   'P 1'
_cell_length_a   7.80176655
_cell_length_b   9.00693600
_cell_length_c   11.49794206
_cell_angle_alpha   90.00000000
_cell_angle_beta   90.26250022
_cell_angle_gamma   90.00000000
_symmetry_Int_Tables_number   1
_chemical_formula_structural   Ho4Sc16SiBi11
_chemical_formula_sum   'Ho4 Sc16 Si1 Bi11'
_cell_volume   807.95204630
_cell_formula_units_Z   1
loop_
 _symmetry_equiv_pos_site_id
 _symmetry_equiv_pos_as_xyz
  1  'x, y, z'
loop_
 _atom_site_type_symbol
 _atom_site_label
 _atom_site_symmetry_multiplicity
 _atom_site_fract_x
 _atom_site_fract_y
 _atom_site_fract_z
 _atom_site_occupancy
  Ho  Ho0  1  0.316642  0.250000  0.219440  1
  Ho  Ho1  1  0.815499  0.250000  0.280767  1
  Ho  Ho2  1  0.668011  0.750000  0.792025  1
  Ho  Ho3  1  0.188895  0.750000  0.725103  1
  Sc  Sc4  1  0.352345  0.750000  0.205464  1
  Sc  Sc5  1  0.848401  0.750000  0.279308  1
  Sc  Sc6  1  0.653154  0.250000  0.779405  1
  Sc  Sc7  1  0.151788  0.250000  0.721677  1
  Sc  Sc8  1  0.679230  0.576359  0.057624  1
  Sc  Sc9  1  0.192791  0.932422  0.436808  1
  Sc  Sc10  1  0.311534  0.048022  0.939441  1
  Sc  Sc11  1  0.807236  0.433226  0.562314  1
  Sc  Sc12  1  0.311534  0.451978  0.939441  1
  Sc  Sc13  1  0.807236  0.066774  0.562314  1
  Sc  Sc14  1  0.679230  0.923641  0.057624  1
  Sc  Sc15  1  0.192791  0.567578  0.436808  1
  Sc  Sc16  1  0.483253  0.250000  0.489026  1
  Sc  Sc17  1  0.986029  0.250000  0.009948  1
  Sc  Sc18  1  0.518175  0.750000  0.511548  1
  Sc  Sc19  1  0.034889  0.750000  0.988443  1
  Si  Si20  1  0.405132  0.750000  0.969685  1
  Bi  Bi21  1  0.903822  0.750000  0.535939  1
  Bi  Bi22  1  0.597341  0.250000  0.033117  1
  Bi  Bi23  1  0.098484  0.250000  0.466815  1
  Bi  Bi24  1  0.563551  0.989298  0.327995  1
  Bi  Bi25  1  0.063235  0.509588  0.171494  1
  Bi  Bi26  1  0.435954  0.490071  0.671970  1
  Bi  Bi27  1  0.935538  0.008068  0.828499  1
  Bi  Bi28  1  0.435954  0.009929  0.671970  1
  Bi  Bi29  1  0.935538  0.491932  0.828499  1
  Bi  Bi30  1  0.563551  0.510702  0.327995  1
  Bi  Bi31  1  0.063235  0.990412  0.171494  1
