# generated using pymatgen
data_Ca5Pr15Si15P
_symmetry_space_group_name_H-M   'P 1'
_cell_length_a   7.92269009
_cell_length_b   7.93191873
_cell_length_c   15.17703600
_cell_angle_alpha   89.88615843
_cell_angle_beta   89.91811363
_cell_angle_gamma   90.00773974
_symmetry_Int_Tables_number   1
_chemical_formula_structural   Ca5Pr15Si15P
_chemical_formula_sum   'Ca5 Pr15 Si15 P1'
_cell_volume   953.75446345
_cell_formula_units_Z   1
loop_
 _symmetry_equiv_pos_site_id
 _symmetry_equiv_pos_as_xyz
  1  'x, y, z'
loop_
 _atom_site_type_symbol
 _atom_site_label
 _atom_site_symmetry_multiplicity
 _atom_site_fract_x
 _atom_site_fract_y
 _atom_site_fract_z
 _atom_site_occupancy
  Ca  Ca0  1  0.309413  0.308532  0.000399  1
  Ca  Ca1  1  0.192430  0.808934  0.251678  1
  Ca  Ca2  1  0.809160  0.191974  0.750089  1
  Ca  Ca3  1  0.688356  0.693726  0.499647  1
  Ca  Ca4  1  0.379775  0.012207  0.446823  1
  Pr  Pr5  1  0.490691  0.879233  0.697631  1
  Pr  Pr6  1  0.510146  0.120260  0.197617  1
  Pr  Pr7  1  0.878849  0.489826  0.302487  1
  Pr  Pr8  1  0.124117  0.509540  0.802194  1
  Pr  Pr9  1  0.621382  0.989153  0.947524  1
  Pr  Pr10  1  0.008201  0.378154  0.552744  1
  Pr  Pr11  1  0.990128  0.621300  0.051898  1
  Pr  Pr12  1  0.126353  0.985619  0.874880  1
  Pr  Pr13  1  0.514919  0.624318  0.125586  1
  Pr  Pr14  1  0.477695  0.370001  0.626186  1
  Pr  Pr15  1  0.622825  0.516050  0.872070  1
  Pr  Pr16  1  0.372688  0.479694  0.375388  1
  Pr  Pr17  1  0.874789  0.016985  0.376499  1
  Pr  Pr18  1  0.983808  0.125414  0.123550  1
  Pr  Pr19  1  0.023006  0.880928  0.624595  1
  Si  Si20  1  0.331387  0.700482  0.950399  1
  Si  Si21  1  0.670558  0.303306  0.452312  1
  Si  Si22  1  0.699529  0.332483  0.048369  1
  Si  Si23  1  0.296502  0.663921  0.550147  1
  Si  Si24  1  0.800335  0.831849  0.199322  1
  Si  Si25  1  0.165217  0.200989  0.297771  1
  Si  Si26  1  0.833449  0.801310  0.797892  1
  Si  Si27  1  0.287665  0.918427  0.060049  1
  Si  Si28  1  0.584106  0.782423  0.308114  1
  Si  Si29  1  0.421145  0.210573  0.811184  1
  Si  Si30  1  0.789688  0.582148  0.688611  1
  Si  Si31  1  0.211455  0.420077  0.189479  1
  Si  Si32  1  0.716254  0.082430  0.561232  1
  Si  Si33  1  0.919959  0.289211  0.939467  1
  Si  Si34  1  0.075406  0.706701  0.440634  1
  P  P35  1  0.198614  0.171819  0.705536  1
