# generated using pymatgen
data_SmDy(TcO4)6
_symmetry_space_group_name_H-M   'P 1'
_cell_length_a   10.03952200
_cell_length_b   10.03952278
_cell_length_c   6.09720100
_cell_angle_alpha   90.00000000
_cell_angle_beta   90.00000000
_cell_angle_gamma   119.99999741
_symmetry_Int_Tables_number   1
_chemical_formula_structural   SmDy(TcO4)6
_chemical_formula_sum   'Sm1 Dy1 Tc6 O24'
_cell_volume   532.21518388
_cell_formula_units_Z   1
loop_
 _symmetry_equiv_pos_site_id
 _symmetry_equiv_pos_as_xyz
  1  'x, y, z'
loop_
 _atom_site_type_symbol
 _atom_site_label
 _atom_site_symmetry_multiplicity
 _atom_site_fract_x
 _atom_site_fract_y
 _atom_site_fract_z
 _atom_site_occupancy
  Sm  Sm0  1  0.333333  0.666667  0.250000  1
  Dy  Dy1  1  0.666667  0.333333  0.750000  1
  Tc  Tc2  1  0.085220  0.386350  0.750000  1
  Tc  Tc3  1  0.393231  0.300738  0.250000  1
  Tc  Tc4  1  0.613650  0.698868  0.750000  1
  Tc  Tc5  1  0.907505  0.606769  0.250000  1
  Tc  Tc6  1  0.301132  0.914780  0.750000  1
  Tc  Tc7  1  0.699262  0.092495  0.250000  1
  O  O8  1  0.494431  0.645800  0.519242  1
  O  O9  1  0.354200  0.848632  0.519242  1
  O  O10  1  0.834342  0.728378  0.250000  1
  O  O11  1  0.107118  0.845611  0.750000  1
  O  O12  1  0.271622  0.105964  0.250000  1
  O  O13  1  0.154389  0.261507  0.750000  1
  O  O14  1  0.511919  0.355891  0.018189  1
  O  O15  1  0.894036  0.165658  0.250000  1
  O  O16  1  0.107294  0.711515  0.250000  1
  O  O17  1  0.151368  0.505569  0.980758  1
  O  O18  1  0.151368  0.505569  0.519242  1
  O  O19  1  0.885284  0.286581  0.750000  1
  O  O20  1  0.288485  0.395779  0.250000  1
  O  O21  1  0.713419  0.598703  0.750000  1
  O  O22  1  0.843974  0.488081  0.481811  1
  O  O23  1  0.401297  0.114716  0.750000  1
  O  O24  1  0.644109  0.156026  0.018189  1
  O  O25  1  0.494431  0.645800  0.980758  1
  O  O26  1  0.354200  0.848632  0.980758  1
  O  O27  1  0.644109  0.156026  0.481811  1
  O  O28  1  0.511919  0.355891  0.481811  1
  O  O29  1  0.843974  0.488081  0.018189  1
  O  O30  1  0.738493  0.892882  0.750000  1
  O  O31  1  0.604221  0.892706  0.250000  1
