# generated using pymatgen
data_Dy13Lu3InHg3Rh4
_symmetry_space_group_name_H-M   'P 1'
_cell_length_a   9.56129920
_cell_length_b   9.56129892
_cell_length_c   9.57083759
_cell_angle_alpha   60.00172877
_cell_angle_beta   60.00172969
_cell_angle_gamma   60.00208439
_symmetry_Int_Tables_number   1
_chemical_formula_structural   Dy13Lu3InHg3Rh4
_chemical_formula_sum   'Dy13 Lu3 In1 Hg3 Rh4'
_cell_volume   618.70972994
_cell_formula_units_Z   1
loop_
 _symmetry_equiv_pos_site_id
 _symmetry_equiv_pos_as_xyz
  1  'x, y, z'
loop_
 _atom_site_type_symbol
 _atom_site_label
 _atom_site_symmetry_multiplicity
 _atom_site_fract_x
 _atom_site_fract_y
 _atom_site_fract_z
 _atom_site_occupancy
  Dy  Dy0  1  0.936273  0.936273  0.560282  1
  Dy  Dy1  1  0.148525  0.148525  0.552136  1
  Dy  Dy2  1  0.563357  0.937161  0.561719  1
  Dy  Dy3  1  0.148732  0.148732  0.150081  1
  Dy  Dy4  1  0.311517  0.311517  0.688317  1
  Dy  Dy5  1  0.937161  0.563357  0.561719  1
  Dy  Dy6  1  0.562328  0.562328  0.938374  1
  Dy  Dy7  1  0.560894  0.935387  0.937319  1
  Dy  Dy8  1  0.935387  0.560894  0.937319  1
  Dy  Dy9  1  0.147595  0.553259  0.149193  1
  Dy  Dy10  1  0.311362  0.689896  0.688499  1
  Dy  Dy11  1  0.689896  0.311362  0.688499  1
  Dy  Dy12  1  0.553259  0.147595  0.149193  1
  Lu  Lu13  1  0.688436  0.312634  0.311181  1
  Lu  Lu14  1  0.688880  0.688880  0.310649  1
  Lu  Lu15  1  0.312634  0.688436  0.311181  1
  In  In16  1  0.919320  0.919320  0.919727  1
  Hg  Hg17  1  0.915068  0.915068  0.255408  1
  Hg  Hg18  1  0.255168  0.915095  0.915336  1
  Hg  Hg19  1  0.915095  0.255168  0.915336  1
  Rh  Rh20  1  0.358392  0.358392  0.356946  1
  Rh  Rh21  1  0.925712  0.358192  0.356702  1
  Rh  Rh22  1  0.356818  0.356818  0.928183  1
  Rh  Rh23  1  0.358192  0.925712  0.356702  1
