# generated using pymatgen
data_Li4Dy3YSi8
_symmetry_space_group_name_H-M   'P 1'
_cell_length_a   3.79673600
_cell_length_b   7.59098359
_cell_length_c   10.18321686
_cell_angle_alpha   90.00538593
_cell_angle_beta   90.00000000
_cell_angle_gamma   90.00000000
_symmetry_Int_Tables_number   1
_chemical_formula_structural   Li4Dy3YSi8
_chemical_formula_sum   'Li4 Dy3 Y1 Si8'
_cell_volume   293.49009135
_cell_formula_units_Z   1
loop_
 _symmetry_equiv_pos_site_id
 _symmetry_equiv_pos_as_xyz
  1  'x, y, z'
loop_
 _atom_site_type_symbol
 _atom_site_label
 _atom_site_symmetry_multiplicity
 _atom_site_fract_x
 _atom_site_fract_y
 _atom_site_fract_z
 _atom_site_occupancy
  Li  Li0  1  0.250000  0.989067  0.391201  1
  Li  Li1  1  0.750000  0.009847  0.608612  1
  Li  Li2  1  0.250000  0.490614  0.108834  1
  Li  Li3  1  0.750000  0.509038  0.891491  1
  Dy  Dy4  1  0.750000  0.861019  0.136241  1
  Dy  Dy5  1  0.250000  0.639196  0.635905  1
  Dy  Dy6  1  0.750000  0.360687  0.363938  1
  Y  Y7  1  0.250000  0.140138  0.864021  1
  Si  Si8  1  0.750000  0.269192  0.068676  1
  Si  Si9  1  0.250000  0.732114  0.932254  1
  Si  Si10  1  0.750000  0.767682  0.432195  1
  Si  Si11  1  0.250000  0.231506  0.567281  1
  Si  Si12  1  0.750000  0.842989  0.820533  1
  Si  Si13  1  0.250000  0.156935  0.179673  1
  Si  Si14  1  0.750000  0.343619  0.678508  1
  Si  Si15  1  0.250000  0.656356  0.320637  1
