# generated using pymatgen
data_DyUGa5Co6
_symmetry_space_group_name_H-M   'P 1'
_cell_length_a   5.07059071
_cell_length_b   6.56284228
_cell_length_c   6.56284219
_cell_angle_alpha   86.13464883
_cell_angle_beta   67.27487796
_cell_angle_gamma   67.27487933
_symmetry_Int_Tables_number   1
_chemical_formula_structural   DyUGa5Co6
_chemical_formula_sum   'Dy1 U1 Ga5 Co6'
_cell_volume   184.94122759
_cell_formula_units_Z   1
loop_
 _symmetry_equiv_pos_site_id
 _symmetry_equiv_pos_as_xyz
  1  'x, y, z'
loop_
 _atom_site_type_symbol
 _atom_site_label
 _atom_site_symmetry_multiplicity
 _atom_site_fract_x
 _atom_site_fract_y
 _atom_site_fract_z
 _atom_site_occupancy
  Dy  Dy0  1  0.000000  0.991859  0.008141  1
  U  U1  1  0.000000  0.351330  0.648670  1
  Ga  Ga2  1  0.000000  0.673820  0.326180  1
  Ga  Ga3  1  0.500000  0.165642  0.834358  1
  Ga  Ga4  1  0.500000  0.819660  0.180340  1
  Ga  Ga5  1  0.343536  0.660759  0.652168  1
  Ga  Ga6  1  0.656464  0.347832  0.339241  1
  Co  Co7  1  0.246495  0.251977  0.255033  1
  Co  Co8  1  0.753505  0.744967  0.748023  1
  Co  Co9  1  0.491905  0.004800  0.508722  1
  Co  Co10  1  0.508095  0.491278  0.995200  1
  Co  Co11  1  0.005429  0.491278  0.995200  1
  Co  Co12  1  0.994571  0.004800  0.508722  1
