# generated using pymatgen
data_Y6Al24Pd3Ru5
_symmetry_space_group_name_H-M   'P 1'
_cell_length_a   8.87069695
_cell_length_b   8.86894374
_cell_length_c   9.54205299
_cell_angle_alpha   90.21808645
_cell_angle_beta   90.08455391
_cell_angle_gamma   119.65239264
_symmetry_Int_Tables_number   1
_chemical_formula_structural   Y6Al24Pd3Ru5
_chemical_formula_sum   'Y6 Al24 Pd3 Ru5'
_cell_volume   652.38848847
_cell_formula_units_Z   1
loop_
 _symmetry_equiv_pos_site_id
 _symmetry_equiv_pos_as_xyz
  1  'x, y, z'
loop_
 _atom_site_type_symbol
 _atom_site_label
 _atom_site_symmetry_multiplicity
 _atom_site_fract_x
 _atom_site_fract_y
 _atom_site_fract_z
 _atom_site_occupancy
  Y  Y0  1  0.382105  0.188651  0.249197  1
  Y  Y1  1  0.810159  0.192482  0.250110  1
  Y  Y2  1  0.812466  0.616529  0.247714  1
  Y  Y3  1  0.617895  0.811349  0.750803  1
  Y  Y4  1  0.189841  0.807518  0.749890  1
  Y  Y5  1  0.187534  0.383471  0.752286  1
  Al  Al6  1  0.439388  0.876022  0.246027  1
  Al  Al7  1  0.121396  0.559395  0.250620  1
  Al  Al8  1  0.437798  0.562672  0.250892  1
  Al  Al9  1  0.560612  0.123978  0.753973  1
  Al  Al10  1  0.878604  0.440605  0.749380  1
  Al  Al11  1  0.562202  0.437328  0.749108  1
  Al  Al12  1  0.157662  0.831924  0.422460  1
  Al  Al13  1  0.157417  0.324545  0.423504  1
  Al  Al14  1  0.678221  0.838060  0.420558  1
  Al  Al15  1  0.842338  0.168076  0.577540  1
  Al  Al16  1  0.842583  0.675455  0.576496  1
  Al  Al17  1  0.321779  0.161940  0.579442  1
  Al  Al18  1  0.836331  0.164308  0.923926  1
  Al  Al19  1  0.843081  0.675656  0.922402  1
  Al  Al20  1  0.324417  0.156749  0.923164  1
  Al  Al21  1  0.163669  0.835692  0.076074  1
  Al  Al22  1  0.156919  0.324344  0.077598  1
  Al  Al23  1  0.675583  0.843251  0.076836  1
  Al  Al24  1  0.327849  0.663863  0.527106  1
  Al  Al25  1  0.672151  0.336137  0.472894  1
  Al  Al26  1  0.669236  0.329331  0.025555  1
  Al  Al27  1  0.330764  0.670669  0.974445  1
  Al  Al28  1  0.002214  0.998969  0.249721  1
  Al  Al29  1  0.997786  0.001031  0.750279  1
  Pd  Pd30  1  0.500000  0.000000  0.500000  1
  Pd  Pd31  1  0.500000  0.500000  0.500000  1
  Pd  Pd32  1  0.500000  0.500000  0.000000  1
  Ru  Ru33  1  0.000000  0.000000  0.500000  1
  Ru  Ru34  1  0.000000  0.000000  0.000000  1
  Ru  Ru35  1  0.000000  0.500000  0.500000  1
  Ru  Ru36  1  0.500000  0.000000  0.000000  1
  Ru  Ru37  1  0.000000  0.500000  0.000000  1
