# generated using pymatgen
data_MgSc2Co(BIr2)2
_symmetry_space_group_name_H-M   'P 1'
_cell_length_a   3.04313400
_cell_length_b   9.35150700
_cell_length_c   9.35150700
_cell_angle_alpha   90.00000000
_cell_angle_beta   90.00000000
_cell_angle_gamma   90.00000000
_symmetry_Int_Tables_number   1
_chemical_formula_structural   MgSc2Co(BIr2)2
_chemical_formula_sum   'Mg2 Sc4 Co2 B4 Ir8'
_cell_volume   266.12414728
_cell_formula_units_Z   2
loop_
 _symmetry_equiv_pos_site_id
 _symmetry_equiv_pos_as_xyz
  1  'x, y, z'
loop_
 _atom_site_type_symbol
 _atom_site_label
 _atom_site_symmetry_multiplicity
 _atom_site_fract_x
 _atom_site_fract_y
 _atom_site_fract_z
 _atom_site_occupancy
  Mg  Mg0  1  0.000000  0.000000  0.000000  1
  Mg  Mg1  1  0.000000  0.500000  0.500000  1
  Sc  Sc2  1  0.000000  0.177125  0.677125  1
  Sc  Sc3  1  0.000000  0.822875  0.322875  1
  Sc  Sc4  1  0.000000  0.322875  0.177125  1
  Sc  Sc5  1  0.000000  0.677125  0.822875  1
  Co  Co6  1  0.500000  0.000000  0.500000  1
  Co  Co7  1  0.500000  0.500000  0.000000  1
  B  B8  1  0.000000  0.614740  0.114740  1
  B  B9  1  0.000000  0.385260  0.885260  1
  B  B10  1  0.000000  0.885260  0.614740  1
  B  B11  1  0.000000  0.114740  0.385260  1
  Ir  Ir12  1  0.500000  0.062795  0.226506  1
  Ir  Ir13  1  0.500000  0.937205  0.773494  1
  Ir  Ir14  1  0.500000  0.773494  0.062795  1
  Ir  Ir15  1  0.500000  0.437205  0.726506  1
  Ir  Ir16  1  0.500000  0.226506  0.937205  1
  Ir  Ir17  1  0.500000  0.562795  0.273494  1
  Ir  Ir18  1  0.500000  0.726506  0.562795  1
  Ir  Ir19  1  0.500000  0.273494  0.437205  1
