# generated using pymatgen
data_DyErGa3Co14
_symmetry_space_group_name_H-M   'P 1'
_cell_length_a   6.33769932
_cell_length_b   6.33769959
_cell_length_c   6.33770000
_cell_angle_alpha   82.60542239
_cell_angle_beta   82.60543120
_cell_angle_gamma   82.60544716
_symmetry_Int_Tables_number   1
_chemical_formula_structural   DyErGa3Co14
_chemical_formula_sum   'Dy1 Er1 Ga3 Co14'
_cell_volume   248.71338747
_cell_formula_units_Z   1
loop_
 _symmetry_equiv_pos_site_id
 _symmetry_equiv_pos_as_xyz
  1  'x, y, z'
loop_
 _atom_site_type_symbol
 _atom_site_label
 _atom_site_symmetry_multiplicity
 _atom_site_fract_x
 _atom_site_fract_y
 _atom_site_fract_z
 _atom_site_occupancy
  Dy  Dy0  1  0.659296  0.659296  0.659296  1
  Er  Er1  1  0.332035  0.332035  0.332035  1
  Ga  Ga2  1  0.156096  0.651803  0.651803  1
  Ga  Ga3  1  0.651803  0.651803  0.156096  1
  Ga  Ga4  1  0.651803  0.156096  0.651803  1
  Co  Co5  1  0.907890  0.907890  0.907890  1
  Co  Co6  1  0.095259  0.095259  0.095259  1
  Co  Co7  1  0.005251  0.005251  0.495647  1
  Co  Co8  1  0.005251  0.495647  0.005251  1
  Co  Co9  1  0.495647  0.005251  0.005251  1
  Co  Co10  1  0.287613  0.713731  0.001704  1
  Co  Co11  1  0.713731  0.001704  0.287613  1
  Co  Co12  1  0.001704  0.287613  0.713731  1
  Co  Co13  1  0.287613  0.001704  0.713731  1
  Co  Co14  1  0.001704  0.713731  0.287613  1
  Co  Co15  1  0.713731  0.287613  0.001704  1
  Co  Co16  1  0.854868  0.339353  0.339353  1
  Co  Co17  1  0.339353  0.339353  0.854868  1
  Co  Co18  1  0.339353  0.854868  0.339353  1
