# generated using pymatgen
data_Yb3Pr(In2Pd3)4
_symmetry_space_group_name_H-M   'P 1'
_cell_length_a   4.61537000
_cell_length_b   9.83969206
_cell_length_c   10.45654919
_cell_angle_alpha   90.22537539
_cell_angle_beta   90.00000000
_cell_angle_gamma   90.00000000
_symmetry_Int_Tables_number   1
_chemical_formula_structural   Yb3Pr(In2Pd3)4
_chemical_formula_sum   'Yb3 Pr1 In8 Pd12'
_cell_volume   474.86816431
_cell_formula_units_Z   1
loop_
 _symmetry_equiv_pos_site_id
 _symmetry_equiv_pos_as_xyz
  1  'x, y, z'
loop_
 _atom_site_type_symbol
 _atom_site_label
 _atom_site_symmetry_multiplicity
 _atom_site_fract_x
 _atom_site_fract_y
 _atom_site_fract_z
 _atom_site_occupancy
  Yb  Yb0  1  0.250000  0.053860  0.223888  1
  Yb  Yb1  1  0.750000  0.553860  0.275714  1
  Yb  Yb2  1  0.750000  0.946215  0.775867  1
  Pr  Pr3  1  0.250000  0.448260  0.729726  1
  In  In4  1  0.250000  0.889844  0.513394  1
  In  In5  1  0.250000  0.611311  0.019327  1
  In  In6  1  0.750000  0.110032  0.483274  1
  In  In7  1  0.750000  0.389667  0.985956  1
  In  In8  1  0.250000  0.156487  0.891689  1
  In  In9  1  0.250000  0.339642  0.388452  1
  In  In10  1  0.750000  0.839132  0.110136  1
  In  In11  1  0.750000  0.663037  0.607569  1
  Pd  Pd12  1  0.250000  0.150158  0.618927  1
  Pd  Pd13  1  0.250000  0.344805  0.116696  1
  Pd  Pd14  1  0.750000  0.844466  0.381729  1
  Pd  Pd15  1  0.750000  0.656029  0.881697  1
  Pd  Pd16  1  0.250000  0.748407  0.739058  1
  Pd  Pd17  1  0.250000  0.760330  0.240836  1
  Pd  Pd18  1  0.750000  0.258164  0.259455  1
  Pd  Pd19  1  0.750000  0.238301  0.759305  1
  Pd  Pd20  1  0.250000  0.892149  0.974832  1
  Pd  Pd21  1  0.250000  0.607595  0.471833  1
  Pd  Pd22  1  0.750000  0.105000  0.026235  1
  Pd  Pd23  1  0.750000  0.393248  0.524406  1
