# generated using pymatgen
data_Pr(BiS2)3
_symmetry_space_group_name_H-M   'P 1'
_cell_length_a   4.04384500
_cell_length_b   11.63200241
_cell_length_c   11.75558593
_cell_angle_alpha   73.17318636
_cell_angle_beta   90.00000000
_cell_angle_gamma   90.00000000
_symmetry_Int_Tables_number   1
_chemical_formula_structural   Pr(BiS2)3
_chemical_formula_sum   'Pr2 Bi6 S12'
_cell_volume   529.28398619
_cell_formula_units_Z   2
loop_
 _symmetry_equiv_pos_site_id
 _symmetry_equiv_pos_as_xyz
  1  'x, y, z'
loop_
 _atom_site_type_symbol
 _atom_site_label
 _atom_site_symmetry_multiplicity
 _atom_site_fract_x
 _atom_site_fract_y
 _atom_site_fract_z
 _atom_site_occupancy
  Pr  Pr0  1  0.750000  0.543179  0.810910  1
  Pr  Pr1  1  0.250000  0.456821  0.189090  1
  Bi  Bi2  1  0.750000  0.191903  0.018398  1
  Bi  Bi3  1  0.250000  0.808097  0.981602  1
  Bi  Bi4  1  0.750000  0.938199  0.665262  1
  Bi  Bi5  1  0.250000  0.061801  0.334738  1
  Bi  Bi6  1  0.750000  0.650706  0.406056  1
  Bi  Bi7  1  0.250000  0.349294  0.593944  1
  S  S8  1  0.750000  0.970045  0.884541  1
  S  S9  1  0.250000  0.029955  0.115459  1
  S  S10  1  0.750000  0.308900  0.749392  1
  S  S11  1  0.250000  0.691100  0.250608  1
  S  S12  1  0.750000  0.904305  0.418652  1
  S  S13  1  0.250000  0.095695  0.581348  1
  S  S14  1  0.750000  0.425090  0.388391  1
  S  S15  1  0.250000  0.574910  0.611609  1
  S  S16  1  0.750000  0.255815  0.219567  1
  S  S17  1  0.250000  0.744185  0.780433  1
  S  S18  1  0.750000  0.609653  0.037288  1
  S  S19  1  0.250000  0.390347  0.962712  1
