# generated using pymatgen
data_TbY7CdHgIr2
_symmetry_space_group_name_H-M   'P 1'
_cell_length_a   9.65541467
_cell_length_b   9.65541426
_cell_length_c   9.66770900
_cell_angle_alpha   59.95786549
_cell_angle_beta   59.95786688
_cell_angle_gamma   59.95431295
_symmetry_Int_Tables_number   1
_chemical_formula_structural   TbY7CdHgIr2
_chemical_formula_sum   'Tb2 Y14 Cd2 Hg2 Ir4'
_cell_volume   636.68343684
_cell_formula_units_Z   2
loop_
 _symmetry_equiv_pos_site_id
 _symmetry_equiv_pos_as_xyz
  1  'x, y, z'
loop_
 _atom_site_type_symbol
 _atom_site_label
 _atom_site_symmetry_multiplicity
 _atom_site_fract_x
 _atom_site_fract_y
 _atom_site_fract_z
 _atom_site_occupancy
  Tb  Tb0  1  0.349506  0.349506  0.348047  1
  Tb  Tb1  1  0.349506  0.349506  0.952942  1
  Y  Y2  1  0.351670  0.948497  0.349916  1
  Y  Y3  1  0.948497  0.351670  0.349916  1
  Y  Y4  1  0.809430  0.188736  0.191433  1
  Y  Y5  1  0.188736  0.809430  0.810401  1
  Y  Y6  1  0.188736  0.809430  0.191433  1
  Y  Y7  1  0.809430  0.188736  0.810401  1
  Y  Y8  1  0.189284  0.189284  0.810716  1
  Y  Y9  1  0.808943  0.808943  0.191057  1
  Y  Y10  1  0.937751  0.561507  0.562427  1
  Y  Y11  1  0.561507  0.937751  0.938315  1
  Y  Y12  1  0.561507  0.937751  0.562427  1
  Y  Y13  1  0.937751  0.561507  0.938315  1
  Y  Y14  1  0.561622  0.561622  0.938378  1
  Y  Y15  1  0.937915  0.937915  0.562085  1
  Cd  Cd16  1  0.579948  0.258556  0.580748  1
  Cd  Cd17  1  0.258556  0.579948  0.580748  1
  Hg  Hg18  1  0.583765  0.583765  0.585795  1
  Hg  Hg19  1  0.583765  0.583765  0.246676  1
  Ir  Ir20  1  0.142267  0.142267  0.140951  1
  Ir  Ir21  1  0.142267  0.142267  0.574515  1
  Ir  Ir22  1  0.142724  0.574918  0.141179  1
  Ir  Ir23  1  0.574918  0.142724  0.141179  1
