# generated using pymatgen
data_Ba5SnP2
_symmetry_space_group_name_H-M   'P 1'
_cell_length_a   10.19470921
_cell_length_b   10.19470972
_cell_length_c   10.19470857
_cell_angle_alpha   128.46782631
_cell_angle_beta   128.46782306
_cell_angle_gamma   75.86838413
_symmetry_Int_Tables_number   1
_chemical_formula_structural   Ba5SnP2
_chemical_formula_sum   'Ba10 Sn2 P4'
_cell_volume   631.65724102
_cell_formula_units_Z   2
loop_
 _symmetry_equiv_pos_site_id
 _symmetry_equiv_pos_as_xyz
  1  'x, y, z'
loop_
 _atom_site_type_symbol
 _atom_site_label
 _atom_site_symmetry_multiplicity
 _atom_site_fract_x
 _atom_site_fract_y
 _atom_site_fract_z
 _atom_site_occupancy
  Ba  Ba0  1  0.789248  0.289248  0.818337  1
  Ba  Ba1  1  0.210752  0.710752  0.181663  1
  Ba  Ba2  1  0.470911  0.970911  0.181663  1
  Ba  Ba3  1  0.289248  0.470911  0.500000  1
  Ba  Ba4  1  0.029089  0.210752  0.500000  1
  Ba  Ba5  1  0.529089  0.029089  0.818337  1
  Ba  Ba6  1  0.710752  0.529089  0.500000  1
  Ba  Ba7  1  0.970911  0.789248  0.500000  1
  Ba  Ba8  1  0.000000  0.000000  0.000000  1
  Ba  Ba9  1  0.500000  0.500000  0.000000  1
  Sn  Sn10  1  0.250000  0.250000  0.000000  1
  Sn  Sn11  1  0.750000  0.750000  0.000000  1
  P  P12  1  0.155342  0.655342  0.810684  1
  P  P13  1  0.844658  0.344658  0.189316  1
  P  P14  1  0.655342  0.844658  0.500000  1
  P  P15  1  0.344658  0.155342  0.500000  1
