# generated using pymatgen
data_Y3Np(SiPd14)2
_symmetry_space_group_name_H-M   'P 1'
_cell_length_a   8.95342500
_cell_length_b   8.95342500
_cell_length_c   7.08814000
_cell_angle_alpha   90.00000000
_cell_angle_beta   90.00000000
_cell_angle_gamma   90.00000000
_symmetry_Int_Tables_number   1
_chemical_formula_structural   Y3Np(SiPd14)2
_chemical_formula_sum   'Y3 Np1 Si2 Pd28'
_cell_volume   568.21237364
_cell_formula_units_Z   1
loop_
 _symmetry_equiv_pos_site_id
 _symmetry_equiv_pos_as_xyz
  1  'x, y, z'
loop_
 _atom_site_type_symbol
 _atom_site_label
 _atom_site_symmetry_multiplicity
 _atom_site_fract_x
 _atom_site_fract_y
 _atom_site_fract_z
 _atom_site_occupancy
  Y  Y0  1  0.500000  0.000000  0.933261  1
  Y  Y1  1  0.000000  0.500000  0.066739  1
  Y  Y2  1  0.500000  0.500000  0.500000  1
  Np  Np3  1  0.000000  0.000000  0.500000  1
  Si  Si4  1  0.500000  0.000000  0.446450  1
  Si  Si5  1  0.000000  0.500000  0.553550  1
  Pd  Pd6  1  0.335985  0.834242  0.614347  1
  Pd  Pd7  1  0.335985  0.165758  0.614347  1
  Pd  Pd8  1  0.664015  0.834242  0.614347  1
  Pd  Pd9  1  0.664015  0.165758  0.614347  1
  Pd  Pd10  1  0.165758  0.664015  0.385653  1
  Pd  Pd11  1  0.165758  0.335985  0.385653  1
  Pd  Pd12  1  0.834242  0.664015  0.385653  1
  Pd  Pd13  1  0.834242  0.335985  0.385653  1
  Pd  Pd14  1  0.500000  0.770535  0.254149  1
  Pd  Pd15  1  0.500000  0.229465  0.254149  1
  Pd  Pd16  1  0.269089  0.000000  0.258452  1
  Pd  Pd17  1  0.730911  0.000000  0.258452  1
  Pd  Pd18  1  0.000000  0.730911  0.741548  1
  Pd  Pd19  1  0.000000  0.269089  0.741548  1
  Pd  Pd20  1  0.229465  0.500000  0.745851  1
  Pd  Pd21  1  0.770535  0.500000  0.745851  1
  Pd  Pd22  1  0.500000  0.348470  0.854685  1
  Pd  Pd23  1  0.500000  0.651530  0.854685  1
  Pd  Pd24  1  0.849980  0.000000  0.847377  1
  Pd  Pd25  1  0.150020  0.000000  0.847377  1
  Pd  Pd26  1  0.000000  0.150020  0.152623  1
  Pd  Pd27  1  0.000000  0.849980  0.152623  1
  Pd  Pd28  1  0.651530  0.500000  0.145315  1
  Pd  Pd29  1  0.348470  0.500000  0.145315  1
  Pd  Pd30  1  0.248875  0.751125  0.000000  1
  Pd  Pd31  1  0.248875  0.248875  0.000000  1
  Pd  Pd32  1  0.751125  0.751125  0.000000  1
  Pd  Pd33  1  0.751125  0.248875  0.000000  1
