# generated using pymatgen
data_Gd4ErReMoC7
_symmetry_space_group_name_H-M   'P 1'
_cell_length_a   8.42246100
_cell_length_b   8.42246006
_cell_length_c   3.45043300
_cell_angle_alpha   90.00000000
_cell_angle_beta   90.00000000
_cell_angle_gamma   123.20092765
_symmetry_Int_Tables_number   1
_chemical_formula_structural   Gd4ErReMoC7
_chemical_formula_sum   'Gd4 Er1 Re1 Mo1 C7'
_cell_volume   204.80950887
_cell_formula_units_Z   1
loop_
 _symmetry_equiv_pos_site_id
 _symmetry_equiv_pos_as_xyz
  1  'x, y, z'
loop_
 _atom_site_type_symbol
 _atom_site_label
 _atom_site_symmetry_multiplicity
 _atom_site_fract_x
 _atom_site_fract_y
 _atom_site_fract_z
 _atom_site_occupancy
  Gd  Gd0  1  0.072930  0.330981  0.500000  1
  Gd  Gd1  1  0.928784  0.669960  0.500000  1
  Gd  Gd2  1  0.669019  0.927070  0.500000  1
  Gd  Gd3  1  0.330040  0.071216  0.500000  1
  Er  Er4  1  0.499013  0.500987  0.000000  1
  Re  Re5  1  0.288769  0.711231  0.000000  1
  Mo  Mo6  1  0.712108  0.287892  0.000000  1
  C  C7  1  0.623296  0.376704  0.500000  1
  C  C8  1  0.373798  0.626202  0.500000  1
  C  C9  1  0.999784  0.000216  0.000000  1
  C  C10  1  0.169635  0.168978  0.000000  1
  C  C11  1  0.831022  0.830365  0.000000  1
  C  C12  1  0.002733  0.500931  0.000000  1
  C  C13  1  0.499069  0.997267  0.000000  1
