# generated using pymatgen
data_Ag3IrRu3PbO14
_symmetry_space_group_name_H-M   'P 1'
_cell_length_a   7.27995836
_cell_length_b   7.22514888
_cell_length_c   7.24628800
_cell_angle_alpha   59.90316905
_cell_angle_beta   60.15287868
_cell_angle_gamma   60.07192778
_symmetry_Int_Tables_number   1
_chemical_formula_structural   Ag3IrRu3PbO14
_chemical_formula_sum   'Ag3 Ir1 Ru3 Pb1 O14'
_cell_volume   269.76880364
_cell_formula_units_Z   1
loop_
 _symmetry_equiv_pos_site_id
 _symmetry_equiv_pos_as_xyz
  1  'x, y, z'
loop_
 _atom_site_type_symbol
 _atom_site_label
 _atom_site_symmetry_multiplicity
 _atom_site_fract_x
 _atom_site_fract_y
 _atom_site_fract_z
 _atom_site_occupancy
  Ag  Ag0  1  0.125000  0.625000  0.125000  1
  Ag  Ag1  1  0.125000  0.125000  0.625000  1
  Ag  Ag2  1  0.125000  0.125000  0.125000  1
  Ir  Ir3  1  0.625000  0.125000  0.625000  1
  Ru  Ru4  1  0.125000  0.625000  0.625000  1
  Ru  Ru5  1  0.625000  0.625000  0.125000  1
  Ru  Ru6  1  0.625000  0.625000  0.625000  1
  Pb  Pb7  1  0.625000  0.125000  0.125000  1
  O  O8  1  0.690001  0.698684  0.305658  1
  O  O9  1  0.307566  0.303543  0.694446  1
  O  O10  1  0.691661  0.300553  0.707492  1
  O  O11  1  0.310733  0.689271  0.308188  1
  O  O12  1  0.310733  0.689271  0.691809  1
  O  O13  1  0.691661  0.300553  0.300295  1
  O  O14  1  0.559999  0.551316  0.944342  1
  O  O15  1  0.942434  0.946457  0.555554  1
  O  O16  1  0.558339  0.949447  0.542508  1
  O  O17  1  0.939267  0.560729  0.941812  1
  O  O18  1  0.939267  0.560729  0.558191  1
  O  O19  1  0.558339  0.949447  0.949705  1
  O  O20  1  0.223281  0.258327  0.259196  1
  O  O21  1  0.026719  0.991673  0.990804  1
