# generated using pymatgen
data_Ba5Bi2Rh
_symmetry_space_group_name_H-M   'P 1'
_cell_length_a   9.05794200
_cell_length_b   10.34892200
_cell_length_c   14.13466300
_cell_angle_alpha   90.00000000
_cell_angle_beta   90.00000000
_cell_angle_gamma   90.00000000
_symmetry_Int_Tables_number   1
_chemical_formula_structural   Ba5Bi2Rh
_chemical_formula_sum   'Ba20 Bi8 Rh4'
_cell_volume   1324.98239424
_cell_formula_units_Z   4
loop_
 _symmetry_equiv_pos_site_id
 _symmetry_equiv_pos_as_xyz
  1  'x, y, z'
loop_
 _atom_site_type_symbol
 _atom_site_label
 _atom_site_symmetry_multiplicity
 _atom_site_fract_x
 _atom_site_fract_y
 _atom_site_fract_z
 _atom_site_occupancy
  Ba  Ba0  1  0.048374  0.750000  0.498033  1
  Ba  Ba1  1  0.951626  0.250000  0.501967  1
  Ba  Ba2  1  0.548374  0.250000  0.001967  1
  Ba  Ba3  1  0.451626  0.750000  0.998033  1
  Ba  Ba4  1  0.870138  0.750000  0.809669  1
  Ba  Ba5  1  0.129862  0.250000  0.190331  1
  Ba  Ba6  1  0.370138  0.250000  0.690331  1
  Ba  Ba7  1  0.629862  0.750000  0.309669  1
  Ba  Ba8  1  0.681196  0.520231  0.576732  1
  Ba  Ba9  1  0.318804  0.479769  0.423268  1
  Ba  Ba10  1  0.181196  0.479769  0.923268  1
  Ba  Ba11  1  0.318804  0.020231  0.423268  1
  Ba  Ba12  1  0.818804  0.520231  0.076732  1
  Ba  Ba13  1  0.681196  0.979769  0.576732  1
  Ba  Ba14  1  0.818804  0.979769  0.076732  1
  Ba  Ba15  1  0.181196  0.020231  0.923268  1
  Ba  Ba16  1  0.346366  0.750000  0.705371  1
  Ba  Ba17  1  0.653634  0.250000  0.294629  1
  Ba  Ba18  1  0.846366  0.250000  0.794629  1
  Ba  Ba19  1  0.153634  0.750000  0.205371  1
  Bi  Bi20  1  0.566118  0.506110  0.829906  1
  Bi  Bi21  1  0.433882  0.493890  0.170094  1
  Bi  Bi22  1  0.066118  0.493890  0.670094  1
  Bi  Bi23  1  0.433882  0.006110  0.170094  1
  Bi  Bi24  1  0.933882  0.506110  0.329906  1
  Bi  Bi25  1  0.566118  0.993890  0.829906  1
  Bi  Bi26  1  0.933882  0.993890  0.329906  1
  Bi  Bi27  1  0.066118  0.006110  0.670094  1
  Rh  Rh28  1  0.066044  0.750000  0.986413  1
  Rh  Rh29  1  0.933956  0.250000  0.013587  1
  Rh  Rh30  1  0.566044  0.250000  0.513587  1
  Rh  Rh31  1  0.433956  0.750000  0.486413  1
