# generated using pymatgen
data_Ho5Er4TmRu4
_symmetry_space_group_name_H-M   'P 1'
_cell_length_a   6.29465622
_cell_length_b   7.26960324
_cell_length_c   8.41774091
_cell_angle_alpha   96.80212828
_cell_angle_beta   112.00965427
_cell_angle_gamma   89.94857122
_symmetry_Int_Tables_number   1
_chemical_formula_structural   Ho5Er4TmRu4
_chemical_formula_sum   'Ho5 Er4 Tm1 Ru4'
_cell_volume   354.21068565
_cell_formula_units_Z   1
loop_
 _symmetry_equiv_pos_site_id
 _symmetry_equiv_pos_as_xyz
  1  'x, y, z'
loop_
 _atom_site_type_symbol
 _atom_site_label
 _atom_site_symmetry_multiplicity
 _atom_site_fract_x
 _atom_site_fract_y
 _atom_site_fract_z
 _atom_site_occupancy
  Ho  Ho0  1  0.791292  0.083840  0.813448  1
  Ho  Ho1  1  0.977501  0.416082  0.186343  1
  Ho  Ho2  1  0.208783  0.915613  0.186535  1
  Ho  Ho3  1  0.022192  0.584444  0.813716  1
  Ho  Ho4  1  0.206117  0.184555  0.565394  1
  Er  Er5  1  0.640650  0.315589  0.434591  1
  Er  Er6  1  0.793649  0.815408  0.434191  1
  Er  Er7  1  0.359645  0.684563  0.565511  1
  Er  Er8  1  0.419559  0.249770  0.000034  1
  Tm  Tm9  1  0.580092  0.750281  0.000142  1
  Ru  Ru10  1  0.602974  0.424614  0.779995  1
  Ru  Ru11  1  0.822505  0.076071  0.219731  1
  Ru  Ru12  1  0.397723  0.576090  0.220362  1
  Ru  Ru13  1  0.177317  0.923080  0.780007  1
