# generated using pymatgen
data_NdUNiAs2
_symmetry_space_group_name_H-M   'P 1'
_cell_length_a   4.14568800
_cell_length_b   4.14569012
_cell_length_c   14.53506500
_cell_angle_alpha   90.00000000
_cell_angle_beta   90.00000000
_cell_angle_gamma   119.99999901
_symmetry_Int_Tables_number   1
_chemical_formula_structural   NdUNiAs2
_chemical_formula_sum   'Nd2 U2 Ni2 As4'
_cell_volume   216.34211233
_cell_formula_units_Z   2
loop_
 _symmetry_equiv_pos_site_id
 _symmetry_equiv_pos_as_xyz
  1  'x, y, z'
loop_
 _atom_site_type_symbol
 _atom_site_label
 _atom_site_symmetry_multiplicity
 _atom_site_fract_x
 _atom_site_fract_y
 _atom_site_fract_z
 _atom_site_occupancy
  Nd  Nd0  1  0.333333  0.666667  0.379959  1
  Nd  Nd1  1  0.666667  0.333333  0.620041  1
  U  U2  1  0.666667  0.333333  0.887364  1
  U  U3  1  0.333333  0.666667  0.112636  1
  Ni  Ni4  1  0.000000  0.000000  0.214890  1
  Ni  Ni5  1  0.000000  0.000000  0.785110  1
  As  As6  1  0.000000  0.000000  0.500000  1
  As  As7  1  0.000000  0.000000  0.000000  1
  As  As8  1  0.333333  0.666667  0.755294  1
  As  As9  1  0.666667  0.333333  0.244706  1
