# generated using pymatgen
data_Tb11NdFe2I17
_symmetry_space_group_name_H-M   'P 1'
_cell_length_a   9.79489652
_cell_length_b   11.79576325
_cell_length_c   11.77880798
_cell_angle_alpha   93.55473375
_cell_angle_beta   104.71409472
_cell_angle_gamma   114.30190919
_symmetry_Int_Tables_number   1
_chemical_formula_structural   Tb11NdFe2I17
_chemical_formula_sum   'Tb11 Nd1 Fe2 I17'
_cell_volume   1178.03492613
_cell_formula_units_Z   1
loop_
 _symmetry_equiv_pos_site_id
 _symmetry_equiv_pos_as_xyz
  1  'x, y, z'
loop_
 _atom_site_type_symbol
 _atom_site_label
 _atom_site_symmetry_multiplicity
 _atom_site_fract_x
 _atom_site_fract_y
 _atom_site_fract_z
 _atom_site_occupancy
  Tb  Tb0  1  0.051196  0.500521  0.320006  1
  Tb  Tb1  1  0.990847  0.809487  0.585291  1
  Tb  Tb2  1  0.654477  0.241617  0.281576  1
  Tb  Tb3  1  0.007535  0.192809  0.409728  1
  Tb  Tb4  1  0.220003  0.671202  0.985337  1
  Tb  Tb5  1  0.256447  0.980530  0.889320  1
  Tb  Tb6  1  0.338302  0.757835  0.720309  1
  Tb  Tb7  1  0.946372  0.493844  0.678738  1
  Tb  Tb8  1  0.747637  0.024577  0.112228  1
  Tb  Tb9  1  0.143995  0.287628  0.154037  1
  Tb  Tb10  1  0.782629  0.327086  0.019284  1
  Nd  Nd11  1  0.855888  0.713061  0.846452  1
  Fe  Fe12  1  0.101622  0.737629  0.785814  1
  Fe  Fe13  1  0.896586  0.262215  0.214653  1
  I  I14  1  0.784248  0.528444  0.418733  1
  I  I15  1  0.645055  0.412778  0.760170  1
  I  I16  1  0.845419  0.897707  0.326121  1
  I  I17  1  0.327934  0.214315  0.368560  1
  I  I18  1  0.156170  0.102567  0.673285  1
  I  I19  1  0.584777  0.050726  0.843366  1
  I  I20  1  0.758738  0.187852  0.538601  1
  I  I21  1  0.547020  0.711890  0.953577  1
  I  I22  1  0.355979  0.581018  0.238350  1
  I  I23  1  0.216164  0.472788  0.583680  1
  I  I24  1  0.058056  0.369489  0.897147  1
  I  I25  1  0.449987  0.289222  0.045831  1
  I  I26  1  0.003309  0.003105  0.000774  1
  I  I27  1  0.241469  0.811258  0.462969  1
  I  I28  1  0.412750  0.946871  0.155529  1
  I  I29  1  0.672593  0.788846  0.625152  1
  I  I30  1  0.946796  0.631083  0.105382  1
