# generated using pymatgen
data_Gd10Al3Co
_symmetry_space_group_name_H-M   'P 1'
_cell_length_a   9.52841900
_cell_length_b   9.52841969
_cell_length_c   9.82966000
_cell_angle_alpha   90.00000000
_cell_angle_beta   90.00000000
_cell_angle_gamma   119.99999412
_symmetry_Int_Tables_number   1
_chemical_formula_structural   Gd10Al3Co
_chemical_formula_sum   'Gd20 Al6 Co2'
_cell_volume   772.87788035
_cell_formula_units_Z   2
loop_
 _symmetry_equiv_pos_site_id
 _symmetry_equiv_pos_as_xyz
  1  'x, y, z'
loop_
 _atom_site_type_symbol
 _atom_site_label
 _atom_site_symmetry_multiplicity
 _atom_site_fract_x
 _atom_site_fract_y
 _atom_site_fract_z
 _atom_site_occupancy
  Gd  Gd0  1  0.000000  0.000000  0.500000  1
  Gd  Gd1  1  0.000000  0.000000  0.000000  1
  Gd  Gd2  1  0.544386  0.455614  0.250000  1
  Gd  Gd3  1  0.544386  0.088773  0.250000  1
  Gd  Gd4  1  0.911227  0.455614  0.250000  1
  Gd  Gd5  1  0.455614  0.544386  0.750000  1
  Gd  Gd6  1  0.455614  0.911227  0.750000  1
  Gd  Gd7  1  0.088773  0.544386  0.750000  1
  Gd  Gd8  1  0.207369  0.792631  0.432371  1
  Gd  Gd9  1  0.207369  0.414739  0.432371  1
  Gd  Gd10  1  0.585261  0.792631  0.432371  1
  Gd  Gd11  1  0.792631  0.207369  0.567629  1
  Gd  Gd12  1  0.792631  0.585261  0.567629  1
  Gd  Gd13  1  0.414739  0.207369  0.567629  1
  Gd  Gd14  1  0.792631  0.207369  0.932371  1
  Gd  Gd15  1  0.792631  0.585261  0.932371  1
  Gd  Gd16  1  0.414739  0.207369  0.932371  1
  Gd  Gd17  1  0.207369  0.792631  0.067629  1
  Gd  Gd18  1  0.207369  0.414739  0.067629  1
  Gd  Gd19  1  0.585261  0.792631  0.067629  1
  Al  Al20  1  0.891910  0.108090  0.250000  1
  Al  Al21  1  0.891910  0.783821  0.250000  1
  Al  Al22  1  0.216179  0.108090  0.250000  1
  Al  Al23  1  0.108090  0.891910  0.750000  1
  Al  Al24  1  0.108090  0.216179  0.750000  1
  Al  Al25  1  0.783821  0.891910  0.750000  1
  Co  Co26  1  0.333333  0.666667  0.250000  1
  Co  Co27  1  0.666667  0.333333  0.750000  1
