# generated using pymatgen
data_Tb7U(Si4W3)4
_symmetry_space_group_name_H-M   'P 1'
_cell_length_a   6.79647385
_cell_length_b   6.94614898
_cell_length_c   12.97149603
_cell_angle_alpha   90.03118142
_cell_angle_beta   90.05736250
_cell_angle_gamma   90.18938807
_symmetry_Int_Tables_number   1
_chemical_formula_structural   Tb7U(Si4W3)4
_chemical_formula_sum   'Tb7 U1 Si16 W12'
_cell_volume   612.37176162
_cell_formula_units_Z   1
loop_
 _symmetry_equiv_pos_site_id
 _symmetry_equiv_pos_as_xyz
  1  'x, y, z'
loop_
 _atom_site_type_symbol
 _atom_site_label
 _atom_site_symmetry_multiplicity
 _atom_site_fract_x
 _atom_site_fract_y
 _atom_site_fract_z
 _atom_site_occupancy
  Tb  Tb0  1  0.496253  0.667726  0.592889  1
  Tb  Tb1  1  0.995197  0.833970  0.906729  1
  Tb  Tb2  1  0.503568  0.333544  0.093838  1
  Tb  Tb3  1  0.005160  0.165199  0.407348  1
  Tb  Tb4  1  0.502784  0.332206  0.406037  1
  Tb  Tb5  1  0.003170  0.167664  0.093971  1
  Tb  Tb6  1  0.495999  0.666971  0.906626  1
  U  U7  1  0.992508  0.830306  0.597538  1
  Si  Si8  1  0.661303  0.956941  0.454373  1
  Si  Si9  1  0.160499  0.542843  0.046189  1
  Si  Si10  1  0.339112  0.043114  0.953122  1
  Si  Si11  1  0.839430  0.454970  0.545938  1
  Si  Si12  1  0.335986  0.042880  0.545031  1
  Si  Si13  1  0.840029  0.457320  0.953282  1
  Si  Si14  1  0.660024  0.957496  0.046013  1
  Si  Si15  1  0.162238  0.544024  0.455065  1
  Si  Si16  1  0.463899  0.368849  0.748317  1
  Si  Si17  1  0.963091  0.130525  0.749747  1
  Si  Si18  1  0.537441  0.630334  0.250008  1
  Si  Si19  1  0.037628  0.870022  0.249659  1
  Si  Si20  1  0.695668  0.868272  0.750786  1
  Si  Si21  1  0.197301  0.631953  0.750249  1
  Si  Si22  1  0.303395  0.132161  0.249929  1
  Si  Si23  1  0.803400  0.368215  0.250721  1
  W  W24  1  0.669875  0.158135  0.625817  1
  W  W25  1  0.166378  0.335199  0.873848  1
  W  W26  1  0.333014  0.836037  0.125166  1
  W  W27  1  0.835341  0.667214  0.376335  1
  W  W28  1  0.334679  0.836132  0.373990  1
  W  W29  1  0.834274  0.665377  0.125494  1
  W  W30  1  0.665610  0.165360  0.874096  1
  W  W31  1  0.168710  0.338063  0.625767  1
  W  W32  1  0.835535  0.502002  0.747366  1
  W  W33  1  0.331276  0.999359  0.747347  1
  W  W34  1  0.164644  0.502325  0.251106  1
  W  W35  1  0.665582  0.997292  0.250261  1
