# generated using pymatgen
data_Tb4YHoGa10
_symmetry_space_group_name_H-M   'P 1'
_cell_length_a   6.12521700
_cell_length_b   9.65312100
_cell_length_c   11.59285200
_cell_angle_alpha   90.00000000
_cell_angle_beta   90.00000000
_cell_angle_gamma   90.00000000
_symmetry_Int_Tables_number   1
_chemical_formula_structural   Tb4YHoGa10
_chemical_formula_sum   'Tb8 Y2 Ho2 Ga20'
_cell_volume   685.45590280
_cell_formula_units_Z   2
loop_
 _symmetry_equiv_pos_site_id
 _symmetry_equiv_pos_as_xyz
  1  'x, y, z'
loop_
 _atom_site_type_symbol
 _atom_site_label
 _atom_site_symmetry_multiplicity
 _atom_site_fract_x
 _atom_site_fract_y
 _atom_site_fract_z
 _atom_site_occupancy
  Tb  Tb0  1  0.890450  0.509608  0.351422  1
  Tb  Tb1  1  0.609550  0.990392  0.851422  1
  Tb  Tb2  1  0.109772  0.009841  0.648478  1
  Tb  Tb3  1  0.390228  0.490159  0.148478  1
  Tb  Tb4  1  0.109772  0.490159  0.648478  1
  Tb  Tb5  1  0.390228  0.009841  0.148478  1
  Tb  Tb6  1  0.890450  0.990392  0.351422  1
  Tb  Tb7  1  0.609550  0.509608  0.851422  1
  Y  Y8  1  0.849043  0.750000  0.074803  1
  Y  Y9  1  0.650957  0.750000  0.574803  1
  Ho  Ho10  1  0.151011  0.250000  0.925264  1
  Ho  Ho11  1  0.348989  0.250000  0.425264  1
  Ga  Ga12  1  0.875012  0.053849  0.090233  1
  Ga  Ga13  1  0.624988  0.446151  0.590233  1
  Ga  Ga14  1  0.125129  0.553195  0.909664  1
  Ga  Ga15  1  0.374871  0.946805  0.409664  1
  Ga  Ga16  1  0.125129  0.946805  0.909664  1
  Ga  Ga17  1  0.374871  0.553195  0.409664  1
  Ga  Ga18  1  0.875012  0.446151  0.090233  1
  Ga  Ga19  1  0.624988  0.053849  0.590233  1
  Ga  Ga20  1  0.174089  0.750000  0.252353  1
  Ga  Ga21  1  0.325911  0.750000  0.752353  1
  Ga  Ga22  1  0.826498  0.250000  0.748005  1
  Ga  Ga23  1  0.673502  0.250000  0.248005  1
  Ga  Ga24  1  0.371146  0.750000  0.004235  1
  Ga  Ga25  1  0.128854  0.750000  0.504235  1
  Ga  Ga26  1  0.628486  0.250000  0.995568  1
  Ga  Ga27  1  0.871514  0.250000  0.495568  1
  Ga  Ga28  1  0.600945  0.750000  0.299599  1
  Ga  Ga29  1  0.899055  0.750000  0.799599  1
  Ga  Ga30  1  0.398733  0.250000  0.700578  1
  Ga  Ga31  1  0.101267  0.250000  0.200578  1
