# generated using pymatgen
data_Ho6Sc13Si16Mo
_symmetry_space_group_name_H-M   'P 1'
_cell_length_a   6.98962241
_cell_length_b   7.30847940
_cell_length_c   13.81366047
_cell_angle_alpha   89.71786261
_cell_angle_beta   89.80004432
_cell_angle_gamma   89.64740166
_symmetry_Int_Tables_number   1
_chemical_formula_structural   Ho6Sc13Si16Mo
_chemical_formula_sum   'Ho6 Sc13 Si16 Mo1'
_cell_volume   705.62414212
_cell_formula_units_Z   1
loop_
 _symmetry_equiv_pos_site_id
 _symmetry_equiv_pos_as_xyz
  1  'x, y, z'
loop_
 _atom_site_type_symbol
 _atom_site_label
 _atom_site_symmetry_multiplicity
 _atom_site_fract_x
 _atom_site_fract_y
 _atom_site_fract_z
 _atom_site_occupancy
  Ho  Ho0  1  0.991860  0.680585  0.600764  1
  Ho  Ho1  1  0.013381  0.322848  0.404457  1
  Ho  Ho2  1  0.512093  0.177025  0.404821  1
  Ho  Ho3  1  0.013924  0.322570  0.092312  1
  Ho  Ho4  1  0.485578  0.825458  0.597896  1
  Ho  Ho5  1  0.990318  0.680201  0.902689  1
  Sc  Sc6  1  0.843652  0.005615  0.248234  1
  Sc  Sc7  1  0.343589  0.497135  0.248224  1
  Sc  Sc8  1  0.655686  0.505296  0.751624  1
  Sc  Sc9  1  0.480595  0.822824  0.900187  1
  Sc  Sc10  1  0.516461  0.181823  0.097125  1
  Sc  Sc11  1  0.326838  0.320061  0.629213  1
  Sc  Sc12  1  0.672228  0.676856  0.372991  1
  Sc  Sc13  1  0.174603  0.826958  0.375053  1
  Sc  Sc14  1  0.671782  0.678446  0.123991  1
  Sc  Sc15  1  0.826215  0.168633  0.629754  1
  Sc  Sc16  1  0.327567  0.319301  0.874350  1
  Sc  Sc17  1  0.822995  0.167237  0.873173  1
  Sc  Sc18  1  0.176952  0.830628  0.121819  1
  Si  Si19  1  0.028926  0.377677  0.752023  1
  Si  Si20  1  0.973633  0.615644  0.248288  1
  Si  Si21  1  0.472305  0.890738  0.247670  1
  Si  Si22  1  0.517408  0.097767  0.752871  1
  Si  Si23  1  0.283975  0.640210  0.752800  1
  Si  Si24  1  0.716828  0.369385  0.247114  1
  Si  Si25  1  0.220087  0.132446  0.246973  1
  Si  Si26  1  0.787666  0.868268  0.752202  1
  Si  Si27  1  0.154550  0.034164  0.546828  1
  Si  Si28  1  0.844014  0.964396  0.462824  1
  Si  Si29  1  0.345177  0.535421  0.462964  1
  Si  Si30  1  0.839652  0.968893  0.038568  1
  Si  Si31  1  0.658314  0.464610  0.539617  1
  Si  Si32  1  0.157209  0.028944  0.950925  1
  Si  Si33  1  0.655736  0.465031  0.960930  1
  Si  Si34  1  0.347519  0.535524  0.036886  1
  Mo  Mo35  1  0.150687  0.001379  0.751836  1
