# generated using pymatgen
data_Nd8Ho2RuRh3
_symmetry_space_group_name_H-M   'P 1'
_cell_length_a   6.55495227
_cell_length_b   7.24808819
_cell_length_c   8.94011308
_cell_angle_alpha   96.44798320
_cell_angle_beta   111.46612028
_cell_angle_gamma   90.07265990
_symmetry_Int_Tables_number   1
_chemical_formula_structural   Nd8Ho2RuRh3
_chemical_formula_sum   'Nd8 Ho2 Ru1 Rh3'
_cell_volume   392.37631730
_cell_formula_units_Z   1
loop_
 _symmetry_equiv_pos_site_id
 _symmetry_equiv_pos_as_xyz
  1  'x, y, z'
loop_
 _atom_site_type_symbol
 _atom_site_label
 _atom_site_symmetry_multiplicity
 _atom_site_fract_x
 _atom_site_fract_y
 _atom_site_fract_z
 _atom_site_occupancy
  Nd  Nd0  1  0.983526  0.920873  0.184729  1
  Nd  Nd1  1  0.795695  0.579825  0.814496  1
  Nd  Nd2  1  0.022302  0.080005  0.818869  1
  Nd  Nd3  1  0.207577  0.417929  0.186580  1
  Nd  Nd4  1  0.639980  0.813249  0.427449  1
  Nd  Nd5  1  0.209587  0.687832  0.569625  1
  Nd  Nd6  1  0.358558  0.187552  0.567018  1
  Nd  Nd7  1  0.785341  0.311305  0.428819  1
  Ho  Ho8  1  0.431886  0.752122  0.001562  1
  Ho  Ho9  1  0.568508  0.248871  0.000588  1
  Ru  Ru10  1  0.402204  0.071559  0.213869  1
  Rh  Rh11  1  0.807658  0.572291  0.212237  1
  Rh  Rh12  1  0.594211  0.927640  0.787125  1
  Rh  Rh13  1  0.192966  0.428948  0.787033  1
