# generated using pymatgen
data_La3Tb5(Er3Si4)4
_symmetry_space_group_name_H-M   'P 1'
_cell_length_a   7.68182549
_cell_length_b   7.68500539
_cell_length_c   14.26482709
_cell_angle_alpha   90.00731809
_cell_angle_beta   89.91414712
_cell_angle_gamma   90.06845113
_symmetry_Int_Tables_number   1
_chemical_formula_structural   La3Tb5(Er3Si4)4
_chemical_formula_sum   'La3 Tb5 Er12 Si16'
_cell_volume   842.12066422
_cell_formula_units_Z   1
loop_
 _symmetry_equiv_pos_site_id
 _symmetry_equiv_pos_as_xyz
  1  'x, y, z'
loop_
 _atom_site_type_symbol
 _atom_site_label
 _atom_site_symmetry_multiplicity
 _atom_site_fract_x
 _atom_site_fract_y
 _atom_site_fract_z
 _atom_site_occupancy
  La  La0  1  0.511508  0.140660  0.206880  1
  La  La1  1  0.488597  0.857977  0.708859  1
  La  La2  1  0.357857  0.010343  0.457852  1
  Tb  Tb3  1  0.991765  0.636872  0.042390  1
  Tb  Tb4  1  0.007392  0.364952  0.544936  1
  Tb  Tb5  1  0.636563  0.993217  0.955915  1
  Tb  Tb6  1  0.134156  0.507529  0.795279  1
  Tb  Tb7  1  0.865413  0.491539  0.293705  1
  Er  Er8  1  0.362620  0.488481  0.374863  1
  Er  Er9  1  0.862798  0.008482  0.374555  1
  Er  Er10  1  0.988740  0.135195  0.123488  1
  Er  Er11  1  0.009843  0.862299  0.626458  1
  Er  Er12  1  0.638032  0.512848  0.875905  1
  Er  Er13  1  0.491509  0.362690  0.625232  1
  Er  Er14  1  0.511521  0.637582  0.122959  1
  Er  Er15  1  0.135922  0.992707  0.875620  1
  Er  Er16  1  0.686359  0.681504  0.500429  1
  Er  Er17  1  0.815627  0.185737  0.750863  1
  Er  Er18  1  0.183443  0.813746  0.249430  1
  Er  Er19  1  0.314963  0.317287  0.000050  1
  Si  Si20  1  0.061120  0.704984  0.437752  1
  Si  Si21  1  0.937299  0.293145  0.937374  1
  Si  Si22  1  0.716844  0.070600  0.561848  1
  Si  Si23  1  0.205031  0.439664  0.186745  1
  Si  Si24  1  0.794270  0.561964  0.688552  1
  Si  Si25  1  0.432457  0.215126  0.812884  1
  Si  Si26  1  0.570926  0.781776  0.311377  1
  Si  Si27  1  0.288155  0.932262  0.060399  1
  Si  Si28  1  0.847046  0.798711  0.812916  1
  Si  Si29  1  0.149765  0.205102  0.307788  1
  Si  Si30  1  0.804610  0.836057  0.190573  1
  Si  Si31  1  0.294049  0.649771  0.558825  1
  Si  Si32  1  0.702802  0.344638  0.056609  1
  Si  Si33  1  0.662404  0.302485  0.440502  1
  Si  Si34  1  0.341264  0.700100  0.939175  1
  Si  Si35  1  0.197331  0.161969  0.691013  1
