# generated using pymatgen
data_Dy2Tm6In3Os
_symmetry_space_group_name_H-M   'P 1'
_cell_length_a   10.29699100
_cell_length_b   10.28756164
_cell_length_c   7.04414532
_cell_angle_alpha   90.03528367
_cell_angle_beta   90.00000000
_cell_angle_gamma   120.03032803
_symmetry_Int_Tables_number   1
_chemical_formula_structural   Dy2Tm6In3Os
_chemical_formula_sum   'Dy4 Tm12 In6 Os2'
_cell_volume   646.02423188
_cell_formula_units_Z   2
loop_
 _symmetry_equiv_pos_site_id
 _symmetry_equiv_pos_as_xyz
  1  'x, y, z'
loop_
 _atom_site_type_symbol
 _atom_site_label
 _atom_site_symmetry_multiplicity
 _atom_site_fract_x
 _atom_site_fract_y
 _atom_site_fract_z
 _atom_site_occupancy
  Dy  Dy0  1  0.532437  0.064875  0.514863  1
  Dy  Dy1  1  0.935761  0.467890  0.515326  1
  Dy  Dy2  1  0.532128  0.467890  0.515326  1
  Dy  Dy3  1  0.467183  0.934365  0.015059  1
  Tm  Tm4  1  0.066258  0.533015  0.015848  1
  Tm  Tm5  1  0.466758  0.533015  0.015848  1
  Tm  Tm6  1  0.177507  0.355014  0.721070  1
  Tm  Tm7  1  0.645439  0.822327  0.720564  1
  Tm  Tm8  1  0.176888  0.822327  0.720564  1
  Tm  Tm9  1  0.822407  0.644813  0.218864  1
  Tm  Tm10  1  0.354413  0.177682  0.219256  1
  Tm  Tm11  1  0.823269  0.177682  0.219256  1
  Tm  Tm12  1  0.667040  0.334080  0.894560  1
  Tm  Tm13  1  0.332950  0.665901  0.394229  1
  Tm  Tm14  1  0.000068  0.000137  0.499358  1
  Tm  Tm15  1  0.000000  0.999999  0.999208  1
  In  In16  1  0.837276  0.674553  0.763291  1
  In  In17  1  0.325593  0.162960  0.763496  1
  In  In18  1  0.837367  0.162960  0.763496  1
  In  In19  1  0.163340  0.326681  0.262604  1
  In  In20  1  0.673897  0.836479  0.263203  1
  In  In21  1  0.162582  0.836479  0.263203  1
  Os  Os22  1  0.666608  0.333215  0.289198  1
  Os  Os23  1  0.332829  0.665660  0.790311  1
