# generated using pymatgen
data_NaLiMnF6
_symmetry_space_group_name_H-M   'P 1'
_cell_length_a   5.16414800
_cell_length_b   5.16414856
_cell_length_c   9.88329900
_cell_angle_alpha   90.00000000
_cell_angle_beta   90.00000000
_cell_angle_gamma   119.99999643
_symmetry_Int_Tables_number   1
_chemical_formula_structural   NaLiMnF6
_chemical_formula_sum   'Na2 Li2 Mn2 F12'
_cell_volume   228.26009254
_cell_formula_units_Z   2
loop_
 _symmetry_equiv_pos_site_id
 _symmetry_equiv_pos_as_xyz
  1  'x, y, z'
loop_
 _atom_site_type_symbol
 _atom_site_label
 _atom_site_symmetry_multiplicity
 _atom_site_fract_x
 _atom_site_fract_y
 _atom_site_fract_z
 _atom_site_occupancy
  Na  Na0  1  0.000000  0.000000  0.000000  1
  Na  Na1  1  0.000000  0.000000  0.500000  1
  Li  Li2  1  0.333333  0.666667  0.250000  1
  Li  Li3  1  0.666667  0.333333  0.750000  1
  Mn  Mn4  1  0.666667  0.333333  0.250000  1
  Mn  Mn5  1  0.333333  0.666667  0.750000  1
  F  F6  1  0.650355  0.029732  0.355044  1
  F  F7  1  0.029732  0.379377  0.644956  1
  F  F8  1  0.620623  0.970268  0.855044  1
  F  F9  1  0.029732  0.650355  0.855044  1
  F  F10  1  0.349645  0.379377  0.855044  1
  F  F11  1  0.970268  0.349645  0.144956  1
  F  F12  1  0.620623  0.650355  0.644956  1
  F  F13  1  0.379377  0.029732  0.144956  1
  F  F14  1  0.970268  0.620623  0.355044  1
  F  F15  1  0.379377  0.349645  0.355044  1
  F  F16  1  0.349645  0.970268  0.644956  1
  F  F17  1  0.650355  0.620623  0.144956  1
