# generated using pymatgen
data_Tb7Dy(GaBr6)2
_symmetry_space_group_name_H-M   'P 1'
_cell_length_a   4.07544500
_cell_length_b   13.43637195
_cell_length_c   14.22278213
_cell_angle_alpha   90.07593142
_cell_angle_beta   90.00000000
_cell_angle_gamma   90.00000000
_symmetry_Int_Tables_number   1
_chemical_formula_structural   Tb7Dy(GaBr6)2
_chemical_formula_sum   'Tb7 Dy1 Ga2 Br12'
_cell_volume   778.82741406
_cell_formula_units_Z   1
loop_
 _symmetry_equiv_pos_site_id
 _symmetry_equiv_pos_as_xyz
  1  'x, y, z'
loop_
 _atom_site_type_symbol
 _atom_site_label
 _atom_site_symmetry_multiplicity
 _atom_site_fract_x
 _atom_site_fract_y
 _atom_site_fract_z
 _atom_site_occupancy
  Tb  Tb0  1  0.500000  0.881442  0.660113  1
  Tb  Tb1  1  0.500000  0.618862  0.160565  1
  Tb  Tb2  1  0.500000  0.381126  0.839450  1
  Tb  Tb3  1  0.000000  0.121471  0.580735  1
  Tb  Tb4  1  0.000000  0.878424  0.419444  1
  Tb  Tb5  1  0.000000  0.621800  0.919221  1
  Tb  Tb6  1  0.000000  0.378133  0.080765  1
  Dy  Dy7  1  0.500000  0.118566  0.339867  1
  Ga  Ga8  1  0.500000  0.000219  0.499788  1
  Ga  Ga9  1  0.500000  0.499928  0.000015  1
  Br  Br10  1  0.500000  0.244620  0.165021  1
  Br  Br11  1  0.500000  0.755092  0.835355  1
  Br  Br12  1  0.500000  0.744972  0.335468  1
  Br  Br13  1  0.500000  0.255136  0.664495  1
  Br  Br14  1  0.000000  0.253866  0.410509  1
  Br  Br15  1  0.000000  0.745432  0.588852  1
  Br  Br16  1  0.000000  0.754503  0.089000  1
  Br  Br17  1  0.000000  0.245476  0.911016  1
  Br  Br18  1  0.000000  0.002624  0.243927  1
  Br  Br19  1  0.000000  0.998155  0.756429  1
  Br  Br20  1  0.000000  0.502063  0.256380  1
  Br  Br21  1  0.000000  0.498093  0.743583  1
