# generated using pymatgen
data_Pr6GdDyO12
_symmetry_space_group_name_H-M   'P 1'
_cell_length_a   7.03489208
_cell_length_b   7.03489193
_cell_length_c   7.03489065
_cell_angle_alpha   92.02335885
_cell_angle_beta   92.02336016
_cell_angle_gamma   92.02336787
_symmetry_Int_Tables_number   1
_chemical_formula_structural   Pr6GdDyO12
_chemical_formula_sum   'Pr6 Gd1 Dy1 O12'
_cell_volume   347.48769828
_cell_formula_units_Z   1
loop_
 _symmetry_equiv_pos_site_id
 _symmetry_equiv_pos_as_xyz
  1  'x, y, z'
loop_
 _atom_site_type_symbol
 _atom_site_label
 _atom_site_symmetry_multiplicity
 _atom_site_fract_x
 _atom_site_fract_y
 _atom_site_fract_z
 _atom_site_occupancy
  Pr  Pr0  1  0.557500  0.064612  0.253698  1
  Pr  Pr1  1  0.064612  0.253698  0.557500  1
  Pr  Pr2  1  0.746302  0.442500  0.935388  1
  Pr  Pr3  1  0.253698  0.557500  0.064612  1
  Pr  Pr4  1  0.935388  0.746302  0.442500  1
  Pr  Pr5  1  0.442500  0.935388  0.746302  1
  Gd  Gd6  1  0.000000  0.000000  0.000000  1
  Dy  Dy7  1  0.500000  0.500000  0.500000  1
  O  O8  1  0.688731  0.090921  0.934139  1
  O  O9  1  0.909079  0.065861  0.311269  1
  O  O10  1  0.403548  0.191227  0.533520  1
  O  O11  1  0.065861  0.311269  0.909079  1
  O  O12  1  0.533520  0.403548  0.191227  1
  O  O13  1  0.808773  0.466480  0.596452  1
  O  O14  1  0.191227  0.533520  0.403548  1
  O  O15  1  0.466480  0.596452  0.808773  1
  O  O16  1  0.934139  0.688731  0.090921  1
  O  O17  1  0.596452  0.808773  0.466480  1
  O  O18  1  0.090921  0.934139  0.688731  1
  O  O19  1  0.311269  0.909079  0.065861  1
