# generated using pymatgen
data_NaPr5SmPtI12
_symmetry_space_group_name_H-M   'P 1'
_cell_length_a   10.01902083
_cell_length_b   10.08717335
_cell_length_c   10.15022500
_cell_angle_alpha   106.74215416
_cell_angle_beta   107.14343625
_cell_angle_gamma   107.13940965
_symmetry_Int_Tables_number   1
_chemical_formula_structural   NaPr5SmPtI12
_chemical_formula_sum   'Na1 Pr5 Sm1 Pt1 I12'
_cell_volume   854.10631579
_cell_formula_units_Z   1
loop_
 _symmetry_equiv_pos_site_id
 _symmetry_equiv_pos_as_xyz
  1  'x, y, z'
loop_
 _atom_site_type_symbol
 _atom_site_label
 _atom_site_symmetry_multiplicity
 _atom_site_fract_x
 _atom_site_fract_y
 _atom_site_fract_z
 _atom_site_occupancy
  Na  Na0  1  0.500397  0.499703  0.499939  1
  Pr  Pr1  1  0.105555  0.029844  0.315069  1
  Pr  Pr2  1  0.304873  0.100433  0.028105  1
  Pr  Pr3  1  0.029065  0.316575  0.105468  1
  Pr  Pr4  1  0.894135  0.971564  0.685100  1
  Pr  Pr5  1  0.693521  0.896190  0.970932  1
  Sm  Sm6  1  0.970863  0.688895  0.895439  1
  Pt  Pt7  1  0.999082  0.999652  0.999651  1
  I  I8  1  0.074702  0.681545  0.219265  1
  I  I9  1  0.228144  0.077412  0.683227  1
  I  I10  1  0.679059  0.223429  0.075172  1
  I  I11  1  0.925346  0.323234  0.776058  1
  I  I12  1  0.771278  0.921494  0.316653  1
  I  I13  1  0.314034  0.770918  0.923023  1
  I  I14  1  0.458100  0.148285  0.374733  1
  I  I15  1  0.377801  0.455437  0.148613  1
  I  I16  1  0.147744  0.375571  0.454832  1
  I  I17  1  0.541388  0.850727  0.625181  1
  I  I18  1  0.628973  0.543451  0.851944  1
  I  I19  1  0.855940  0.625642  0.551598  1
