# generated using pymatgen
data_Sr5AcSn8BiSb
_symmetry_space_group_name_H-M   'P 1'
_cell_length_a   9.09719938
_cell_length_b   9.09719945
_cell_length_c   9.09719931
_cell_angle_alpha   120.48255920
_cell_angle_beta   120.48255869
_cell_angle_gamma   89.16619890
_symmetry_Int_Tables_number   1
_chemical_formula_structural   Sr5AcSn8BiSb
_chemical_formula_sum   'Sr5 Ac1 Sn8 Bi1 Sb1'
_cell_volume   528.41966664
_cell_formula_units_Z   1
loop_
 _symmetry_equiv_pos_site_id
 _symmetry_equiv_pos_as_xyz
  1  'x, y, z'
loop_
 _atom_site_type_symbol
 _atom_site_label
 _atom_site_symmetry_multiplicity
 _atom_site_fract_x
 _atom_site_fract_y
 _atom_site_fract_z
 _atom_site_occupancy
  Sr  Sr0  1  0.752734  0.752734  0.000000  1
  Sr  Sr1  1  0.160043  0.666451  0.826619  1
  Sr  Sr2  1  0.839833  0.333426  0.173381  1
  Sr  Sr3  1  0.666451  0.839833  0.506407  1
  Sr  Sr4  1  0.333426  0.160043  0.493593  1
  Ac  Ac5  1  0.247000  0.247000  0.000000  1
  Sn  Sn6  1  0.830203  0.332045  0.784938  1
  Sn  Sn7  1  0.169336  0.668551  0.215049  1
  Sn  Sn8  1  0.547109  0.045265  0.215062  1
  Sn  Sn9  1  0.332045  0.547109  0.501843  1
  Sn  Sn10  1  0.954286  0.169336  0.500784  1
  Sn  Sn11  1  0.453502  0.954286  0.784951  1
  Sn  Sn12  1  0.668551  0.453502  0.499216  1
  Sn  Sn13  1  0.045265  0.830203  0.498157  1
  Bi  Bi14  1  0.501463  0.501463  0.000000  1
  Sb  Sb15  1  0.998753  0.998753  0.000000  1
