# generated using pymatgen
data_YLu5(Ni3As2)6
_symmetry_space_group_name_H-M   'P 1'
_cell_length_a   3.85898000
_cell_length_b   10.81576400
_cell_length_c   12.68456500
_cell_angle_alpha   90.00000000
_cell_angle_beta   90.00000000
_cell_angle_gamma   90.00000000
_symmetry_Int_Tables_number   1
_chemical_formula_structural   YLu5(Ni3As2)6
_chemical_formula_sum   'Y1 Lu5 Ni18 As12'
_cell_volume   529.42605220
_cell_formula_units_Z   1
loop_
 _symmetry_equiv_pos_site_id
 _symmetry_equiv_pos_as_xyz
  1  'x, y, z'
loop_
 _atom_site_type_symbol
 _atom_site_label
 _atom_site_symmetry_multiplicity
 _atom_site_fract_x
 _atom_site_fract_y
 _atom_site_fract_z
 _atom_site_occupancy
  Y  Y0  1  0.500000  0.000000  0.476293  1
  Lu  Lu1  1  0.000000  0.500000  0.524350  1
  Lu  Lu2  1  0.500000  0.817886  0.206847  1
  Lu  Lu3  1  0.500000  0.182114  0.206847  1
  Lu  Lu4  1  0.000000  0.681748  0.792526  1
  Lu  Lu5  1  0.000000  0.318252  0.792526  1
  Ni  Ni6  1  0.500000  0.500000  0.157745  1
  Ni  Ni7  1  0.000000  0.000000  0.843969  1
  Ni  Ni8  1  0.500000  0.500000  0.698844  1
  Ni  Ni9  1  0.000000  0.000000  0.299245  1
  Ni  Ni10  1  0.000000  0.500000  0.982499  1
  Ni  Ni11  1  0.500000  0.000000  0.016825  1
  Ni  Ni12  1  0.500000  0.333506  0.997602  1
  Ni  Ni13  1  0.500000  0.666494  0.997602  1
  Ni  Ni14  1  0.000000  0.167544  0.002513  1
  Ni  Ni15  1  0.000000  0.832456  0.002513  1
  Ni  Ni16  1  0.500000  0.303435  0.427112  1
  Ni  Ni17  1  0.500000  0.696565  0.427112  1
  Ni  Ni18  1  0.000000  0.197711  0.573404  1
  Ni  Ni19  1  0.000000  0.802289  0.573404  1
  Ni  Ni20  1  0.500000  0.877918  0.707899  1
  Ni  Ni21  1  0.500000  0.122082  0.707899  1
  Ni  Ni22  1  0.000000  0.621163  0.292618  1
  Ni  Ni23  1  0.000000  0.378837  0.292618  1
  As  As24  1  0.500000  0.500000  0.875260  1
  As  As25  1  0.000000  0.000000  0.123398  1
  As  As26  1  0.500000  0.500000  0.347614  1
  As  As27  1  0.000000  0.000000  0.654723  1
  As  As28  1  0.500000  0.315881  0.613664  1
  As  As29  1  0.500000  0.684119  0.613664  1
  As  As30  1  0.000000  0.185159  0.385143  1
  As  As31  1  0.000000  0.814841  0.385143  1
  As  As32  1  0.500000  0.845379  0.889330  1
  As  As33  1  0.500000  0.154621  0.889330  1
  As  As34  1  0.000000  0.653814  0.110959  1
  As  As35  1  0.000000  0.346186  0.110959  1
