# generated using pymatgen
data_AcBRu2C
_symmetry_space_group_name_H-M   'P 1'
_cell_length_a   6.95806768
_cell_length_b   6.08032559
_cell_length_c   5.64959304
_cell_angle_alpha   72.66233355
_cell_angle_beta   56.52737578
_cell_angle_gamma   50.81028304
_symmetry_Int_Tables_number   1
_chemical_formula_structural   AcBRu2C
_chemical_formula_sum   'Ac2 B2 Ru4 C2'
_cell_volume   154.05692374
_cell_formula_units_Z   2
loop_
 _symmetry_equiv_pos_site_id
 _symmetry_equiv_pos_as_xyz
  1  'x, y, z'
loop_
 _atom_site_type_symbol
 _atom_site_label
 _atom_site_symmetry_multiplicity
 _atom_site_fract_x
 _atom_site_fract_y
 _atom_site_fract_z
 _atom_site_occupancy
  Ac  Ac0  1  0.000000  0.000000  0.000000  1
  Ac  Ac1  1  0.250000  0.250000  0.250000  1
  B  B2  1  0.924131  0.575869  0.924131  1
  B  B3  1  0.575869  0.924131  0.575869  1
  Ru  Ru4  1  0.610603  0.610603  0.889397  1
  Ru  Ru5  1  0.629651  0.629651  0.370348  1
  Ru  Ru6  1  0.370348  0.370349  0.629651  1
  Ru  Ru7  1  0.889398  0.889397  0.610602  1
  C  C8  1  0.674385  0.325615  0.674385  1
  C  C9  1  0.325615  0.674385  0.325615  1
