# generated using pymatgen
data_PrThZn4Ru
_symmetry_space_group_name_H-M   'P 1'
_cell_length_a   7.23748000
_cell_length_b   7.23748000
_cell_length_c   5.36311100
_cell_angle_alpha   90.00000000
_cell_angle_beta   90.00000000
_cell_angle_gamma   90.00000000
_symmetry_Int_Tables_number   1
_chemical_formula_structural   PrThZn4Ru
_chemical_formula_sum   'Pr2 Th2 Zn8 Ru2'
_cell_volume   280.92574344
_cell_formula_units_Z   2
loop_
 _symmetry_equiv_pos_site_id
 _symmetry_equiv_pos_as_xyz
  1  'x, y, z'
loop_
 _atom_site_type_symbol
 _atom_site_label
 _atom_site_symmetry_multiplicity
 _atom_site_fract_x
 _atom_site_fract_y
 _atom_site_fract_z
 _atom_site_occupancy
  Pr  Pr0  1  0.000000  0.500000  0.788245  1
  Pr  Pr1  1  0.500000  0.000000  0.211755  1
  Th  Th2  1  0.000000  0.000000  0.000000  1
  Th  Th3  1  0.500000  0.500000  0.000000  1
  Zn  Zn4  1  0.182315  0.682315  0.301511  1
  Zn  Zn5  1  0.817685  0.682315  0.301511  1
  Zn  Zn6  1  0.817685  0.317685  0.301511  1
  Zn  Zn7  1  0.317685  0.182315  0.698489  1
  Zn  Zn8  1  0.182315  0.317685  0.301511  1
  Zn  Zn9  1  0.682315  0.182315  0.698489  1
  Zn  Zn10  1  0.682315  0.817685  0.698489  1
  Zn  Zn11  1  0.317685  0.817685  0.698489  1
  Ru  Ru12  1  0.500000  0.500000  0.500000  1
  Ru  Ru13  1  0.000000  0.000000  0.500000  1
