# generated using pymatgen
data_Sm4Co15P12Ru5
_symmetry_space_group_name_H-M   'P 1'
_cell_length_a   3.74046500
_cell_length_b   10.50041140
_cell_length_c   11.89725687
_cell_angle_alpha   90.32138100
_cell_angle_beta   90.00000000
_cell_angle_gamma   90.00000000
_symmetry_Int_Tables_number   1
_chemical_formula_structural   Sm4Co15P12Ru5
_chemical_formula_sum   'Sm4 Co15 P12 Ru5'
_cell_volume   467.27432281
_cell_formula_units_Z   1
loop_
 _symmetry_equiv_pos_site_id
 _symmetry_equiv_pos_as_xyz
  1  'x, y, z'
loop_
 _atom_site_type_symbol
 _atom_site_label
 _atom_site_symmetry_multiplicity
 _atom_site_fract_x
 _atom_site_fract_y
 _atom_site_fract_z
 _atom_site_occupancy
  Sm  Sm0  1  0.250000  0.587904  0.705335  1
  Sm  Sm1  1  0.250000  0.914172  0.203116  1
  Sm  Sm2  1  0.750000  0.413427  0.291860  1
  Sm  Sm3  1  0.750000  0.085460  0.796818  1
  Co  Co4  1  0.250000  0.091584  0.990883  1
  Co  Co5  1  0.750000  0.598833  0.510979  1
  Co  Co6  1  0.750000  0.908208  0.008992  1
  Co  Co7  1  0.250000  0.220503  0.174930  1
  Co  Co8  1  0.250000  0.275007  0.680202  1
  Co  Co9  1  0.750000  0.779253  0.824020  1
  Co  Co10  1  0.750000  0.722305  0.322807  1
  Co  Co11  1  0.250000  0.886546  0.702072  1
  Co  Co12  1  0.250000  0.615140  0.199998  1
  Co  Co13  1  0.750000  0.113727  0.298014  1
  Co  Co14  1  0.750000  0.386771  0.799184  1
  Co  Co15  1  0.250000  0.465733  0.931039  1
  Co  Co16  1  0.250000  0.034294  0.431860  1
  Co  Co17  1  0.750000  0.535121  0.067470  1
  Co  Co18  1  0.750000  0.963617  0.568261  1
  P  P19  1  0.250000  0.420459  0.109365  1
  P  P20  1  0.250000  0.078128  0.611467  1
  P  P21  1  0.750000  0.580410  0.889422  1
  P  P22  1  0.750000  0.920661  0.388467  1
  P  P23  1  0.250000  0.273791  0.868911  1
  P  P24  1  0.250000  0.223742  0.365104  1
  P  P25  1  0.750000  0.725897  0.132103  1
  P  P26  1  0.750000  0.774005  0.633206  1
  P  P27  1  0.250000  0.601289  0.388550  1
  P  P28  1  0.250000  0.902024  0.891257  1
  P  P29  1  0.750000  0.400293  0.612160  1
  P  P30  1  0.750000  0.097981  0.108543  1
  Ru  Ru31  1  0.250000  0.716353  0.991294  1
  Ru  Ru32  1  0.250000  0.787199  0.490420  1
  Ru  Ru33  1  0.750000  0.283988  0.008182  1
  Ru  Ru34  1  0.750000  0.208681  0.513405  1
  Ru  Ru35  1  0.250000  0.407492  0.490297  1
