# generated using pymatgen
data_Pu6ZrUSb10
_symmetry_space_group_name_H-M   'P 1'
_cell_length_a   9.44448300
_cell_length_b   9.44448394
_cell_length_c   6.36770200
_cell_angle_alpha   90.00000000
_cell_angle_beta   90.00000000
_cell_angle_gamma   120.00000021
_symmetry_Int_Tables_number   1
_chemical_formula_structural   Pu6ZrUSb10
_chemical_formula_sum   'Pu6 Zr1 U1 Sb10'
_cell_volume   491.89202701
_cell_formula_units_Z   1
loop_
 _symmetry_equiv_pos_site_id
 _symmetry_equiv_pos_as_xyz
  1  'x, y, z'
loop_
 _atom_site_type_symbol
 _atom_site_label
 _atom_site_symmetry_multiplicity
 _atom_site_fract_x
 _atom_site_fract_y
 _atom_site_fract_z
 _atom_site_occupancy
  Pu  Pu0  1  0.614004  0.000000  0.252035  1
  Pu  Pu1  1  0.385996  0.000000  0.747965  1
  Pu  Pu2  1  0.000000  0.614004  0.252035  1
  Pu  Pu3  1  0.000000  0.385996  0.747965  1
  Pu  Pu4  1  0.385996  0.385996  0.252035  1
  Pu  Pu5  1  0.614004  0.614004  0.747965  1
  Zr  Zr6  1  0.000000  0.000000  0.500000  1
  U  U7  1  0.000000  0.000000  0.000000  1
  Sb  Sb8  1  0.272481  0.000000  0.253184  1
  Sb  Sb9  1  0.727519  0.000000  0.746816  1
  Sb  Sb10  1  0.000000  0.272481  0.253184  1
  Sb  Sb11  1  0.000000  0.727519  0.746816  1
  Sb  Sb12  1  0.727519  0.727519  0.253184  1
  Sb  Sb13  1  0.272481  0.272481  0.746816  1
  Sb  Sb14  1  0.333333  0.666667  0.000000  1
  Sb  Sb15  1  0.666667  0.333333  0.000000  1
  Sb  Sb16  1  0.666667  0.333333  0.500000  1
  Sb  Sb17  1  0.333333  0.666667  0.500000  1
