# generated using pymatgen
data_Tm2Ga3Ag
_symmetry_space_group_name_H-M   'P 1'
_cell_length_a   4.48178600
_cell_length_b   4.48178504
_cell_length_c   7.10419000
_cell_angle_alpha   90.00000000
_cell_angle_beta   90.00000000
_cell_angle_gamma   119.99999232
_symmetry_Int_Tables_number   1
_chemical_formula_structural   Tm2Ga3Ag
_chemical_formula_sum   'Tm2 Ga3 Ag1'
_cell_volume   123.57976689
_cell_formula_units_Z   1
loop_
 _symmetry_equiv_pos_site_id
 _symmetry_equiv_pos_as_xyz
  1  'x, y, z'
loop_
 _atom_site_type_symbol
 _atom_site_label
 _atom_site_symmetry_multiplicity
 _atom_site_fract_x
 _atom_site_fract_y
 _atom_site_fract_z
 _atom_site_occupancy
  Tm  Tm0  1  0.333333  0.666667  0.240034  1
  Tm  Tm1  1  0.333333  0.666667  0.757476  1
  Ga  Ga2  1  0.000000  0.000000  0.969421  1
  Ga  Ga3  1  0.000000  0.000000  0.548596  1
  Ga  Ga4  1  0.666667  0.333333  0.454029  1
  Ag  Ag5  1  0.666667  0.333333  0.030443  1
