# generated using pymatgen
data_Be7Au2
_symmetry_space_group_name_H-M   'P 1'
_cell_length_a   4.29542739
_cell_length_b   4.29837485
_cell_length_c   6.78313598
_cell_angle_alpha   59.11833722
_cell_angle_beta   64.24625797
_cell_angle_gamma   60.26806847
_symmetry_Int_Tables_number   1
_chemical_formula_structural   Be7Au2
_chemical_formula_sum   'Be7 Au2'
_cell_volume   90.57256776
_cell_formula_units_Z   1
loop_
 _symmetry_equiv_pos_site_id
 _symmetry_equiv_pos_as_xyz
  1  'x, y, z'
loop_
 _atom_site_type_symbol
 _atom_site_label
 _atom_site_symmetry_multiplicity
 _atom_site_fract_x
 _atom_site_fract_y
 _atom_site_fract_z
 _atom_site_occupancy
  Be  Be0  1  0.504115  0.932855  0.250213  1
  Be  Be1  1  0.005992  0.927536  0.251333  1
  Be  Be2  1  0.214091  0.555528  0.586154  1
  Be  Be3  1  0.508456  0.430275  0.250744  1
  Be  Be4  1  0.799870  0.304019  0.915588  1
  Be  Be5  1  0.465788  0.974927  0.915484  1
  Be  Be6  1  0.545985  0.885541  0.586129  1
  Au  Au7  1  0.896964  0.271459  0.518109  1
  Au  Au8  1  0.118238  0.593269  0.976602  1
