# generated using pymatgen
data_Ti3Co5
_symmetry_space_group_name_H-M   'P 1'
_cell_length_a   6.38357537
_cell_length_b   3.91980546
_cell_length_c   5.03360095
_cell_angle_alpha   90.00099481
_cell_angle_beta   82.11715673
_cell_angle_gamma   127.88458303
_symmetry_Int_Tables_number   1
_chemical_formula_structural   Ti3Co5
_chemical_formula_sum   'Ti3 Co5'
_cell_volume   97.89590903
_cell_formula_units_Z   1
loop_
 _symmetry_equiv_pos_site_id
 _symmetry_equiv_pos_as_xyz
  1  'x, y, z'
loop_
 _atom_site_type_symbol
 _atom_site_label
 _atom_site_symmetry_multiplicity
 _atom_site_fract_x
 _atom_site_fract_y
 _atom_site_fract_z
 _atom_site_occupancy
  Ti  Ti0  1  0.440154  0.799041  0.843563  1
  Ti  Ti1  1  0.145846  0.004806  0.549363  1
  Ti  Ti2  1  0.860967  0.220043  0.264284  1
  Co  Co3  1  0.642011  0.501040  0.561393  1
  Co  Co4  1  0.657634  0.516566  0.060792  1
  Co  Co5  1  0.158014  0.016961  0.045665  1
  Co  Co6  1  0.367680  0.726705  0.337477  1
  Co  Co7  1  0.933812  0.292784  0.770814  1
