# generated using pymatgen
data_Dy6Ti16Ir7
_symmetry_space_group_name_H-M   'P 1'
_cell_length_a   9.19970231
_cell_length_b   9.19970338
_cell_length_c   9.19970400
_cell_angle_alpha   60.00000498
_cell_angle_beta   60.00000112
_cell_angle_gamma   60.00000668
_symmetry_Int_Tables_number   1
_chemical_formula_structural   Dy6Ti16Ir7
_chemical_formula_sum   'Dy6 Ti16 Ir7'
_cell_volume   550.56233595
_cell_formula_units_Z   1
loop_
 _symmetry_equiv_pos_site_id
 _symmetry_equiv_pos_as_xyz
  1  'x, y, z'
loop_
 _atom_site_type_symbol
 _atom_site_label
 _atom_site_symmetry_multiplicity
 _atom_site_fract_x
 _atom_site_fract_y
 _atom_site_fract_z
 _atom_site_occupancy
  Dy  Dy0  1  0.699536  0.699536  0.300464  1
  Dy  Dy1  1  0.300464  0.699536  0.300464  1
  Dy  Dy2  1  0.699536  0.300464  0.300464  1
  Dy  Dy3  1  0.300464  0.300464  0.699536  1
  Dy  Dy4  1  0.699536  0.300464  0.699536  1
  Dy  Dy5  1  0.300464  0.699536  0.699536  1
  Ti  Ti6  1  0.881688  0.881688  0.354937  1
  Ti  Ti7  1  0.881688  0.354937  0.881688  1
  Ti  Ti8  1  0.354937  0.881688  0.881688  1
  Ti  Ti9  1  0.881688  0.881688  0.881688  1
  Ti  Ti10  1  0.118311  0.118311  0.645067  1
  Ti  Ti11  1  0.118311  0.645067  0.118311  1
  Ti  Ti12  1  0.645067  0.118311  0.118311  1
  Ti  Ti13  1  0.118311  0.118311  0.118311  1
  Ti  Ti14  1  0.673908  0.673908  0.978273  1
  Ti  Ti15  1  0.673908  0.978273  0.673908  1
  Ti  Ti16  1  0.978273  0.673908  0.673908  1
  Ti  Ti17  1  0.673908  0.673908  0.673908  1
  Ti  Ti18  1  0.326066  0.326066  0.021805  1
  Ti  Ti19  1  0.326066  0.021805  0.326066  1
  Ti  Ti20  1  0.021805  0.326066  0.326066  1
  Ti  Ti21  1  0.326066  0.326066  0.326066  1
  Ir  Ir22  1  0.000000  0.000000  0.000000  1
  Ir  Ir23  1  0.999953  0.999953  0.500047  1
  Ir  Ir24  1  0.500047  0.999953  0.500047  1
  Ir  Ir25  1  0.999953  0.500047  0.500047  1
  Ir  Ir26  1  0.500047  0.500047  0.999953  1
  Ir  Ir27  1  0.999953  0.500047  0.999953  1
  Ir  Ir28  1  0.500047  0.999953  0.999953  1
