# generated using pymatgen
data_Sm2Fe3Co9As6P
_symmetry_space_group_name_H-M   'P 1'
_cell_length_a   9.32933600
_cell_length_b   9.32933702
_cell_length_c   3.78481600
_cell_angle_alpha   90.00000000
_cell_angle_beta   90.00000000
_cell_angle_gamma   120.00001056
_symmetry_Int_Tables_number   1
_chemical_formula_structural   Sm2Fe3Co9As6P
_chemical_formula_sum   'Sm2 Fe3 Co9 As6 P1'
_cell_volume   285.28364403
_cell_formula_units_Z   1
loop_
 _symmetry_equiv_pos_site_id
 _symmetry_equiv_pos_as_xyz
  1  'x, y, z'
loop_
 _atom_site_type_symbol
 _atom_site_label
 _atom_site_symmetry_multiplicity
 _atom_site_fract_x
 _atom_site_fract_y
 _atom_site_fract_z
 _atom_site_occupancy
  Sm  Sm0  1  0.333333  0.666667  0.000000  1
  Sm  Sm1  1  0.666667  0.333333  0.500000  1
  Fe  Fe2  1  0.201137  0.110465  0.500000  1
  Fe  Fe3  1  0.889535  0.090673  0.500000  1
  Fe  Fe4  1  0.909327  0.798863  0.500000  1
  Co  Co5  1  0.430026  0.374710  0.000000  1
  Co  Co6  1  0.625290  0.055316  0.000000  1
  Co  Co7  1  0.944684  0.569974  0.000000  1
  Co  Co8  1  0.148543  0.884126  0.000000  1
  Co  Co9  1  0.115874  0.264418  0.000000  1
  Co  Co10  1  0.735582  0.851457  0.000000  1
  Co  Co11  1  0.377918  0.950175  0.500000  1
  Co  Co12  1  0.049825  0.427743  0.500000  1
  Co  Co13  1  0.572257  0.622082  0.500000  1
  As  As14  1  0.406578  0.113245  0.000000  1
  As  As15  1  0.886755  0.293332  0.000000  1
  As  As16  1  0.706668  0.593422  0.000000  1
  As  As17  1  0.108938  0.708408  0.500000  1
  As  As18  1  0.291592  0.400529  0.500000  1
  As  As19  1  0.599471  0.891062  0.500000  1
  P  P20  1  0.000000  0.000000  0.000000  1
