# generated using pymatgen
data_Tm20Ir3Ru5Pt4
_symmetry_space_group_name_H-M   'P 1'
_cell_length_a   10.72728872
_cell_length_b   10.72728840
_cell_length_c   6.37836924
_cell_angle_alpha   89.96059658
_cell_angle_beta   89.96059615
_cell_angle_gamma   90.90598888
_symmetry_Int_Tables_number   1
_chemical_formula_structural   Tm20Ir3Ru5Pt4
_chemical_formula_sum   'Tm20 Ir3 Ru5 Pt4'
_cell_volume   733.89694068
_cell_formula_units_Z   1
loop_
 _symmetry_equiv_pos_site_id
 _symmetry_equiv_pos_as_xyz
  1  'x, y, z'
loop_
 _atom_site_type_symbol
 _atom_site_label
 _atom_site_symmetry_multiplicity
 _atom_site_fract_x
 _atom_site_fract_y
 _atom_site_fract_z
 _atom_site_occupancy
  Tm  Tm0  1  0.296013  0.081922  0.372501  1
  Tm  Tm1  1  0.293593  0.910695  0.879097  1
  Tm  Tm2  1  0.706946  0.089810  0.879072  1
  Tm  Tm3  1  0.704784  0.918789  0.371723  1
  Tm  Tm4  1  0.581688  0.795872  0.872479  1
  Tm  Tm5  1  0.590540  0.206267  0.379013  1
  Tm  Tm6  1  0.410638  0.794175  0.378677  1
  Tm  Tm7  1  0.418536  0.204154  0.872480  1
  Tm  Tm8  1  0.204128  0.418312  0.627521  1
  Tm  Tm9  1  0.205825  0.589362  0.121323  1
  Tm  Tm10  1  0.793733  0.409460  0.120987  1
  Tm  Tm11  1  0.795846  0.581464  0.627520  1
  Tm  Tm12  1  0.918078  0.703987  0.127499  1
  Tm  Tm13  1  0.910190  0.293054  0.620928  1
  Tm  Tm14  1  0.089305  0.706407  0.620903  1
  Tm  Tm15  1  0.081211  0.295216  0.128277  1
  Tm  Tm16  1  0.999533  0.001320  0.497633  1
  Tm  Tm17  1  0.998680  0.000467  0.002367  1
  Tm  Tm18  1  0.500001  0.499974  0.998633  1
  Tm  Tm19  1  0.500026  0.499999  0.501367  1
  Ir  Ir20  1  0.151340  0.848660  0.250000  1
  Ir  Ir21  1  0.650291  0.349709  0.750000  1
  Ir  Ir22  1  0.349017  0.650983  0.750000  1
  Ru  Ru23  1  0.849578  0.150422  0.250000  1
  Ru  Ru24  1  0.500167  0.000291  0.124661  1
  Ru  Ru25  1  0.499840  0.000075  0.624855  1
  Ru  Ru26  1  0.999925  0.500160  0.875145  1
  Ru  Ru27  1  0.999709  0.499833  0.375339  1
  Pt  Pt28  1  0.845273  0.844842  0.749540  1
  Pt  Pt29  1  0.155158  0.154727  0.750460  1
  Pt  Pt30  1  0.654752  0.654342  0.249755  1
  Pt  Pt31  1  0.345658  0.345248  0.250245  1
