# generated using pymatgen
data_EuYB4Ir3Rh2
_symmetry_space_group_name_H-M   'P 1'
_cell_length_a   7.56069025
_cell_length_b   6.33083567
_cell_length_c   5.67749881
_cell_angle_alpha   77.83422515
_cell_angle_beta   54.93800054
_cell_angle_gamma   47.22777147
_symmetry_Int_Tables_number   1
_chemical_formula_structural   EuYB4Ir3Rh2
_chemical_formula_sum   'Eu1 Y1 B4 Ir3 Rh2'
_cell_volume   155.83930991
_cell_formula_units_Z   1
loop_
 _symmetry_equiv_pos_site_id
 _symmetry_equiv_pos_as_xyz
  1  'x, y, z'
loop_
 _atom_site_type_symbol
 _atom_site_label
 _atom_site_symmetry_multiplicity
 _atom_site_fract_x
 _atom_site_fract_y
 _atom_site_fract_z
 _atom_site_occupancy
  Eu  Eu0  1  0.141890  0.141890  0.858110  1
  Y  Y1  1  0.859644  0.859644  0.140356  1
  B  B2  1  0.211252  0.523440  0.476560  1
  B  B3  1  0.789398  0.475573  0.524427  1
  B  B4  1  0.523440  0.211252  0.788748  1
  B  B5  1  0.475573  0.789398  0.210602  1
  Ir  Ir6  1  0.750606  0.750606  0.749394  1
  Ir  Ir7  1  0.250606  0.250606  0.249394  1
  Ir  Ir8  1  0.497866  0.497866  0.502134  1
  Rh  Rh9  1  0.499862  0.499862  0.000138  1
  Rh  Rh10  1  0.999862  0.999862  0.500138  1
