# generated using pymatgen
data_HoEr4Tm7Co4
_symmetry_space_group_name_H-M   'P 1'
_cell_length_a   6.13132483
_cell_length_b   6.88628701
_cell_length_c   9.23441378
_cell_angle_alpha   89.99856222
_cell_angle_beta   89.92140655
_cell_angle_gamma   89.99675416
_symmetry_Int_Tables_number   1
_chemical_formula_structural   HoEr4Tm7Co4
_chemical_formula_sum   'Ho1 Er4 Tm7 Co4'
_cell_volume   389.89562855
_cell_formula_units_Z   1
loop_
 _symmetry_equiv_pos_site_id
 _symmetry_equiv_pos_as_xyz
  1  'x, y, z'
loop_
 _atom_site_type_symbol
 _atom_site_label
 _atom_site_symmetry_multiplicity
 _atom_site_fract_x
 _atom_site_fract_y
 _atom_site_fract_z
 _atom_site_occupancy
  Ho  Ho0  1  0.176530  0.175684  0.066435  1
  Er  Er1  1  0.862369  0.541388  0.250108  1
  Er  Er2  1  0.637698  0.040272  0.250595  1
  Er  Er3  1  0.136573  0.459202  0.749557  1
  Er  Er4  1  0.363270  0.958834  0.749496  1
  Tm  Tm5  1  0.324215  0.675560  0.066782  1
  Tm  Tm6  1  0.175757  0.175777  0.434222  1
  Tm  Tm7  1  0.675722  0.324527  0.566494  1
  Tm  Tm8  1  0.823757  0.823992  0.932837  1
  Tm  Tm9  1  0.675994  0.324448  0.932693  1
  Tm  Tm10  1  0.823781  0.824231  0.566616  1
  Tm  Tm11  1  0.323556  0.675803  0.433165  1
  Co  Co12  1  0.048555  0.886747  0.250844  1
  Co  Co13  1  0.452817  0.387242  0.250925  1
  Co  Co14  1  0.951531  0.113069  0.748962  1
  Co  Co15  1  0.547875  0.613225  0.750270  1
