# generated using pymatgen
data_Ta6FeS12
_symmetry_space_group_name_H-M   'P 1'
_cell_length_a   5.75068060
_cell_length_b   5.75068085
_cell_length_c   12.53701919
_cell_angle_alpha   85.65506311
_cell_angle_beta   85.65506528
_cell_angle_gamma   119.99642108
_symmetry_Int_Tables_number   1
_chemical_formula_structural   Ta6FeS12
_chemical_formula_sum   'Ta6 Fe1 S12'
_cell_volume   354.92459174
_cell_formula_units_Z   1
loop_
 _symmetry_equiv_pos_site_id
 _symmetry_equiv_pos_as_xyz
  1  'x, y, z'
loop_
 _atom_site_type_symbol
 _atom_site_label
 _atom_site_symmetry_multiplicity
 _atom_site_fract_x
 _atom_site_fract_y
 _atom_site_fract_z
 _atom_site_occupancy
  Ta  Ta0  1  0.078273  0.078273  0.763775  1
  Ta  Ta1  1  0.410015  0.743263  0.768425  1
  Ta  Ta2  1  0.743263  0.410015  0.768425  1
  Ta  Ta3  1  0.256737  0.589985  0.231575  1
  Ta  Ta4  1  0.589985  0.256737  0.231575  1
  Ta  Ta5  1  0.921727  0.921727  0.236225  1
  Fe  Fe6  1  0.000000  0.000000  0.000000  1
  S  S7  1  0.294072  0.294072  0.106320  1
  S  S8  1  0.635402  0.964759  0.106317  1
  S  S9  1  0.964759  0.635402  0.106317  1
  S  S10  1  0.035241  0.364598  0.893683  1
  S  S11  1  0.364598  0.035241  0.893683  1
  S  S12  1  0.705928  0.705928  0.893680  1
  S  S13  1  0.216804  0.216804  0.360037  1
  S  S14  1  0.544828  0.880929  0.359982  1
  S  S15  1  0.880929  0.544828  0.359982  1
  S  S16  1  0.119071  0.455172  0.640018  1
  S  S17  1  0.455172  0.119071  0.640018  1
  S  S18  1  0.783196  0.783196  0.639963  1
