# generated using pymatgen
data_Y10AsPdPb6
_symmetry_space_group_name_H-M   'P 1'
_cell_length_a   9.22427800
_cell_length_b   9.22427880
_cell_length_c   6.84594000
_cell_angle_alpha   90.00000000
_cell_angle_beta   90.00000000
_cell_angle_gamma   119.99999714
_symmetry_Int_Tables_number   1
_chemical_formula_structural   Y10AsPdPb6
_chemical_formula_sum   'Y10 As1 Pd1 Pb6'
_cell_volume   504.46209208
_cell_formula_units_Z   1
loop_
 _symmetry_equiv_pos_site_id
 _symmetry_equiv_pos_as_xyz
  1  'x, y, z'
loop_
 _atom_site_type_symbol
 _atom_site_label
 _atom_site_symmetry_multiplicity
 _atom_site_fract_x
 _atom_site_fract_y
 _atom_site_fract_z
 _atom_site_occupancy
  Y  Y0  1  0.247750  0.000000  0.243120  1
  Y  Y1  1  0.752250  0.000000  0.756880  1
  Y  Y2  1  0.000000  0.247750  0.243120  1
  Y  Y3  1  0.000000  0.752250  0.756880  1
  Y  Y4  1  0.752250  0.752250  0.243120  1
  Y  Y5  1  0.247750  0.247750  0.756880  1
  Y  Y6  1  0.333333  0.666667  0.000000  1
  Y  Y7  1  0.666667  0.333333  0.000000  1
  Y  Y8  1  0.666667  0.333333  0.500000  1
  Y  Y9  1  0.333333  0.666667  0.500000  1
  As  As10  1  0.000000  0.000000  0.000000  1
  Pd  Pd11  1  0.000000  0.000000  0.500000  1
  Pb  Pb12  1  0.603263  0.000000  0.249339  1
  Pb  Pb13  1  0.396737  0.000000  0.750661  1
  Pb  Pb14  1  0.000000  0.603263  0.249339  1
  Pb  Pb15  1  0.000000  0.396737  0.750661  1
  Pb  Pb16  1  0.396737  0.396737  0.249339  1
  Pb  Pb17  1  0.603263  0.603263  0.750661  1
