# generated using pymatgen
data_PrDy3Y8Fe2I17
_symmetry_space_group_name_H-M   'P 1'
_cell_length_a   9.75616670
_cell_length_b   11.75941128
_cell_length_c   11.72944526
_cell_angle_alpha   93.53464120
_cell_angle_beta   104.70861258
_cell_angle_gamma   114.32489838
_symmetry_Int_Tables_number   1
_chemical_formula_structural   PrDy3Y8Fe2I17
_chemical_formula_sum   'Pr1 Dy3 Y8 Fe2 I17'
_cell_volume   1164.74630607
_cell_formula_units_Z   1
loop_
 _symmetry_equiv_pos_site_id
 _symmetry_equiv_pos_as_xyz
  1  'x, y, z'
loop_
 _atom_site_type_symbol
 _atom_site_label
 _atom_site_symmetry_multiplicity
 _atom_site_fract_x
 _atom_site_fract_y
 _atom_site_fract_z
 _atom_site_occupancy
  Pr  Pr0  1  0.854044  0.712965  0.846534  1
  Dy  Dy1  1  0.748471  0.025895  0.112659  1
  Dy  Dy2  1  0.143440  0.287654  0.154498  1
  Dy  Dy3  1  0.783517  0.326780  0.020099  1
  Y  Y4  1  0.051336  0.500398  0.320282  1
  Y  Y5  1  0.990903  0.809995  0.584523  1
  Y  Y6  1  0.654465  0.241560  0.281518  1
  Y  Y7  1  0.007479  0.192544  0.409632  1
  Y  Y8  1  0.219874  0.670649  0.985713  1
  Y  Y9  1  0.257261  0.981008  0.889501  1
  Y  Y10  1  0.337822  0.757781  0.720566  1
  Y  Y11  1  0.946061  0.493067  0.678156  1
  Fe  Fe12  1  0.100470  0.737372  0.785737  1
  Fe  Fe13  1  0.896757  0.262016  0.214256  1
  I  I14  1  0.783859  0.528606  0.418616  1
  I  I15  1  0.644339  0.410489  0.759487  1
  I  I16  1  0.845512  0.897221  0.326360  1
  I  I17  1  0.328667  0.214211  0.368664  1
  I  I18  1  0.156399  0.102999  0.673149  1
  I  I19  1  0.584596  0.050493  0.842897  1
  I  I20  1  0.758964  0.187930  0.539057  1
  I  I21  1  0.546017  0.711828  0.954068  1
  I  I22  1  0.356503  0.581524  0.238242  1
  I  I23  1  0.217021  0.473025  0.584171  1
  I  I24  1  0.058546  0.369524  0.896983  1
  I  I25  1  0.449638  0.289078  0.045367  1
  I  I26  1  0.004443  0.004420  0.001231  1
  I  I27  1  0.241965  0.811383  0.463054  1
  I  I28  1  0.412521  0.946363  0.155593  1
  I  I29  1  0.671658  0.790006  0.622774  1
  I  I30  1  0.947448  0.631216  0.106612  1
