# generated using pymatgen
data_CaLaAlIr2
_symmetry_space_group_name_H-M   'P 1'
_cell_length_a   5.77197002
_cell_length_b   5.77197017
_cell_length_c   5.77197063
_cell_angle_alpha   138.77891245
_cell_angle_beta   118.82086980
_cell_angle_gamma   76.45286445
_symmetry_Int_Tables_number   1
_chemical_formula_structural   CaLaAlIr2
_chemical_formula_sum   'Ca1 La1 Al1 Ir2'
_cell_volume   108.24233168
_cell_formula_units_Z   1
loop_
 _symmetry_equiv_pos_site_id
 _symmetry_equiv_pos_as_xyz
  1  'x, y, z'
loop_
 _atom_site_type_symbol
 _atom_site_label
 _atom_site_symmetry_multiplicity
 _atom_site_fract_x
 _atom_site_fract_y
 _atom_site_fract_z
 _atom_site_occupancy
  Ca  Ca0  1  0.296808  0.796807  0.499999  1
  La  La1  1  0.700180  0.200180  0.500000  1
  Al  Al2  1  0.001033  0.001033  0.000000  1
  Ir  Ir3  1  0.736335  0.500989  0.235346  1
  Ir  Ir4  1  0.265643  0.500988  0.764654  1
