# generated using pymatgen
data_Er10Tm2Co4CuSn
_symmetry_space_group_name_H-M   'P 1'
_cell_length_a   8.21400183
_cell_length_b   8.21243750
_cell_length_c   8.21400185
_cell_angle_alpha   111.17423057
_cell_angle_beta   110.41225917
_cell_angle_gamma   106.86670512
_symmetry_Int_Tables_number   1
_chemical_formula_structural   Er10Tm2Co4CuSn
_chemical_formula_sum   'Er10 Tm2 Co4 Cu1 Sn1'
_cell_volume   425.82206082
_cell_formula_units_Z   1
loop_
 _symmetry_equiv_pos_site_id
 _symmetry_equiv_pos_as_xyz
  1  'x, y, z'
loop_
 _atom_site_type_symbol
 _atom_site_label
 _atom_site_symmetry_multiplicity
 _atom_site_fract_x
 _atom_site_fract_y
 _atom_site_fract_z
 _atom_site_occupancy
  Er  Er0  1  0.314493  0.010498  0.696006  1
  Er  Er1  1  0.685507  0.989502  0.303994  1
  Er  Er2  1  0.418832  0.217699  0.201586  1
  Er  Er3  1  0.581168  0.782301  0.798414  1
  Er  Er4  1  0.016112  0.217699  0.798867  1
  Er  Er5  1  0.983888  0.782301  0.201133  1
  Er  Er6  1  0.185456  0.288820  0.473796  1
  Er  Er7  1  0.814544  0.711180  0.526204  1
  Er  Er8  1  0.184977  0.711180  0.896636  1
  Er  Er9  1  0.815023  0.288820  0.103364  1
  Tm  Tm10  1  0.314565  0.618752  0.304186  1
  Tm  Tm11  1  0.685435  0.381249  0.695814  1
  Co  Co12  1  0.113423  0.613303  0.499880  1
  Co  Co13  1  0.886578  0.386698  0.500120  1
  Co  Co14  1  0.376808  0.000000  0.376808  1
  Co  Co15  1  0.623192  0.000000  0.623192  1
  Cu  Cu16  1  0.000000  0.000000  0.000000  1
  Sn  Sn17  1  0.500000  0.500000  0.000000  1
