# generated using pymatgen
data_Hf2ZrGaN
_symmetry_space_group_name_H-M   'P 1'
_cell_length_a   5.92029499
_cell_length_b   5.92029519
_cell_length_c   8.75990300
_cell_angle_alpha   90.00000000
_cell_angle_beta   90.00000000
_cell_angle_gamma   146.68196423
_symmetry_Int_Tables_number   1
_chemical_formula_structural   Hf2ZrGaN
_chemical_formula_sum   'Hf4 Zr2 Ga2 N2'
_cell_volume   168.64926314
_cell_formula_units_Z   2
loop_
 _symmetry_equiv_pos_site_id
 _symmetry_equiv_pos_as_xyz
  1  'x, y, z'
loop_
 _atom_site_type_symbol
 _atom_site_label
 _atom_site_symmetry_multiplicity
 _atom_site_fract_x
 _atom_site_fract_y
 _atom_site_fract_z
 _atom_site_occupancy
  Hf  Hf0  1  0.372503  0.627497  0.047903  1
  Hf  Hf1  1  0.627497  0.372503  0.547903  1
  Hf  Hf2  1  0.949883  0.050117  0.749869  1
  Hf  Hf3  1  0.050117  0.949883  0.249869  1
  Zr  Zr4  1  0.627184  0.372816  0.950831  1
  Zr  Zr5  1  0.372816  0.627184  0.450831  1
  Ga  Ga6  1  0.255318  0.744682  0.749261  1
  Ga  Ga7  1  0.744682  0.255318  0.249261  1
  N  N8  1  0.995367  0.004633  0.002135  1
  N  N9  1  0.004633  0.995367  0.502135  1
