# generated using pymatgen
data_Ho4Ti5ReSi8
_symmetry_space_group_name_H-M   'P 1'
_cell_length_a   6.98733515
_cell_length_b   6.98733515
_cell_length_c   12.83286900
_cell_angle_alpha   90.00000000
_cell_angle_beta   90.00000000
_cell_angle_gamma   89.97600695
_symmetry_Int_Tables_number   1
_chemical_formula_structural   Ho4Ti5ReSi8
_chemical_formula_sum   'Ho8 Ti10 Re2 Si16'
_cell_volume   626.53721595
_cell_formula_units_Z   2
loop_
 _symmetry_equiv_pos_site_id
 _symmetry_equiv_pos_as_xyz
  1  'x, y, z'
loop_
 _atom_site_type_symbol
 _atom_site_label
 _atom_site_symmetry_multiplicity
 _atom_site_fract_x
 _atom_site_fract_y
 _atom_site_fract_z
 _atom_site_occupancy
  Ho  Ho0  1  0.160650  0.500967  0.783286  1
  Ho  Ho1  1  0.839351  0.499033  0.283287  1
  Ho  Ho2  1  0.658050  0.998451  0.968484  1
  Ho  Ho3  1  0.341951  0.001549  0.468485  1
  Ho  Ho4  1  0.998451  0.658050  0.031516  1
  Ho  Ho5  1  0.001549  0.341951  0.531516  1
  Ho  Ho6  1  0.500967  0.160650  0.216714  1
  Ho  Ho7  1  0.499033  0.839351  0.716713  1
  Ti  Ti8  1  0.827058  0.172941  0.750000  1
  Ti  Ti9  1  0.172941  0.827058  0.250000  1
  Ti  Ti10  1  0.153307  0.005481  0.876084  1
  Ti  Ti11  1  0.846691  0.994518  0.376084  1
  Ti  Ti12  1  0.651880  0.491281  0.873086  1
  Ti  Ti13  1  0.348120  0.508719  0.373086  1
  Ti  Ti14  1  0.994518  0.846691  0.623916  1
  Ti  Ti15  1  0.005481  0.153307  0.123917  1
  Ti  Ti16  1  0.508719  0.348120  0.626914  1
  Ti  Ti17  1  0.491281  0.651880  0.126914  1
  Re  Re18  1  0.326472  0.326472  0.000000  1
  Re  Re19  1  0.673528  0.673528  0.500000  1
  Si  Si20  1  0.289817  0.954162  0.065233  1
  Si  Si21  1  0.710184  0.045838  0.565233  1
  Si  Si22  1  0.793056  0.548855  0.682657  1
  Si  Si23  1  0.206943  0.451146  0.182658  1
  Si  Si24  1  0.045838  0.710184  0.434766  1
  Si  Si25  1  0.954162  0.289817  0.934767  1
  Si  Si26  1  0.451146  0.206943  0.817342  1
  Si  Si27  1  0.548855  0.793056  0.317342  1
  Si  Si28  1  0.202536  0.131014  0.684244  1
  Si  Si29  1  0.797465  0.868986  0.184244  1
  Si  Si30  1  0.699352  0.370544  0.065307  1
  Si  Si31  1  0.300649  0.629457  0.565307  1
  Si  Si32  1  0.868986  0.797465  0.815756  1
  Si  Si33  1  0.131014  0.202536  0.315756  1
  Si  Si34  1  0.629457  0.300649  0.434693  1
  Si  Si35  1  0.370544  0.699352  0.934693  1
