# generated using pymatgen
data_Ti2Nb10Al8VAu3C4
_symmetry_space_group_name_H-M   'P 1'
_cell_length_a   8.43691120
_cell_length_b   8.43705089
_cell_length_c   8.44136300
_cell_angle_alpha   59.98153495
_cell_angle_beta   59.97991230
_cell_angle_gamma   60.05322566
_symmetry_Int_Tables_number   1
_chemical_formula_structural   Ti2Nb10Al8VAu3C4
_chemical_formula_sum   'Ti2 Nb10 Al8 V1 Au3 C4'
_cell_volume   424.93197924
_cell_formula_units_Z   1
loop_
 _symmetry_equiv_pos_site_id
 _symmetry_equiv_pos_as_xyz
  1  'x, y, z'
loop_
 _atom_site_type_symbol
 _atom_site_label
 _atom_site_symmetry_multiplicity
 _atom_site_fract_x
 _atom_site_fract_y
 _atom_site_fract_z
 _atom_site_occupancy
  Ti  Ti0  1  0.321466  0.323670  0.677437  1
  Ti  Ti1  1  0.558645  0.573618  0.933869  1
  Nb  Nb2  1  0.930074  0.928646  0.570637  1
  Nb  Nb3  1  0.681407  0.319152  0.319697  1
  Nb  Nb4  1  0.312331  0.679919  0.697716  1
  Nb  Nb5  1  0.693621  0.678342  0.314018  1
  Nb  Nb6  1  0.681401  0.319152  0.679748  1
  Nb  Nb7  1  0.312335  0.679918  0.310039  1
  Nb  Nb8  1  0.569339  0.930478  0.568184  1
  Nb  Nb9  1  0.569337  0.930478  0.931998  1
  Nb  Nb10  1  0.935879  0.571291  0.555123  1
  Nb  Nb11  1  0.935875  0.571290  0.937703  1
  Al  Al12  1  0.910698  0.265914  0.911696  1
  Al  Al13  1  0.332681  0.339972  0.995148  1
  Al  Al14  1  0.996659  0.338098  0.332620  1
  Al  Al15  1  0.332692  0.339974  0.332200  1
  Al  Al16  1  0.257205  0.905269  0.918761  1
  Al  Al17  1  0.917719  0.910846  0.918419  1
  Al  Al18  1  0.917719  0.910857  0.253006  1
  Al  Al19  1  0.337326  0.985506  0.338585  1
  V  V20  1  0.124350  0.623654  0.126002  1
  Au  Au21  1  0.126387  0.126134  0.626186  1
  Au  Au22  1  0.624400  0.128202  0.123699  1
  Au  Au23  1  0.126394  0.126126  0.121294  1
  C  C24  1  0.618243  0.127602  0.627076  1
  C  C25  1  0.623729  0.623299  0.122784  1
  C  C26  1  0.128361  0.619301  0.626168  1
  C  C27  1  0.623729  0.623296  0.630189  1
