# generated using pymatgen
data_Cs6TbUBr12
_symmetry_space_group_name_H-M   'P 1'
_cell_length_a   10.07052758
_cell_length_b   10.08777705
_cell_length_c   8.39327300
_cell_angle_alpha   90.00000000
_cell_angle_beta   90.00000000
_cell_angle_gamma   89.83608314
_symmetry_Int_Tables_number   1
_chemical_formula_structural   Cs6TbUBr12
_chemical_formula_sum   'Cs6 Tb1 U1 Br12'
_cell_volume   852.66271035
_cell_formula_units_Z   1
loop_
 _symmetry_equiv_pos_site_id
 _symmetry_equiv_pos_as_xyz
  1  'x, y, z'
loop_
 _atom_site_type_symbol
 _atom_site_label
 _atom_site_symmetry_multiplicity
 _atom_site_fract_x
 _atom_site_fract_y
 _atom_site_fract_z
 _atom_site_occupancy
  Cs  Cs0  1  0.000000  0.000000  0.500000  1
  Cs  Cs1  1  0.000000  0.000000  0.000000  1
  Cs  Cs2  1  0.234419  0.583758  0.500000  1
  Cs  Cs3  1  0.765581  0.416242  0.500000  1
  Cs  Cs4  1  0.415587  0.236380  0.000000  1
  Cs  Cs5  1  0.584413  0.763620  0.000000  1
  Tb  Tb6  1  0.000000  0.500000  0.000000  1
  U  U7  1  0.500000  0.000000  0.500000  1
  Br  Br8  1  0.697354  0.058750  0.746121  1
  Br  Br9  1  0.302646  0.941250  0.746121  1
  Br  Br10  1  0.942946  0.691026  0.238913  1
  Br  Br11  1  0.057054  0.308974  0.238913  1
  Br  Br12  1  0.302646  0.941250  0.253879  1
  Br  Br13  1  0.697354  0.058750  0.253879  1
  Br  Br14  1  0.057054  0.308974  0.761087  1
  Br  Br15  1  0.942946  0.691026  0.761087  1
  Br  Br16  1  0.571467  0.720714  0.500000  1
  Br  Br17  1  0.428533  0.279286  0.500000  1
  Br  Br18  1  0.270812  0.569769  0.000000  1
  Br  Br19  1  0.729188  0.430231  0.000000  1
