# generated using pymatgen
data_CaDyHoGa8Ag3
_symmetry_space_group_name_H-M   'P 1'
_cell_length_a   4.35913026
_cell_length_b   8.39624610
_cell_length_c   8.39624649
_cell_angle_alpha   69.96387084
_cell_angle_beta   74.95437538
_cell_angle_gamma   74.95437115
_symmetry_Int_Tables_number   1
_chemical_formula_structural   CaDyHoGa8Ag3
_chemical_formula_sum   'Ca1 Dy1 Ho1 Ga8 Ag3'
_cell_volume   273.83293250
_cell_formula_units_Z   1
loop_
 _symmetry_equiv_pos_site_id
 _symmetry_equiv_pos_as_xyz
  1  'x, y, z'
loop_
 _atom_site_type_symbol
 _atom_site_label
 _atom_site_symmetry_multiplicity
 _atom_site_fract_x
 _atom_site_fract_y
 _atom_site_fract_z
 _atom_site_occupancy
  Ca  Ca0  1  0.500089  0.499911  0.499911  1
  Dy  Dy1  1  0.201994  0.798006  0.798006  1
  Ho  Ho2  1  0.798103  0.201897  0.201897  1
  Ga  Ga3  1  0.355363  0.362119  0.927154  1
  Ga  Ga4  1  0.644628  0.637631  0.073114  1
  Ga  Ga5  1  0.355363  0.927154  0.362119  1
  Ga  Ga6  1  0.644628  0.073114  0.637631  1
  Ga  Ga7  1  0.160132  0.471694  0.208041  1
  Ga  Ga8  1  0.839973  0.528101  0.791955  1
  Ga  Ga9  1  0.160132  0.208041  0.471694  1
  Ga  Ga10  1  0.839973  0.791955  0.528101  1
  Ag  Ag11  1  0.499871  0.000129  0.000129  1
  Ag  Ag12  1  0.999876  0.809557  0.190691  1
  Ag  Ag13  1  0.999876  0.190691  0.809557  1
