# generated using pymatgen
data_NdPd4Au
_symmetry_space_group_name_H-M   'P 1'
_cell_length_a   5.39299553
_cell_length_b   5.39299540
_cell_length_c   5.39299600
_cell_angle_alpha   59.99999629
_cell_angle_beta   59.99999714
_cell_angle_gamma   59.99999370
_symmetry_Int_Tables_number   1
_chemical_formula_structural   NdPd4Au
_chemical_formula_sum   'Nd1 Pd4 Au1'
_cell_volume   110.91113974
_cell_formula_units_Z   1
loop_
 _symmetry_equiv_pos_site_id
 _symmetry_equiv_pos_as_xyz
  1  'x, y, z'
loop_
 _atom_site_type_symbol
 _atom_site_label
 _atom_site_symmetry_multiplicity
 _atom_site_fract_x
 _atom_site_fract_y
 _atom_site_fract_z
 _atom_site_occupancy
  Nd  Nd0  1  0.250000  0.250000  0.250000  1
  Pd  Pd1  1  0.625235  0.625235  0.124296  1
  Pd  Pd2  1  0.625235  0.124296  0.625235  1
  Pd  Pd3  1  0.124296  0.625235  0.625235  1
  Pd  Pd4  1  0.625235  0.625235  0.625235  1
  Au  Au5  1  0.000000  0.000000  0.000000  1
