# generated using pymatgen
data_YEr19(Cd3Pt)2
_symmetry_space_group_name_H-M   'P 1'
_cell_length_a   9.62762800
_cell_length_b   9.62788972
_cell_length_c   9.67553200
_cell_angle_alpha   90.00000000
_cell_angle_beta   90.00000000
_cell_angle_gamma   120.00090555
_symmetry_Int_Tables_number   1
_chemical_formula_structural   YEr19(Cd3Pt)2
_chemical_formula_sum   'Y1 Er19 Cd6 Pt2'
_cell_volume   776.69754206
_cell_formula_units_Z   1
loop_
 _symmetry_equiv_pos_site_id
 _symmetry_equiv_pos_as_xyz
  1  'x, y, z'
loop_
 _atom_site_type_symbol
 _atom_site_label
 _atom_site_symmetry_multiplicity
 _atom_site_fract_x
 _atom_site_fract_y
 _atom_site_fract_z
 _atom_site_occupancy
  Y  Y0  1  0.085581  0.542791  0.250000  1
  Er  Er1  1  0.207743  0.792616  0.940598  1
  Er  Er2  1  0.207743  0.415127  0.940598  1
  Er  Er3  1  0.584787  0.792394  0.940841  1
  Er  Er4  1  0.792063  0.207285  0.058995  1
  Er  Er5  1  0.792063  0.584778  0.058995  1
  Er  Er6  1  0.415219  0.207610  0.059098  1
  Er  Er7  1  0.792063  0.207285  0.441005  1
  Er  Er8  1  0.792063  0.584778  0.441005  1
  Er  Er9  1  0.415219  0.207610  0.440902  1
  Er  Er10  1  0.207743  0.792616  0.559402  1
  Er  Er11  1  0.207743  0.415127  0.559402  1
  Er  Er12  1  0.584787  0.792394  0.559159  1
  Er  Er13  1  0.542748  0.457288  0.750000  1
  Er  Er14  1  0.542748  0.085460  0.750000  1
  Er  Er15  1  0.914593  0.457296  0.750000  1
  Er  Er16  1  0.457611  0.542734  0.250000  1
  Er  Er17  1  0.457611  0.914877  0.250000  1
  Er  Er18  1  0.000007  0.000004  0.000052  1
  Er  Er19  1  0.000007  0.000004  0.499948  1
  Cd  Cd20  1  0.884206  0.115742  0.750000  1
  Cd  Cd21  1  0.884206  0.768466  0.750000  1
  Cd  Cd22  1  0.231553  0.115777  0.750000  1
  Cd  Cd23  1  0.115779  0.884608  0.250000  1
  Cd  Cd24  1  0.115779  0.231170  0.250000  1
  Cd  Cd25  1  0.768445  0.884221  0.250000  1
  Pt  Pt26  1  0.333300  0.666651  0.750000  1
  Pt  Pt27  1  0.666589  0.333294  0.250000  1
