# generated using pymatgen
data_Er3Lu(MgPt)4
_symmetry_space_group_name_H-M   'P 1'
_cell_length_a   4.18684800
_cell_length_b   7.00098790
_cell_length_c   8.54885500
_cell_angle_alpha   89.73674575
_cell_angle_beta   90.00000000
_cell_angle_gamma   90.00000000
_symmetry_Int_Tables_number   1
_chemical_formula_structural   Er3Lu(MgPt)4
_chemical_formula_sum   'Er3 Lu1 Mg4 Pt4'
_cell_volume   250.58200979
_cell_formula_units_Z   1
loop_
 _symmetry_equiv_pos_site_id
 _symmetry_equiv_pos_as_xyz
  1  'x, y, z'
loop_
 _atom_site_type_symbol
 _atom_site_label
 _atom_site_symmetry_multiplicity
 _atom_site_fract_x
 _atom_site_fract_y
 _atom_site_fract_z
 _atom_site_occupancy
  Er  Er0  1  0.250000  0.535631  0.174790  1
  Er  Er1  1  0.750000  0.463403  0.825747  1
  Er  Er2  1  0.750000  0.963444  0.674187  1
  Lu  Lu3  1  0.250000  0.037052  0.325889  1
  Mg  Mg4  1  0.250000  0.637996  0.560921  1
  Mg  Mg5  1  0.750000  0.362248  0.438389  1
  Mg  Mg6  1  0.750000  0.862452  0.061567  1
  Mg  Mg7  1  0.250000  0.137620  0.939231  1
  Pt  Pt8  1  0.250000  0.746407  0.873976  1
  Pt  Pt9  1  0.750000  0.251458  0.127329  1
  Pt  Pt10  1  0.750000  0.756289  0.373969  1
  Pt  Pt11  1  0.250000  0.245999  0.624006  1
