# generated using pymatgen
data_Ce4In2CuIr3
_symmetry_space_group_name_H-M   'P 1'
_cell_length_a   7.70684399
_cell_length_b   7.70684374
_cell_length_c   3.75711800
_cell_angle_alpha   90.00000000
_cell_angle_beta   90.00000000
_cell_angle_gamma   89.98687827
_symmetry_Int_Tables_number   1
_chemical_formula_structural   Ce4In2CuIr3
_chemical_formula_sum   'Ce4 In2 Cu1 Ir3'
_cell_volume   223.15567968
_cell_formula_units_Z   1
loop_
 _symmetry_equiv_pos_site_id
 _symmetry_equiv_pos_as_xyz
  1  'x, y, z'
loop_
 _atom_site_type_symbol
 _atom_site_label
 _atom_site_symmetry_multiplicity
 _atom_site_fract_x
 _atom_site_fract_y
 _atom_site_fract_z
 _atom_site_occupancy
  Ce  Ce0  1  0.673610  0.173610  0.500000  1
  Ce  Ce1  1  0.339992  0.839992  0.500000  1
  Ce  Ce2  1  0.166153  0.317712  0.500000  1
  Ce  Ce3  1  0.817712  0.666153  0.500000  1
  In  In4  1  0.000820  0.993599  0.000000  1
  In  In5  1  0.493599  0.500820  0.000000  1
  Cu  Cu6  1  0.128457  0.628457  0.000000  1
  Ir  Ir7  1  0.878566  0.378566  0.000000  1
  Ir  Ir8  1  0.636148  0.864943  0.000000  1
  Ir  Ir9  1  0.364943  0.136148  0.000000  1
