# generated using pymatgen
data_Be5Cu(SiRh2)6
_symmetry_space_group_name_H-M   'P 1'
_cell_length_a   4.06887202
_cell_length_b   5.77538200
_cell_length_c   12.21333907
_cell_angle_alpha   90.00000000
_cell_angle_beta   90.01222876
_cell_angle_gamma   90.00000000
_symmetry_Int_Tables_number   1
_chemical_formula_structural   Be5Cu(SiRh2)6
_chemical_formula_sum   'Be5 Cu1 Si6 Rh12'
_cell_volume   287.00479309
_cell_formula_units_Z   1
loop_
 _symmetry_equiv_pos_site_id
 _symmetry_equiv_pos_as_xyz
  1  'x, y, z'
loop_
 _atom_site_type_symbol
 _atom_site_label
 _atom_site_symmetry_multiplicity
 _atom_site_fract_x
 _atom_site_fract_y
 _atom_site_fract_z
 _atom_site_occupancy
  Be  Be0  1  0.499029  0.500000  0.166977  1
  Be  Be1  1  0.999078  0.000000  0.333756  1
  Be  Be2  1  0.500000  0.500000  0.500000  1
  Be  Be3  1  0.000923  0.000000  0.666244  1
  Be  Be4  1  0.500971  0.500000  0.833023  1
  Cu  Cu5  1  0.000000  0.000000  0.000000  1
  Si  Si6  1  0.000000  0.500000  0.000000  1
  Si  Si7  1  0.499198  0.000000  0.165612  1
  Si  Si8  1  0.999281  0.500000  0.334802  1
  Si  Si9  1  0.500000  0.000000  0.500000  1
  Si  Si10  1  0.000719  0.500000  0.665198  1
  Si  Si11  1  0.500803  0.000000  0.834388  1
  Rh  Rh12  1  0.500000  0.260903  0.000000  1
  Rh  Rh13  1  0.500000  0.739097  0.000000  1
  Rh  Rh14  1  0.999343  0.253231  0.173353  1
  Rh  Rh15  1  0.999343  0.746770  0.173353  1
  Rh  Rh16  1  0.499462  0.249207  0.335642  1
  Rh  Rh17  1  0.499462  0.750793  0.335642  1
  Rh  Rh18  1  0.000000  0.250135  0.500000  1
  Rh  Rh19  1  0.000000  0.749865  0.500000  1
  Rh  Rh20  1  0.500536  0.249207  0.664358  1
  Rh  Rh21  1  0.500536  0.750793  0.664358  1
  Rh  Rh22  1  0.000658  0.253231  0.826647  1
  Rh  Rh23  1  0.000658  0.746770  0.826647  1
