# generated using pymatgen
data_Th2BeOsI
_symmetry_space_group_name_H-M   'P 1'
_cell_length_a   4.00810800
_cell_length_b   4.00810683
_cell_length_c   8.85970900
_cell_angle_alpha   90.00000000
_cell_angle_beta   90.00000000
_cell_angle_gamma   120.00000964
_symmetry_Int_Tables_number   1
_chemical_formula_structural   Th2BeOsI
_chemical_formula_sum   'Th2 Be1 Os1 I1'
_cell_volume   123.26186968
_cell_formula_units_Z   1
loop_
 _symmetry_equiv_pos_site_id
 _symmetry_equiv_pos_as_xyz
  1  'x, y, z'
loop_
 _atom_site_type_symbol
 _atom_site_label
 _atom_site_symmetry_multiplicity
 _atom_site_fract_x
 _atom_site_fract_y
 _atom_site_fract_z
 _atom_site_occupancy
  Th  Th0  1  0.000000  0.000000  0.209224  1
  Th  Th1  1  0.000000  0.000000  0.790776  1
  Be  Be2  1  0.333333  0.666667  0.000000  1
  Os  Os3  1  0.666667  0.333333  0.000000  1
  I  I4  1  0.666667  0.333333  0.500000  1
