# generated using pymatgen
data_La9Tb7(HoPb4)4
_symmetry_space_group_name_H-M   'P 1'
_cell_length_a   8.32752857
_cell_length_b   8.40324577
_cell_length_c   15.94821800
_cell_angle_alpha   90.02748453
_cell_angle_beta   90.15777204
_cell_angle_gamma   90.19115657
_symmetry_Int_Tables_number   1
_chemical_formula_structural   La9Tb7(HoPb4)4
_chemical_formula_sum   'La9 Tb7 Ho4 Pb16'
_cell_volume   1116.01811777
_cell_formula_units_Z   1
loop_
 _symmetry_equiv_pos_site_id
 _symmetry_equiv_pos_as_xyz
  1  'x, y, z'
loop_
 _atom_site_type_symbol
 _atom_site_label
 _atom_site_symmetry_multiplicity
 _atom_site_fract_x
 _atom_site_fract_y
 _atom_site_fract_z
 _atom_site_occupancy
  La  La0  1  0.129326  0.339507  0.618155  1
  La  La1  1  0.473915  0.679227  0.598066  1
  La  La2  1  0.975958  0.821845  0.904634  1
  La  La3  1  0.524057  0.322010  0.097084  1
  La  La4  1  0.026461  0.177296  0.400622  1
  La  La5  1  0.524473  0.322267  0.401312  1
  La  La6  1  0.023933  0.177650  0.097406  1
  La  La7  1  0.476789  0.678630  0.903726  1
  La  La8  1  0.974663  0.822090  0.597765  1
  Tb  Tb9  1  0.632712  0.158910  0.622289  1
  Tb  Tb10  1  0.133391  0.341623  0.878901  1
  Tb  Tb11  1  0.366544  0.842137  0.121791  1
  Tb  Tb12  1  0.867983  0.656850  0.378596  1
  Tb  Tb13  1  0.369987  0.842343  0.375732  1
  Tb  Tb14  1  0.866779  0.658411  0.121892  1
  Tb  Tb15  1  0.632547  0.157777  0.880156  1
  Ho  Ho16  1  0.796297  0.495391  0.751080  1
  Ho  Ho17  1  0.298537  0.004329  0.751044  1
  Ho  Ho18  1  0.203068  0.505406  0.248600  1
  Ho  Ho19  1  0.703373  0.995633  0.250107  1
  Pb  Pb20  1  0.707739  0.960490  0.455830  1
  Pb  Pb21  1  0.205033  0.540564  0.044215  1
  Pb  Pb22  1  0.294289  0.040588  0.956315  1
  Pb  Pb23  1  0.782986  0.464205  0.543794  1
  Pb  Pb24  1  0.299272  0.032699  0.542792  1
  Pb  Pb25  1  0.795659  0.459703  0.956201  1
  Pb  Pb26  1  0.705334  0.959141  0.045101  1
  Pb  Pb27  1  0.207973  0.543581  0.451178  1
  Pb  Pb28  1  0.437346  0.370535  0.752702  1
  Pb  Pb29  1  0.933085  0.125543  0.752150  1
  Pb  Pb30  1  0.565026  0.628870  0.249207  1
  Pb  Pb31  1  0.063739  0.870688  0.249764  1
  Pb  Pb32  1  0.664374  0.852736  0.751014  1
  Pb  Pb33  1  0.163643  0.650451  0.752179  1
  Pb  Pb34  1  0.336439  0.148371  0.249076  1
  Pb  Pb35  1  0.837272  0.352501  0.249521  1
