# generated using pymatgen
data_CsNd2(H6Rh)2
_symmetry_space_group_name_H-M   'P 1'
_cell_length_a   5.15180200
_cell_length_b   5.15180388
_cell_length_c   9.78792400
_cell_angle_alpha   90.00000000
_cell_angle_beta   90.00000000
_cell_angle_gamma   120.00000077
_symmetry_Int_Tables_number   1
_chemical_formula_structural   CsNd2(H6Rh)2
_chemical_formula_sum   'Cs1 Nd2 H12 Rh2'
_cell_volume   224.97781885
_cell_formula_units_Z   1
loop_
 _symmetry_equiv_pos_site_id
 _symmetry_equiv_pos_as_xyz
  1  'x, y, z'
loop_
 _atom_site_type_symbol
 _atom_site_label
 _atom_site_symmetry_multiplicity
 _atom_site_fract_x
 _atom_site_fract_y
 _atom_site_fract_z
 _atom_site_occupancy
  Cs  Cs0  1  0.000000  0.000000  0.000000  1
  Nd  Nd1  1  0.666667  0.333333  0.373657  1
  Nd  Nd2  1  0.333333  0.666667  0.626343  1
  H  H3  1  0.176660  0.823340  0.399894  1
  H  H4  1  0.646680  0.823340  0.399894  1
  H  H5  1  0.176660  0.353320  0.399894  1
  H  H6  1  0.823340  0.176660  0.600106  1
  H  H7  1  0.353320  0.176660  0.600106  1
  H  H8  1  0.823340  0.646680  0.600106  1
  H  H9  1  0.518141  0.036282  0.804540  1
  H  H10  1  0.518141  0.481859  0.804540  1
  H  H11  1  0.963718  0.481859  0.804540  1
  H  H12  1  0.481859  0.963718  0.195460  1
  H  H13  1  0.481859  0.518141  0.195460  1
  H  H14  1  0.036282  0.518141  0.195460  1
  Rh  Rh15  1  0.666667  0.333333  0.700115  1
  Rh  Rh16  1  0.333333  0.666667  0.299885  1
