# generated using pymatgen
data_KCr(Te3O7)2
_symmetry_space_group_name_H-M   'P 1'
_cell_length_a   11.07269200
_cell_length_b   11.07269200
_cell_length_c   11.07269200
_cell_angle_alpha   90.00000000
_cell_angle_beta   90.00000000
_cell_angle_gamma   90.00000000
_symmetry_Int_Tables_number   1
_chemical_formula_structural   KCr(Te3O7)2
_chemical_formula_sum   'K4 Cr4 Te24 O56'
_cell_volume   1357.56195630
_cell_formula_units_Z   4
loop_
 _symmetry_equiv_pos_site_id
 _symmetry_equiv_pos_as_xyz
  1  'x, y, z'
loop_
 _atom_site_type_symbol
 _atom_site_label
 _atom_site_symmetry_multiplicity
 _atom_site_fract_x
 _atom_site_fract_y
 _atom_site_fract_z
 _atom_site_occupancy
  K  K0  1  0.500000  0.500000  0.000000  1
  K  K1  1  0.000000  0.500000  0.500000  1
  K  K2  1  0.000000  0.000000  0.000000  1
  K  K3  1  0.500000  0.000000  0.500000  1
  Cr  Cr4  1  0.000000  0.000000  0.500000  1
  Cr  Cr5  1  0.500000  0.500000  0.500000  1
  Cr  Cr6  1  0.500000  0.000000  0.000000  1
  Cr  Cr7  1  0.000000  0.500000  0.000000  1
  Te  Te8  1  0.991195  0.735352  0.772210  1
  Te  Te9  1  0.491195  0.735352  0.727790  1
  Te  Te10  1  0.764648  0.272210  0.991195  1
  Te  Te11  1  0.264648  0.227790  0.008805  1
  Te  Te12  1  0.735352  0.772210  0.991195  1
  Te  Te13  1  0.735352  0.727790  0.491195  1
  Te  Te14  1  0.272210  0.991195  0.764648  1
  Te  Te15  1  0.772210  0.991195  0.735352  1
  Te  Te16  1  0.227790  0.008805  0.264648  1
  Te  Te17  1  0.991195  0.764648  0.272210  1
  Te  Te18  1  0.772210  0.508805  0.235352  1
  Te  Te19  1  0.008805  0.235352  0.727790  1
  Te  Te20  1  0.727790  0.491195  0.735352  1
  Te  Te21  1  0.264648  0.272210  0.508805  1
  Te  Te22  1  0.235352  0.727790  0.008805  1
  Te  Te23  1  0.272210  0.508805  0.264648  1
  Te  Te24  1  0.491195  0.764648  0.227790  1
  Te  Te25  1  0.727790  0.008805  0.235352  1
  Te  Te26  1  0.227790  0.491195  0.764648  1
  Te  Te27  1  0.508805  0.264648  0.272210  1
  Te  Te28  1  0.764648  0.227790  0.491195  1
  Te  Te29  1  0.508805  0.235352  0.772210  1
  Te  Te30  1  0.008805  0.264648  0.227790  1
  Te  Te31  1  0.235352  0.772210  0.508805  1
  O  O32  1  0.877399  0.389254  0.306976  1
  O  O33  1  0.622601  0.610746  0.806976  1
  O  O34  1  0.125336  0.431026  0.886106  1
  O  O35  1  0.110746  0.806976  0.877399  1
  O  O36  1  0.622601  0.889254  0.306976  1
  O  O37  1  0.122601  0.889254  0.193024  1
  O  O38  1  0.431026  0.613894  0.625336  1
  O  O39  1  0.377399  0.110746  0.693024  1
  O  O40  1  0.625336  0.431026  0.613894  1
  O  O41  1  0.068974  0.113894  0.625336  1
  O  O42  1  0.306976  0.877399  0.389254  1
  O  O43  1  0.886106  0.125336  0.431026  1
  O  O44  1  0.147408  0.147408  0.147408  1
  O  O45  1  0.389254  0.306976  0.877399  1
  O  O46  1  0.874664  0.568974  0.113894  1
  O  O47  1  0.874664  0.931026  0.613894  1
  O  O48  1  0.889254  0.306976  0.622601  1
  O  O49  1  0.568974  0.386106  0.374664  1
  O  O50  1  0.068974  0.386106  0.125336  1
  O  O51  1  0.852592  0.647408  0.352592  1
  O  O52  1  0.374664  0.931026  0.886106  1
  O  O53  1  0.931026  0.886106  0.374664  1
  O  O54  1  0.147408  0.352592  0.647408  1
  O  O55  1  0.431026  0.886106  0.125336  1
  O  O56  1  0.377399  0.389254  0.193024  1
  O  O57  1  0.122601  0.610746  0.693024  1
  O  O58  1  0.568974  0.113894  0.874664  1
  O  O59  1  0.389254  0.193024  0.377399  1
  O  O60  1  0.806976  0.877399  0.110746  1
  O  O61  1  0.193024  0.377399  0.389254  1
  O  O62  1  0.374664  0.568974  0.386106  1
  O  O63  1  0.110746  0.693024  0.377399  1
  O  O64  1  0.852592  0.852592  0.852592  1
  O  O65  1  0.889254  0.193024  0.122601  1
  O  O66  1  0.125336  0.068974  0.386106  1
  O  O67  1  0.693024  0.377399  0.110746  1
  O  O68  1  0.647408  0.352592  0.852592  1
  O  O69  1  0.113894  0.874664  0.568974  1
  O  O70  1  0.193024  0.122601  0.889254  1
  O  O71  1  0.610746  0.806976  0.622601  1
  O  O72  1  0.306976  0.622601  0.889254  1
  O  O73  1  0.931026  0.613894  0.874664  1
  O  O74  1  0.610746  0.693024  0.122601  1
  O  O75  1  0.113894  0.625336  0.068974  1
  O  O76  1  0.613894  0.625336  0.431026  1
  O  O77  1  0.693024  0.122601  0.610746  1
  O  O78  1  0.806976  0.622601  0.610746  1
  O  O79  1  0.352592  0.852592  0.647408  1
  O  O80  1  0.877399  0.110746  0.806976  1
  O  O81  1  0.613894  0.874664  0.931026  1
  O  O82  1  0.886106  0.374664  0.931026  1
  O  O83  1  0.647408  0.147408  0.352592  1
  O  O84  1  0.352592  0.647408  0.147408  1
  O  O85  1  0.625336  0.068974  0.113894  1
  O  O86  1  0.386106  0.125336  0.068974  1
  O  O87  1  0.386106  0.374664  0.568974  1
