# generated using pymatgen
data_Ho8In3Ru
_symmetry_space_group_name_H-M   'P 1'
_cell_length_a   10.37513800
_cell_length_b   10.37513880
_cell_length_c   7.02110000
_cell_angle_alpha   90.00000000
_cell_angle_beta   90.00000000
_cell_angle_gamma   119.99999745
_symmetry_Int_Tables_number   1
_chemical_formula_structural   Ho8In3Ru
_chemical_formula_sum   'Ho16 In6 Ru2'
_cell_volume   654.52102070
_cell_formula_units_Z   2
loop_
 _symmetry_equiv_pos_site_id
 _symmetry_equiv_pos_as_xyz
  1  'x, y, z'
loop_
 _atom_site_type_symbol
 _atom_site_label
 _atom_site_symmetry_multiplicity
 _atom_site_fract_x
 _atom_site_fract_y
 _atom_site_fract_z
 _atom_site_occupancy
  Ho  Ho0  1  0.533179  0.066357  0.507937  1
  Ho  Ho1  1  0.933643  0.466821  0.507937  1
  Ho  Ho2  1  0.533179  0.466821  0.507937  1
  Ho  Ho3  1  0.466821  0.933643  0.007937  1
  Ho  Ho4  1  0.066357  0.533179  0.007937  1
  Ho  Ho5  1  0.466821  0.533179  0.007937  1
  Ho  Ho6  1  0.177290  0.354580  0.711911  1
  Ho  Ho7  1  0.645420  0.822710  0.711911  1
  Ho  Ho8  1  0.177290  0.822710  0.711911  1
  Ho  Ho9  1  0.822710  0.645420  0.211911  1
  Ho  Ho10  1  0.354580  0.177290  0.211911  1
  Ho  Ho11  1  0.822710  0.177290  0.211911  1
  Ho  Ho12  1  0.666667  0.333333  0.885604  1
  Ho  Ho13  1  0.333333  0.666667  0.385604  1
  Ho  Ho14  1  0.000000  0.000000  0.493028  1
  Ho  Ho15  1  0.000000  0.000000  0.993028  1
  In  In16  1  0.837412  0.674824  0.752235  1
  In  In17  1  0.325176  0.162588  0.752235  1
  In  In18  1  0.837412  0.162588  0.752235  1
  In  In19  1  0.162588  0.325176  0.252235  1
  In  In20  1  0.674824  0.837412  0.252235  1
  In  In21  1  0.162588  0.837412  0.252235  1
  Ru  Ru22  1  0.666667  0.333333  0.284141  1
  Ru  Ru23  1  0.333333  0.666667  0.784141  1
