# generated using pymatgen
data_Nd2V3Ni9As6P
_symmetry_space_group_name_H-M   'P 1'
_cell_length_a   3.85459300
_cell_length_b   9.60186610
_cell_length_c   9.60186700
_cell_angle_alpha   119.99999964
_cell_angle_beta   90.00000000
_cell_angle_gamma   90.00000000
_symmetry_Int_Tables_number   1
_chemical_formula_structural   Nd2V3Ni9As6P
_chemical_formula_sum   'Nd2 V3 Ni9 As6 P1'
_cell_volume   307.76589593
_cell_formula_units_Z   1
loop_
 _symmetry_equiv_pos_site_id
 _symmetry_equiv_pos_as_xyz
  1  'x, y, z'
loop_
 _atom_site_type_symbol
 _atom_site_label
 _atom_site_symmetry_multiplicity
 _atom_site_fract_x
 _atom_site_fract_y
 _atom_site_fract_z
 _atom_site_occupancy
  Nd  Nd0  1  0.000000  0.666667  0.333333  1
  Nd  Nd1  1  0.500000  0.333333  0.666667  1
  V  V2  1  0.500000  0.797110  0.902498  1
  V  V3  1  0.500000  0.105387  0.202890  1
  V  V4  1  0.500000  0.097502  0.894613  1
  Ni  Ni5  1  0.000000  0.572195  0.941300  1
  Ni  Ni6  1  0.000000  0.369102  0.427805  1
  Ni  Ni7  1  0.000000  0.058700  0.630898  1
  Ni  Ni8  1  0.000000  0.876705  0.142137  1
  Ni  Ni9  1  0.000000  0.265432  0.123295  1
  Ni  Ni10  1  0.000000  0.857863  0.734568  1
  Ni  Ni11  1  0.500000  0.948040  0.378518  1
  Ni  Ni12  1  0.500000  0.430477  0.051960  1
  Ni  Ni13  1  0.500000  0.621482  0.569523  1
  As  As14  1  0.500000  0.709501  0.109160  1
  As  As15  1  0.500000  0.399659  0.290499  1
  As  As16  1  0.500000  0.890840  0.600341  1
  As  As17  1  0.000000  0.596520  0.705493  1
  As  As18  1  0.000000  0.108973  0.403480  1
  As  As19  1  0.000000  0.294507  0.891027  1
  P  P20  1  0.000000  0.000000  0.000000  1
