# generated using pymatgen
data_LiLaNd2In3HgRh
_symmetry_space_group_name_H-M   'P 1'
_cell_length_a   8.00953100
_cell_length_b   8.00186930
_cell_length_c   3.96692500
_cell_angle_alpha   90.00000000
_cell_angle_beta   90.00000000
_cell_angle_gamma   119.95182039
_symmetry_Int_Tables_number   1
_chemical_formula_structural   LiLaNd2In3HgRh
_chemical_formula_sum   'Li1 La1 Nd2 In3 Hg1 Rh1'
_cell_volume   220.28950262
_cell_formula_units_Z   1
loop_
 _symmetry_equiv_pos_site_id
 _symmetry_equiv_pos_as_xyz
  1  'x, y, z'
loop_
 _atom_site_type_symbol
 _atom_site_label
 _atom_site_symmetry_multiplicity
 _atom_site_fract_x
 _atom_site_fract_y
 _atom_site_fract_z
 _atom_site_occupancy
  Li  Li0  1  0.999729  0.999984  0.500000  1
  La  La1  1  0.600424  0.029468  0.500000  1
  Nd  Nd2  1  0.426729  0.399403  0.500000  1
  Nd  Nd3  1  0.974207  0.575670  0.500000  1
  In  In4  1  0.248127  0.003152  0.000000  1
  In  In5  1  0.752170  0.746913  0.000000  1
  In  In6  1  0.000056  0.250411  0.000000  1
  Hg  Hg7  1  0.332352  0.664236  0.000000  1
  Rh  Rh8  1  0.666205  0.330763  0.000000  1
