# generated using pymatgen
data_La7Tm13Si15Sb
_symmetry_space_group_name_H-M   'P 1'
_cell_length_a   7.80221208
_cell_length_b   7.76244997
_cell_length_c   14.35204634
_cell_angle_alpha   90.43994161
_cell_angle_beta   89.62640327
_cell_angle_gamma   90.21122533
_symmetry_Int_Tables_number   1
_chemical_formula_structural   La7Tm13Si15Sb
_chemical_formula_sum   'La7 Tm13 Si15 Sb1'
_cell_volume   869.17151657
_cell_formula_units_Z   1
loop_
 _symmetry_equiv_pos_site_id
 _symmetry_equiv_pos_as_xyz
  1  'x, y, z'
loop_
 _atom_site_type_symbol
 _atom_site_label
 _atom_site_symmetry_multiplicity
 _atom_site_fract_x
 _atom_site_fract_y
 _atom_site_fract_z
 _atom_site_occupancy
  La  La0  1  0.009176  0.348355  0.542408  1
  La  La1  1  0.649064  0.994096  0.962264  1
  La  La2  1  0.146794  0.509437  0.790511  1
  La  La3  1  0.840669  0.484456  0.280877  1
  La  La4  1  0.504487  0.141676  0.205179  1
  La  La5  1  0.497404  0.856407  0.714608  1
  La  La6  1  0.355286  0.008208  0.459038  1
  Tm  Tm7  1  0.358236  0.492066  0.375310  1
  Tm  Tm8  1  0.843262  0.014250  0.365513  1
  Tm  Tm9  1  0.995974  0.140243  0.122429  1
  Tm  Tm10  1  0.011818  0.856538  0.630836  1
  Tm  Tm11  1  0.645381  0.509396  0.878580  1
  Tm  Tm12  1  0.499202  0.353968  0.627660  1
  Tm  Tm13  1  0.508401  0.645811  0.122869  1
  Tm  Tm14  1  0.140851  0.994388  0.876536  1
  Tm  Tm15  1  0.000532  0.638830  0.040585  1
  Tm  Tm16  1  0.666186  0.682814  0.503204  1
  Tm  Tm17  1  0.821525  0.182198  0.751911  1
  Tm  Tm18  1  0.176834  0.818116  0.242351  1
  Tm  Tm19  1  0.318780  0.322570  0.999750  1
  Si  Si20  1  0.943347  0.295364  0.939000  1
  Si  Si21  1  0.714105  0.059060  0.562565  1
  Si  Si22  1  0.206725  0.443586  0.185435  1
  Si  Si23  1  0.794736  0.560536  0.688751  1
  Si  Si24  1  0.441562  0.214428  0.814731  1
  Si  Si25  1  0.551147  0.787101  0.312950  1
  Si  Si26  1  0.289201  0.936139  0.060576  1
  Si  Si27  1  0.853356  0.793917  0.812888  1
  Si  Si28  1  0.144810  0.204192  0.309648  1
  Si  Si29  1  0.804241  0.846249  0.178211  1
  Si  Si30  1  0.309148  0.643559  0.573986  1
  Si  Si31  1  0.711410  0.358961  0.062133  1
  Si  Si32  1  0.649139  0.299325  0.441138  1
  Si  Si33  1  0.346873  0.705070  0.941230  1
  Si  Si34  1  0.206837  0.148093  0.692377  1
  Sb  Sb35  1  0.043501  0.710600  0.431968  1
