# generated using pymatgen
data_Tb2Si4Tc7Mo
_symmetry_space_group_name_H-M   'P 1'
_cell_length_a   7.70885330
_cell_length_b   7.02263842
_cell_length_c   4.18987200
_cell_angle_alpha   90.00000000
_cell_angle_beta   90.00000000
_cell_angle_gamma   90.10446966
_symmetry_Int_Tables_number   1
_chemical_formula_structural   Tb2Si4Tc7Mo
_chemical_formula_sum   'Tb2 Si4 Tc7 Mo1'
_cell_volume   226.82458398
_cell_formula_units_Z   1
loop_
 _symmetry_equiv_pos_site_id
 _symmetry_equiv_pos_as_xyz
  1  'x, y, z'
loop_
 _atom_site_type_symbol
 _atom_site_label
 _atom_site_symmetry_multiplicity
 _atom_site_fract_x
 _atom_site_fract_y
 _atom_site_fract_z
 _atom_site_occupancy
  Tb  Tb0  1  0.001831  0.000157  0.000000  1
  Tb  Tb1  1  0.500385  0.499434  0.500000  1
  Si  Si2  1  0.304938  0.274848  0.000000  1
  Si  Si3  1  0.693209  0.727325  0.000000  1
  Si  Si4  1  0.809722  0.228104  0.500000  1
  Si  Si5  1  0.193149  0.772743  0.500000  1
  Tc  Tc6  1  0.390366  0.844009  0.000000  1
  Tc  Tc7  1  0.658143  0.919541  0.500000  1
  Tc  Tc8  1  0.109008  0.348414  0.500000  1
  Tc  Tc9  1  0.337499  0.081666  0.500000  1
  Tc  Tc10  1  0.892245  0.654120  0.500000  1
  Tc  Tc11  1  0.157502  0.582047  0.000000  1
  Tc  Tc12  1  0.842814  0.418561  0.000000  1
  Mo  Mo13  1  0.609189  0.149032  0.000000  1
