# generated using pymatgen
data_Er5HgSe4
_symmetry_space_group_name_H-M   'P 1'
_cell_length_a   7.09719893
_cell_length_b   7.09725160
_cell_length_c   7.09713961
_cell_angle_alpha   99.62632445
_cell_angle_beta   99.62865145
_cell_angle_gamma   131.72201855
_symmetry_Int_Tables_number   1
_chemical_formula_structural   Er5HgSe4
_chemical_formula_sum   'Er5 Hg1 Se4'
_cell_volume   243.49011465
_cell_formula_units_Z   1
loop_
 _symmetry_equiv_pos_site_id
 _symmetry_equiv_pos_as_xyz
  1  'x, y, z'
loop_
 _atom_site_type_symbol
 _atom_site_label
 _atom_site_symmetry_multiplicity
 _atom_site_fract_x
 _atom_site_fract_y
 _atom_site_fract_z
 _atom_site_occupancy
  Er  Er0  1  0.399930  0.800429  0.200383  1
  Er  Er1  1  0.000000  0.000000  0.000000  1
  Er  Er2  1  0.600070  0.199571  0.799617  1
  Er  Er3  1  0.199573  0.399953  0.599508  1
  Er  Er4  1  0.800427  0.600047  0.400492  1
  Hg  Hg5  1  0.500000  0.500000  0.000000  1
  Se  Se6  1  0.097278  0.697177  0.794439  1
  Se  Se7  1  0.697175  0.902730  0.599896  1
  Se  Se8  1  0.302825  0.097270  0.400104  1
  Se  Se9  1  0.902722  0.302823  0.205561  1
