# generated using pymatgen
data_Dy17Er3Ir11Os
_symmetry_space_group_name_H-M   'P 1'
_cell_length_a   10.87264200
_cell_length_b   10.87256500
_cell_length_c   6.39360700
_cell_angle_alpha   90.00000000
_cell_angle_beta   90.00000000
_cell_angle_gamma   89.99948357
_symmetry_Int_Tables_number   1
_chemical_formula_structural   Dy17Er3Ir11Os
_chemical_formula_sum   'Dy17 Er3 Ir11 Os1'
_cell_volume   755.81070498
_cell_formula_units_Z   1
loop_
 _symmetry_equiv_pos_site_id
 _symmetry_equiv_pos_as_xyz
  1  'x, y, z'
loop_
 _atom_site_type_symbol
 _atom_site_label
 _atom_site_symmetry_multiplicity
 _atom_site_fract_x
 _atom_site_fract_y
 _atom_site_fract_z
 _atom_site_occupancy
  Dy  Dy0  1  0.292191  0.087222  0.376671  1
  Dy  Dy1  1  0.292713  0.912764  0.880441  1
  Dy  Dy2  1  0.707287  0.087236  0.880441  1
  Dy  Dy3  1  0.707809  0.912778  0.376671  1
  Dy  Dy4  1  0.587256  0.792812  0.880537  1
  Dy  Dy5  1  0.587325  0.207526  0.376610  1
  Dy  Dy6  1  0.412675  0.792474  0.376610  1
  Dy  Dy7  1  0.412744  0.207188  0.880537  1
  Dy  Dy8  1  0.209016  0.411600  0.621434  1
  Dy  Dy9  1  0.209092  0.588123  0.121008  1
  Dy  Dy10  1  0.790908  0.411877  0.121008  1
  Dy  Dy11  1  0.790984  0.588400  0.621434  1
  Dy  Dy12  1  0.911902  0.709186  0.121081  1
  Dy  Dy13  1  0.911717  0.290713  0.621389  1
  Dy  Dy14  1  0.088283  0.709287  0.621389  1
  Dy  Dy15  1  0.088098  0.290814  0.121081  1
  Dy  Dy16  1  0.500000  0.500000  0.499400  1
  Er  Er17  1  0.000000  0.000000  0.499432  1
  Er  Er18  1  0.000000  0.000000  0.999335  1
  Er  Er19  1  0.500000  0.500000  0.999267  1
  Ir  Ir20  1  0.848255  0.153179  0.250232  1
  Ir  Ir21  1  0.848254  0.847124  0.749823  1
  Ir  Ir22  1  0.151746  0.152876  0.749823  1
  Ir  Ir23  1  0.151745  0.846821  0.250232  1
  Ir  Ir24  1  0.653241  0.347886  0.750427  1
  Ir  Ir25  1  0.653544  0.652109  0.249659  1
  Ir  Ir26  1  0.346456  0.347891  0.249659  1
  Ir  Ir27  1  0.346759  0.652114  0.750427  1
  Ir  Ir28  1  0.500000  0.000000  0.624107  1
  Ir  Ir29  1  0.000000  0.500000  0.876847  1
  Ir  Ir30  1  0.000000  0.500000  0.377188  1
  Os  Os31  1  0.500000  0.000000  0.125794  1
