# generated using pymatgen
data_Sm4Co17(As4Ru)3
_symmetry_space_group_name_H-M   'P 1'
_cell_length_a   3.83785100
_cell_length_b   10.81249028
_cell_length_c   12.26283354
_cell_angle_alpha   89.88152789
_cell_angle_beta   90.00000000
_cell_angle_gamma   90.00000000
_symmetry_Int_Tables_number   1
_chemical_formula_structural   Sm4Co17(As4Ru)3
_chemical_formula_sum   'Sm4 Co17 As12 Ru3'
_cell_volume   508.86636318
_cell_formula_units_Z   1
loop_
 _symmetry_equiv_pos_site_id
 _symmetry_equiv_pos_as_xyz
  1  'x, y, z'
loop_
 _atom_site_type_symbol
 _atom_site_label
 _atom_site_symmetry_multiplicity
 _atom_site_fract_x
 _atom_site_fract_y
 _atom_site_fract_z
 _atom_site_occupancy
  Sm  Sm0  1  0.250000  0.581459  0.701004  1
  Sm  Sm1  1  0.250000  0.915209  0.203274  1
  Sm  Sm2  1  0.750000  0.414493  0.296255  1
  Sm  Sm3  1  0.750000  0.085086  0.796542  1
  Co  Co4  1  0.750000  0.211694  0.508067  1
  Co  Co5  1  0.250000  0.405925  0.488489  1
  Co  Co6  1  0.250000  0.093727  0.988992  1
  Co  Co7  1  0.750000  0.593629  0.510191  1
  Co  Co8  1  0.750000  0.906474  0.011279  1
  Co  Co9  1  0.250000  0.215273  0.176828  1
  Co  Co10  1  0.250000  0.284614  0.675758  1
  Co  Co11  1  0.750000  0.784515  0.823929  1
  Co  Co12  1  0.750000  0.716191  0.324742  1
  Co  Co13  1  0.250000  0.887324  0.698802  1
  Co  Co14  1  0.250000  0.613690  0.199750  1
  Co  Co15  1  0.750000  0.115466  0.303248  1
  Co  Co16  1  0.750000  0.385868  0.800320  1
  Co  Co17  1  0.250000  0.466971  0.931711  1
  Co  Co18  1  0.250000  0.032207  0.432199  1
  Co  Co19  1  0.750000  0.533850  0.068298  1
  Co  Co20  1  0.750000  0.968906  0.568117  1
  As  As21  1  0.250000  0.416262  0.113131  1
  As  As22  1  0.250000  0.085568  0.611900  1
  As  As23  1  0.750000  0.583426  0.886282  1
  As  As24  1  0.750000  0.916941  0.387270  1
  As  As25  1  0.250000  0.271432  0.867424  1
  As  As26  1  0.250000  0.228303  0.370138  1
  As  As27  1  0.750000  0.728820  0.132947  1
  As  As28  1  0.750000  0.772041  0.632594  1
  As  As29  1  0.250000  0.596148  0.390560  1
  As  As30  1  0.250000  0.903561  0.890582  1
  As  As31  1  0.750000  0.397516  0.606731  1
  As  As32  1  0.750000  0.097372  0.110376  1
  Ru  Ru33  1  0.250000  0.710490  0.990697  1
  Ru  Ru34  1  0.250000  0.788792  0.491205  1
  Ru  Ru35  1  0.750000  0.290757  0.010370  1
