# generated using pymatgen
data_K3Tm(Si2O5)3
_symmetry_space_group_name_H-M   'P 1'
_cell_length_a   7.38990200
_cell_length_b   14.81145300
_cell_length_c   16.03808200
_cell_angle_alpha   90.00000000
_cell_angle_beta   90.00000000
_cell_angle_gamma   90.00000000
_symmetry_Int_Tables_number   1
_chemical_formula_structural   K3Tm(Si2O5)3
_chemical_formula_sum   'K12 Tm4 Si24 O60'
_cell_volume   1755.45125076
_cell_formula_units_Z   4
loop_
 _symmetry_equiv_pos_site_id
 _symmetry_equiv_pos_as_xyz
  1  'x, y, z'
loop_
 _atom_site_type_symbol
 _atom_site_label
 _atom_site_symmetry_multiplicity
 _atom_site_fract_x
 _atom_site_fract_y
 _atom_site_fract_z
 _atom_site_occupancy
  K  K0  1  0.500000  0.539883  0.385185  1
  K  K1  1  0.500000  0.594458  0.939880  1
  K  K2  1  0.500000  0.405542  0.060120  1
  K  K3  1  0.500000  0.094458  0.560120  1
  K  K4  1  0.000000  0.620120  0.707872  1
  K  K5  1  0.000000  0.379880  0.292128  1
  K  K6  1  0.000000  0.120120  0.792128  1
  K  K7  1  0.000000  0.879880  0.207872  1
  K  K8  1  0.500000  0.905542  0.439880  1
  K  K9  1  0.500000  0.039883  0.114815  1
  K  K10  1  0.500000  0.460117  0.614815  1
  K  K11  1  0.500000  0.960117  0.885185  1
  Tm  Tm12  1  0.000000  0.500000  0.000000  1
  Tm  Tm13  1  0.000000  0.000000  0.500000  1
  Tm  Tm14  1  0.000000  0.500000  0.500000  1
  Tm  Tm15  1  0.000000  0.000000  0.000000  1
  Si  Si16  1  0.717624  0.196460  0.961531  1
  Si  Si17  1  0.717624  0.803540  0.038469  1
  Si  Si18  1  0.282376  0.696460  0.538469  1
  Si  Si19  1  0.282376  0.303540  0.461530  1
  Si  Si20  1  0.282376  0.803540  0.038469  1
  Si  Si21  1  0.282376  0.196460  0.961531  1
  Si  Si22  1  0.717624  0.303540  0.461530  1
  Si  Si23  1  0.717624  0.696460  0.538469  1
  Si  Si24  1  0.000000  0.783727  0.412214  1
  Si  Si25  1  0.000000  0.216273  0.587786  1
  Si  Si26  1  0.000000  0.283727  0.087786  1
  Si  Si27  1  0.000000  0.716273  0.912214  1
  Si  Si28  1  0.715861  0.366706  0.854615  1
  Si  Si29  1  0.715861  0.633294  0.145385  1
  Si  Si30  1  0.284139  0.866706  0.645385  1
  Si  Si31  1  0.000000  0.873510  0.792896  1
  Si  Si32  1  0.284139  0.133294  0.354615  1
  Si  Si33  1  0.000000  0.126490  0.207104  1
  Si  Si34  1  0.284139  0.366706  0.854615  1
  Si  Si35  1  0.715861  0.133294  0.354615  1
  Si  Si36  1  0.284139  0.633294  0.145385  1
  Si  Si37  1  0.000000  0.626490  0.292896  1
  Si  Si38  1  0.000000  0.373510  0.707104  1
  Si  Si39  1  0.715861  0.866706  0.645385  1
  O  O40  1  0.752577  0.257304  0.875984  1
  O  O41  1  0.500000  0.797143  0.013641  1
  O  O42  1  0.500000  0.202857  0.986359  1
  O  O43  1  0.500000  0.297143  0.486359  1
  O  O44  1  0.500000  0.702857  0.513641  1
  O  O45  1  0.780423  0.093287  0.949245  1
  O  O46  1  0.780423  0.906713  0.050755  1
  O  O47  1  0.219577  0.593287  0.550755  1
  O  O48  1  0.219577  0.406713  0.449245  1
  O  O49  1  0.219577  0.906713  0.050755  1
  O  O50  1  0.219577  0.093287  0.949245  1
  O  O51  1  0.780423  0.406713  0.449245  1
  O  O52  1  0.780423  0.593287  0.550755  1
  O  O53  1  0.752577  0.742696  0.124016  1
  O  O54  1  0.247423  0.757304  0.624016  1
  O  O55  1  0.247423  0.242696  0.375984  1
  O  O56  1  0.247423  0.742696  0.124016  1
  O  O57  1  0.500000  0.621548  0.169710  1
  O  O58  1  0.752577  0.242696  0.375984  1
  O  O59  1  0.752577  0.757304  0.624016  1
  O  O60  1  0.770071  0.431725  0.930534  1
  O  O61  1  0.770071  0.568275  0.069466  1
  O  O62  1  0.229929  0.931725  0.569466  1
  O  O63  1  0.229929  0.068275  0.430534  1
  O  O64  1  0.229929  0.568275  0.069466  1
  O  O65  1  0.247423  0.257304  0.875984  1
  O  O66  1  0.770071  0.068275  0.430534  1
  O  O67  1  0.770071  0.931725  0.569466  1
  O  O68  1  0.815520  0.753157  0.959308  1
  O  O69  1  0.815520  0.246843  0.040692  1
  O  O70  1  0.184480  0.253157  0.540692  1
  O  O71  1  0.184480  0.746843  0.459308  1
  O  O72  1  0.184480  0.246843  0.040692  1
  O  O73  1  0.184480  0.753157  0.959308  1
  O  O74  1  0.815520  0.746843  0.459308  1
  O  O75  1  0.815520  0.253157  0.540692  1
  O  O76  1  0.000000  0.609128  0.902176  1
  O  O77  1  0.000000  0.390872  0.097824  1
  O  O78  1  0.000000  0.109128  0.597824  1
  O  O79  1  0.000000  0.890872  0.402176  1
  O  O80  1  0.000000  0.764844  0.818693  1
  O  O81  1  0.000000  0.235156  0.181307  1
  O  O82  1  0.000000  0.264844  0.681307  1
  O  O83  1  0.000000  0.735156  0.318693  1
  O  O84  1  0.000000  0.940605  0.871381  1
  O  O85  1  0.000000  0.059395  0.128619  1
  O  O86  1  0.000000  0.440605  0.628619  1
  O  O87  1  0.000000  0.559395  0.371381  1
  O  O88  1  0.818478  0.889744  0.734410  1
  O  O89  1  0.818478  0.110256  0.265590  1
  O  O90  1  0.181522  0.389744  0.765590  1
  O  O91  1  0.181522  0.610256  0.234410  1
  O  O92  1  0.181522  0.110256  0.265590  1
  O  O93  1  0.181522  0.889744  0.734410  1
  O  O94  1  0.818478  0.610256  0.234410  1
  O  O95  1  0.818478  0.389744  0.765590  1
  O  O96  1  0.500000  0.878452  0.669710  1
  O  O97  1  0.500000  0.121548  0.330290  1
  O  O98  1  0.500000  0.378452  0.830290  1
  O  O99  1  0.229929  0.431725  0.930534  1
