# generated using pymatgen
data_Hf3CrSi3Rh2
_symmetry_space_group_name_H-M   'P 1'
_cell_length_a   7.58033876
_cell_length_b   7.58033703
_cell_length_c   7.58033647
_cell_angle_alpha   127.48740936
_cell_angle_beta   122.43739335
_cell_angle_gamma   81.66475204
_symmetry_Int_Tables_number   1
_chemical_formula_structural   Hf3CrSi3Rh2
_chemical_formula_sum   'Hf6 Cr2 Si6 Rh4'
_cell_volume   280.78663382
_cell_formula_units_Z   2
loop_
 _symmetry_equiv_pos_site_id
 _symmetry_equiv_pos_as_xyz
  1  'x, y, z'
loop_
 _atom_site_type_symbol
 _atom_site_label
 _atom_site_symmetry_multiplicity
 _atom_site_fract_x
 _atom_site_fract_y
 _atom_site_fract_z
 _atom_site_occupancy
  Hf  Hf0  1  0.463821  0.690055  0.726234  1
  Hf  Hf1  1  0.536179  0.262413  0.226234  1
  Hf  Hf2  1  0.747954  0.827711  0.579755  1
  Hf  Hf3  1  0.252046  0.831800  0.079755  1
  Hf  Hf4  1  0.054659  0.262802  0.708142  1
  Hf  Hf5  1  0.945341  0.653483  0.208142  1
  Cr  Cr6  1  0.500000  0.499716  0.999716  1
  Cr  Cr7  1  0.000000  0.499716  0.499716  1
  Si  Si8  1  0.270602  0.265885  0.495282  1
  Si  Si9  1  0.729398  0.224679  0.995282  1
  Si  Si10  1  0.329059  0.587852  0.249397  1
  Si  Si11  1  0.670941  0.920338  0.258794  1
  Si  Si12  1  0.161543  0.920338  0.749397  1
  Si  Si13  1  0.838457  0.587852  0.758794  1
  Rh  Rh14  1  0.100602  0.255343  0.107739  1
  Rh  Rh15  1  0.899398  0.007137  0.154741  1
  Rh  Rh16  1  0.352397  0.007137  0.607739  1
  Rh  Rh17  1  0.647603  0.255343  0.654741  1
