# generated using pymatgen
data_Dy3Er(Al3Ir)6
_symmetry_space_group_name_H-M   'P 1'
_cell_length_a   7.54922574
_cell_length_b   7.54770923
_cell_length_c   9.46355700
_cell_angle_alpha   90.00000000
_cell_angle_beta   90.00000000
_cell_angle_gamma   119.41233834
_symmetry_Int_Tables_number   1
_chemical_formula_structural   Dy3Er(Al3Ir)6
_chemical_formula_sum   'Dy3 Er1 Al18 Ir6'
_cell_volume   469.72536869
_cell_formula_units_Z   1
loop_
 _symmetry_equiv_pos_site_id
 _symmetry_equiv_pos_as_xyz
  1  'x, y, z'
loop_
 _atom_site_type_symbol
 _atom_site_label
 _atom_site_symmetry_multiplicity
 _atom_site_fract_x
 _atom_site_fract_y
 _atom_site_fract_z
 _atom_site_occupancy
  Dy  Dy0  1  0.005298  0.327642  0.250000  1
  Dy  Dy1  1  0.672212  0.994510  0.750000  1
  Dy  Dy2  1  0.327690  0.005262  0.250000  1
  Er  Er3  1  0.994582  0.672663  0.750000  1
  Al  Al4  1  0.129274  0.128957  0.750000  1
  Al  Al5  1  0.870596  0.870311  0.250000  1
  Al  Al6  1  0.001078  0.336170  0.575366  1
  Al  Al7  1  0.998937  0.664295  0.425790  1
  Al  Al8  1  0.998937  0.664295  0.074210  1
  Al  Al9  1  0.335490  0.000832  0.924777  1
  Al  Al10  1  0.001078  0.336170  0.924634  1
  Al  Al11  1  0.664258  0.998772  0.074833  1
  Al  Al12  1  0.664258  0.998772  0.425167  1
  Al  Al13  1  0.335490  0.000832  0.575223  1
  Al  Al14  1  0.333108  0.333109  0.050071  1
  Al  Al15  1  0.667227  0.666922  0.948955  1
  Al  Al16  1  0.667227  0.666922  0.551045  1
  Al  Al17  1  0.333108  0.333109  0.449929  1
  Al  Al18  1  0.339489  0.549150  0.750000  1
  Al  Al19  1  0.660223  0.450968  0.250000  1
  Al  Al20  1  0.549743  0.340545  0.750000  1
  Al  Al21  1  0.450749  0.659876  0.250000  1
  Ir  Ir22  1  0.672090  0.328037  0.500137  1
  Ir  Ir23  1  0.327935  0.672020  0.500188  1
  Ir  Ir24  1  0.327935  0.672020  0.999812  1
  Ir  Ir25  1  0.672090  0.328037  0.999863  1
  Ir  Ir26  1  0.999949  0.999901  0.500193  1
  Ir  Ir27  1  0.999949  0.999901  0.999807  1
