# generated using pymatgen
data_Cs2Zr6O13
_symmetry_space_group_name_H-M   'P 1'
_cell_length_a   9.04984281
_cell_length_b   9.04984330
_cell_length_c   9.96253887
_cell_angle_alpha   80.14132900
_cell_angle_beta   80.14132814
_cell_angle_gamma   26.21372574
_symmetry_Int_Tables_number   1
_chemical_formula_structural   Cs2Zr6O13
_chemical_formula_sum   'Cs2 Zr6 O13'
_cell_volume   354.79960983
_cell_formula_units_Z   1
loop_
 _symmetry_equiv_pos_site_id
 _symmetry_equiv_pos_as_xyz
  1  'x, y, z'
loop_
 _atom_site_type_symbol
 _atom_site_label
 _atom_site_symmetry_multiplicity
 _atom_site_fract_x
 _atom_site_fract_y
 _atom_site_fract_z
 _atom_site_occupancy
  Cs  Cs0  1  0.542760  0.542760  0.256949  1
  Cs  Cs1  1  0.457240  0.457240  0.743051  1
  Zr  Zr2  1  0.886537  0.886537  0.090359  1
  Zr  Zr3  1  0.113463  0.113463  0.909641  1
  Zr  Zr4  1  0.825801  0.825801  0.433577  1
  Zr  Zr5  1  0.174199  0.174199  0.566423  1
  Zr  Zr6  1  0.766356  0.766356  0.779555  1
  Zr  Zr7  1  0.233644  0.233644  0.220445  1
  O  O8  1  0.000000  0.000000  0.000000  1
  O  O9  1  0.764121  0.764121  0.240680  1
  O  O10  1  0.235879  0.235879  0.759320  1
  O  O11  1  0.917221  0.917221  0.287322  1
  O  O12  1  0.082779  0.082779  0.712678  1
  O  O13  1  0.706632  0.706632  0.573673  1
  O  O14  1  0.293368  0.293368  0.426327  1
  O  O15  1  0.858147  0.858147  0.616650  1
  O  O16  1  0.141853  0.141853  0.383350  1
  O  O17  1  0.644792  0.644792  0.887095  1
  O  O18  1  0.355208  0.355208  0.112905  1
  O  O19  1  0.833598  0.833598  0.916977  1
  O  O20  1  0.166402  0.166402  0.083023  1
