# generated using pymatgen
data_Y6Fe9Co8MoP12
_symmetry_space_group_name_H-M   'P 1'
_cell_length_a   3.72583600
_cell_length_b   10.56884700
_cell_length_c   12.13521900
_cell_angle_alpha   90.00000000
_cell_angle_beta   90.00000000
_cell_angle_gamma   90.00000000
_symmetry_Int_Tables_number   1
_chemical_formula_structural   Y6Fe9Co8MoP12
_chemical_formula_sum   'Y6 Fe9 Co8 Mo1 P12'
_cell_volume   477.85811304
_cell_formula_units_Z   1
loop_
 _symmetry_equiv_pos_site_id
 _symmetry_equiv_pos_as_xyz
  1  'x, y, z'
loop_
 _atom_site_type_symbol
 _atom_site_label
 _atom_site_symmetry_multiplicity
 _atom_site_fract_x
 _atom_site_fract_y
 _atom_site_fract_z
 _atom_site_occupancy
  Y  Y0  1  0.000000  0.500000  0.525650  1
  Y  Y1  1  0.500000  0.000000  0.475149  1
  Y  Y2  1  0.500000  0.820168  0.205820  1
  Y  Y3  1  0.500000  0.179832  0.205820  1
  Y  Y4  1  0.000000  0.681214  0.796389  1
  Y  Y5  1  0.000000  0.318786  0.796389  1
  Fe  Fe6  1  0.000000  0.000000  0.845466  1
  Fe  Fe7  1  0.000000  0.500000  0.985317  1
  Fe  Fe8  1  0.500000  0.000000  0.010993  1
  Fe  Fe9  1  0.500000  0.327628  0.993086  1
  Fe  Fe10  1  0.500000  0.672372  0.993086  1
  Fe  Fe11  1  0.500000  0.295909  0.431689  1
  Fe  Fe12  1  0.500000  0.704091  0.431689  1
  Fe  Fe13  1  0.500000  0.882268  0.708070  1
  Fe  Fe14  1  0.500000  0.117732  0.708070  1
  Co  Co15  1  0.500000  0.500000  0.699093  1
  Co  Co16  1  0.000000  0.000000  0.299785  1
  Co  Co17  1  0.000000  0.165455  0.005413  1
  Co  Co18  1  0.000000  0.834545  0.005413  1
  Co  Co19  1  0.000000  0.200781  0.571336  1
  Co  Co20  1  0.000000  0.799219  0.571336  1
  Co  Co21  1  0.000000  0.621362  0.291621  1
  Co  Co22  1  0.000000  0.378638  0.291621  1
  Mo  Mo23  1  0.500000  0.500000  0.151840  1
  P  P24  1  0.500000  0.500000  0.884612  1
  P  P25  1  0.000000  0.000000  0.115132  1
  P  P26  1  0.500000  0.500000  0.349476  1
  P  P27  1  0.000000  0.000000  0.661043  1
  P  P28  1  0.500000  0.306825  0.616708  1
  P  P29  1  0.500000  0.693175  0.616708  1
  P  P30  1  0.000000  0.193259  0.386069  1
  P  P31  1  0.000000  0.806741  0.386069  1
  P  P32  1  0.500000  0.850275  0.889919  1
  P  P33  1  0.500000  0.149725  0.889919  1
  P  P34  1  0.000000  0.656614  0.102103  1
  P  P35  1  0.000000  0.343386  0.102103  1
