# generated using pymatgen
data_CsDy5Tm5(C2I9)2
_symmetry_space_group_name_H-M   'P 1'
_cell_length_a   11.38986829
_cell_length_b   11.42034304
_cell_length_c   11.44839759
_cell_angle_alpha   113.28909985
_cell_angle_beta   86.88503033
_cell_angle_gamma   119.85138271
_symmetry_Int_Tables_number   1
_chemical_formula_structural   CsDy5Tm5(C2I9)2
_chemical_formula_sum   'Cs1 Dy5 Tm5 C4 I18'
_cell_volume   1167.22336411
_cell_formula_units_Z   1
loop_
 _symmetry_equiv_pos_site_id
 _symmetry_equiv_pos_as_xyz
  1  'x, y, z'
loop_
 _atom_site_type_symbol
 _atom_site_label
 _atom_site_symmetry_multiplicity
 _atom_site_fract_x
 _atom_site_fract_y
 _atom_site_fract_z
 _atom_site_occupancy
  Cs  Cs0  1  0.499999  0.999824  0.499910  1
  Dy  Dy1  1  0.104522  0.945451  0.000963  1
  Dy  Dy2  1  0.035904  0.962673  0.675875  1
  Dy  Dy3  1  0.320843  0.274642  0.287743  1
  Dy  Dy4  1  0.722909  0.647376  0.985205  1
  Dy  Dy5  1  0.895586  0.055074  0.999374  1
  Tm  Tm6  1  0.681565  0.726526  0.714095  1
  Tm  Tm7  1  0.274847  0.350504  0.016013  1
  Tm  Tm8  1  0.093216  0.386525  0.288958  1
  Tm  Tm9  1  0.965001  0.038395  0.321937  1
  Tm  Tm10  1  0.906950  0.613517  0.711256  1
  C  C11  1  0.151486  0.220397  0.120394  1
  C  C12  1  0.847192  0.778912  0.878736  1
  C  C13  1  0.923678  0.855627  0.801984  1
  C  C14  1  0.074932  0.143599  0.197079  1
  I  I15  1  0.449309  0.530440  0.831260  1
  I  I16  1  0.384497  0.039617  0.157576  1
  I  I17  1  0.776771  0.854945  0.501062  1
  I  I18  1  0.839843  0.311371  0.154849  1
  I  I19  1  0.548333  0.469206  0.166689  1
  I  I20  1  0.219934  0.143967  0.497691  1
  I  I21  1  0.318611  0.099194  0.831441  1
  I  I22  1  0.683985  0.905045  0.172363  1
  I  I23  1  0.975432  0.758429  0.172129  1
  I  I24  1  0.935256  0.296824  0.498465  1
  I  I25  1  0.027439  0.246079  0.831745  1
  I  I26  1  0.065035  0.699633  0.499909  1
  I  I27  1  0.259245  0.617733  0.181633  1
  I  I28  1  0.741591  0.379395  0.815826  1
  I  I29  1  0.645376  0.439637  0.504391  1
  I  I30  1  0.159816  0.688450  0.844914  1
  I  I31  1  0.616162  0.956902  0.840496  1
  I  I32  1  0.354733  0.564090  0.498040  1
