# generated using pymatgen
data_Tb2TmZn2Co9B4
_symmetry_space_group_name_H-M   'P 1'
_cell_length_a   5.10167848
_cell_length_b   5.10233165
_cell_length_c   9.68129300
_cell_angle_alpha   89.99988286
_cell_angle_beta   90.00013825
_cell_angle_gamma   120.04591237
_symmetry_Int_Tables_number   1
_chemical_formula_structural   Tb2TmZn2Co9B4
_chemical_formula_sum   'Tb2 Tm1 Zn2 Co9 B4'
_cell_volume   218.14469496
_cell_formula_units_Z   1
loop_
 _symmetry_equiv_pos_site_id
 _symmetry_equiv_pos_as_xyz
  1  'x, y, z'
loop_
 _atom_site_type_symbol
 _atom_site_label
 _atom_site_symmetry_multiplicity
 _atom_site_fract_x
 _atom_site_fract_y
 _atom_site_fract_z
 _atom_site_occupancy
  Tb  Tb0  1  0.999989  0.000001  0.000834  1
  Tb  Tb1  1  0.000002  0.000002  0.657365  1
  Tm  Tm2  1  0.999988  0.999994  0.342009  1
  Zn  Zn3  1  0.333188  0.666568  0.000450  1
  Zn  Zn4  1  0.666792  0.333434  0.000450  1
  Co  Co5  1  0.499995  0.999999  0.499190  1
  Co  Co6  1  0.499994  0.499999  0.499203  1
  Co  Co7  1  0.999998  0.500002  0.499196  1
  Co  Co8  1  0.499991  0.000001  0.211182  1
  Co  Co9  1  0.499991  0.499999  0.211125  1
  Co  Co10  1  0.999994  0.499998  0.211137  1
  Co  Co11  1  0.500001  0.000001  0.789522  1
  Co  Co12  1  0.499997  0.500000  0.789521  1
  Co  Co13  1  0.999996  0.499998  0.789523  1
  B  B14  1  0.333259  0.666671  0.350958  1
  B  B15  1  0.666731  0.333332  0.350958  1
  B  B16  1  0.666706  0.333193  0.648691  1
  B  B17  1  0.333289  0.666809  0.648690  1
