# generated using pymatgen
data_Dy3Ho2(In2Ni)2
_symmetry_space_group_name_H-M   'P 1'
_cell_length_a   8.04502700
_cell_length_b   17.93570100
_cell_length_c   3.56953100
_cell_angle_alpha   90.00000000
_cell_angle_beta   90.00000000
_cell_angle_gamma   90.00000000
_symmetry_Int_Tables_number   1
_chemical_formula_structural   Dy3Ho2(In2Ni)2
_chemical_formula_sum   'Dy6 Ho4 In8 Ni4'
_cell_volume   515.05904624
_cell_formula_units_Z   2
loop_
 _symmetry_equiv_pos_site_id
 _symmetry_equiv_pos_as_xyz
  1  'x, y, z'
loop_
 _atom_site_type_symbol
 _atom_site_label
 _atom_site_symmetry_multiplicity
 _atom_site_fract_x
 _atom_site_fract_y
 _atom_site_fract_z
 _atom_site_occupancy
  Dy  Dy0  1  0.500000  0.500000  0.000000  1
  Dy  Dy1  1  0.000000  0.000000  0.000000  1
  Dy  Dy2  1  0.743962  0.279717  0.000000  1
  Dy  Dy3  1  0.256038  0.720283  0.000000  1
  Dy  Dy4  1  0.756038  0.779717  0.000000  1
  Dy  Dy5  1  0.243962  0.220283  0.000000  1
  Ho  Ho6  1  0.617275  0.088256  0.000000  1
  Ho  Ho7  1  0.382725  0.911744  0.000000  1
  Ho  Ho8  1  0.882725  0.588256  0.000000  1
  Ho  Ho9  1  0.117275  0.411744  0.000000  1
  In  In10  1  0.703584  0.932269  0.500000  1
  In  In11  1  0.296416  0.067731  0.500000  1
  In  In12  1  0.796416  0.432269  0.500000  1
  In  In13  1  0.203584  0.567731  0.500000  1
  In  In14  1  0.574902  0.652787  0.500000  1
  In  In15  1  0.425098  0.347213  0.500000  1
  In  In16  1  0.925098  0.152787  0.500000  1
  In  In17  1  0.074902  0.847213  0.500000  1
  Ni  Ni18  1  0.523154  0.195990  0.500000  1
  Ni  Ni19  1  0.476846  0.804010  0.500000  1
  Ni  Ni20  1  0.976846  0.695990  0.500000  1
  Ni  Ni21  1  0.023154  0.304010  0.500000  1
