# generated using pymatgen
data_Gd3Er(Si3Ir)2
_symmetry_space_group_name_H-M   'P 1'
_cell_length_a   8.31917500
_cell_length_b   8.31917535
_cell_length_c   7.93035100
_cell_angle_alpha   90.00000000
_cell_angle_beta   90.00000000
_cell_angle_gamma   120.00000260
_symmetry_Int_Tables_number   1
_chemical_formula_structural   Gd3Er(Si3Ir)2
_chemical_formula_sum   'Gd6 Er2 Si12 Ir4'
_cell_volume   475.31724187
_cell_formula_units_Z   2
loop_
 _symmetry_equiv_pos_site_id
 _symmetry_equiv_pos_as_xyz
  1  'x, y, z'
loop_
 _atom_site_type_symbol
 _atom_site_label
 _atom_site_symmetry_multiplicity
 _atom_site_fract_x
 _atom_site_fract_y
 _atom_site_fract_z
 _atom_site_occupancy
  Gd  Gd0  1  0.981377  0.490688  0.250000  1
  Gd  Gd1  1  0.509312  0.490688  0.250000  1
  Gd  Gd2  1  0.490688  0.981377  0.750000  1
  Gd  Gd3  1  0.018623  0.509312  0.750000  1
  Gd  Gd4  1  0.490688  0.509312  0.750000  1
  Gd  Gd5  1  0.509312  0.018623  0.250000  1
  Er  Er6  1  0.000000  0.000000  0.750000  1
  Er  Er7  1  0.000000  0.000000  0.250000  1
  Si  Si8  1  0.166417  0.833583  0.498096  1
  Si  Si9  1  0.166417  0.332835  0.498096  1
  Si  Si10  1  0.667165  0.833583  0.498096  1
  Si  Si11  1  0.332835  0.166417  0.998096  1
  Si  Si12  1  0.833583  0.667165  0.501904  1
  Si  Si13  1  0.833583  0.166417  0.998096  1
  Si  Si14  1  0.833583  0.667165  0.998096  1
  Si  Si15  1  0.166417  0.332835  0.001904  1
  Si  Si16  1  0.667165  0.833583  0.001904  1
  Si  Si17  1  0.332835  0.166417  0.501904  1
  Si  Si18  1  0.833583  0.166417  0.501904  1
  Si  Si19  1  0.166417  0.833583  0.001904  1
  Ir  Ir20  1  0.333333  0.666667  0.029614  1
  Ir  Ir21  1  0.666667  0.333333  0.970386  1
  Ir  Ir22  1  0.666667  0.333333  0.529614  1
  Ir  Ir23  1  0.333333  0.666667  0.470386  1
