# generated using pymatgen
data_Eu2ReO4F
_symmetry_space_group_name_H-M   'P 1'
_cell_length_a   8.71634600
_cell_length_b   8.71634600
_cell_length_c   6.05351800
_cell_angle_alpha   90.00000000
_cell_angle_beta   90.00000000
_cell_angle_gamma   90.00000000
_symmetry_Int_Tables_number   1
_chemical_formula_structural   Eu2ReO4F
_chemical_formula_sum   'Eu8 Re4 O16 F4'
_cell_volume   459.91413888
_cell_formula_units_Z   4
loop_
 _symmetry_equiv_pos_site_id
 _symmetry_equiv_pos_as_xyz
  1  'x, y, z'
loop_
 _atom_site_type_symbol
 _atom_site_label
 _atom_site_symmetry_multiplicity
 _atom_site_fract_x
 _atom_site_fract_y
 _atom_site_fract_z
 _atom_site_occupancy
  Eu  Eu0  1  0.837038  0.154213  0.249663  1
  Eu  Eu1  1  0.654213  0.662962  0.249663  1
  Eu  Eu2  1  0.345787  0.337038  0.249663  1
  Eu  Eu3  1  0.162962  0.845787  0.249663  1
  Eu  Eu4  1  0.337038  0.654213  0.750337  1
  Eu  Eu5  1  0.154213  0.162962  0.750337  1
  Eu  Eu6  1  0.845787  0.837038  0.750337  1
  Eu  Eu7  1  0.662962  0.345787  0.750337  1
  Re  Re8  1  0.000000  0.500000  0.531438  1
  Re  Re9  1  0.500000  0.000000  0.468562  1
  Re  Re10  1  0.000000  0.500000  0.150067  1
  Re  Re11  1  0.500000  0.000000  0.849933  1
  O  O12  1  0.299290  0.913459  0.907572  1
  O  O13  1  0.413459  0.200710  0.907572  1
  O  O14  1  0.586541  0.799290  0.907572  1
  O  O15  1  0.700710  0.086541  0.907572  1
  O  O16  1  0.200710  0.586541  0.092428  1
  O  O17  1  0.086541  0.299290  0.092428  1
  O  O18  1  0.913459  0.700710  0.092428  1
  O  O19  1  0.799290  0.413459  0.092428  1
  O  O20  1  0.798939  0.584461  0.594701  1
  O  O21  1  0.084461  0.701061  0.594701  1
  O  O22  1  0.915539  0.298939  0.594701  1
  O  O23  1  0.201061  0.415539  0.594701  1
  O  O24  1  0.701061  0.915539  0.405299  1
  O  O25  1  0.415539  0.798939  0.405299  1
  O  O26  1  0.584461  0.201061  0.405299  1
  O  O27  1  0.298939  0.084461  0.405299  1
  F  F28  1  0.000000  0.000000  0.500000  1
  F  F29  1  0.500000  0.500000  0.500000  1
  F  F30  1  0.000000  0.000000  0.000000  1
  F  F31  1  0.500000  0.500000  0.000000  1
