# generated using pymatgen
data_LiLa10Nd6Cd2InIr4
_symmetry_space_group_name_H-M   'P 1'
_cell_length_a   10.08759743
_cell_length_b   10.08759807
_cell_length_c   10.08759900
_cell_angle_alpha   59.87930288
_cell_angle_beta   59.87930078
_cell_angle_gamma   59.87931036
_symmetry_Int_Tables_number   1
_chemical_formula_structural   LiLa10Nd6Cd2InIr4
_chemical_formula_sum   'Li1 La10 Nd6 Cd2 In1 Ir4'
_cell_volume   723.86463916
_cell_formula_units_Z   1
loop_
 _symmetry_equiv_pos_site_id
 _symmetry_equiv_pos_as_xyz
  1  'x, y, z'
loop_
 _atom_site_type_symbol
 _atom_site_label
 _atom_site_symmetry_multiplicity
 _atom_site_fract_x
 _atom_site_fract_y
 _atom_site_fract_z
 _atom_site_occupancy
  Li  Li0  1  0.570786  0.570786  0.570702  1
  La  La1  1  0.347443  0.347443  0.347377  1
  La  La2  1  0.346793  0.346793  0.960211  1
  La  La3  1  0.346886  0.959983  0.346955  1
  La  La4  1  0.959983  0.346886  0.346955  1
  La  La5  1  0.808717  0.192453  0.192195  1
  La  La6  1  0.188584  0.810766  0.810750  1
  La  La7  1  0.192453  0.808717  0.192195  1
  La  La8  1  0.810766  0.188584  0.810750  1
  La  La9  1  0.192006  0.192006  0.808866  1
  La  La10  1  0.810493  0.810493  0.188727  1
  Nd  Nd11  1  0.936860  0.564177  0.563818  1
  Nd  Nd12  1  0.563894  0.936088  0.935887  1
  Nd  Nd13  1  0.564177  0.936860  0.563818  1
  Nd  Nd14  1  0.936088  0.563894  0.935887  1
  Nd  Nd15  1  0.564206  0.564206  0.936591  1
  Nd  Nd16  1  0.935983  0.935983  0.563662  1
  Cd  Cd17  1  0.581483  0.257371  0.581625  1
  Cd  Cd18  1  0.257371  0.581483  0.581625  1
  In  In19  1  0.581433  0.581433  0.257789  1
  Ir  Ir20  1  0.141756  0.141756  0.141636  1
  Ir  Ir21  1  0.141751  0.141751  0.578474  1
  Ir  Ir22  1  0.141811  0.578278  0.141753  1
  Ir  Ir23  1  0.578278  0.141811  0.141753  1
