# generated using pymatgen
data_Pr2NiRu3
_symmetry_space_group_name_H-M   'P 1'
_cell_length_a   5.45783974
_cell_length_b   5.45783972
_cell_length_c   5.45784037
_cell_angle_alpha   58.49294050
_cell_angle_beta   58.49293808
_cell_angle_gamma   58.49294403
_symmetry_Int_Tables_number   1
_chemical_formula_structural   Pr2NiRu3
_chemical_formula_sum   'Pr2 Ni1 Ru3'
_cell_volume   110.99672754
_cell_formula_units_Z   1
loop_
 _symmetry_equiv_pos_site_id
 _symmetry_equiv_pos_as_xyz
  1  'x, y, z'
loop_
 _atom_site_type_symbol
 _atom_site_label
 _atom_site_symmetry_multiplicity
 _atom_site_fract_x
 _atom_site_fract_y
 _atom_site_fract_z
 _atom_site_occupancy
  Pr  Pr0  1  0.502393  0.502393  0.502393  1
  Pr  Pr1  1  0.747607  0.747607  0.747607  1
  Ni  Ni2  1  0.125000  0.125000  0.125000  1
  Ru  Ru3  1  0.625000  0.125000  0.125000  1
  Ru  Ru4  1  0.125000  0.625000  0.125000  1
  Ru  Ru5  1  0.125000  0.125000  0.625000  1
