# generated using pymatgen
data_YbFeCo(Sb6Os)2
_symmetry_space_group_name_H-M   'P 1'
_cell_length_a   8.08819670
_cell_length_b   8.06057183
_cell_length_c   8.02133362
_cell_angle_alpha   109.50183583
_cell_angle_beta   109.55124537
_cell_angle_gamma   109.64698527
_symmetry_Int_Tables_number   1
_chemical_formula_structural   YbFeCo(Sb6Os)2
_chemical_formula_sum   'Yb1 Fe1 Co1 Sb12 Os2'
_cell_volume   401.14103624
_cell_formula_units_Z   1
loop_
 _symmetry_equiv_pos_site_id
 _symmetry_equiv_pos_as_xyz
  1  'x, y, z'
loop_
 _atom_site_type_symbol
 _atom_site_label
 _atom_site_symmetry_multiplicity
 _atom_site_fract_x
 _atom_site_fract_y
 _atom_site_fract_z
 _atom_site_occupancy
  Yb  Yb0  1  0.000000  0.000000  0.000000  1
  Fe  Fe1  1  0.000000  0.500000  0.000000  1
  Co  Co2  1  0.500000  0.000000  0.000000  1
  Sb  Sb3  1  0.843240  0.659560  0.503198  1
  Sb  Sb4  1  0.156760  0.340440  0.496802  1
  Sb  Sb5  1  0.160186  0.665803  0.826293  1
  Sb  Sb6  1  0.839814  0.334197  0.173707  1
  Sb  Sb7  1  0.668617  0.503841  0.846799  1
  Sb  Sb8  1  0.331383  0.496159  0.153201  1
  Sb  Sb9  1  0.657274  0.821441  0.152828  1
  Sb  Sb10  1  0.342726  0.178559  0.847172  1
  Sb  Sb11  1  0.504868  0.846706  0.668274  1
  Sb  Sb12  1  0.495132  0.153294  0.331726  1
  Sb  Sb13  1  0.178099  0.836336  0.332200  1
  Sb  Sb14  1  0.821901  0.163664  0.667800  1
  Os  Os15  1  0.500000  0.500000  0.500000  1
  Os  Os16  1  0.000000  0.000000  0.500000  1
