# generated using pymatgen
data_Pa6Al23ZnOs8
_symmetry_space_group_name_H-M   'P 1'
_cell_length_a   8.86982800
_cell_length_b   8.87879998
_cell_length_c   9.43036900
_cell_angle_alpha   90.00000000
_cell_angle_beta   90.00000000
_cell_angle_gamma   119.96658620
_symmetry_Int_Tables_number   1
_chemical_formula_structural   Pa6Al23ZnOs8
_chemical_formula_sum   'Pa6 Al23 Zn1 Os8'
_cell_volume   643.39090446
_cell_formula_units_Z   1
loop_
 _symmetry_equiv_pos_site_id
 _symmetry_equiv_pos_as_xyz
  1  'x, y, z'
loop_
 _atom_site_type_symbol
 _atom_site_label
 _atom_site_symmetry_multiplicity
 _atom_site_fract_x
 _atom_site_fract_y
 _atom_site_fract_z
 _atom_site_occupancy
  Pa  Pa0  1  0.197524  0.395048  0.250000  1
  Pa  Pa1  1  0.801476  0.602952  0.750000  1
  Pa  Pa2  1  0.603616  0.804967  0.250000  1
  Pa  Pa3  1  0.396845  0.196980  0.750000  1
  Pa  Pa4  1  0.201351  0.804967  0.250000  1
  Pa  Pa5  1  0.800136  0.196980  0.750000  1
  Al  Al6  1  0.333452  0.666906  0.016812  1
  Al  Al7  1  0.666351  0.332701  0.984692  1
  Al  Al8  1  0.666351  0.332701  0.515308  1
  Al  Al9  1  0.333452  0.666906  0.483188  1
  Al  Al10  1  0.161577  0.323153  0.578430  1
  Al  Al11  1  0.838263  0.676527  0.420269  1
  Al  Al12  1  0.676556  0.838012  0.578588  1
  Al  Al13  1  0.838263  0.676527  0.079731  1
  Al  Al14  1  0.325012  0.161604  0.420289  1
  Al  Al15  1  0.161577  0.323153  0.921570  1
  Al  Al16  1  0.161457  0.838012  0.578588  1
  Al  Al17  1  0.325012  0.161604  0.079711  1
  Al  Al18  1  0.836591  0.161604  0.420289  1
  Al  Al19  1  0.676556  0.838012  0.921412  1
  Al  Al20  1  0.836591  0.161604  0.079711  1
  Al  Al21  1  0.161457  0.838012  0.921412  1
  Al  Al22  1  0.435803  0.871606  0.750000  1
  Al  Al23  1  0.873464  0.436384  0.250000  1
  Al  Al24  1  0.125117  0.562047  0.750000  1
  Al  Al25  1  0.562921  0.436384  0.250000  1
  Al  Al26  1  0.436930  0.562047  0.750000  1
  Al  Al27  1  0.999963  0.999926  0.250000  1
  Al  Al28  1  0.000044  0.000088  0.750000  1
  Zn  Zn29  1  0.566514  0.133027  0.250000  1
  Os  Os30  1  0.499772  0.999543  0.995546  1
  Os  Os31  1  0.000132  0.500041  0.000060  1
  Os  Os32  1  0.499772  0.999543  0.504454  1
  Os  Os33  1  0.499908  0.500041  0.000060  1
  Os  Os34  1  0.000132  0.500041  0.499940  1
  Os  Os35  1  0.499908  0.500041  0.499940  1
  Os  Os36  1  0.000078  0.000155  0.999891  1
  Os  Os37  1  0.000078  0.000155  0.500109  1
