# generated using pymatgen
data_HoTm3(Sc3Sn4)2
_symmetry_space_group_name_H-M   'P 1'
_cell_length_a   7.65312211
_cell_length_b   7.92987405
_cell_length_c   14.78362519
_cell_angle_alpha   90.00783508
_cell_angle_beta   89.98312893
_cell_angle_gamma   90.00956044
_symmetry_Int_Tables_number   1
_chemical_formula_structural   HoTm3(Sc3Sn4)2
_chemical_formula_sum   'Ho2 Tm6 Sc12 Sn16'
_cell_volume   897.19293818
_cell_formula_units_Z   2
loop_
 _symmetry_equiv_pos_site_id
 _symmetry_equiv_pos_as_xyz
  1  'x, y, z'
loop_
 _atom_site_type_symbol
 _atom_site_label
 _atom_site_symmetry_multiplicity
 _atom_site_fract_x
 _atom_site_fract_y
 _atom_site_fract_z
 _atom_site_occupancy
  Ho  Ho0  1  0.994359  0.178170  0.093674  1
  Ho  Ho1  1  0.005641  0.821830  0.906326  1
  Tm  Tm2  1  0.505768  0.678273  0.906278  1
  Tm  Tm3  1  0.005761  0.821714  0.593774  1
  Tm  Tm4  1  0.494232  0.321727  0.093722  1
  Tm  Tm5  1  0.994239  0.178286  0.406226  1
  Tm  Tm6  1  0.494270  0.321703  0.406320  1
  Tm  Tm7  1  0.505730  0.678297  0.593680  1
  Sc  Sc8  1  0.164502  0.496536  0.749946  1
  Sc  Sc9  1  0.835498  0.503464  0.250054  1
  Sc  Sc10  1  0.335628  0.996562  0.250031  1
  Sc  Sc11  1  0.664372  0.003438  0.749969  1
  Sc  Sc12  1  0.336162  0.161194  0.627379  1
  Sc  Sc13  1  0.663838  0.838806  0.372621  1
  Sc  Sc14  1  0.163841  0.661243  0.372621  1
  Sc  Sc15  1  0.663740  0.838733  0.127417  1
  Sc  Sc16  1  0.836159  0.338757  0.627379  1
  Sc  Sc17  1  0.336260  0.161267  0.872583  1
  Sc  Sc18  1  0.836064  0.338835  0.872568  1
  Sc  Sc19  1  0.163936  0.661165  0.127432  1
  Sn  Sn20  1  0.026868  0.122906  0.749952  1
  Sn  Sn21  1  0.973132  0.877094  0.250048  1
  Sn  Sn22  1  0.473147  0.622690  0.250014  1
  Sn  Sn23  1  0.526853  0.377310  0.749986  1
  Sn  Sn24  1  0.307145  0.848195  0.749892  1
  Sn  Sn25  1  0.692855  0.151805  0.250108  1
  Sn  Sn26  1  0.193322  0.348416  0.250181  1
  Sn  Sn27  1  0.806678  0.651584  0.749819  1
  Sn  Sn28  1  0.182334  0.458439  0.542246  1
  Sn  Sn29  1  0.817666  0.541561  0.457754  1
  Sn  Sn30  1  0.317629  0.958459  0.457724  1
  Sn  Sn31  1  0.817479  0.541610  0.042248  1
  Sn  Sn32  1  0.682371  0.041541  0.542276  1
  Sn  Sn33  1  0.182521  0.458390  0.957752  1
  Sn  Sn34  1  0.681632  0.041693  0.957705  1
  Sn  Sn35  1  0.318368  0.958307  0.042295  1
