# generated using pymatgen
data_Ho4Al24CuPd8
_symmetry_space_group_name_H-M   'P 1'
_cell_length_a   7.54145928
_cell_length_b   7.56140558
_cell_length_c   13.12032729
_cell_angle_alpha   84.59032489
_cell_angle_beta   79.01733907
_cell_angle_gamma   59.91659096
_symmetry_Int_Tables_number   1
_chemical_formula_structural   Ho4Al24CuPd8
_chemical_formula_sum   'Ho4 Al24 Cu1 Pd8'
_cell_volume   635.53467010
_cell_formula_units_Z   1
loop_
 _symmetry_equiv_pos_site_id
 _symmetry_equiv_pos_as_xyz
  1  'x, y, z'
loop_
 _atom_site_type_symbol
 _atom_site_label
 _atom_site_symmetry_multiplicity
 _atom_site_fract_x
 _atom_site_fract_y
 _atom_site_fract_z
 _atom_site_occupancy
  Ho  Ho0  1  0.392525  0.169181  0.807751  1
  Ho  Ho1  1  0.606523  0.831667  0.191885  1
  Ho  Ho2  1  0.734575  0.498303  0.807546  1
  Ho  Ho3  1  0.266760  0.501500  0.191963  1
  Al  Al4  1  0.684189  0.833375  0.944466  1
  Al  Al5  1  0.315903  0.166116  0.055461  1
  Al  Al6  1  0.145353  0.834850  0.562163  1
  Al  Al7  1  0.854966  0.166624  0.436519  1
  Al  Al8  1  0.479333  0.167713  0.560100  1
  Al  Al9  1  0.520472  0.833578  0.439757  1
  Al  Al10  1  0.217875  0.165353  0.329192  1
  Al  Al11  1  0.785031  0.831877  0.671072  1
  Al  Al12  1  0.433389  0.506870  0.671403  1
  Al  Al13  1  0.563571  0.493482  0.328532  1
  Al  Al14  1  0.109194  0.162929  0.669734  1
  Al  Al15  1  0.890677  0.840158  0.330100  1
  Al  Al16  1  0.353180  0.498960  0.944235  1
  Al  Al17  1  0.647214  0.500577  0.055563  1
  Al  Al18  1  0.015092  0.167485  0.954624  1
  Al  Al19  1  0.984588  0.831967  0.046024  1
  Al  Al20  1  0.186390  0.500602  0.442033  1
  Al  Al21  1  0.813710  0.500142  0.559947  1
  Al  Al22  1  0.733247  0.163928  0.184168  1
  Al  Al23  1  0.266141  0.835707  0.816080  1
  Al  Al24  1  0.062159  0.628490  0.813128  1
  Al  Al25  1  0.938690  0.369695  0.185337  1
  Al  Al26  1  0.854998  0.041504  0.815761  1
  Al  Al27  1  0.144917  0.957568  0.184150  1
  Cu  Cu28  1  0.119221  0.491883  0.639260  1
  Pd  Pd29  1  0.880269  0.508040  0.362691  1
  Pd  Pd30  1  0.657038  0.171346  0.999611  1
  Pd  Pd31  1  0.343287  0.828029  0.999687  1
  Pd  Pd32  1  0.536640  0.167780  0.362799  1
  Pd  Pd33  1  0.462275  0.833259  0.637845  1
  Pd  Pd34  1  0.778593  0.175361  0.637171  1
  Pd  Pd35  1  0.221611  0.824253  0.362882  1
  Pd  Pd36  1  0.000402  0.499846  0.999358  1
