# generated using pymatgen
data_Sc2Be7B(Ru5W)2
_symmetry_space_group_name_H-M   'P 1'
_cell_length_a   3.11525100
_cell_length_b   8.61560802
_cell_length_c   10.07428847
_cell_angle_alpha   90.43820606
_cell_angle_beta   90.00000000
_cell_angle_gamma   90.00000000
_symmetry_Int_Tables_number   1
_chemical_formula_structural   Sc2Be7B(Ru5W)2
_chemical_formula_sum   'Sc2 Be7 B1 Ru10 W2'
_cell_volume   270.38379332
_cell_formula_units_Z   1
loop_
 _symmetry_equiv_pos_site_id
 _symmetry_equiv_pos_as_xyz
  1  'x, y, z'
loop_
 _atom_site_type_symbol
 _atom_site_label
 _atom_site_symmetry_multiplicity
 _atom_site_fract_x
 _atom_site_fract_y
 _atom_site_fract_z
 _atom_site_occupancy
  Sc  Sc0  1  0.500000  0.653072  0.678169  1
  Sc  Sc1  1  0.500000  0.344460  0.321091  1
  Be  Be2  1  0.500000  0.954822  0.590539  1
  Be  Be3  1  0.500000  0.040546  0.406983  1
  Be  Be4  1  0.500000  0.846394  0.903329  1
  Be  Be5  1  0.500000  0.158171  0.097228  1
  Be  Be6  1  0.500000  0.654016  0.402886  1
  Be  Be7  1  0.500000  0.344050  0.596792  1
  Be  Be8  1  0.500000  0.463432  0.910833  1
  B  B9  1  0.500000  0.538182  0.094182  1
  Ru  Ru10  1  0.000000  0.661282  0.961263  1
  Ru  Ru11  1  0.000000  0.349221  0.053059  1
  Ru  Ru12  1  0.000000  0.842071  0.440812  1
  Ru  Ru13  1  0.000000  0.154039  0.556815  1
  Ru  Ru14  1  0.000000  0.006389  0.997314  1
  Ru  Ru15  1  0.000000  0.387278  0.764657  1
  Ru  Ru16  1  0.000000  0.605780  0.233003  1
  Ru  Ru17  1  0.000000  0.498981  0.500001  1
  Ru  Ru18  1  0.000000  0.907982  0.742986  1
  Ru  Ru19  1  0.000000  0.089611  0.255883  1
  W  W20  1  0.500000  0.848782  0.183352  1
  W  W21  1  0.500000  0.151438  0.808824  1
