# generated using pymatgen
data_Pa2Al9TcIr2
_symmetry_space_group_name_H-M   'P 1'
_cell_length_a   7.61345385
_cell_length_b   7.61345538
_cell_length_c   9.30628300
_cell_angle_alpha   90.00000000
_cell_angle_beta   90.00000000
_cell_angle_gamma   118.31665353
_symmetry_Int_Tables_number   1
_chemical_formula_structural   Pa2Al9TcIr2
_chemical_formula_sum   'Pa4 Al18 Tc2 Ir4'
_cell_volume   474.88667026
_cell_formula_units_Z   2
loop_
 _symmetry_equiv_pos_site_id
 _symmetry_equiv_pos_as_xyz
  1  'x, y, z'
loop_
 _atom_site_type_symbol
 _atom_site_label
 _atom_site_symmetry_multiplicity
 _atom_site_fract_x
 _atom_site_fract_y
 _atom_site_fract_z
 _atom_site_occupancy
  Pa  Pa0  1  0.995463  0.695106  0.250000  1
  Pa  Pa1  1  0.004537  0.304894  0.750000  1
  Pa  Pa2  1  0.695106  0.995463  0.250000  1
  Pa  Pa3  1  0.304894  0.004537  0.750000  1
  Al  Al4  1  0.145005  0.145005  0.250000  1
  Al  Al5  1  0.854995  0.854995  0.750000  1
  Al  Al6  1  0.006061  0.345672  0.081210  1
  Al  Al7  1  0.993939  0.654328  0.918790  1
  Al  Al8  1  0.993939  0.654328  0.581210  1
  Al  Al9  1  0.345672  0.006061  0.418790  1
  Al  Al10  1  0.006061  0.345672  0.418790  1
  Al  Al11  1  0.654328  0.993939  0.581210  1
  Al  Al12  1  0.654328  0.993939  0.918790  1
  Al  Al13  1  0.345672  0.006061  0.081210  1
  Al  Al14  1  0.335474  0.335474  0.543928  1
  Al  Al15  1  0.664526  0.664526  0.456072  1
  Al  Al16  1  0.664526  0.664526  0.043928  1
  Al  Al17  1  0.335474  0.335474  0.956072  1
  Al  Al18  1  0.348171  0.559808  0.250000  1
  Al  Al19  1  0.651829  0.440192  0.750000  1
  Al  Al20  1  0.559808  0.348171  0.250000  1
  Al  Al21  1  0.440192  0.651829  0.750000  1
  Tc  Tc22  1  0.000000  0.000000  0.000000  1
  Tc  Tc23  1  0.000000  0.000000  0.500000  1
  Ir  Ir24  1  0.673964  0.326036  0.000000  1
  Ir  Ir25  1  0.326036  0.673964  0.000000  1
  Ir  Ir26  1  0.326036  0.673964  0.500000  1
  Ir  Ir27  1  0.673964  0.326036  0.500000  1
