# generated using pymatgen
data_Dy4MnPt11
_symmetry_space_group_name_H-M   'P 1'
_cell_length_a   4.18939500
_cell_length_b   5.81229524
_cell_length_c   11.60310811
_cell_angle_alpha   88.03536139
_cell_angle_beta   90.00000000
_cell_angle_gamma   90.00000000
_symmetry_Int_Tables_number   1
_chemical_formula_structural   Dy4MnPt11
_chemical_formula_sum   'Dy4 Mn1 Pt11'
_cell_volume   282.36960835
_cell_formula_units_Z   1
loop_
 _symmetry_equiv_pos_site_id
 _symmetry_equiv_pos_as_xyz
  1  'x, y, z'
loop_
 _atom_site_type_symbol
 _atom_site_label
 _atom_site_symmetry_multiplicity
 _atom_site_fract_x
 _atom_site_fract_y
 _atom_site_fract_z
 _atom_site_occupancy
  Dy  Dy0  1  0.500000  0.756493  0.373079  1
  Dy  Dy1  1  0.500000  0.720672  0.866205  1
  Dy  Dy2  1  0.500000  0.279328  0.133795  1
  Dy  Dy3  1  0.500000  0.243507  0.626921  1
  Mn  Mn4  1  0.000000  0.000000  0.000000  1
  Pt  Pt5  1  0.000000  0.013545  0.243949  1
  Pt  Pt6  1  0.000000  0.986455  0.756051  1
  Pt  Pt7  1  0.000000  0.500000  0.000000  1
  Pt  Pt8  1  0.000000  0.500000  0.500000  1
  Pt  Pt9  1  0.000000  0.515315  0.248923  1
  Pt  Pt10  1  0.000000  0.484685  0.751077  1
  Pt  Pt11  1  0.500000  0.253490  0.377260  1
  Pt  Pt12  1  0.500000  0.221826  0.885868  1
  Pt  Pt13  1  0.500000  0.778174  0.114132  1
  Pt  Pt14  1  0.500000  0.746510  0.622740  1
  Pt  Pt15  1  0.000000  0.000000  0.500000  1
