# generated using pymatgen
data_Tb4Tm12MgIn3Ni4
_symmetry_space_group_name_H-M   'P 1'
_cell_length_a   9.52009127
_cell_length_b   9.49903707
_cell_length_c   9.49903800
_cell_angle_alpha   60.00000373
_cell_angle_beta   60.07313441
_cell_angle_gamma   60.07313108
_symmetry_Int_Tables_number   1
_chemical_formula_structural   Tb4Tm12MgIn3Ni4
_chemical_formula_sum   'Tb4 Tm12 Mg1 In3 Ni4'
_cell_volume   608.08532151
_cell_formula_units_Z   1
loop_
 _symmetry_equiv_pos_site_id
 _symmetry_equiv_pos_as_xyz
  1  'x, y, z'
loop_
 _atom_site_type_symbol
 _atom_site_label
 _atom_site_symmetry_multiplicity
 _atom_site_fract_x
 _atom_site_fract_y
 _atom_site_fract_z
 _atom_site_occupancy
  Tb  Tb0  1  0.598853  0.597754  0.597754  1
  Tb  Tb1  1  0.598853  0.597754  0.205639  1
  Tb  Tb2  1  0.598853  0.205639  0.597754  1
  Tb  Tb3  1  0.202644  0.599119  0.599119  1
  Tm  Tm4  1  0.185951  0.814815  0.814815  1
  Tm  Tm5  1  0.814649  0.185816  0.185816  1
  Tm  Tm6  1  0.814649  0.185816  0.813718  1
  Tm  Tm7  1  0.185951  0.814815  0.184417  1
  Tm  Tm8  1  0.814649  0.813718  0.185816  1
  Tm  Tm9  1  0.185951  0.184417  0.814815  1
  Tm  Tm10  1  0.061609  0.437832  0.437832  1
  Tm  Tm11  1  0.434475  0.064561  0.064561  1
  Tm  Tm12  1  0.434475  0.064561  0.436402  1
  Tm  Tm13  1  0.061609  0.437832  0.062727  1
  Tm  Tm14  1  0.434475  0.436402  0.064561  1
  Tm  Tm15  1  0.061609  0.062727  0.437832  1
  Mg  Mg16  1  0.515235  0.828255  0.828255  1
  In  In17  1  0.832759  0.833571  0.833571  1
  In  In18  1  0.832759  0.833571  0.500099  1
  In  In19  1  0.832759  0.500099  0.833571  1
  Ni  Ni20  1  0.390397  0.391446  0.391446  1
  Ni  Ni21  1  0.390397  0.391446  0.826713  1
  Ni  Ni22  1  0.390397  0.826713  0.391446  1
  Ni  Ni23  1  0.826045  0.391318  0.391318  1
