# generated using pymatgen
data_Th2MnCo9Tc2P7
_symmetry_space_group_name_H-M   'P 1'
_cell_length_a   9.13906504
_cell_length_b   9.10128266
_cell_length_c   3.75230600
_cell_angle_alpha   90.00000000
_cell_angle_beta   90.00000000
_cell_angle_gamma   119.95071427
_symmetry_Int_Tables_number   1
_chemical_formula_structural   Th2MnCo9Tc2P7
_chemical_formula_sum   'Th2 Mn1 Co9 Tc2 P7'
_cell_volume   270.42617301
_cell_formula_units_Z   1
loop_
 _symmetry_equiv_pos_site_id
 _symmetry_equiv_pos_as_xyz
  1  'x, y, z'
loop_
 _atom_site_type_symbol
 _atom_site_label
 _atom_site_symmetry_multiplicity
 _atom_site_fract_x
 _atom_site_fract_y
 _atom_site_fract_z
 _atom_site_occupancy
  Th  Th0  1  0.334805  0.670063  0.000000  1
  Th  Th1  1  0.000319  0.000715  0.500000  1
  Mn  Mn2  1  0.447951  0.215663  0.500000  1
  Co  Co3  1  0.036992  0.271279  0.000000  1
  Co  Co4  1  0.729859  0.765207  0.000000  1
  Co  Co5  1  0.230782  0.962848  0.000000  1
  Co  Co6  1  0.543156  0.055582  0.000000  1
  Co  Co7  1  0.945046  0.487398  0.000000  1
  Co  Co8  1  0.512722  0.455721  0.000000  1
  Co  Co9  1  0.611980  0.896085  0.500000  1
  Co  Co10  1  0.103263  0.714033  0.500000  1
  Co  Co11  1  0.284719  0.386006  0.500000  1
  Tc  Tc12  1  0.784922  0.235710  0.500000  1
  Tc  Tc13  1  0.766647  0.548472  0.500000  1
  P  P14  1  0.769323  0.032556  0.000000  1
  P  P15  1  0.968165  0.737613  0.000000  1
  P  P16  1  0.263788  0.228965  0.000000  1
  P  P17  1  0.374117  0.939696  0.500000  1
  P  P18  1  0.068590  0.440502  0.500000  1
  P  P19  1  0.558071  0.623773  0.500000  1
  P  P20  1  0.664781  0.332115  0.000000  1
