# generated using pymatgen
data_Na5(HO3)2
_symmetry_space_group_name_H-M   'P 1'
_cell_length_a   3.68866829
_cell_length_b   9.01506162
_cell_length_c   6.75559142
_cell_angle_alpha   65.60051631
_cell_angle_beta   58.57225264
_cell_angle_gamma   65.63826116
_symmetry_Int_Tables_number   1
_chemical_formula_structural   Na5(HO3)2
_chemical_formula_sum   'Na5 H2 O6'
_cell_volume   168.86236222
_cell_formula_units_Z   1
loop_
 _symmetry_equiv_pos_site_id
 _symmetry_equiv_pos_as_xyz
  1  'x, y, z'
loop_
 _atom_site_type_symbol
 _atom_site_label
 _atom_site_symmetry_multiplicity
 _atom_site_fract_x
 _atom_site_fract_y
 _atom_site_fract_z
 _atom_site_occupancy
  Na  Na0  1  0.183457  0.294364  0.168836  1
  Na  Na1  1  0.237387  0.488411  0.456067  1
  Na  Na2  1  0.536492  0.891632  0.281256  1
  Na  Na3  1  0.674617  0.738099  0.789094  1
  Na  Na4  1  0.193641  0.106798  0.860075  1
  H  H5  1  0.961994  0.984589  0.707079  1
  H  H6  1  0.470250  0.555801  0.690732  1
  O  O7  1  0.495611  0.643338  0.541197  1
  O  O8  1  0.856962  0.376482  0.889223  1
  O  O9  1  0.844148  0.070982  0.294886  1
  O  O10  1  0.861589  0.925632  0.877030  1
  O  O11  1  0.602848  0.476509  0.059271  1
  O  O12  1  0.521112  0.185137  0.442777  1
