# generated using pymatgen
data_Nd4Mg4Tc3H22
_symmetry_space_group_name_H-M   'P 1'
_cell_length_a   6.80761800
_cell_length_b   6.80761800
_cell_length_c   6.80761800
_cell_angle_alpha   90.00000000
_cell_angle_beta   90.00000000
_cell_angle_gamma   90.00000000
_symmetry_Int_Tables_number   1
_chemical_formula_structural   Nd4Mg4Tc3H22
_chemical_formula_sum   'Nd4 Mg4 Tc3 H22'
_cell_volume   315.48995329
_cell_formula_units_Z   1
loop_
 _symmetry_equiv_pos_site_id
 _symmetry_equiv_pos_as_xyz
  1  'x, y, z'
loop_
 _atom_site_type_symbol
 _atom_site_label
 _atom_site_symmetry_multiplicity
 _atom_site_fract_x
 _atom_site_fract_y
 _atom_site_fract_z
 _atom_site_occupancy
  Nd  Nd0  1  0.288806  0.288806  0.711194  1
  Nd  Nd1  1  0.288806  0.711194  0.288806  1
  Nd  Nd2  1  0.711194  0.288806  0.288806  1
  Nd  Nd3  1  0.711194  0.711194  0.711194  1
  Mg  Mg4  1  0.788521  0.788521  0.211479  1
  Mg  Mg5  1  0.788521  0.211479  0.788521  1
  Mg  Mg6  1  0.211479  0.788521  0.788521  1
  Mg  Mg7  1  0.211479  0.211479  0.211479  1
  Tc  Tc8  1  0.000000  0.000000  0.500000  1
  Tc  Tc9  1  0.000000  0.500000  0.000000  1
  Tc  Tc10  1  0.500000  0.000000  0.000000  1
  H  H11  1  0.000000  0.500000  0.258452  1
  H  H12  1  0.500000  0.741548  0.000000  1
  H  H13  1  0.741548  0.000000  0.500000  1
  H  H14  1  0.000000  0.741548  0.500000  1
  H  H15  1  0.500000  0.000000  0.258452  1
  H  H16  1  0.741548  0.500000  0.000000  1
  H  H17  1  0.000000  0.500000  0.741548  1
  H  H18  1  0.500000  0.258452  0.000000  1
  H  H19  1  0.000000  0.258452  0.500000  1
  H  H20  1  0.500000  0.000000  0.741548  1
  H  H21  1  0.258452  0.000000  0.500000  1
  H  H22  1  0.258452  0.500000  0.000000  1
  H  H23  1  0.000000  0.000000  0.244108  1
  H  H24  1  0.000000  0.755892  0.000000  1
  H  H25  1  0.755892  0.000000  0.000000  1
  H  H26  1  0.000000  0.000000  0.755892  1
  H  H27  1  0.000000  0.244108  0.000000  1
  H  H28  1  0.244108  0.000000  0.000000  1
  H  H29  1  0.625032  0.625032  0.374968  1
  H  H30  1  0.625032  0.374968  0.625032  1
  H  H31  1  0.374968  0.625032  0.625032  1
  H  H32  1  0.374968  0.374968  0.374968  1
