# generated using pymatgen
data_Li2Dy2Si2Sn
_symmetry_space_group_name_H-M   'P 1'
_cell_length_a   9.55632253
_cell_length_b   9.55632243
_cell_length_c   6.75491300
_cell_angle_alpha   90.00000000
_cell_angle_beta   90.00000000
_cell_angle_gamma   153.49545317
_symmetry_Int_Tables_number   1
_chemical_formula_structural   Li2Dy2Si2Sn
_chemical_formula_sum   'Li4 Dy4 Si4 Sn2'
_cell_volume   275.29473679
_cell_formula_units_Z   2
loop_
 _symmetry_equiv_pos_site_id
 _symmetry_equiv_pos_as_xyz
  1  'x, y, z'
loop_
 _atom_site_type_symbol
 _atom_site_label
 _atom_site_symmetry_multiplicity
 _atom_site_fract_x
 _atom_site_fract_y
 _atom_site_fract_z
 _atom_site_occupancy
  Li  Li0  1  0.184165  0.815835  0.054802  1
  Li  Li1  1  0.184165  0.815835  0.445198  1
  Li  Li2  1  0.815835  0.184165  0.945198  1
  Li  Li3  1  0.815835  0.184165  0.554802  1
  Dy  Dy4  1  0.351008  0.648992  0.250000  1
  Dy  Dy5  1  0.648992  0.351008  0.750000  1
  Dy  Dy6  1  0.547994  0.452006  0.250000  1
  Dy  Dy7  1  0.452006  0.547994  0.750000  1
  Si  Si8  1  0.057952  0.942048  0.927341  1
  Si  Si9  1  0.942048  0.057952  0.072659  1
  Si  Si10  1  0.942048  0.057952  0.427341  1
  Si  Si11  1  0.057952  0.942048  0.572659  1
  Sn  Sn12  1  0.719105  0.280895  0.250000  1
  Sn  Sn13  1  0.280895  0.719105  0.750000  1
