# generated using pymatgen
data_DyY5(RhI3)2
_symmetry_space_group_name_H-M   'P 1'
_cell_length_a   4.24047100
_cell_length_b   8.88685820
_cell_length_c   12.40591679
_cell_angle_alpha   86.33515702
_cell_angle_beta   90.00000000
_cell_angle_gamma   90.00000000
_symmetry_Int_Tables_number   1
_chemical_formula_structural   DyY5(RhI3)2
_chemical_formula_sum   'Dy1 Y5 Rh2 I6'
_cell_volume   466.55428515
_cell_formula_units_Z   1
loop_
 _symmetry_equiv_pos_site_id
 _symmetry_equiv_pos_as_xyz
  1  'x, y, z'
loop_
 _atom_site_type_symbol
 _atom_site_label
 _atom_site_symmetry_multiplicity
 _atom_site_fract_x
 _atom_site_fract_y
 _atom_site_fract_z
 _atom_site_occupancy
  Dy  Dy0  1  0.750000  0.136019  0.127489  1
  Y  Y1  1  0.250000  0.862752  0.871636  1
  Y  Y2  1  0.750000  0.098761  0.682954  1
  Y  Y3  1  0.250000  0.901322  0.317021  1
  Y  Y4  1  0.250000  0.259057  0.896916  1
  Y  Y5  1  0.750000  0.740736  0.103137  1
  Rh  Rh6  1  0.750000  0.054818  0.907993  1
  Rh  Rh7  1  0.250000  0.946193  0.092658  1
  I  I8  1  0.250000  0.353901  0.636889  1
  I  I9  1  0.750000  0.646069  0.363137  1
  I  I10  1  0.750000  0.141456  0.392597  1
  I  I11  1  0.250000  0.858567  0.607592  1
  I  I12  1  0.250000  0.424635  0.132844  1
  I  I13  1  0.750000  0.575713  0.867138  1
