# generated using pymatgen
data_Y3Ta(P3Ir4)2
_symmetry_space_group_name_H-M   'P 1'
_cell_length_a   4.01508500
_cell_length_b   11.15490800
_cell_length_c   12.87792100
_cell_angle_alpha   90.00000000
_cell_angle_beta   90.00000000
_cell_angle_gamma   90.00000000
_symmetry_Int_Tables_number   1
_chemical_formula_structural   Y3Ta(P3Ir4)2
_chemical_formula_sum   'Y6 Ta2 P12 Ir16'
_cell_volume   576.77508673
_cell_formula_units_Z   2
loop_
 _symmetry_equiv_pos_site_id
 _symmetry_equiv_pos_as_xyz
  1  'x, y, z'
loop_
 _atom_site_type_symbol
 _atom_site_label
 _atom_site_symmetry_multiplicity
 _atom_site_fract_x
 _atom_site_fract_y
 _atom_site_fract_z
 _atom_site_occupancy
  Y  Y0  1  0.000000  0.500000  0.522243  1
  Y  Y1  1  0.500000  0.000000  0.477757  1
  Y  Y2  1  0.500000  0.819537  0.203393  1
  Y  Y3  1  0.500000  0.180463  0.203393  1
  Y  Y4  1  0.000000  0.680463  0.796607  1
  Y  Y5  1  0.000000  0.319537  0.796607  1
  Ta  Ta6  1  0.500000  0.500000  0.159159  1
  Ta  Ta7  1  0.000000  0.000000  0.840841  1
  P  P8  1  0.500000  0.500000  0.874186  1
  P  P9  1  0.000000  0.000000  0.125814  1
  P  P10  1  0.500000  0.500000  0.351873  1
  P  P11  1  0.000000  0.000000  0.648127  1
  P  P12  1  0.500000  0.313933  0.617081  1
  P  P13  1  0.500000  0.686067  0.617081  1
  P  P14  1  0.000000  0.186067  0.382919  1
  P  P15  1  0.000000  0.813933  0.382919  1
  P  P16  1  0.500000  0.844145  0.885629  1
  P  P17  1  0.500000  0.155855  0.885629  1
  P  P18  1  0.000000  0.655855  0.114371  1
  P  P19  1  0.000000  0.344145  0.114371  1
  Ir  Ir20  1  0.500000  0.500000  0.696986  1
  Ir  Ir21  1  0.000000  0.000000  0.303014  1
  Ir  Ir22  1  0.000000  0.500000  0.995098  1
  Ir  Ir23  1  0.500000  0.000000  0.004902  1
  Ir  Ir24  1  0.500000  0.331482  0.980654  1
  Ir  Ir25  1  0.500000  0.668518  0.980654  1
  Ir  Ir26  1  0.000000  0.168518  0.019346  1
  Ir  Ir27  1  0.000000  0.831482  0.019346  1
  Ir  Ir28  1  0.500000  0.297616  0.432772  1
  Ir  Ir29  1  0.500000  0.702384  0.432772  1
  Ir  Ir30  1  0.000000  0.202384  0.567228  1
  Ir  Ir31  1  0.000000  0.797616  0.567228  1
  Ir  Ir32  1  0.500000  0.871757  0.709266  1
  Ir  Ir33  1  0.500000  0.128243  0.709266  1
  Ir  Ir34  1  0.000000  0.628243  0.290734  1
  Ir  Ir35  1  0.000000  0.371757  0.290734  1
