# generated using pymatgen
data_ErTm5Np3O18
_symmetry_space_group_name_H-M   'P 1'
_cell_length_a   9.38630106
_cell_length_b   9.39005558
_cell_length_c   5.03182800
_cell_angle_alpha   90.00000000
_cell_angle_beta   89.99373100
_cell_angle_gamma   120.01323398
_symmetry_Int_Tables_number   1
_chemical_formula_structural   ErTm5Np3O18
_chemical_formula_sum   'Er1 Tm5 Np3 O18'
_cell_volume   384.02644119
_cell_formula_units_Z   1
loop_
 _symmetry_equiv_pos_site_id
 _symmetry_equiv_pos_as_xyz
  1  'x, y, z'
loop_
 _atom_site_type_symbol
 _atom_site_label
 _atom_site_symmetry_multiplicity
 _atom_site_fract_x
 _atom_site_fract_y
 _atom_site_fract_z
 _atom_site_occupancy
  Er  Er0  1  0.000000  0.630196  0.000000  1
  Tm  Tm1  1  0.000000  0.293115  0.500000  1
  Tm  Tm2  1  0.369361  0.369429  0.000239  1
  Tm  Tm3  1  0.293393  0.000009  0.499948  1
  Tm  Tm4  1  0.706607  0.706615  0.500052  1
  Tm  Tm5  1  0.630639  0.000067  0.999761  1
  Np  Np6  1  0.333794  0.666699  0.502426  1
  Np  Np7  1  0.000000  0.000452  0.000000  1
  Np  Np8  1  0.666206  0.332904  0.497574  1
  O  O9  1  0.089968  0.877625  0.779632  1
  O  O10  1  0.219553  0.766707  0.279512  1
  O  O11  1  0.121506  0.537558  0.725185  1
  O  O12  1  0.417312  0.878964  0.726809  1
  O  O13  1  0.233934  0.452556  0.277969  1
  O  O14  1  0.123515  0.213660  0.780391  1
  O  O15  1  0.213481  0.123580  0.219875  1
  O  O16  1  0.547760  0.781558  0.278488  1
  O  O17  1  0.461867  0.582497  0.726246  1
  O  O18  1  0.786519  0.910098  0.780125  1
  O  O19  1  0.452240  0.233798  0.721512  1
  O  O20  1  0.582688  0.461652  0.273191  1
  O  O21  1  0.538133  0.120629  0.273754  1
  O  O22  1  0.780447  0.547155  0.720488  1
  O  O23  1  0.910032  0.787657  0.220368  1
  O  O24  1  0.766066  0.218622  0.722031  1
  O  O25  1  0.878494  0.416051  0.274815  1
  O  O26  1  0.876485  0.090147  0.219609  1
