# generated using pymatgen
data_KMo(SO4)2
_symmetry_space_group_name_H-M   'P 1'
_cell_length_a   5.02518237
_cell_length_b   5.02518213
_cell_length_c   8.19510968
_cell_angle_alpha   86.52812435
_cell_angle_beta   86.52812615
_cell_angle_gamma   64.16625203
_symmetry_Int_Tables_number   1
_chemical_formula_structural   KMo(SO4)2
_chemical_formula_sum   'K1 Mo1 S2 O8'
_cell_volume   185.78848868
_cell_formula_units_Z   1
loop_
 _symmetry_equiv_pos_site_id
 _symmetry_equiv_pos_as_xyz
  1  'x, y, z'
loop_
 _atom_site_type_symbol
 _atom_site_label
 _atom_site_symmetry_multiplicity
 _atom_site_fract_x
 _atom_site_fract_y
 _atom_site_fract_z
 _atom_site_occupancy
  K  K0  1  0.000000  0.000000  0.500000  1
  Mo  Mo1  1  0.000000  0.000000  0.000000  1
  S  S2  1  0.368633  0.368633  0.792495  1
  S  S3  1  0.631367  0.631367  0.207505  1
  O  O4  1  0.306754  0.306754  0.631606  1
  O  O5  1  0.693246  0.693246  0.368394  1
  O  O6  1  0.699024  0.243075  0.809032  1
  O  O7  1  0.300976  0.756925  0.190968  1
  O  O8  1  0.756925  0.300976  0.190968  1
  O  O9  1  0.243075  0.699024  0.809032  1
  O  O10  1  0.247134  0.247134  0.932407  1
  O  O11  1  0.752866  0.752866  0.067593  1
