# generated using pymatgen
data_NaZrNi10Mo2P7
_symmetry_space_group_name_H-M   'P 1'
_cell_length_a   9.09557212
_cell_length_b   9.11533247
_cell_length_c   3.64512600
_cell_angle_alpha   90.00000000
_cell_angle_beta   90.00000000
_cell_angle_gamma   120.10887280
_symmetry_Int_Tables_number   1
_chemical_formula_structural   NaZrNi10Mo2P7
_chemical_formula_sum   'Na1 Zr1 Ni10 Mo2 P7'
_cell_volume   261.43769888
_cell_formula_units_Z   1
loop_
 _symmetry_equiv_pos_site_id
 _symmetry_equiv_pos_as_xyz
  1  'x, y, z'
loop_
 _atom_site_type_symbol
 _atom_site_label
 _atom_site_symmetry_multiplicity
 _atom_site_fract_x
 _atom_site_fract_y
 _atom_site_fract_z
 _atom_site_occupancy
  Na  Na0  1  0.997362  0.001196  0.000000  1
  Zr  Zr1  1  0.330473  0.663853  0.500000  1
  Ni  Ni2  1  0.295942  0.396282  0.000000  1
  Ni  Ni3  1  0.101061  0.705077  0.000000  1
  Ni  Ni4  1  0.384507  0.167899  0.000000  1
  Ni  Ni5  1  0.791752  0.622719  0.000000  1
  Ni  Ni6  1  0.822555  0.208772  0.000000  1
  Ni  Ni7  1  0.235836  0.946101  0.500000  1
  Ni  Ni8  1  0.056548  0.282198  0.500000  1
  Ni  Ni9  1  0.714859  0.773811  0.500000  1
  Ni  Ni10  1  0.572459  0.115086  0.500000  1
  Ni  Ni11  1  0.600027  0.897186  0.000000  1
  Mo  Mo12  1  0.885916  0.455514  0.500000  1
  Mo  Mo13  1  0.545100  0.429995  0.500000  1
  P  P14  1  0.665214  0.330799  0.000000  1
  P  P15  1  0.082262  0.449832  0.000000  1
  P  P16  1  0.255303  0.210886  0.500000  1
  P  P17  1  0.783021  0.046179  0.500000  1
  P  P18  1  0.958722  0.746295  0.500000  1
  P  P19  1  0.550084  0.633040  0.000000  1
  P  P20  1  0.370994  0.917283  0.000000  1
