# generated using pymatgen
data_YbCdOs2O7
_symmetry_space_group_name_H-M   'P 1'
_cell_length_a   7.26581089
_cell_length_b   7.26581076
_cell_length_c   7.17660000
_cell_angle_alpha   60.40533375
_cell_angle_beta   60.40533434
_cell_angle_gamma   60.91176612
_symmetry_Int_Tables_number   1
_chemical_formula_structural   YbCdOs2O7
_chemical_formula_sum   'Yb2 Cd2 Os4 O14'
_cell_volume   271.36003982
_cell_formula_units_Z   2
loop_
 _symmetry_equiv_pos_site_id
 _symmetry_equiv_pos_as_xyz
  1  'x, y, z'
loop_
 _atom_site_type_symbol
 _atom_site_label
 _atom_site_symmetry_multiplicity
 _atom_site_fract_x
 _atom_site_fract_y
 _atom_site_fract_z
 _atom_site_occupancy
  Yb  Yb0  1  0.625000  0.125000  0.125000  1
  Yb  Yb1  1  0.125000  0.625000  0.125000  1
  Cd  Cd2  1  0.125000  0.125000  0.125000  1
  Cd  Cd3  1  0.125000  0.125000  0.625000  1
  Os  Os4  1  0.625000  0.625000  0.625000  1
  Os  Os5  1  0.125000  0.625000  0.625000  1
  Os  Os6  1  0.625000  0.125000  0.625000  1
  Os  Os7  1  0.625000  0.625000  0.125000  1
  O  O8  1  0.241890  0.241890  0.258110  1
  O  O9  1  0.008110  0.008110  0.991890  1
  O  O10  1  0.559038  0.942591  0.553347  1
  O  O11  1  0.307409  0.690962  0.304977  1
  O  O12  1  0.548607  0.548607  0.951393  1
  O  O13  1  0.942591  0.559038  0.553347  1
  O  O14  1  0.559038  0.942591  0.945023  1
  O  O15  1  0.937984  0.937984  0.562016  1
  O  O16  1  0.942591  0.559038  0.945023  1
  O  O17  1  0.690962  0.307409  0.304977  1
  O  O18  1  0.307409  0.690962  0.696653  1
  O  O19  1  0.690962  0.307409  0.696653  1
  O  O20  1  0.312016  0.312016  0.687984  1
  O  O21  1  0.701393  0.701393  0.298607  1
