# generated using pymatgen
data_HoThCdNi2
_symmetry_space_group_name_H-M   'P 1'
_cell_length_a   7.56489948
_cell_length_b   7.56489994
_cell_length_c   3.67267400
_cell_angle_alpha   90.00000000
_cell_angle_beta   90.00000000
_cell_angle_gamma   92.97149953
_symmetry_Int_Tables_number   1
_chemical_formula_structural   HoThCdNi2
_chemical_formula_sum   'Ho2 Th2 Cd2 Ni4'
_cell_volume   209.89611706
_cell_formula_units_Z   2
loop_
 _symmetry_equiv_pos_site_id
 _symmetry_equiv_pos_as_xyz
  1  'x, y, z'
loop_
 _atom_site_type_symbol
 _atom_site_label
 _atom_site_symmetry_multiplicity
 _atom_site_fract_x
 _atom_site_fract_y
 _atom_site_fract_z
 _atom_site_occupancy
  Ho  Ho0  1  0.171613  0.328387  0.500000  1
  Ho  Ho1  1  0.828387  0.671613  0.500000  1
  Th  Th2  1  0.675162  0.175162  0.500000  1
  Th  Th3  1  0.324838  0.824838  0.500000  1
  Cd  Cd4  1  0.000000  0.000000  0.000000  1
  Cd  Cd5  1  0.500000  0.500000  0.000000  1
  Ni  Ni6  1  0.120813  0.620813  0.000000  1
  Ni  Ni7  1  0.879187  0.379187  0.000000  1
  Ni  Ni8  1  0.618553  0.881447  0.000000  1
  Ni  Ni9  1  0.381447  0.118553  0.000000  1
