# generated using pymatgen
data_Tm10In7Ni4Hg
_symmetry_space_group_name_H-M   'P 1'
_cell_length_a   3.57034200
_cell_length_b   7.95555821
_cell_length_c   17.80260500
_cell_angle_alpha   90.14424863
_cell_angle_beta   90.00000000
_cell_angle_gamma   90.00000000
_symmetry_Int_Tables_number   1
_chemical_formula_structural   Tm10In7Ni4Hg
_chemical_formula_sum   'Tm10 In7 Ni4 Hg1'
_cell_volume   505.66472247
_cell_formula_units_Z   1
loop_
 _symmetry_equiv_pos_site_id
 _symmetry_equiv_pos_as_xyz
  1  'x, y, z'
loop_
 _atom_site_type_symbol
 _atom_site_label
 _atom_site_symmetry_multiplicity
 _atom_site_fract_x
 _atom_site_fract_y
 _atom_site_fract_z
 _atom_site_occupancy
  Tm  Tm0  1  0.500000  0.383824  0.589214  1
  Tm  Tm1  1  0.500000  0.884843  0.911751  1
  Tm  Tm2  1  0.500000  0.108619  0.088932  1
  Tm  Tm3  1  0.500000  0.754129  0.723090  1
  Tm  Tm4  1  0.500000  0.253222  0.777602  1
  Tm  Tm5  1  0.500000  0.504426  0.002508  1
  Tm  Tm6  1  0.500000  0.747696  0.218214  1
  Tm  Tm7  1  0.500000  0.245365  0.278361  1
  Tm  Tm8  1  0.500000  0.999856  0.499489  1
  Tm  Tm9  1  0.500000  0.617154  0.409444  1
  In  In10  1  0.000000  0.926035  0.347583  1
  In  In11  1  0.000000  0.071614  0.651085  1
  In  In12  1  0.000000  0.571220  0.849657  1
  In  In13  1  0.000000  0.705436  0.568467  1
  In  In14  1  0.000000  0.207323  0.931911  1
  In  In15  1  0.000000  0.296122  0.432128  1
  In  In16  1  0.000000  0.424037  0.151599  1
  Ni  Ni17  1  0.000000  0.976799  0.803914  1
  Ni  Ni18  1  0.000000  0.524066  0.303282  1
  Ni  Ni19  1  0.000000  0.477257  0.696095  1
  Ni  Ni20  1  0.000000  0.027633  0.197766  1
  Hg  Hg21  1  0.000000  0.793320  0.067909  1
