# generated using pymatgen
data_Hf4In2PdPt2Rh
_symmetry_space_group_name_H-M   'P 1'
_cell_length_a   7.57528113
_cell_length_b   7.57528135
_cell_length_c   6.68778009
_cell_angle_alpha   90.01234579
_cell_angle_beta   90.01234549
_cell_angle_gamma   90.21904820
_symmetry_Int_Tables_number   1
_chemical_formula_structural   Hf4In2PdPt2Rh
_chemical_formula_sum   'Hf8 In4 Pd2 Pt4 Rh2'
_cell_volume   383.77467468
_cell_formula_units_Z   2
loop_
 _symmetry_equiv_pos_site_id
 _symmetry_equiv_pos_as_xyz
  1  'x, y, z'
loop_
 _atom_site_type_symbol
 _atom_site_label
 _atom_site_symmetry_multiplicity
 _atom_site_fract_x
 _atom_site_fract_y
 _atom_site_fract_z
 _atom_site_occupancy
  Hf  Hf0  1  0.155132  0.164735  0.997807  1
  Hf  Hf1  1  0.835265  0.844868  0.002193  1
  Hf  Hf2  1  0.657547  0.342453  0.500000  1
  Hf  Hf3  1  0.348858  0.651142  0.500000  1
  Hf  Hf4  1  0.672923  0.327077  0.000000  1
  Hf  Hf5  1  0.332472  0.667528  0.000000  1
  Hf  Hf6  1  0.819911  0.825411  0.497174  1
  Hf  Hf7  1  0.174589  0.180089  0.502826  1
  In  In8  1  0.496149  0.995372  0.250863  1
  In  In9  1  0.494340  0.002867  0.748980  1
  In  In10  1  0.997133  0.505660  0.251020  1
  In  In11  1  0.004628  0.503851  0.749137  1
  Pd  Pd12  1  0.132272  0.867764  0.268330  1
  Pd  Pd13  1  0.132236  0.867728  0.731670  1
  Pt  Pt14  1  0.370260  0.367373  0.233043  1
  Pt  Pt15  1  0.632627  0.629740  0.766957  1
  Pt  Pt16  1  0.870956  0.128235  0.732846  1
  Pt  Pt17  1  0.871765  0.129044  0.267154  1
  Rh  Rh18  1  0.631773  0.630838  0.234256  1
  Rh  Rh19  1  0.369162  0.368227  0.765744  1
