# generated using pymatgen
data_LaCu2Pt2Au
_symmetry_space_group_name_H-M   'P 1'
_cell_length_a   5.28585015
_cell_length_b   5.28585037
_cell_length_c   5.28584972
_cell_angle_alpha   120.99618789
_cell_angle_beta   116.66789046
_cell_angle_gamma   92.07461002
_symmetry_Int_Tables_number   1
_chemical_formula_structural   LaCu2Pt2Au
_chemical_formula_sum   'La1 Cu2 Pt2 Au1'
_cell_volume   106.01798664
_cell_formula_units_Z   1
loop_
 _symmetry_equiv_pos_site_id
 _symmetry_equiv_pos_as_xyz
  1  'x, y, z'
loop_
 _atom_site_type_symbol
 _atom_site_label
 _atom_site_symmetry_multiplicity
 _atom_site_fract_x
 _atom_site_fract_y
 _atom_site_fract_z
 _atom_site_occupancy
  La  La0  1  0.003012  0.003012  0.000000  1
  Cu  Cu1  1  0.618466  0.870038  0.251572  1
  Cu  Cu2  1  0.618466  0.366894  0.748428  1
  Pt  Pt3  1  0.123784  0.373753  0.750031  1
  Pt  Pt4  1  0.623721  0.373753  0.249969  1
  Au  Au5  1  0.262550  0.762550  0.500000  1
