# generated using pymatgen
data_Ca4Sb4O13F
_symmetry_space_group_name_H-M   'P 1'
_cell_length_a   7.48153903
_cell_length_b   7.48153389
_cell_length_c   7.48153600
_cell_angle_alpha   59.99990735
_cell_angle_beta   59.99995623
_cell_angle_gamma   59.99992269
_symmetry_Int_Tables_number   1
_chemical_formula_structural   Ca4Sb4O13F
_chemical_formula_sum   'Ca4 Sb4 O13 F1'
_cell_volume   296.11244749
_cell_formula_units_Z   1
loop_
 _symmetry_equiv_pos_site_id
 _symmetry_equiv_pos_as_xyz
  1  'x, y, z'
loop_
 _atom_site_type_symbol
 _atom_site_label
 _atom_site_symmetry_multiplicity
 _atom_site_fract_x
 _atom_site_fract_y
 _atom_site_fract_z
 _atom_site_occupancy
  Ca  Ca0  1  0.495254  0.014243  0.995250  1
  Ca  Ca1  1  0.495253  0.495250  0.995251  1
  Ca  Ca2  1  0.014242  0.495253  0.995252  1
  Ca  Ca3  1  0.495253  0.495251  0.514244  1
  Sb  Sb4  1  0.999981  0.999980  0.000059  1
  Sb  Sb5  1  0.999980  0.999981  0.499981  1
  Sb  Sb6  1  0.999980  0.500059  0.499980  1
  Sb  Sb7  1  0.500058  0.999981  0.499981  1
  O  O8  1  0.674556  0.075443  0.174556  1
  O  O9  1  0.075445  0.674555  0.174555  1
  O  O10  1  0.075444  0.075444  0.174556  1
  O  O11  1  0.923206  0.326794  0.423207  1
  O  O12  1  0.326793  0.923206  0.423207  1
  O  O13  1  0.326793  0.326793  0.423207  1
  O  O14  1  0.674556  0.674556  0.575443  1
  O  O15  1  0.674556  0.075445  0.575443  1
  O  O16  1  0.075443  0.674556  0.575443  1
  O  O17  1  0.923207  0.326793  0.826793  1
  O  O18  1  0.326793  0.923207  0.826793  1
  O  O19  1  0.923208  0.923207  0.826793  1
  O  O20  1  0.375001  0.374999  0.875001  1
  F  F21  1  0.624999  0.625000  0.125000  1
