# generated using pymatgen
data_Sc3Ti4Pt21
_symmetry_space_group_name_H-M   'P 1'
_cell_length_a   5.61743500
_cell_length_b   5.61743439
_cell_length_c   16.07696000
_cell_angle_alpha   90.00000000
_cell_angle_beta   90.00000000
_cell_angle_gamma   119.99999770
_symmetry_Int_Tables_number   1
_chemical_formula_structural   Sc3Ti4Pt21
_chemical_formula_sum   'Sc3 Ti4 Pt21'
_cell_volume   439.35000699
_cell_formula_units_Z   1
loop_
 _symmetry_equiv_pos_site_id
 _symmetry_equiv_pos_as_xyz
  1  'x, y, z'
loop_
 _atom_site_type_symbol
 _atom_site_label
 _atom_site_symmetry_multiplicity
 _atom_site_fract_x
 _atom_site_fract_y
 _atom_site_fract_z
 _atom_site_occupancy
  Sc  Sc0  1  0.000000  0.000000  0.718286  1
  Sc  Sc1  1  0.666667  0.333333  0.856625  1
  Sc  Sc2  1  0.333333  0.666667  0.142835  1
  Ti  Ti3  1  0.000000  0.000000  0.278622  1
  Ti  Ti4  1  0.666667  0.333333  0.429168  1
  Ti  Ti5  1  0.000000  0.000000  0.998629  1
  Ti  Ti6  1  0.333333  0.666667  0.572718  1
  Pt  Pt7  1  0.831904  0.663808  0.568459  1
  Pt  Pt8  1  0.336192  0.168096  0.568459  1
  Pt  Pt9  1  0.168890  0.337781  0.858767  1
  Pt  Pt10  1  0.167028  0.334056  0.428789  1
  Pt  Pt11  1  0.167028  0.832972  0.428789  1
  Pt  Pt12  1  0.498818  0.997635  0.710946  1
  Pt  Pt13  1  0.665944  0.832972  0.428789  1
  Pt  Pt14  1  0.168890  0.831110  0.858767  1
  Pt  Pt15  1  0.662219  0.831110  0.858767  1
  Pt  Pt16  1  0.832686  0.167314  0.144136  1
  Pt  Pt17  1  0.831904  0.168096  0.568459  1
  Pt  Pt18  1  0.498818  0.501182  0.710946  1
  Pt  Pt19  1  0.334628  0.167314  0.144136  1
  Pt  Pt20  1  0.832686  0.665372  0.144136  1
  Pt  Pt21  1  0.501182  0.498818  0.288809  1
  Pt  Pt22  1  0.501182  0.002366  0.288809  1
  Pt  Pt23  1  0.500433  0.000866  0.001133  1
  Pt  Pt24  1  0.997634  0.498818  0.288809  1
  Pt  Pt25  1  0.002365  0.501182  0.710946  1
  Pt  Pt26  1  0.500433  0.499567  0.001133  1
  Pt  Pt27  1  0.999134  0.499567  0.001133  1
