# generated using pymatgen
data_Nb2Tl2P2S11
_symmetry_space_group_name_H-M   'P 1'
_cell_length_a   6.88517037
_cell_length_b   7.10966400
_cell_length_c   18.61522200
_cell_angle_alpha   90.00000000
_cell_angle_beta   98.78616037
_cell_angle_gamma   90.00000000
_symmetry_Int_Tables_number   1
_chemical_formula_structural   Nb2Tl2P2S11
_chemical_formula_sum   'Nb4 Tl4 P4 S22'
_cell_volume   900.54524358
_cell_formula_units_Z   2
loop_
 _symmetry_equiv_pos_site_id
 _symmetry_equiv_pos_as_xyz
  1  'x, y, z'
loop_
 _atom_site_type_symbol
 _atom_site_label
 _atom_site_symmetry_multiplicity
 _atom_site_fract_x
 _atom_site_fract_y
 _atom_site_fract_z
 _atom_site_occupancy
  Nb  Nb0  1  0.302640  0.548765  0.244582  1
  Nb  Nb1  1  0.302640  0.951236  0.244582  1
  Nb  Nb2  1  0.697366  0.048771  0.755422  1
  Nb  Nb3  1  0.697366  0.451230  0.755422  1
  Tl  Tl4  1  0.747799  0.250001  0.002034  1
  Tl  Tl5  1  0.773508  0.250001  0.493963  1
  Tl  Tl6  1  0.226486  0.750000  0.506030  1
  Tl  Tl7  1  0.252198  0.750000  0.997970  1
  P  P8  1  0.312891  0.250001  0.105478  1
  P  P9  1  0.206114  0.250001  0.375060  1
  P  P10  1  0.793881  0.750000  0.624939  1
  P  P11  1  0.687102  0.750000  0.894520  1
  S  S12  1  0.777580  0.750000  0.001536  1
  S  S13  1  0.485484  0.019663  0.139940  1
  S  S14  1  0.485484  0.480336  0.139940  1
  S  S15  1  0.101634  0.250001  0.173731  1
  S  S16  1  0.056329  0.750000  0.185155  1
  S  S17  1  0.609016  0.750000  0.268563  1
  S  S18  1  0.462229  0.250001  0.325938  1
  S  S19  1  0.053625  0.015193  0.334722  1
  S  S20  1  0.053625  0.484807  0.334722  1
  S  S21  1  0.442372  0.750000  0.348311  1
  S  S22  1  0.263850  0.250001  0.484554  1
  S  S23  1  0.736147  0.750000  0.515443  1
  S  S24  1  0.557647  0.250001  0.651692  1
  S  S25  1  0.946371  0.515192  0.665275  1
  S  S26  1  0.946371  0.984807  0.665275  1
  S  S27  1  0.537774  0.750000  0.674064  1
  S  S28  1  0.390992  0.250001  0.731440  1
  S  S29  1  0.943690  0.250001  0.814849  1
  S  S30  1  0.898362  0.750000  0.826270  1
  S  S31  1  0.514509  0.519664  0.860058  1
  S  S32  1  0.514509  0.980335  0.860058  1
  S  S33  1  0.222411  0.250001  0.998463  1
