# generated using pymatgen
data_PrSm2NpO7
_symmetry_space_group_name_H-M   'P 1'
_cell_length_a   6.73163803
_cell_length_b   6.73163826
_cell_length_c   7.92634400
_cell_angle_alpha   90.00000000
_cell_angle_beta   90.00000000
_cell_angle_gamma   109.51682225
_symmetry_Int_Tables_number   1
_chemical_formula_structural   PrSm2NpO7
_chemical_formula_sum   'Pr2 Sm4 Np2 O14'
_cell_volume   338.54454362
_cell_formula_units_Z   2
loop_
 _symmetry_equiv_pos_site_id
 _symmetry_equiv_pos_as_xyz
  1  'x, y, z'
loop_
 _atom_site_type_symbol
 _atom_site_label
 _atom_site_symmetry_multiplicity
 _atom_site_fract_x
 _atom_site_fract_y
 _atom_site_fract_z
 _atom_site_occupancy
  Pr  Pr0  1  0.498707  0.498707  0.000000  1
  Pr  Pr1  1  0.501293  0.501293  0.500000  1
  Sm  Sm2  1  0.466496  0.996612  0.251175  1
  Sm  Sm3  1  0.003388  0.533504  0.248825  1
  Sm  Sm4  1  0.533504  0.003388  0.751175  1
  Sm  Sm5  1  0.996612  0.466496  0.748825  1
  Np  Np6  1  0.999409  0.999409  0.500000  1
  Np  Np7  1  0.000591  0.000591  0.000000  1
  O  O8  1  0.911779  0.088221  0.750000  1
  O  O9  1  0.636289  0.363711  0.750000  1
  O  O10  1  0.328034  0.079133  0.530576  1
  O  O11  1  0.920867  0.671966  0.969424  1
  O  O12  1  0.635836  0.364164  0.250000  1
  O  O13  1  0.917675  0.669373  0.528224  1
  O  O14  1  0.330627  0.082325  0.971776  1
  O  O15  1  0.082325  0.330627  0.028224  1
  O  O16  1  0.669373  0.917675  0.471776  1
  O  O17  1  0.364164  0.635836  0.750000  1
  O  O18  1  0.671966  0.920867  0.030576  1
  O  O19  1  0.079133  0.328034  0.469424  1
  O  O20  1  0.363711  0.636289  0.250000  1
  O  O21  1  0.088221  0.911779  0.250000  1
