# generated using pymatgen
data_Ce2DyEr(ZnRh)4
_symmetry_space_group_name_H-M   'P 1'
_cell_length_a   3.97032400
_cell_length_b   7.03041060
_cell_length_c   8.32583294
_cell_angle_alpha   91.02827917
_cell_angle_beta   90.00000000
_cell_angle_gamma   90.00000000
_symmetry_Int_Tables_number   1
_chemical_formula_structural   Ce2DyEr(ZnRh)4
_chemical_formula_sum   'Ce2 Dy1 Er1 Zn4 Rh4'
_cell_volume   232.36161529
_cell_formula_units_Z   1
loop_
 _symmetry_equiv_pos_site_id
 _symmetry_equiv_pos_as_xyz
  1  'x, y, z'
loop_
 _atom_site_type_symbol
 _atom_site_label
 _atom_site_symmetry_multiplicity
 _atom_site_fract_x
 _atom_site_fract_y
 _atom_site_fract_z
 _atom_site_occupancy
  Ce  Ce0  1  0.250000  0.539725  0.191188  1
  Ce  Ce1  1  0.750000  0.460305  0.809203  1
  Dy  Dy2  1  0.750000  0.955702  0.682976  1
  Er  Er3  1  0.250000  0.044714  0.316237  1
  Zn  Zn4  1  0.250000  0.640302  0.559107  1
  Zn  Zn5  1  0.750000  0.359081  0.440308  1
  Zn  Zn6  1  0.750000  0.875655  0.063147  1
  Zn  Zn7  1  0.250000  0.124748  0.937784  1
  Rh  Rh8  1  0.250000  0.739174  0.876011  1
  Rh  Rh9  1  0.750000  0.259397  0.125009  1
  Rh  Rh10  1  0.750000  0.746069  0.365559  1
  Rh  Rh11  1  0.250000  0.255127  0.633471  1
