# generated using pymatgen
data_Cs2Li2ThSe4
_symmetry_space_group_name_H-M   'P 1'
_cell_length_a   8.27343021
_cell_length_b   8.27343079
_cell_length_c   8.38101100
_cell_angle_alpha   108.03433846
_cell_angle_beta   108.03433978
_cell_angle_gamma   31.12813069
_symmetry_Int_Tables_number   1
_chemical_formula_structural   Cs2Li2ThSe4
_chemical_formula_sum   'Cs2 Li2 Th1 Se4'
_cell_volume   280.83279869
_cell_formula_units_Z   1
loop_
 _symmetry_equiv_pos_site_id
 _symmetry_equiv_pos_as_xyz
  1  'x, y, z'
loop_
 _atom_site_type_symbol
 _atom_site_label
 _atom_site_symmetry_multiplicity
 _atom_site_fract_x
 _atom_site_fract_y
 _atom_site_fract_z
 _atom_site_occupancy
  Cs  Cs0  1  0.860274  0.860274  0.434923  1
  Cs  Cs1  1  0.139726  0.139726  0.565078  1
  Li  Li2  1  0.318655  0.318655  0.010507  1
  Li  Li3  1  0.681345  0.681345  0.989494  1
  Th  Th4  1  0.000000  0.000000  0.000000  1
  Se  Se5  1  0.191726  0.191726  0.150840  1
  Se  Se6  1  0.481157  0.481157  0.219598  1
  Se  Se7  1  0.518843  0.518843  0.780403  1
  Se  Se8  1  0.808275  0.808275  0.849159  1
