# generated using pymatgen
data_Er4ReTc2B16Mo
_symmetry_space_group_name_H-M   'P 1'
_cell_length_a   3.59504500
_cell_length_b   5.96423410
_cell_length_c   11.53272342
_cell_angle_alpha   89.93649651
_cell_angle_beta   90.00000000
_cell_angle_gamma   90.00000000
_symmetry_Int_Tables_number   1
_chemical_formula_structural   Er4ReTc2B16Mo
_chemical_formula_sum   'Er4 Re1 Tc2 B16 Mo1'
_cell_volume   247.28092815
_cell_formula_units_Z   1
loop_
 _symmetry_equiv_pos_site_id
 _symmetry_equiv_pos_as_xyz
  1  'x, y, z'
loop_
 _atom_site_type_symbol
 _atom_site_label
 _atom_site_symmetry_multiplicity
 _atom_site_fract_x
 _atom_site_fract_y
 _atom_site_fract_z
 _atom_site_occupancy
  Er  Er0  1  0.500000  0.871406  0.152273  1
  Er  Er1  1  0.500000  0.127686  0.847872  1
  Er  Er2  1  0.500000  0.372067  0.351989  1
  Er  Er3  1  0.500000  0.627719  0.648261  1
  Re  Re4  1  0.500000  0.631206  0.913890  1
  Tc  Tc5  1  0.500000  0.864564  0.412731  1
  Tc  Tc6  1  0.500000  0.135637  0.588431  1
  B  B7  1  0.000000  0.522958  0.194430  1
  B  B8  1  0.000000  0.478971  0.805911  1
  B  B9  1  0.000000  0.021772  0.307975  1
  B  B10  1  0.000000  0.977244  0.692429  1
  B  B11  1  0.000000  0.616371  0.047052  1
  B  B12  1  0.000000  0.386541  0.951004  1
  B  B13  1  0.000000  0.113495  0.452743  1
  B  B14  1  0.000000  0.886679  0.547563  1
  B  B15  1  0.000000  0.635785  0.469160  1
  B  B16  1  0.000000  0.364265  0.530989  1
  B  B17  1  0.000000  0.132615  0.031253  1
  B  B18  1  0.000000  0.865404  0.967422  1
  B  B19  1  0.000000  0.712841  0.315524  1
  B  B20  1  0.000000  0.288110  0.684918  1
  B  B21  1  0.000000  0.209216  0.186691  1
  B  B22  1  0.000000  0.789050  0.814439  1
  Mo  Mo23  1  0.500000  0.368398  0.085049  1
