# generated using pymatgen
data_Ta5Al(Fe5B2)2
_symmetry_space_group_name_H-M   'P 1'
_cell_length_a   8.76391700
_cell_length_b   8.76391700
_cell_length_c   2.94157000
_cell_angle_alpha   90.00000000
_cell_angle_beta   90.00000000
_cell_angle_gamma   90.00000000
_symmetry_Int_Tables_number   1
_chemical_formula_structural   Ta5Al(Fe5B2)2
_chemical_formula_sum   'Ta5 Al1 Fe10 B4'
_cell_volume   225.93093488
_cell_formula_units_Z   1
loop_
 _symmetry_equiv_pos_site_id
 _symmetry_equiv_pos_as_xyz
  1  'x, y, z'
loop_
 _atom_site_type_symbol
 _atom_site_label
 _atom_site_symmetry_multiplicity
 _atom_site_fract_x
 _atom_site_fract_y
 _atom_site_fract_z
 _atom_site_occupancy
  Ta  Ta0  1  0.819036  0.672394  0.000000  1
  Ta  Ta1  1  0.180964  0.327606  0.000000  1
  Ta  Ta2  1  0.327606  0.819036  0.000000  1
  Ta  Ta3  1  0.672394  0.180964  0.000000  1
  Ta  Ta4  1  0.000000  0.000000  0.000000  1
  Al  Al5  1  0.500000  0.500000  0.000000  1
  Fe  Fe6  1  0.569189  0.718987  0.500000  1
  Fe  Fe7  1  0.430811  0.281013  0.500000  1
  Fe  Fe8  1  0.069192  0.776870  0.500000  1
  Fe  Fe9  1  0.930808  0.223130  0.500000  1
  Fe  Fe10  1  0.281013  0.569189  0.500000  1
  Fe  Fe11  1  0.718987  0.430811  0.500000  1
  Fe  Fe12  1  0.223130  0.069192  0.500000  1
  Fe  Fe13  1  0.776870  0.930808  0.500000  1
  Fe  Fe14  1  0.500000  0.000000  0.500000  1
  Fe  Fe15  1  0.000000  0.500000  0.500000  1
  B  B16  1  0.616731  0.875681  0.000000  1
  B  B17  1  0.383269  0.124319  0.000000  1
  B  B18  1  0.124319  0.616731  0.000000  1
  B  B19  1  0.875681  0.383269  0.000000  1
