# generated using pymatgen
data_Na4AlIn11Te20
_symmetry_space_group_name_H-M   'P 1'
_cell_length_a   10.95742649
_cell_length_b   10.91321510
_cell_length_c   10.98256589
_cell_angle_alpha   89.67034067
_cell_angle_beta   89.85717860
_cell_angle_gamma   90.99077316
_symmetry_Int_Tables_number   1
_chemical_formula_structural   Na4AlIn11Te20
_chemical_formula_sum   'Na4 Al1 In11 Te20'
_cell_volume   1313.08099474
_cell_formula_units_Z   1
loop_
 _symmetry_equiv_pos_site_id
 _symmetry_equiv_pos_as_xyz
  1  'x, y, z'
loop_
 _atom_site_type_symbol
 _atom_site_label
 _atom_site_symmetry_multiplicity
 _atom_site_fract_x
 _atom_site_fract_y
 _atom_site_fract_z
 _atom_site_occupancy
  Na  Na0  1  0.497754  0.502477  0.500483  1
  Na  Na1  1  0.250751  0.749114  0.999982  1
  Na  Na2  1  0.723304  0.003124  0.724922  1
  Na  Na3  1  0.000093  0.279796  0.278406  1
  Al  Al4  1  0.746806  0.344099  0.832626  1
  In  In5  1  0.428410  0.163927  0.876473  1
  In  In6  1  0.159839  0.125259  0.576122  1
  In  In7  1  0.122401  0.425195  0.844108  1
  In  In8  1  0.874468  0.839136  0.422748  1
  In  In9  1  0.572847  0.874884  0.157958  1
  In  In10  1  0.839826  0.574731  0.123519  1
  In  In11  1  0.660095  0.256805  0.162755  1
  In  In12  1  0.251608  0.832411  0.340191  1
  In  In13  1  0.829912  0.656807  0.746294  1
  In  In14  1  0.164989  0.748033  0.660114  1
  In  In15  1  0.339187  0.168223  0.253706  1
  Te  Te16  1  0.168349  0.165309  0.835187  1
  Te  Te17  1  0.832308  0.835276  0.162873  1
  Te  Te18  1  0.428590  0.336636  0.070280  1
  Te  Te19  1  0.333217  0.932792  0.568780  1
  Te  Te20  1  0.922441  0.421687  0.676308  1
  Te  Te21  1  0.065864  0.665098  0.431235  1
  Te  Te22  1  0.570261  0.070180  0.329160  1
  Te  Te23  1  0.667606  0.555470  0.928946  1
  Te  Te24  1  0.577486  0.258586  0.685129  1
  Te  Te25  1  0.249844  0.324884  0.434022  1
  Te  Te26  1  0.319718  0.571044  0.756764  1
  Te  Te27  1  0.675582  0.751009  0.566415  1
  Te  Te28  1  0.426627  0.676300  0.242853  1
  Te  Te29  1  0.752828  0.433825  0.323705  1
  Te  Te30  1  0.996013  0.834206  0.829755  1
  Te  Te31  1  0.827707  0.181629  0.987216  1
  Te  Te32  1  0.162164  0.000953  0.170506  1
  Te  Te33  1  0.495631  0.917290  0.914834  1
  Te  Te34  1  0.915903  0.083836  0.499282  1
  Te  Te35  1  0.084597  0.504938  0.086342  1
