# generated using pymatgen
data_LiY16In3Pd4
_symmetry_space_group_name_H-M   'P 1'
_cell_length_a   9.80259776
_cell_length_b   9.73093912
_cell_length_c   9.73093900
_cell_angle_alpha   59.99999701
_cell_angle_beta   60.24152228
_cell_angle_gamma   60.24152366
_symmetry_Int_Tables_number   1
_chemical_formula_structural   LiY16In3Pd4
_chemical_formula_sum   'Li1 Y16 In3 Pd4'
_cell_volume   658.73617635
_cell_formula_units_Z   1
loop_
 _symmetry_equiv_pos_site_id
 _symmetry_equiv_pos_as_xyz
  1  'x, y, z'
loop_
 _atom_site_type_symbol
 _atom_site_label
 _atom_site_symmetry_multiplicity
 _atom_site_fract_x
 _atom_site_fract_y
 _atom_site_fract_z
 _atom_site_occupancy
  Li  Li0  1  0.278891  0.573703  0.573703  1
  Y  Y1  1  0.352989  0.352607  0.352607  1
  Y  Y2  1  0.352989  0.352607  0.941797  1
  Y  Y3  1  0.352989  0.941797  0.352607  1
  Y  Y4  1  0.939145  0.353619  0.353619  1
  Y  Y5  1  0.808028  0.191053  0.191053  1
  Y  Y6  1  0.186747  0.812935  0.812935  1
  Y  Y7  1  0.186747  0.812935  0.187385  1
  Y  Y8  1  0.808028  0.191053  0.809866  1
  Y  Y9  1  0.186747  0.187385  0.812935  1
  Y  Y10  1  0.808028  0.809866  0.191053  1
  Y  Y11  1  0.935211  0.565095  0.565095  1
  Y  Y12  1  0.565088  0.935476  0.935476  1
  Y  Y13  1  0.565088  0.935476  0.563958  1
  Y  Y14  1  0.935211  0.565095  0.934597  1
  Y  Y15  1  0.565088  0.563958  0.935476  1
  Y  Y16  1  0.935211  0.934597  0.565095  1
  In  In17  1  0.581830  0.583632  0.583632  1
  In  In18  1  0.581830  0.583632  0.250904  1
  In  In19  1  0.581830  0.250904  0.583632  1
  Pd  Pd20  1  0.141756  0.145563  0.145563  1
  Pd  Pd21  1  0.141756  0.145563  0.567118  1
  Pd  Pd22  1  0.141756  0.567118  0.145563  1
  Pd  Pd23  1  0.567014  0.144329  0.144329  1
