# generated using pymatgen
data_LiTm12InNi4
_symmetry_space_group_name_H-M   'P 1'
_cell_length_a   8.24157610
_cell_length_b   8.24157760
_cell_length_c   8.24157745
_cell_angle_alpha   111.90039824
_cell_angle_beta   110.21050743
_cell_angle_gamma   106.35187316
_symmetry_Int_Tables_number   1
_chemical_formula_structural   LiTm12InNi4
_chemical_formula_sum   'Li1 Tm12 In1 Ni4'
_cell_volume   429.88179328
_cell_formula_units_Z   1
loop_
 _symmetry_equiv_pos_site_id
 _symmetry_equiv_pos_as_xyz
  1  'x, y, z'
loop_
 _atom_site_type_symbol
 _atom_site_label
 _atom_site_symmetry_multiplicity
 _atom_site_fract_x
 _atom_site_fract_y
 _atom_site_fract_z
 _atom_site_occupancy
  Li  Li0  1  0.000000  0.000000  0.000000  1
  Tm  Tm1  1  0.424877  0.225758  0.199119  1
  Tm  Tm2  1  0.575123  0.774242  0.800881  1
  Tm  Tm3  1  0.026639  0.225758  0.800881  1
  Tm  Tm4  1  0.973361  0.774242  0.199119  1
  Tm  Tm5  1  0.185798  0.294335  0.480133  1
  Tm  Tm6  1  0.814202  0.705665  0.519867  1
  Tm  Tm7  1  0.185798  0.705665  0.891465  1
  Tm  Tm8  1  0.814202  0.294335  0.108535  1
  Tm  Tm9  1  0.319192  0.622374  0.303182  1
  Tm  Tm10  1  0.680808  0.377626  0.696818  1
  Tm  Tm11  1  0.319192  0.016008  0.696818  1
  Tm  Tm12  1  0.680808  0.983992  0.303182  1
  In  In13  1  0.500000  0.500000  0.000000  1
  Ni  Ni14  1  0.357271  0.000000  0.357271  1
  Ni  Ni15  1  0.642729  0.000000  0.642729  1
  Ni  Ni16  1  0.124580  0.624580  0.500000  1
  Ni  Ni17  1  0.875420  0.375420  0.500000  1
