# generated using pymatgen
data_InSeO4F
_symmetry_space_group_name_H-M   'P 1'
_cell_length_a   5.63066741
_cell_length_b   5.59977075
_cell_length_c   7.98002577
_cell_angle_alpha   69.38342708
_cell_angle_beta   68.60772742
_cell_angle_gamma   85.57000548
_symmetry_Int_Tables_number   1
_chemical_formula_structural   InSeO4F
_chemical_formula_sum   'In2 Se2 O8 F2'
_cell_volume   218.89645141
_cell_formula_units_Z   2
loop_
 _symmetry_equiv_pos_site_id
 _symmetry_equiv_pos_as_xyz
  1  'x, y, z'
loop_
 _atom_site_type_symbol
 _atom_site_label
 _atom_site_symmetry_multiplicity
 _atom_site_fract_x
 _atom_site_fract_y
 _atom_site_fract_z
 _atom_site_occupancy
  In  In0  1  0.000000  0.500000  0.500000  1
  In  In1  1  0.000000  0.000000  0.000000  1
  Se  Se2  1  0.629450  0.929479  0.738998  1
  Se  Se3  1  0.370550  0.070521  0.261002  1
  O  O4  1  0.765734  0.805527  0.566732  1
  O  O5  1  0.234266  0.194473  0.433268  1
  O  O6  1  0.655876  0.249269  0.637428  1
  O  O7  1  0.344124  0.750731  0.362572  1
  O  O8  1  0.319339  0.834801  0.834058  1
  O  O9  1  0.680661  0.165199  0.165942  1
  O  O10  1  0.751338  0.822990  0.913472  1
  O  O11  1  0.248662  0.177010  0.086528  1
  F  F12  1  0.942083  0.651970  0.235537  1
  F  F13  1  0.057917  0.348030  0.764463  1
