# generated using pymatgen
data_Ti6Nb4Sn6S
_symmetry_space_group_name_H-M   'P 1'
_cell_length_a   8.21411200
_cell_length_b   8.21411143
_cell_length_c   5.59317100
_cell_angle_alpha   90.00000000
_cell_angle_beta   90.00000000
_cell_angle_gamma   120.00000231
_symmetry_Int_Tables_number   1
_chemical_formula_structural   Ti6Nb4Sn6S
_chemical_formula_sum   'Ti6 Nb4 Sn6 S1'
_cell_volume   326.82098074
_cell_formula_units_Z   1
loop_
 _symmetry_equiv_pos_site_id
 _symmetry_equiv_pos_as_xyz
  1  'x, y, z'
loop_
 _atom_site_type_symbol
 _atom_site_label
 _atom_site_symmetry_multiplicity
 _atom_site_fract_x
 _atom_site_fract_y
 _atom_site_fract_z
 _atom_site_occupancy
  Ti  Ti0  1  0.750820  0.750820  0.245821  1
  Ti  Ti1  1  0.249180  0.000000  0.245821  1
  Ti  Ti2  1  0.000000  0.249180  0.245821  1
  Ti  Ti3  1  0.249180  0.249180  0.754179  1
  Ti  Ti4  1  0.750820  0.000000  0.754179  1
  Ti  Ti5  1  0.000000  0.750820  0.754179  1
  Nb  Nb6  1  0.666667  0.333333  0.500000  1
  Nb  Nb7  1  0.333333  0.666667  0.500000  1
  Nb  Nb8  1  0.333333  0.666667  0.000000  1
  Nb  Nb9  1  0.666667  0.333333  0.000000  1
  Sn  Sn10  1  0.391130  0.391130  0.246597  1
  Sn  Sn11  1  0.608870  0.000000  0.246597  1
  Sn  Sn12  1  0.000000  0.608870  0.246597  1
  Sn  Sn13  1  0.608870  0.608870  0.753403  1
  Sn  Sn14  1  0.391130  0.000000  0.753403  1
  Sn  Sn15  1  0.000000  0.391130  0.753403  1
  S  S16  1  0.000000  0.000000  0.500000  1
