# generated using pymatgen
data_YHo3InPt11
_symmetry_space_group_name_H-M   'P 1'
_cell_length_a   4.18445100
_cell_length_b   5.85487655
_cell_length_c   11.65640562
_cell_angle_alpha   88.04128356
_cell_angle_beta   90.00000000
_cell_angle_gamma   90.00000000
_symmetry_Int_Tables_number   1
_chemical_formula_structural   YHo3InPt11
_chemical_formula_sum   'Y1 Ho3 In1 Pt11'
_cell_volume   285.40859947
_cell_formula_units_Z   1
loop_
 _symmetry_equiv_pos_site_id
 _symmetry_equiv_pos_as_xyz
  1  'x, y, z'
loop_
 _atom_site_type_symbol
 _atom_site_label
 _atom_site_symmetry_multiplicity
 _atom_site_fract_x
 _atom_site_fract_y
 _atom_site_fract_z
 _atom_site_occupancy
  Y  Y0  1  0.500000  0.752092  0.375771  1
  Ho  Ho1  1  0.500000  0.721418  0.861991  1
  Ho  Ho2  1  0.500000  0.278551  0.137787  1
  Ho  Ho3  1  0.500000  0.247836  0.624429  1
  In  In4  1  0.000000  0.000098  0.999824  1
  Pt  Pt5  1  0.000000  0.011085  0.248712  1
  Pt  Pt6  1  0.000000  0.989927  0.750760  1
  Pt  Pt7  1  0.000000  0.499901  0.999899  1
  Pt  Pt8  1  0.000000  0.498971  0.500703  1
  Pt  Pt9  1  0.000000  0.511809  0.249445  1
  Pt  Pt10  1  0.000000  0.487331  0.750029  1
  Pt  Pt11  1  0.500000  0.250497  0.377965  1
  Pt  Pt12  1  0.500000  0.232269  0.881075  1
  Pt  Pt13  1  0.500000  0.767858  0.118230  1
  Pt  Pt14  1  0.500000  0.749709  0.622737  1
  Pt  Pt15  1  0.000000  0.000648  0.500642  1
