# generated using pymatgen
data_Er3Tm9Ni4SnRu
_symmetry_space_group_name_H-M   'P 1'
_cell_length_a   8.19127661
_cell_length_b   8.19127500
_cell_length_c   8.19204184
_cell_angle_alpha   111.56567212
_cell_angle_beta   110.11399794
_cell_angle_gamma   106.76679798
_symmetry_Int_Tables_number   1
_chemical_formula_structural   Er3Tm9Ni4SnRu
_chemical_formula_sum   'Er3 Tm9 Ni4 Sn1 Ru1'
_cell_volume   422.37719905
_cell_formula_units_Z   1
loop_
 _symmetry_equiv_pos_site_id
 _symmetry_equiv_pos_as_xyz
  1  'x, y, z'
loop_
 _atom_site_type_symbol
 _atom_site_label
 _atom_site_symmetry_multiplicity
 _atom_site_fract_x
 _atom_site_fract_y
 _atom_site_fract_z
 _atom_site_occupancy
  Er  Er0  1  0.818000  0.787738  0.605739  1
  Er  Er1  1  0.182382  0.212012  0.394392  1
  Er  Er2  1  0.817474  0.212099  0.029573  1
  Tm  Tm3  1  0.319801  0.125873  0.805705  1
  Tm  Tm4  1  0.679833  0.485905  0.805705  1
  Tm  Tm5  1  0.407476  0.717224  0.690566  1
  Tm  Tm6  1  0.591103  0.282199  0.308606  1
  Tm  Tm7  1  0.973341  0.283090  0.690566  1
  Tm  Tm8  1  0.026407  0.717502  0.308606  1
  Tm  Tm9  1  0.319821  0.514213  0.193816  1
  Tm  Tm10  1  0.679601  0.873993  0.193816  1
  Tm  Tm11  1  0.182516  0.787238  0.969754  1
  Ni  Ni12  1  0.878512  0.876530  0.001012  1
  Ni  Ni13  1  0.124482  0.122500  0.001012  1
  Ni  Ni14  1  0.638878  0.499578  0.138456  1
  Ni  Ni15  1  0.360708  0.501062  0.861770  1
  Sn  Sn16  1  0.500199  0.000222  0.500420  1
  Ru  Ru17  1  0.999464  0.501021  0.500485  1
