# generated using pymatgen
data_Pr2Er4ZrCo17P12
_symmetry_space_group_name_H-M   'P 1'
_cell_length_a   3.72462800
_cell_length_b   10.62737300
_cell_length_c   12.35694700
_cell_angle_alpha   90.00000000
_cell_angle_beta   90.00000000
_cell_angle_gamma   90.00000000
_symmetry_Int_Tables_number   1
_chemical_formula_structural   Pr2Er4ZrCo17P12
_chemical_formula_sum   'Pr2 Er4 Zr1 Co17 P12'
_cell_volume   489.12516955
_cell_formula_units_Z   1
loop_
 _symmetry_equiv_pos_site_id
 _symmetry_equiv_pos_as_xyz
  1  'x, y, z'
loop_
 _atom_site_type_symbol
 _atom_site_label
 _atom_site_symmetry_multiplicity
 _atom_site_fract_x
 _atom_site_fract_y
 _atom_site_fract_z
 _atom_site_occupancy
  Pr  Pr0  1  0.000000  0.500000  0.530556  1
  Pr  Pr1  1  0.500000  0.000000  0.476835  1
  Er  Er2  1  0.500000  0.821398  0.205992  1
  Er  Er3  1  0.500000  0.178602  0.205992  1
  Er  Er4  1  0.000000  0.682947  0.797389  1
  Er  Er5  1  0.000000  0.317053  0.797389  1
  Zr  Zr6  1  0.500000  0.500000  0.151109  1
  Co  Co7  1  0.000000  0.000000  0.839783  1
  Co  Co8  1  0.500000  0.500000  0.707516  1
  Co  Co9  1  0.000000  0.000000  0.291558  1
  Co  Co10  1  0.000000  0.500000  0.982997  1
  Co  Co11  1  0.500000  0.000000  0.012890  1
  Co  Co12  1  0.500000  0.326463  0.988340  1
  Co  Co13  1  0.500000  0.673537  0.988340  1
  Co  Co14  1  0.000000  0.161729  0.001494  1
  Co  Co15  1  0.000000  0.838271  0.001494  1
  Co  Co16  1  0.500000  0.294272  0.432477  1
  Co  Co17  1  0.500000  0.705728  0.432477  1
  Co  Co18  1  0.000000  0.202976  0.572180  1
  Co  Co19  1  0.000000  0.797024  0.572180  1
  Co  Co20  1  0.500000  0.880524  0.711069  1
  Co  Co21  1  0.500000  0.119476  0.711069  1
  Co  Co22  1  0.000000  0.622772  0.293433  1
  Co  Co23  1  0.000000  0.377228  0.293433  1
  P  P24  1  0.500000  0.500000  0.882833  1
  P  P25  1  0.000000  0.000000  0.115166  1
  P  P26  1  0.500000  0.500000  0.357033  1
  P  P27  1  0.000000  0.000000  0.659817  1
  P  P28  1  0.500000  0.305303  0.620400  1
  P  P29  1  0.500000  0.694697  0.620400  1
  P  P30  1  0.000000  0.192064  0.383973  1
  P  P31  1  0.000000  0.807936  0.383973  1
  P  P32  1  0.500000  0.851364  0.889518  1
  P  P33  1  0.500000  0.148636  0.889518  1
  P  P34  1  0.000000  0.665737  0.099689  1
  P  P35  1  0.000000  0.334263  0.099689  1
