# generated using pymatgen
data_Sr5Gd3(BeSi3)4
_symmetry_space_group_name_H-M   'P 1'
_cell_length_a   7.93956700
_cell_length_b   7.93956616
_cell_length_c   9.00830400
_cell_angle_alpha   90.00000000
_cell_angle_beta   90.00000000
_cell_angle_gamma   120.00005764
_symmetry_Int_Tables_number   1
_chemical_formula_structural   Sr5Gd3(BeSi3)4
_chemical_formula_sum   'Sr5 Gd3 Be4 Si12'
_cell_volume   491.77563000
_cell_formula_units_Z   1
loop_
 _symmetry_equiv_pos_site_id
 _symmetry_equiv_pos_as_xyz
  1  'x, y, z'
loop_
 _atom_site_type_symbol
 _atom_site_label
 _atom_site_symmetry_multiplicity
 _atom_site_fract_x
 _atom_site_fract_y
 _atom_site_fract_z
 _atom_site_occupancy
  Sr  Sr0  1  0.000014  0.999986  0.750000  1
  Sr  Sr1  1  0.000046  0.999954  0.250000  1
  Sr  Sr2  1  0.500019  0.499981  0.750000  1
  Sr  Sr3  1  0.499997  0.999981  0.750000  1
  Sr  Sr4  1  0.000019  0.500003  0.750000  1
  Gd  Gd5  1  0.500109  0.499891  0.250000  1
  Gd  Gd6  1  0.999856  0.500186  0.250000  1
  Gd  Gd7  1  0.499814  0.000144  0.250000  1
  Be  Be8  1  0.666652  0.333348  0.026707  1
  Be  Be9  1  0.666652  0.333348  0.473293  1
  Be  Be10  1  0.333385  0.666615  0.472835  1
  Be  Be11  1  0.333385  0.666615  0.027165  1
  Si  Si12  1  0.826420  0.173580  0.010729  1
  Si  Si13  1  0.826230  0.652834  0.010933  1
  Si  Si14  1  0.347166  0.173770  0.010933  1
  Si  Si15  1  0.826420  0.173580  0.489271  1
  Si  Si16  1  0.826230  0.652834  0.489067  1
  Si  Si17  1  0.347166  0.173770  0.489067  1
  Si  Si18  1  0.173607  0.826393  0.489366  1
  Si  Si19  1  0.652826  0.826223  0.489145  1
  Si  Si20  1  0.173777  0.347174  0.489145  1
  Si  Si21  1  0.173607  0.826393  0.010634  1
  Si  Si22  1  0.652826  0.826223  0.010855  1
  Si  Si23  1  0.173777  0.347174  0.010855  1
