# generated using pymatgen
data_Pr5EuU4O20
_symmetry_space_group_name_H-M   'P 1'
_cell_length_a   6.83611051
_cell_length_b   7.73189526
_cell_length_c   8.65870800
_cell_angle_alpha   101.23978564
_cell_angle_beta   97.75390061
_cell_angle_gamma   107.22313097
_symmetry_Int_Tables_number   1
_chemical_formula_structural   Pr5EuU4O20
_chemical_formula_sum   'Pr5 Eu1 U4 O20'
_cell_volume   419.59720327
_cell_formula_units_Z   1
loop_
 _symmetry_equiv_pos_site_id
 _symmetry_equiv_pos_as_xyz
  1  'x, y, z'
loop_
 _atom_site_type_symbol
 _atom_site_label
 _atom_site_symmetry_multiplicity
 _atom_site_fract_x
 _atom_site_fract_y
 _atom_site_fract_z
 _atom_site_occupancy
  Pr  Pr0  1  0.613529  0.703144  0.701019  1
  Pr  Pr1  1  0.386471  0.296856  0.298981  1
  Pr  Pr2  1  0.200035  0.897262  0.893303  1
  Pr  Pr3  1  0.000000  0.500000  0.500000  1
  Pr  Pr4  1  0.799965  0.102738  0.106697  1
  Eu  Eu5  1  0.000000  0.000000  0.500000  1
  U  U6  1  0.401369  0.804833  0.302060  1
  U  U7  1  0.197919  0.401801  0.901752  1
  U  U8  1  0.802081  0.598199  0.098248  1
  U  U9  1  0.598631  0.195167  0.697940  1
  O  O10  1  0.432915  0.532253  0.130539  1
  O  O11  1  0.558127  0.994831  0.837542  1
  O  O12  1  0.280741  0.156100  0.745396  1
  O  O13  1  0.362997  0.602780  0.437926  1
  O  O14  1  0.055352  0.727421  0.322110  1
  O  O15  1  0.441873  0.005169  0.162458  1
  O  O16  1  0.148692  0.189266  0.025767  1
  O  O17  1  0.567085  0.467747  0.869461  1
  O  O18  1  0.856058  0.342693  0.951708  1
  O  O19  1  0.258310  0.599400  0.764558  1
  O  O20  1  0.953898  0.772227  0.652205  1
  O  O21  1  0.357223  0.055813  0.452812  1
  O  O22  1  0.642777  0.944187  0.547188  1
  O  O23  1  0.046102  0.227773  0.347795  1
  O  O24  1  0.741690  0.400600  0.235442  1
  O  O25  1  0.143942  0.657307  0.048292  1
  O  O26  1  0.851308  0.810734  0.974233  1
  O  O27  1  0.944648  0.272579  0.677890  1
  O  O28  1  0.637003  0.397220  0.562074  1
  O  O29  1  0.719259  0.843900  0.254604  1
