# generated using pymatgen
data_Zr2Si7(Ni5Rh)2
_symmetry_space_group_name_H-M   'P 1'
_cell_length_a   9.15905456
_cell_length_b   9.22945750
_cell_length_c   3.65390300
_cell_angle_alpha   90.00000000
_cell_angle_beta   90.00000000
_cell_angle_gamma   119.93430843
_symmetry_Int_Tables_number   1
_chemical_formula_structural   Zr2Si7(Ni5Rh)2
_chemical_formula_sum   'Zr2 Si7 Ni10 Rh2'
_cell_volume   267.67115195
_cell_formula_units_Z   1
loop_
 _symmetry_equiv_pos_site_id
 _symmetry_equiv_pos_as_xyz
  1  'x, y, z'
loop_
 _atom_site_type_symbol
 _atom_site_label
 _atom_site_symmetry_multiplicity
 _atom_site_fract_x
 _atom_site_fract_y
 _atom_site_fract_z
 _atom_site_occupancy
  Zr  Zr0  1  0.999322  0.000088  0.000000  1
  Zr  Zr1  1  0.329334  0.663927  0.500000  1
  Si  Si2  1  0.666785  0.334351  0.000000  1
  Si  Si3  1  0.072646  0.451973  0.000000  1
  Si  Si4  1  0.254712  0.211640  0.500000  1
  Si  Si5  1  0.781847  0.041857  0.500000  1
  Si  Si6  1  0.960494  0.746700  0.500000  1
  Si  Si7  1  0.545746  0.621432  0.000000  1
  Si  Si8  1  0.384154  0.927482  0.000000  1
  Ni  Ni9  1  0.284542  0.389006  0.000000  1
  Ni  Ni10  1  0.109478  0.717028  0.000000  1
  Ni  Ni11  1  0.381703  0.169922  0.000000  1
  Ni  Ni12  1  0.793608  0.623635  0.000000  1
  Ni  Ni13  1  0.822267  0.205829  0.000000  1
  Ni  Ni14  1  0.235860  0.949144  0.500000  1
  Ni  Ni15  1  0.051011  0.280636  0.500000  1
  Ni  Ni16  1  0.717289  0.770658  0.500000  1
  Ni  Ni17  1  0.572003  0.116344  0.500000  1
  Ni  Ni18  1  0.610003  0.893608  0.000000  1
  Rh  Rh19  1  0.884195  0.456508  0.500000  1
  Rh  Rh20  1  0.543001  0.428232  0.500000  1
