# generated using pymatgen
data_Lu2ZnCo6GeB2
_symmetry_space_group_name_H-M   'P 1'
_cell_length_a   5.10475000
_cell_length_b   5.10475034
_cell_length_c   6.65632700
_cell_angle_alpha   90.00000000
_cell_angle_beta   90.00000000
_cell_angle_gamma   120.00001073
_symmetry_Int_Tables_number   1
_chemical_formula_structural   Lu2ZnCo6GeB2
_chemical_formula_sum   'Lu2 Zn1 Co6 Ge1 B2'
_cell_volume   150.21531702
_cell_formula_units_Z   1
loop_
 _symmetry_equiv_pos_site_id
 _symmetry_equiv_pos_as_xyz
  1  'x, y, z'
loop_
 _atom_site_type_symbol
 _atom_site_label
 _atom_site_symmetry_multiplicity
 _atom_site_fract_x
 _atom_site_fract_y
 _atom_site_fract_z
 _atom_site_occupancy
  Lu  Lu0  1  0.000000  0.000000  0.500000  1
  Lu  Lu1  1  0.000000  0.000000  0.000000  1
  Zn  Zn2  1  0.333333  0.666667  0.500000  1
  Co  Co3  1  0.500770  0.001541  0.206177  1
  Co  Co4  1  0.500770  0.001541  0.793823  1
  Co  Co5  1  0.998459  0.499230  0.206177  1
  Co  Co6  1  0.998459  0.499230  0.793823  1
  Co  Co7  1  0.500770  0.499230  0.206177  1
  Co  Co8  1  0.500770  0.499230  0.793823  1
  Ge  Ge9  1  0.666667  0.333333  0.500000  1
  B  B10  1  0.333333  0.666667  0.000000  1
  B  B11  1  0.666667  0.333333  0.000000  1
