# generated using pymatgen
data_NaP12Ru3Pt
_symmetry_space_group_name_H-M   'P 1'
_cell_length_a   7.01515612
_cell_length_b   7.01515487
_cell_length_c   7.01515614
_cell_angle_alpha   109.38818480
_cell_angle_beta   109.38819633
_cell_angle_gamma   109.38818765
_symmetry_Int_Tables_number   1
_chemical_formula_structural   NaP12Ru3Pt
_chemical_formula_sum   'Na1 P12 Ru3 Pt1'
_cell_volume   266.57412439
_cell_formula_units_Z   1
loop_
 _symmetry_equiv_pos_site_id
 _symmetry_equiv_pos_as_xyz
  1  'x, y, z'
loop_
 _atom_site_type_symbol
 _atom_site_label
 _atom_site_symmetry_multiplicity
 _atom_site_fract_x
 _atom_site_fract_y
 _atom_site_fract_z
 _atom_site_occupancy
  Na  Na0  1  0.000000  0.000000  0.000000  1
  P  P1  1  0.356149  0.214453  0.857307  1
  P  P2  1  0.643851  0.785547  0.142693  1
  P  P3  1  0.645943  0.500947  0.866616  1
  P  P4  1  0.354057  0.499053  0.133384  1
  P  P5  1  0.214453  0.857307  0.356149  1
  P  P6  1  0.785547  0.142693  0.643851  1
  P  P7  1  0.500947  0.866616  0.645943  1
  P  P8  1  0.499053  0.133384  0.354057  1
  P  P9  1  0.857307  0.356149  0.214453  1
  P  P10  1  0.142693  0.643851  0.785547  1
  P  P11  1  0.866616  0.645943  0.500947  1
  P  P12  1  0.133384  0.354057  0.499053  1
  Ru  Ru13  1  0.000000  0.000000  0.500000  1
  Ru  Ru14  1  0.500000  0.000000  0.000000  1
  Ru  Ru15  1  0.000000  0.500000  0.000000  1
  Pt  Pt16  1  0.500000  0.500000  0.500000  1
