# generated using pymatgen
data_Nd3Y2Zr3(As3Rh4)4
_symmetry_space_group_name_H-M   'P 1'
_cell_length_a   13.39728639
_cell_length_b   13.39728684
_cell_length_c   4.05150500
_cell_angle_alpha   90.00000000
_cell_angle_beta   90.00000000
_cell_angle_gamma   120.02757947
_symmetry_Int_Tables_number   1
_chemical_formula_structural   Nd3Y2Zr3(As3Rh4)4
_chemical_formula_sum   'Nd3 Y2 Zr3 As12 Rh16'
_cell_volume   629.59308079
_cell_formula_units_Z   1
loop_
 _symmetry_equiv_pos_site_id
 _symmetry_equiv_pos_as_xyz
  1  'x, y, z'
loop_
 _atom_site_type_symbol
 _atom_site_label
 _atom_site_symmetry_multiplicity
 _atom_site_fract_x
 _atom_site_fract_y
 _atom_site_fract_z
 _atom_site_occupancy
  Nd  Nd0  1  0.187132  0.187132  0.500000  1
  Nd  Nd1  1  0.333411  0.666753  0.000000  1
  Nd  Nd2  1  0.666753  0.333411  0.000000  1
  Y  Y3  1  0.811866  0.000038  0.500000  1
  Y  Y4  1  0.000038  0.811866  0.500000  1
  Zr  Zr5  1  0.557565  0.557565  0.000000  1
  Zr  Zr6  1  0.443405  0.999652  0.000000  1
  Zr  Zr7  1  0.999652  0.443405  0.000000  1
  As  As8  1  0.824306  0.824306  0.000000  1
  As  As9  1  0.174910  0.998321  0.000000  1
  As  As10  1  0.998321  0.174910  0.000000  1
  As  As11  1  0.168674  0.483623  0.500000  1
  As  As12  1  0.516708  0.685566  0.500000  1
  As  As13  1  0.314672  0.830903  0.500000  1
  As  As14  1  0.685566  0.516708  0.500000  1
  As  As15  1  0.830903  0.314672  0.500000  1
  As  As16  1  0.483623  0.168674  0.500000  1
  As  As17  1  0.357072  0.357072  0.000000  1
  As  As18  1  0.644921  0.999844  0.000000  1
  As  As19  1  0.999844  0.644921  0.000000  1
  Rh  Rh20  1  0.719969  0.719969  0.500000  1
  Rh  Rh21  1  0.280667  0.999300  0.500000  1
  Rh  Rh22  1  0.999300  0.280667  0.500000  1
  Rh  Rh23  1  0.175919  0.374763  0.000000  1
  Rh  Rh24  1  0.627012  0.802987  0.000000  1
  Rh  Rh25  1  0.196879  0.823627  0.000000  1
  Rh  Rh26  1  0.802987  0.627012  0.000000  1
  Rh  Rh27  1  0.823627  0.196879  0.000000  1
  Rh  Rh28  1  0.374763  0.175919  0.000000  1
  Rh  Rh29  1  0.354785  0.481600  0.500000  1
  Rh  Rh30  1  0.519093  0.873447  0.500000  1
  Rh  Rh31  1  0.126298  0.645402  0.500000  1
  Rh  Rh32  1  0.873447  0.519093  0.500000  1
  Rh  Rh33  1  0.645402  0.126298  0.500000  1
  Rh  Rh34  1  0.481600  0.354785  0.500000  1
  Rh  Rh35  1  0.998911  0.998911  0.000000  1
