# generated using pymatgen
data_Zr10Tl2Bi3Sb2
_symmetry_space_group_name_H-M   'P 1'
_cell_length_a   5.97017346
_cell_length_b   8.76124159
_cell_length_c   8.74970900
_cell_angle_alpha   120.04362035
_cell_angle_beta   89.91569029
_cell_angle_gamma   90.16838071
_symmetry_Int_Tables_number   1
_chemical_formula_structural   Zr10Tl2Bi3Sb2
_chemical_formula_sum   'Zr10 Tl2 Bi3 Sb2'
_cell_volume   396.17212107
_cell_formula_units_Z   1
loop_
 _symmetry_equiv_pos_site_id
 _symmetry_equiv_pos_as_xyz
  1  'x, y, z'
loop_
 _atom_site_type_symbol
 _atom_site_label
 _atom_site_symmetry_multiplicity
 _atom_site_fract_x
 _atom_site_fract_y
 _atom_site_fract_z
 _atom_site_occupancy
  Zr  Zr0  1  0.499477  0.336410  0.670181  1
  Zr  Zr1  1  0.499477  0.666229  0.329819  1
  Zr  Zr2  1  0.001941  0.666755  0.330540  1
  Zr  Zr3  1  0.001941  0.336217  0.669460  1
  Zr  Zr4  1  0.770769  0.268660  0.000000  1
  Zr  Zr5  1  0.777152  0.735768  0.741378  1
  Zr  Zr6  1  0.777152  0.994389  0.258622  1
  Zr  Zr7  1  0.223918  0.734195  0.000000  1
  Zr  Zr8  1  0.227050  0.264493  0.267999  1
  Zr  Zr9  1  0.227050  0.996494  0.732001  1
  Tl  Tl10  1  0.255715  0.613955  0.612783  1
  Tl  Tl11  1  0.255715  0.001172  0.387217  1
  Bi  Bi12  1  0.742233  0.388757  0.390195  1
  Bi  Bi13  1  0.742233  0.998563  0.609805  1
  Bi  Bi14  1  0.255988  0.385595  0.000000  1
  Sb  Sb15  1  0.745201  0.612203  0.000000  1
  Sb  Sb16  1  0.496986  0.000146  0.000000  1
