# generated using pymatgen
data_Pr16Nd4PdRh15
_symmetry_space_group_name_H-M   'P 1'
_cell_length_a   7.66760464
_cell_length_b   7.75998004
_cell_length_c   15.10495973
_cell_angle_alpha   89.90109471
_cell_angle_beta   90.08725013
_cell_angle_gamma   89.96516287
_symmetry_Int_Tables_number   1
_chemical_formula_structural   Pr16Nd4PdRh15
_chemical_formula_sum   'Pr16 Nd4 Pd1 Rh15'
_cell_volume   898.74948675
_cell_formula_units_Z   1
loop_
 _symmetry_equiv_pos_site_id
 _symmetry_equiv_pos_as_xyz
  1  'x, y, z'
loop_
 _atom_site_type_symbol
 _atom_site_label
 _atom_site_symmetry_multiplicity
 _atom_site_fract_x
 _atom_site_fract_y
 _atom_site_fract_z
 _atom_site_occupancy
  Pr  Pr0  1  0.661922  0.174494  0.624965  1
  Pr  Pr1  1  0.163621  0.331155  0.878120  1
  Pr  Pr2  1  0.335357  0.832278  0.121297  1
  Pr  Pr3  1  0.840574  0.663023  0.376488  1
  Pr  Pr4  1  0.331098  0.829015  0.377655  1
  Pr  Pr5  1  0.835890  0.668376  0.121375  1
  Pr  Pr6  1  0.664511  0.168454  0.878605  1
  Pr  Pr7  1  0.160713  0.329452  0.621456  1
  Pr  Pr8  1  0.509869  0.677992  0.596929  1
  Pr  Pr9  1  0.014481  0.819622  0.906065  1
  Pr  Pr10  1  0.486863  0.318792  0.092647  1
  Pr  Pr11  1  0.992460  0.183109  0.403126  1
  Pr  Pr12  1  0.485940  0.324231  0.405625  1
  Pr  Pr13  1  0.986243  0.181684  0.093048  1
  Pr  Pr14  1  0.513409  0.680782  0.906163  1
  Pr  Pr15  1  0.014708  0.818451  0.595360  1
  Nd  Nd16  1  0.826636  0.512015  0.750929  1
  Nd  Nd17  1  0.326563  0.990373  0.750203  1
  Nd  Nd18  1  0.176934  0.488929  0.247375  1
  Nd  Nd19  1  0.673296  0.009627  0.248113  1
  Pd  Pd20  1  0.672920  0.967864  0.460817  1
  Rh  Rh21  1  0.174462  0.530614  0.041028  1
  Rh  Rh22  1  0.325952  0.030094  0.958423  1
  Rh  Rh23  1  0.822660  0.470888  0.540840  1
  Rh  Rh24  1  0.326992  0.028725  0.541022  1
  Rh  Rh25  1  0.825234  0.470284  0.958473  1
  Rh  Rh26  1  0.674146  0.971297  0.042713  1
  Rh  Rh27  1  0.172531  0.527040  0.457801  1
  Rh  Rh28  1  0.457273  0.401883  0.750794  1
  Rh  Rh29  1  0.957812  0.097947  0.749764  1
  Rh  Rh30  1  0.543909  0.599572  0.251473  1
  Rh  Rh31  1  0.041048  0.902687  0.251022  1
  Rh  Rh32  1  0.696670  0.855283  0.749857  1
  Rh  Rh33  1  0.197532  0.645823  0.749527  1
  Rh  Rh34  1  0.305480  0.145233  0.250394  1
  Rh  Rh35  1  0.804288  0.352912  0.250508  1
