# generated using pymatgen
data_In2Ni(SeO3)4
_symmetry_space_group_name_H-M   'P 1'
_cell_length_a   4.91448400
_cell_length_b   8.72127658
_cell_length_c   15.39639335
_cell_angle_alpha   69.10014874
_cell_angle_beta   90.00000000
_cell_angle_gamma   90.00000000
_symmetry_Int_Tables_number   1
_chemical_formula_structural   In2Ni(SeO3)4
_chemical_formula_sum   'In4 Ni2 Se8 O24'
_cell_volume   616.48051827
_cell_formula_units_Z   2
loop_
 _symmetry_equiv_pos_site_id
 _symmetry_equiv_pos_as_xyz
  1  'x, y, z'
loop_
 _atom_site_type_symbol
 _atom_site_label
 _atom_site_symmetry_multiplicity
 _atom_site_fract_x
 _atom_site_fract_y
 _atom_site_fract_z
 _atom_site_occupancy
  In  In0  1  0.535114  0.153618  0.786841  1
  In  In1  1  0.964886  0.153618  0.286841  1
  In  In2  1  0.464886  0.846382  0.213159  1
  In  In3  1  0.035114  0.846382  0.713159  1
  Ni  Ni4  1  0.000000  0.000000  0.000000  1
  Ni  Ni5  1  0.500000  0.000000  0.500000  1
  Se  Se6  1  0.579690  0.779601  0.892972  1
  Se  Se7  1  0.920310  0.779601  0.392972  1
  Se  Se8  1  0.420310  0.220399  0.107028  1
  Se  Se9  1  0.079690  0.220399  0.607028  1
  Se  Se10  1  0.002102  0.341143  0.873375  1
  Se  Se11  1  0.497898  0.341143  0.373375  1
  Se  Se12  1  0.997898  0.658857  0.126625  1
  Se  Se13  1  0.502102  0.658857  0.626625  1
  O  O14  1  0.768746  0.358551  0.786194  1
  O  O15  1  0.731254  0.358551  0.286194  1
  O  O16  1  0.231254  0.641449  0.213806  1
  O  O17  1  0.268746  0.641449  0.713806  1
  O  O18  1  0.828591  0.708103  0.839029  1
  O  O19  1  0.671409  0.708103  0.339029  1
  O  O20  1  0.171409  0.291897  0.160971  1
  O  O21  1  0.328591  0.291897  0.660971  1
  O  O22  1  0.203453  0.169274  0.877938  1
  O  O23  1  0.296547  0.169274  0.377938  1
  O  O24  1  0.796547  0.830726  0.122062  1
  O  O25  1  0.703453  0.830726  0.622062  1
  O  O26  1  0.719251  0.954907  0.905995  1
  O  O27  1  0.780749  0.954907  0.405995  1
  O  O28  1  0.280749  0.045093  0.094005  1
  O  O29  1  0.219251  0.045093  0.594005  1
  O  O30  1  0.374902  0.902979  0.800307  1
  O  O31  1  0.125098  0.902979  0.300307  1
  O  O32  1  0.625098  0.097021  0.199693  1
  O  O33  1  0.874902  0.097021  0.699693  1
  O  O34  1  0.834108  0.230270  0.973537  1
  O  O35  1  0.665892  0.230270  0.473537  1
  O  O36  1  0.165892  0.769730  0.026463  1
  O  O37  1  0.334108  0.769730  0.526463  1
