# generated using pymatgen
data_KAc3(SiN3)2
_symmetry_space_group_name_H-M   'P 1'
_cell_length_a   6.35148309
_cell_length_b   6.35148357
_cell_length_c   12.38367166
_cell_angle_alpha   90.43319516
_cell_angle_beta   89.56680017
_cell_angle_gamma   127.73628400
_symmetry_Int_Tables_number   1
_chemical_formula_structural   KAc3(SiN3)2
_chemical_formula_sum   'K2 Ac6 Si4 N12'
_cell_volume   395.06708134
_cell_formula_units_Z   2
loop_
 _symmetry_equiv_pos_site_id
 _symmetry_equiv_pos_as_xyz
  1  'x, y, z'
loop_
 _atom_site_type_symbol
 _atom_site_label
 _atom_site_symmetry_multiplicity
 _atom_site_fract_x
 _atom_site_fract_y
 _atom_site_fract_z
 _atom_site_occupancy
  K  K0  1  0.048377  0.951623  0.864647  1
  K  K1  1  0.951623  0.048377  0.135353  1
  Ac  Ac2  1  0.450270  0.549730  0.345096  1
  Ac  Ac3  1  0.549730  0.450270  0.654904  1
  Ac  Ac4  1  0.649459  0.350541  0.077050  1
  Ac  Ac5  1  0.350541  0.649459  0.922950  1
  Ac  Ac6  1  0.855880  0.144120  0.579454  1
  Ac  Ac7  1  0.144120  0.855880  0.420546  1
  Si  Si8  1  0.729919  0.270082  0.829944  1
  Si  Si9  1  0.270081  0.729918  0.170056  1
  Si  Si10  1  0.768688  0.231312  0.334225  1
  Si  Si11  1  0.231312  0.768688  0.665775  1
  N  N12  1  0.576619  0.423381  0.857674  1
  N  N13  1  0.423381  0.576619  0.142326  1
  N  N14  1  0.918663  0.081337  0.375236  1
  N  N15  1  0.081337  0.918663  0.624764  1
  N  N16  1  0.516883  0.991310  0.742269  1
  N  N17  1  0.991310  0.516883  0.257731  1
  N  N18  1  0.483117  0.008690  0.257731  1
  N  N19  1  0.008690  0.483117  0.742269  1
  N  N20  1  0.816014  0.183987  0.942210  1
  N  N21  1  0.183986  0.816013  0.057790  1
  N  N22  1  0.666834  0.333166  0.447491  1
  N  N23  1  0.333166  0.666834  0.552509  1
