# generated using pymatgen
data_Y6Ho6Er8Cd6NiRu
_symmetry_space_group_name_H-M   'P 1'
_cell_length_a   9.56805000
_cell_length_b   9.56804968
_cell_length_c   9.80426600
_cell_angle_alpha   90.00000000
_cell_angle_beta   90.00000000
_cell_angle_gamma   120.00000109
_symmetry_Int_Tables_number   1
_chemical_formula_structural   Y6Ho6Er8Cd6NiRu
_chemical_formula_sum   'Y6 Ho6 Er8 Cd6 Ni1 Ru1'
_cell_volume   777.30698524
_cell_formula_units_Z   1
loop_
 _symmetry_equiv_pos_site_id
 _symmetry_equiv_pos_as_xyz
  1  'x, y, z'
loop_
 _atom_site_type_symbol
 _atom_site_label
 _atom_site_symmetry_multiplicity
 _atom_site_fract_x
 _atom_site_fract_y
 _atom_site_fract_z
 _atom_site_occupancy
  Y  Y0  1  0.542624  0.457376  0.248945  1
  Y  Y1  1  0.542624  0.085249  0.248945  1
  Y  Y2  1  0.914751  0.457376  0.248945  1
  Y  Y3  1  0.458568  0.541432  0.750492  1
  Y  Y4  1  0.458568  0.917133  0.750492  1
  Y  Y5  1  0.082867  0.541432  0.750492  1
  Ho  Ho6  1  0.210956  0.789044  0.436650  1
  Ho  Ho7  1  0.210956  0.421916  0.436650  1
  Ho  Ho8  1  0.578084  0.789044  0.436650  1
  Ho  Ho9  1  0.790862  0.209138  0.560754  1
  Ho  Ho10  1  0.790862  0.581721  0.560754  1
  Ho  Ho11  1  0.418279  0.209138  0.560754  1
  Er  Er12  1  0.000000  0.000000  0.499285  1
  Er  Er13  1  0.000000  0.000000  0.001552  1
  Er  Er14  1  0.790390  0.209610  0.939330  1
  Er  Er15  1  0.790390  0.580777  0.939330  1
  Er  Er16  1  0.419223  0.209610  0.939330  1
  Er  Er17  1  0.211219  0.788781  0.062630  1
  Er  Er18  1  0.211219  0.422442  0.062630  1
  Er  Er19  1  0.577558  0.788781  0.062630  1
  Cd  Cd20  1  0.885575  0.114425  0.250255  1
  Cd  Cd21  1  0.885575  0.771151  0.250255  1
  Cd  Cd22  1  0.228849  0.114425  0.250255  1
  Cd  Cd23  1  0.113928  0.886072  0.750819  1
  Cd  Cd24  1  0.113928  0.227856  0.750819  1
  Cd  Cd25  1  0.772144  0.886072  0.750819  1
  Ni  Ni26  1  0.333333  0.666667  0.248996  1
  Ru  Ru27  1  0.666667  0.333333  0.750541  1
