# generated using pymatgen
data_Ho5Sc3Ti5Si16Mo7
_symmetry_space_group_name_H-M   'P 1'
_cell_length_a   6.87513764
_cell_length_b   6.86328007
_cell_length_c   12.70396505
_cell_angle_alpha   89.85184305
_cell_angle_beta   90.11281079
_cell_angle_gamma   89.98411897
_symmetry_Int_Tables_number   1
_chemical_formula_structural   Ho5Sc3Ti5Si16Mo7
_chemical_formula_sum   'Ho5 Sc3 Ti5 Si16 Mo7'
_cell_volume   599.44604228
_cell_formula_units_Z   1
loop_
 _symmetry_equiv_pos_site_id
 _symmetry_equiv_pos_as_xyz
  1  'x, y, z'
loop_
 _atom_site_type_symbol
 _atom_site_label
 _atom_site_symmetry_multiplicity
 _atom_site_fract_x
 _atom_site_fract_y
 _atom_site_fract_z
 _atom_site_occupancy
  Ho  Ho0  1  0.838478  0.495278  0.281408  1
  Ho  Ho1  1  0.161612  0.502574  0.781096  1
  Ho  Ho2  1  0.659702  0.997216  0.968664  1
  Ho  Ho3  1  0.004220  0.338506  0.531374  1
  Ho  Ho4  1  0.995925  0.660847  0.031819  1
  Sc  Sc5  1  0.343660  0.998974  0.467405  1
  Sc  Sc6  1  0.502292  0.843256  0.718069  1
  Sc  Sc7  1  0.496984  0.158008  0.219022  1
  Ti  Ti8  1  0.330549  0.329507  0.999384  1
  Ti  Ti9  1  0.169952  0.831156  0.250910  1
  Ti  Ti10  1  0.828070  0.169627  0.749131  1
  Ti  Ti11  1  0.668424  0.668836  0.498667  1
  Ti  Ti12  1  0.992568  0.843166  0.625115  1
  Si  Si13  1  0.207657  0.124292  0.680794  1
  Si  Si14  1  0.371337  0.703089  0.932134  1
  Si  Si15  1  0.626369  0.294016  0.431850  1
  Si  Si16  1  0.697229  0.366310  0.069717  1
  Si  Si17  1  0.302762  0.638574  0.567650  1
  Si  Si18  1  0.794928  0.874832  0.183983  1
  Si  Si19  1  0.137036  0.199012  0.319374  1
  Si  Si20  1  0.867444  0.798119  0.815119  1
  Si  Si21  1  0.292156  0.960593  0.064580  1
  Si  Si22  1  0.538681  0.798474  0.313612  1
  Si  Si23  1  0.458960  0.204297  0.811113  1
  Si  Si24  1  0.786834  0.543703  0.686832  1
  Si  Si25  1  0.213019  0.456496  0.187820  1
  Si  Si26  1  0.702366  0.039936  0.563675  1
  Si  Si27  1  0.958642  0.289908  0.937196  1
  Si  Si28  1  0.045864  0.713295  0.437676  1
  Mo  Mo29  1  0.160302  0.005799  0.874095  1
  Mo  Mo30  1  0.493637  0.659563  0.125073  1
  Mo  Mo31  1  0.503792  0.341047  0.622128  1
  Mo  Mo32  1  0.655320  0.490279  0.877162  1
  Mo  Mo33  1  0.345178  0.507545  0.374997  1
  Mo  Mo34  1  0.839879  0.994959  0.373481  1
  Mo  Mo35  1  0.008175  0.158911  0.127874  1
