# generated using pymatgen
data_Nd3Hg3Pd2Pt
_symmetry_space_group_name_H-M   'P 1'
_cell_length_a   7.86383300
_cell_length_b   7.86383312
_cell_length_c   3.94106400
_cell_angle_alpha   90.00000000
_cell_angle_beta   90.00000000
_cell_angle_gamma   120.00000370
_symmetry_Int_Tables_number   1
_chemical_formula_structural   Nd3Hg3Pd2Pt
_chemical_formula_sum   'Nd3 Hg3 Pd2 Pt1'
_cell_volume   211.06327556
_cell_formula_units_Z   1
loop_
 _symmetry_equiv_pos_site_id
 _symmetry_equiv_pos_as_xyz
  1  'x, y, z'
loop_
 _atom_site_type_symbol
 _atom_site_label
 _atom_site_symmetry_multiplicity
 _atom_site_fract_x
 _atom_site_fract_y
 _atom_site_fract_z
 _atom_site_occupancy
  Nd  Nd0  1  0.406813  0.400192  0.500000  1
  Nd  Nd1  1  0.599808  0.006621  0.500000  1
  Nd  Nd2  1  0.993379  0.593187  0.500000  1
  Hg  Hg3  1  0.735096  0.741501  0.000000  1
  Hg  Hg4  1  0.258499  0.993594  0.000000  1
  Hg  Hg5  1  0.006406  0.264904  0.000000  1
  Pd  Pd6  1  0.333333  0.666667  0.000000  1
  Pd  Pd7  1  0.000000  0.000000  0.500000  1
  Pt  Pt8  1  0.666667  0.333333  0.000000  1
