# generated using pymatgen
data_NaTb5PrPtI12
_symmetry_space_group_name_H-M   'P 1'
_cell_length_a   9.89116084
_cell_length_b   9.89897691
_cell_length_c   9.83619345
_cell_angle_alpha   106.71840009
_cell_angle_beta   107.11756911
_cell_angle_gamma   106.62435722
_symmetry_Int_Tables_number   1
_chemical_formula_structural   NaTb5PrPtI12
_chemical_formula_sum   'Na1 Tb5 Pr1 Pt1 I12'
_cell_volume   805.95689980
_cell_formula_units_Z   1
loop_
 _symmetry_equiv_pos_site_id
 _symmetry_equiv_pos_as_xyz
  1  'x, y, z'
loop_
 _atom_site_type_symbol
 _atom_site_label
 _atom_site_symmetry_multiplicity
 _atom_site_fract_x
 _atom_site_fract_y
 _atom_site_fract_z
 _atom_site_occupancy
  Na  Na0  1  0.499848  0.499901  0.499830  1
  Tb  Tb1  1  0.309379  0.102276  0.028868  1
  Tb  Tb2  1  0.028998  0.308770  0.100401  1
  Tb  Tb3  1  0.900750  0.972184  0.700548  1
  Tb  Tb4  1  0.690257  0.897783  0.970423  1
  Tb  Tb5  1  0.969982  0.690142  0.896343  1
  Pr  Pr6  1  0.100742  0.027512  0.305668  1
  Pt  Pt7  1  0.999009  0.998981  0.997845  1
  I  I8  1  0.074599  0.672647  0.220004  1
  I  I9  1  0.223239  0.075839  0.685104  1
  I  I10  1  0.680106  0.222147  0.074902  1
  I  I11  1  0.923827  0.318916  0.775182  1
  I  I12  1  0.768741  0.922082  0.319494  1
  I  I13  1  0.319825  0.777539  0.924625  1
  I  I14  1  0.459238  0.146260  0.372037  1
  I  I15  1  0.371200  0.449381  0.141999  1
  I  I16  1  0.143131  0.379482  0.451389  1
  I  I17  1  0.550729  0.857959  0.627962  1
  I  I18  1  0.628867  0.550428  0.857788  1
  I  I19  1  0.857533  0.629770  0.549588  1
