# generated using pymatgen
data_Nd8Cd3HgAu8
_symmetry_space_group_name_H-M   'P 1'
_cell_length_a   8.16542700
_cell_length_b   8.16542700
_cell_length_c   7.75851900
_cell_angle_alpha   90.00000000
_cell_angle_beta   90.00000000
_cell_angle_gamma   90.00000000
_symmetry_Int_Tables_number   1
_chemical_formula_structural   Nd8Cd3HgAu8
_chemical_formula_sum   'Nd8 Cd3 Hg1 Au8'
_cell_volume   517.29303271
_cell_formula_units_Z   1
loop_
 _symmetry_equiv_pos_site_id
 _symmetry_equiv_pos_as_xyz
  1  'x, y, z'
loop_
 _atom_site_type_symbol
 _atom_site_label
 _atom_site_symmetry_multiplicity
 _atom_site_fract_x
 _atom_site_fract_y
 _atom_site_fract_z
 _atom_site_occupancy
  Nd  Nd0  1  0.830881  0.172978  0.499411  1
  Nd  Nd1  1  0.169119  0.827022  0.499411  1
  Nd  Nd2  1  0.327022  0.330881  0.000589  1
  Nd  Nd3  1  0.672978  0.669119  0.000589  1
  Nd  Nd4  1  0.677115  0.671876  0.499526  1
  Nd  Nd5  1  0.322885  0.328124  0.499526  1
  Nd  Nd6  1  0.171876  0.822885  0.000474  1
  Nd  Nd7  1  0.828124  0.177115  0.000474  1
  Cd  Cd8  1  0.500000  0.000000  0.250000  1
  Cd  Cd9  1  0.000000  0.500000  0.750000  1
  Cd  Cd10  1  0.500000  0.000000  0.750000  1
  Hg  Hg11  1  0.000000  0.500000  0.250000  1
  Au  Au12  1  0.621972  0.369119  0.253866  1
  Au  Au13  1  0.378028  0.630881  0.253866  1
  Au  Au14  1  0.127787  0.125852  0.753734  1
  Au  Au15  1  0.872213  0.874148  0.753734  1
  Au  Au16  1  0.374148  0.627787  0.746266  1
  Au  Au17  1  0.625852  0.372213  0.746266  1
  Au  Au18  1  0.869119  0.878028  0.246134  1
  Au  Au19  1  0.130881  0.121972  0.246134  1
