# generated using pymatgen
data_Ca4SiAgPt4
_symmetry_space_group_name_H-M   'P 1'
_cell_length_a   5.70665589
_cell_length_b   5.70665193
_cell_length_c   7.99104100
_cell_angle_alpha   79.09799469
_cell_angle_beta   79.09806369
_cell_angle_gamma   60.41439249
_symmetry_Int_Tables_number   1
_chemical_formula_structural   Ca4SiAgPt4
_chemical_formula_sum   'Ca4 Si1 Ag1 Pt4'
_cell_volume   220.81989078
_cell_formula_units_Z   1
loop_
 _symmetry_equiv_pos_site_id
 _symmetry_equiv_pos_as_xyz
  1  'x, y, z'
loop_
 _atom_site_type_symbol
 _atom_site_label
 _atom_site_symmetry_multiplicity
 _atom_site_fract_x
 _atom_site_fract_y
 _atom_site_fract_z
 _atom_site_occupancy
  Ca  Ca0  1  0.509178  0.785314  0.351696  1
  Ca  Ca1  1  0.214687  0.490822  0.148305  1
  Ca  Ca2  1  0.486975  0.209879  0.650395  1
  Ca  Ca3  1  0.790120  0.513026  0.849604  1
  Si  Si4  1  0.894497  0.105504  0.250000  1
  Ag  Ag5  1  0.155023  0.844977  0.750000  1
  Pt  Pt6  1  0.258102  0.013230  0.017648  1
  Pt  Pt7  1  0.986769  0.741899  0.482352  1
  Pt  Pt8  1  0.726004  0.021354  0.026483  1
  Pt  Pt9  1  0.978646  0.273996  0.473517  1
