# generated using pymatgen
data_CeTh3(BeB10)2
_symmetry_space_group_name_H-M   'P 1'
_cell_length_a   4.16170500
_cell_length_b   5.59665709
_cell_length_c   11.06326502
_cell_angle_alpha   90.04653562
_cell_angle_beta   90.00000000
_cell_angle_gamma   90.00000000
_symmetry_Int_Tables_number   1
_chemical_formula_structural   CeTh3(BeB10)2
_chemical_formula_sum   'Ce1 Th3 Be2 B20'
_cell_volume   257.68145449
_cell_formula_units_Z   1
loop_
 _symmetry_equiv_pos_site_id
 _symmetry_equiv_pos_as_xyz
  1  'x, y, z'
loop_
 _atom_site_type_symbol
 _atom_site_label
 _atom_site_symmetry_multiplicity
 _atom_site_fract_x
 _atom_site_fract_y
 _atom_site_fract_z
 _atom_site_occupancy
  Ce  Ce0  1  0.500000  0.301527  0.865363  1
  Th  Th1  1  0.500000  0.697378  0.133294  1
  Th  Th2  1  0.500000  0.801919  0.636181  1
  Th  Th3  1  0.500000  0.197794  0.365458  1
  Be  Be4  1  0.000000  0.499914  0.500397  1
  Be  Be5  1  0.000000  0.002076  0.998701  1
  B  B6  1  0.000000  0.129115  0.538955  1
  B  B7  1  0.000000  0.870993  0.461511  1
  B  B8  1  0.000000  0.628492  0.960999  1
  B  B9  1  0.000000  0.371079  0.038318  1
  B  B10  1  0.000000  0.158805  0.697567  1
  B  B11  1  0.000000  0.841536  0.302977  1
  B  B12  1  0.299910  0.198874  0.110807  1
  B  B13  1  0.300002  0.800948  0.888632  1
  B  B14  1  0.700201  0.698533  0.388737  1
  B  B15  1  0.699981  0.301331  0.612027  1
  B  B16  1  0.699998  0.800948  0.888632  1
  B  B17  1  0.700090  0.198874  0.110807  1
  B  B18  1  0.300019  0.301331  0.612027  1
  B  B19  1  0.299799  0.698533  0.388737  1
  B  B20  1  0.000000  0.030289  0.185800  1
  B  B21  1  0.000000  0.970103  0.813859  1
  B  B22  1  0.000000  0.530250  0.313778  1
  B  B23  1  0.000000  0.469728  0.686473  1
  B  B24  1  0.000000  0.341325  0.196720  1
  B  B25  1  0.000000  0.658307  0.803245  1
