# generated using pymatgen
data_MgTa8RuS16
_symmetry_space_group_name_H-M   'P 1'
_cell_length_a   6.64763000
_cell_length_b   6.64757899
_cell_length_c   12.45691500
_cell_angle_alpha   89.99868991
_cell_angle_beta   90.00027581
_cell_angle_gamma   120.00045291
_symmetry_Int_Tables_number   1
_chemical_formula_structural   MgTa8RuS16
_chemical_formula_sum   'Mg1 Ta8 Ru1 S16'
_cell_volume   476.72672175
_cell_formula_units_Z   1
loop_
 _symmetry_equiv_pos_site_id
 _symmetry_equiv_pos_as_xyz
  1  'x, y, z'
loop_
 _atom_site_type_symbol
 _atom_site_label
 _atom_site_symmetry_multiplicity
 _atom_site_fract_x
 _atom_site_fract_y
 _atom_site_fract_z
 _atom_site_occupancy
  Mg  Mg0  1  0.000000  0.000000  0.500000  1
  Ta  Ta1  1  0.000006  0.999997  0.239703  1
  Ta  Ta2  1  0.999994  0.000003  0.760297  1
  Ta  Ta3  1  0.504918  0.009845  0.238099  1
  Ta  Ta4  1  0.990149  0.495076  0.238096  1
  Ta  Ta5  1  0.504925  0.495069  0.238100  1
  Ta  Ta6  1  0.495082  0.990155  0.761901  1
  Ta  Ta7  1  0.009851  0.504924  0.761904  1
  Ta  Ta8  1  0.495075  0.504931  0.761900  1
  Ru  Ru9  1  0.000000  0.000000  0.000000  1
  S  S10  1  0.333340  0.666661  0.890189  1
  S  S11  1  0.666660  0.333339  0.109811  1
  S  S12  1  0.666668  0.333321  0.367473  1
  S  S13  1  0.333332  0.666679  0.632527  1
  S  S14  1  0.168379  0.831613  0.364888  1
  S  S15  1  0.168380  0.336759  0.364889  1
  S  S16  1  0.663237  0.831614  0.364889  1
  S  S17  1  0.831621  0.168387  0.635112  1
  S  S18  1  0.831620  0.663241  0.635111  1
  S  S19  1  0.336763  0.168386  0.635111  1
  S  S20  1  0.833349  0.166647  0.885143  1
  S  S21  1  0.833354  0.666711  0.885140  1
  S  S22  1  0.333287  0.166644  0.885136  1
  S  S23  1  0.166651  0.833353  0.114857  1
  S  S24  1  0.166646  0.333289  0.114860  1
  S  S25  1  0.666713  0.833356  0.114864  1
