# generated using pymatgen
data_Y4Tc2B16MoW
_symmetry_space_group_name_H-M   'P 1'
_cell_length_a   6.01136555
_cell_length_b   11.62839642
_cell_length_c   3.61539500
_cell_angle_alpha   90.00000000
_cell_angle_beta   90.00000000
_cell_angle_gamma   89.90657671
_symmetry_Int_Tables_number   1
_chemical_formula_structural   Y4Tc2B16MoW
_chemical_formula_sum   'Y4 Tc2 B16 Mo1 W1'
_cell_volume   252.72496353
_cell_formula_units_Z   1
loop_
 _symmetry_equiv_pos_site_id
 _symmetry_equiv_pos_as_xyz
  1  'x, y, z'
loop_
 _atom_site_type_symbol
 _atom_site_label
 _atom_site_symmetry_multiplicity
 _atom_site_fract_x
 _atom_site_fract_y
 _atom_site_fract_z
 _atom_site_occupancy
  Y  Y0  1  0.627025  0.348301  0.000000  1
  Y  Y1  1  0.372640  0.651564  0.000000  1
  Y  Y2  1  0.127433  0.148718  0.000000  1
  Y  Y3  1  0.872515  0.851493  0.000000  1
  Tc  Tc4  1  0.634033  0.086318  0.000000  1
  Tc  Tc5  1  0.366180  0.913628  0.000000  1
  B  B6  1  0.784732  0.184064  0.500000  1
  B  B7  1  0.215341  0.816008  0.500000  1
  B  B8  1  0.288810  0.312942  0.500000  1
  B  B9  1  0.710730  0.687409  0.500000  1
  B  B10  1  0.863275  0.031021  0.500000  1
  B  B11  1  0.136722  0.969029  0.500000  1
  B  B12  1  0.366810  0.467375  0.500000  1
  B  B13  1  0.632704  0.532332  0.500000  1
  B  B14  1  0.885601  0.452435  0.500000  1
  B  B15  1  0.114952  0.547209  0.500000  1
  B  B16  1  0.387292  0.046905  0.500000  1
  B  B17  1  0.612716  0.953119  0.500000  1
  B  B18  1  0.975801  0.305600  0.500000  1
  B  B19  1  0.024760  0.694494  0.500000  1
  B  B20  1  0.477089  0.191032  0.500000  1
  B  B21  1  0.522715  0.809026  0.500000  1
  Mo  Mo22  1  0.129850  0.414851  0.000000  1
  W  W23  1  0.870273  0.585128  0.000000  1
