# generated using pymatgen
data_ThP12OsRu3
_symmetry_space_group_name_H-M   'P 1'
_cell_length_a   7.02076856
_cell_length_b   7.02076824
_cell_length_c   7.01796000
_cell_angle_alpha   109.46311819
_cell_angle_beta   109.46311725
_cell_angle_gamma   109.47931967
_symmetry_Int_Tables_number   1
_chemical_formula_structural   ThP12OsRu3
_chemical_formula_sum   'Th1 P12 Os1 Ru3'
_cell_volume   266.31873909
_cell_formula_units_Z   1
loop_
 _symmetry_equiv_pos_site_id
 _symmetry_equiv_pos_as_xyz
  1  'x, y, z'
loop_
 _atom_site_type_symbol
 _atom_site_label
 _atom_site_symmetry_multiplicity
 _atom_site_fract_x
 _atom_site_fract_y
 _atom_site_fract_z
 _atom_site_occupancy
  Th  Th0  1  0.000000  0.000000  0.000000  1
  P  P1  1  0.855639  0.643892  0.500458  1
  P  P2  1  0.144361  0.356108  0.499542  1
  P  P3  1  0.144141  0.644763  0.788961  1
  P  P4  1  0.855859  0.355237  0.211039  1
  P  P5  1  0.644763  0.500621  0.855801  1
  P  P6  1  0.355237  0.499379  0.144199  1
  P  P7  1  0.643892  0.788253  0.143434  1
  P  P8  1  0.356108  0.211747  0.856566  1
  P  P9  1  0.500621  0.855859  0.644820  1
  P  P10  1  0.499379  0.144141  0.355180  1
  P  P11  1  0.211747  0.855639  0.355181  1
  P  P12  1  0.788253  0.144361  0.644819  1
  Os  Os13  1  0.000000  0.000000  0.500000  1
  Ru  Ru14  1  0.500000  0.500000  0.500000  1
  Ru  Ru15  1  0.500000  0.000000  0.000000  1
  Ru  Ru16  1  0.000000  0.500000  0.000000  1
