# generated using pymatgen
data_Dy3Cu4(SiSn)2
_symmetry_space_group_name_H-M   'P 1'
_cell_length_a   8.19266960
_cell_length_b   8.19267054
_cell_length_c   8.19266857
_cell_angle_alpha   149.30218474
_cell_angle_beta   132.12100566
_cell_angle_gamma   57.95599817
_symmetry_Int_Tables_number   1
_chemical_formula_structural   Dy3Cu4(SiSn)2
_chemical_formula_sum   'Dy3 Cu4 Si2 Sn2'
_cell_volume   206.67008943
_cell_formula_units_Z   1
loop_
 _symmetry_equiv_pos_site_id
 _symmetry_equiv_pos_as_xyz
  1  'x, y, z'
loop_
 _atom_site_type_symbol
 _atom_site_label
 _atom_site_symmetry_multiplicity
 _atom_site_fract_x
 _atom_site_fract_y
 _atom_site_fract_z
 _atom_site_occupancy
  Dy  Dy0  1  0.500000  0.000000  0.500000  1
  Dy  Dy1  1  0.124268  0.124268  0.000000  1
  Dy  Dy2  1  0.875732  0.875732  0.000000  1
  Cu  Cu3  1  0.464313  0.653436  0.810876  1
  Cu  Cu4  1  0.842559  0.653436  0.189124  1
  Cu  Cu5  1  0.157441  0.346564  0.810876  1
  Cu  Cu6  1  0.535687  0.346564  0.189124  1
  Si  Si7  1  0.181001  0.500000  0.681001  1
  Si  Si8  1  0.818999  0.500000  0.318999  1
  Sn  Sn9  1  0.718339  0.218339  0.500000  1
  Sn  Sn10  1  0.281661  0.781661  0.500000  1
