# generated using pymatgen
data_TbDyTa3P7Rh9
_symmetry_space_group_name_H-M   'P 1'
_cell_length_a   3.92903800
_cell_length_b   9.64671536
_cell_length_c   9.64741602
_cell_angle_alpha   119.99864087
_cell_angle_beta   89.99908822
_cell_angle_gamma   90.00055177
_symmetry_Int_Tables_number   1
_chemical_formula_structural   TbDyTa3P7Rh9
_chemical_formula_sum   'Tb1 Dy1 Ta3 P7 Rh9'
_cell_volume   316.67463566
_cell_formula_units_Z   1
loop_
 _symmetry_equiv_pos_site_id
 _symmetry_equiv_pos_as_xyz
  1  'x, y, z'
loop_
 _atom_site_type_symbol
 _atom_site_label
 _atom_site_symmetry_multiplicity
 _atom_site_fract_x
 _atom_site_fract_y
 _atom_site_fract_z
 _atom_site_occupancy
  Tb  Tb0  1  0.261033  0.666675  0.333348  1
  Dy  Dy1  1  0.762298  0.333347  0.666663  1
  Ta  Ta2  1  0.762031  0.094934  0.872955  1
  Ta  Ta3  1  0.762002  0.127075  0.221991  1
  Ta  Ta4  1  0.762033  0.777992  0.905065  1
  P  P5  1  0.262112  0.999976  0.999993  1
  P  P6  1  0.761605  0.877334  0.589007  1
  P  P7  1  0.761573  0.410972  0.288311  1
  P  P8  1  0.761602  0.711688  0.122687  1
  P  P9  1  0.262031  0.117370  0.416049  1
  P  P10  1  0.262022  0.583982  0.701312  1
  P  P11  1  0.262005  0.298652  0.882627  1
  Rh  Rh12  1  0.261842  0.885333  0.161044  1
  Rh  Rh13  1  0.261832  0.838943  0.724246  1
  Rh  Rh14  1  0.261805  0.275684  0.114632  1
  Rh  Rh15  1  0.761880  0.611833  0.558013  1
  Rh  Rh16  1  0.761872  0.441982  0.053786  1
  Rh  Rh17  1  0.761904  0.946245  0.388268  1
  Rh  Rh18  1  0.262142  0.367596  0.438649  1
  Rh  Rh19  1  0.262180  0.561350  0.928926  1
  Rh  Rh20  1  0.262198  0.071039  0.632426  1
