# generated using pymatgen
data_Ho2ErPaPt4
_symmetry_space_group_name_H-M   'P 1'
_cell_length_a   4.53241000
_cell_length_b   5.57789338
_cell_length_c   6.94554832
_cell_angle_alpha   89.18957558
_cell_angle_beta   90.00000000
_cell_angle_gamma   90.00000000
_symmetry_Int_Tables_number   1
_chemical_formula_structural   Ho2ErPaPt4
_chemical_formula_sum   'Ho2 Er1 Pa1 Pt4'
_cell_volume   175.57492391
_cell_formula_units_Z   1
loop_
 _symmetry_equiv_pos_site_id
 _symmetry_equiv_pos_as_xyz
  1  'x, y, z'
loop_
 _atom_site_type_symbol
 _atom_site_label
 _atom_site_symmetry_multiplicity
 _atom_site_fract_x
 _atom_site_fract_y
 _atom_site_fract_z
 _atom_site_occupancy
  Ho  Ho0  1  0.750000  0.355364  0.815239  1
  Ho  Ho1  1  0.250000  0.858741  0.683581  1
  Er  Er2  1  0.750000  0.144081  0.320544  1
  Pa  Pa3  1  0.250000  0.643545  0.182714  1
  Pt  Pt4  1  0.250000  0.161355  0.050775  1
  Pt  Pt5  1  0.750000  0.832842  0.962329  1
  Pt  Pt6  1  0.750000  0.657764  0.446926  1
  Pt  Pt7  1  0.250000  0.346310  0.537893  1
