# generated using pymatgen
data_TbHf2Al7Cu2
_symmetry_space_group_name_H-M   'P 1'
_cell_length_a   8.87757520
_cell_length_b   8.87757473
_cell_length_c   8.87757500
_cell_angle_alpha   34.68247509
_cell_angle_beta   34.68247799
_cell_angle_gamma   34.68247195
_symmetry_Int_Tables_number   1
_chemical_formula_structural   TbHf2Al7Cu2
_chemical_formula_sum   'Tb1 Hf2 Al7 Cu2'
_cell_volume   202.16647698
_cell_formula_units_Z   1
loop_
 _symmetry_equiv_pos_site_id
 _symmetry_equiv_pos_as_xyz
  1  'x, y, z'
loop_
 _atom_site_type_symbol
 _atom_site_label
 _atom_site_symmetry_multiplicity
 _atom_site_fract_x
 _atom_site_fract_y
 _atom_site_fract_z
 _atom_site_occupancy
  Tb  Tb0  1  0.000000  0.000000  0.000000  1
  Hf  Hf1  1  0.855309  0.855309  0.855309  1
  Hf  Hf2  1  0.144691  0.144691  0.144691  1
  Al  Al3  1  0.415056  0.415056  0.923818  1
  Al  Al4  1  0.923818  0.415056  0.415056  1
  Al  Al5  1  0.415056  0.923818  0.415056  1
  Al  Al6  1  0.500000  0.500000  0.500000  1
  Al  Al7  1  0.584944  0.076182  0.584944  1
  Al  Al8  1  0.076182  0.584944  0.584944  1
  Al  Al9  1  0.584944  0.584944  0.076182  1
  Cu  Cu10  1  0.665561  0.665561  0.665561  1
  Cu  Cu11  1  0.334439  0.334439  0.334439  1
