# generated using pymatgen
data_Dy2Y2Cd2Si3Ge
_symmetry_space_group_name_H-M   'P 1'
_cell_length_a   7.19782842
_cell_length_b   7.19782881
_cell_length_c   4.21649700
_cell_angle_alpha   90.00000000
_cell_angle_beta   90.00000000
_cell_angle_gamma   90.08017468
_symmetry_Int_Tables_number   1
_chemical_formula_structural   Dy2Y2Cd2Si3Ge
_chemical_formula_sum   'Dy2 Y2 Cd2 Si3 Ge1'
_cell_volume   218.45116942
_cell_formula_units_Z   1
loop_
 _symmetry_equiv_pos_site_id
 _symmetry_equiv_pos_as_xyz
  1  'x, y, z'
loop_
 _atom_site_type_symbol
 _atom_site_label
 _atom_site_symmetry_multiplicity
 _atom_site_fract_x
 _atom_site_fract_y
 _atom_site_fract_z
 _atom_site_occupancy
  Dy  Dy0  1  0.175987  0.324013  0.500000  1
  Dy  Dy1  1  0.822676  0.677324  0.500000  1
  Y  Y2  1  0.680051  0.177738  0.500000  1
  Y  Y3  1  0.322262  0.819949  0.500000  1
  Cd  Cd4  1  0.501092  0.502703  0.000000  1
  Cd  Cd5  1  0.997297  0.998908  0.000000  1
  Si  Si6  1  0.116987  0.617084  0.000000  1
  Si  Si7  1  0.882916  0.383013  0.000000  1
  Si  Si8  1  0.620266  0.879734  0.000000  1
  Ge  Ge9  1  0.380469  0.119531  0.000000  1
