# generated using pymatgen
data_Y2TmMg3Sn2Ir
_symmetry_space_group_name_H-M   'P 1'
_cell_length_a   7.42081442
_cell_length_b   7.42081370
_cell_length_c   4.47770300
_cell_angle_alpha   90.00000000
_cell_angle_beta   90.00000000
_cell_angle_gamma   119.96141561
_symmetry_Int_Tables_number   1
_chemical_formula_structural   Y2TmMg3Sn2Ir
_chemical_formula_sum   'Y2 Tm1 Mg3 Sn2 Ir1'
_cell_volume   213.62778567
_cell_formula_units_Z   1
loop_
 _symmetry_equiv_pos_site_id
 _symmetry_equiv_pos_as_xyz
  1  'x, y, z'
loop_
 _atom_site_type_symbol
 _atom_site_label
 _atom_site_symmetry_multiplicity
 _atom_site_fract_x
 _atom_site_fract_y
 _atom_site_fract_z
 _atom_site_occupancy
  Y  Y0  1  0.605515  0.000044  0.000000  1
  Y  Y1  1  0.000044  0.605515  0.000000  1
  Tm  Tm2  1  0.391476  0.391476  0.000000  1
  Mg  Mg3  1  0.229367  0.000505  0.500000  1
  Mg  Mg4  1  0.000505  0.229367  0.500000  1
  Mg  Mg5  1  0.770848  0.770848  0.500000  1
  Sn  Sn6  1  0.333814  0.665131  0.500000  1
  Sn  Sn7  1  0.665131  0.333814  0.500000  1
  Ir  Ir8  1  0.003300  0.003300  0.000000  1
