# generated using pymatgen
data_Tb3Gd2CoSb2
_symmetry_space_group_name_H-M   'P 1'
_cell_length_a   7.97002200
_cell_length_b   8.74440400
_cell_length_c   12.23184000
_cell_angle_alpha   90.00000000
_cell_angle_beta   90.00000000
_cell_angle_gamma   90.00000000
_symmetry_Int_Tables_number   1
_chemical_formula_structural   Tb3Gd2CoSb2
_chemical_formula_sum   'Tb12 Gd8 Co4 Sb8'
_cell_volume   852.47475359
_cell_formula_units_Z   4
loop_
 _symmetry_equiv_pos_site_id
 _symmetry_equiv_pos_as_xyz
  1  'x, y, z'
loop_
 _atom_site_type_symbol
 _atom_site_label
 _atom_site_symmetry_multiplicity
 _atom_site_fract_x
 _atom_site_fract_y
 _atom_site_fract_z
 _atom_site_occupancy
  Tb  Tb0  1  0.622319  0.750000  0.305414  1
  Tb  Tb1  1  0.122319  0.250000  0.194586  1
  Tb  Tb2  1  0.377681  0.250000  0.694586  1
  Tb  Tb3  1  0.877681  0.750000  0.805414  1
  Tb  Tb4  1  0.821531  0.964703  0.065458  1
  Tb  Tb5  1  0.321531  0.035297  0.434542  1
  Tb  Tb6  1  0.178469  0.464703  0.934542  1
  Tb  Tb7  1  0.678469  0.535297  0.565458  1
  Tb  Tb8  1  0.178469  0.035297  0.934542  1
  Tb  Tb9  1  0.678469  0.964703  0.565458  1
  Tb  Tb10  1  0.821531  0.535297  0.065458  1
  Tb  Tb11  1  0.321531  0.464703  0.434542  1
  Gd  Gd12  1  0.155056  0.750000  0.203811  1
  Gd  Gd13  1  0.655056  0.250000  0.296189  1
  Gd  Gd14  1  0.844944  0.250000  0.796189  1
  Gd  Gd15  1  0.344944  0.750000  0.703811  1
  Gd  Gd16  1  0.455386  0.750000  0.998159  1
  Gd  Gd17  1  0.955386  0.250000  0.501841  1
  Gd  Gd18  1  0.544614  0.250000  0.001841  1
  Gd  Gd19  1  0.044614  0.750000  0.498159  1
  Co  Co20  1  0.435255  0.750000  0.490289  1
  Co  Co21  1  0.935255  0.250000  0.009711  1
  Co  Co22  1  0.564745  0.250000  0.509711  1
  Co  Co23  1  0.064745  0.750000  0.990289  1
  Sb  Sb24  1  0.927458  0.991708  0.326619  1
  Sb  Sb25  1  0.427458  0.008292  0.173381  1
  Sb  Sb26  1  0.072542  0.491708  0.673381  1
  Sb  Sb27  1  0.572542  0.508292  0.826619  1
  Sb  Sb28  1  0.072542  0.008292  0.673381  1
  Sb  Sb29  1  0.572542  0.991708  0.826619  1
  Sb  Sb30  1  0.927458  0.508292  0.326619  1
  Sb  Sb31  1  0.427458  0.491708  0.173381  1
