# generated using pymatgen
data_Tm8MgZnPd23
_symmetry_space_group_name_H-M   'P 1'
_cell_length_a   8.20095000
_cell_length_b   8.35745900
_cell_length_c   8.38138400
_cell_angle_alpha   90.00000000
_cell_angle_beta   90.00000000
_cell_angle_gamma   90.00000000
_symmetry_Int_Tables_number   1
_chemical_formula_structural   Tm8MgZnPd23
_chemical_formula_sum   'Tm8 Mg1 Zn1 Pd23'
_cell_volume   574.45254449
_cell_formula_units_Z   1
loop_
 _symmetry_equiv_pos_site_id
 _symmetry_equiv_pos_as_xyz
  1  'x, y, z'
loop_
 _atom_site_type_symbol
 _atom_site_label
 _atom_site_symmetry_multiplicity
 _atom_site_fract_x
 _atom_site_fract_y
 _atom_site_fract_z
 _atom_site_occupancy
  Tm  Tm0  1  0.249651  0.240419  0.262526  1
  Tm  Tm1  1  0.748339  0.747192  0.750765  1
  Tm  Tm2  1  0.748339  0.747192  0.249235  1
  Tm  Tm3  1  0.748339  0.252808  0.750765  1
  Tm  Tm4  1  0.249651  0.240419  0.737474  1
  Tm  Tm5  1  0.249651  0.759581  0.262526  1
  Tm  Tm6  1  0.249651  0.759581  0.737474  1
  Tm  Tm7  1  0.748339  0.252808  0.249235  1
  Mg  Mg8  1  0.273578  0.500000  0.000000  1
  Zn  Zn9  1  0.998901  0.000000  0.000000  1
  Pd  Pd10  1  0.739830  0.500000  0.000000  1
  Pd  Pd11  1  0.995593  0.260866  0.500000  1
  Pd  Pd12  1  0.493532  0.261825  0.000000  1
  Pd  Pd13  1  0.995593  0.739134  0.500000  1
  Pd  Pd14  1  0.493532  0.738175  0.000000  1
  Pd  Pd15  1  0.501797  0.000000  0.260698  1
  Pd  Pd16  1  0.260819  0.000000  0.500000  1
  Pd  Pd17  1  0.501797  0.000000  0.739302  1
  Pd  Pd18  1  0.737145  0.000000  0.500000  1
  Pd  Pd19  1  0.005550  0.500000  0.260443  1
  Pd  Pd20  1  0.005550  0.500000  0.739557  1
  Pd  Pd21  1  0.252486  0.500000  0.500000  1
  Pd  Pd22  1  0.747020  0.500000  0.500000  1
  Pd  Pd23  1  0.502502  0.254199  0.500000  1
  Pd  Pd24  1  0.502502  0.745801  0.500000  1
  Pd  Pd25  1  0.493601  0.500000  0.253835  1
  Pd  Pd26  1  0.493601  0.500000  0.746165  1
  Pd  Pd27  1  0.294046  0.000000  0.000000  1
  Pd  Pd28  1  0.703487  0.000000  0.000000  1
  Pd  Pd29  1  0.012087  0.296097  0.000000  1
  Pd  Pd30  1  0.012087  0.703903  0.000000  1
  Pd  Pd31  1  0.995700  0.000000  0.292980  1
  Pd  Pd32  1  0.995700  0.000000  0.707020  1
