# generated using pymatgen
data_TbMg2Si(PPd4)5
_symmetry_space_group_name_H-M   'P 1'
_cell_length_a   8.61976571
_cell_length_b   8.61990512
_cell_length_c   8.61990441
_cell_angle_alpha   60.03380647
_cell_angle_beta   60.00053224
_cell_angle_gamma   60.00053085
_symmetry_Int_Tables_number   1
_chemical_formula_structural   TbMg2Si(PPd4)5
_chemical_formula_sum   'Tb1 Mg2 Si1 P5 Pd20'
_cell_volume   453.00159021
_cell_formula_units_Z   1
loop_
 _symmetry_equiv_pos_site_id
 _symmetry_equiv_pos_as_xyz
  1  'x, y, z'
loop_
 _atom_site_type_symbol
 _atom_site_label
 _atom_site_symmetry_multiplicity
 _atom_site_fract_x
 _atom_site_fract_y
 _atom_site_fract_z
 _atom_site_occupancy
  Tb  Tb0  1  0.750711  0.749289  0.749289  1
  Mg  Mg1  1  0.250825  0.249175  0.249175  1
  Mg  Mg2  1  0.998107  0.001893  0.001893  1
  Si  Si3  1  0.735177  0.264823  0.264823  1
  P  P4  1  0.263950  0.736050  0.736050  1
  P  P5  1  0.265631  0.734176  0.263804  1
  P  P6  1  0.736389  0.263804  0.734176  1
  P  P7  1  0.265631  0.263804  0.734176  1
  P  P8  1  0.736389  0.734176  0.263804  1
  Pd  Pd9  1  0.379926  0.381197  0.381197  1
  Pd  Pd10  1  0.613572  0.613151  0.613151  1
  Pd  Pd11  1  0.381149  0.381607  0.856094  1
  Pd  Pd12  1  0.381149  0.856094  0.381607  1
  Pd  Pd13  1  0.613096  0.615906  0.157903  1
  Pd  Pd14  1  0.613096  0.157903  0.615906  1
  Pd  Pd15  1  0.857679  0.381197  0.381197  1
  Pd  Pd16  1  0.160127  0.613151  0.613151  1
  Pd  Pd17  1  0.342600  0.000102  0.000102  1
  Pd  Pd18  1  0.657196  0.000102  0.000102  1
  Pd  Pd19  1  0.997875  0.345214  0.659035  1
  Pd  Pd20  1  0.997875  0.659035  0.345214  1
  Pd  Pd21  1  0.001029  0.345076  0.997099  1
  Pd  Pd22  1  0.656796  0.997099  0.345076  1
  Pd  Pd23  1  0.999070  0.657501  0.999399  1
  Pd  Pd24  1  0.344030  0.999399  0.657501  1
  Pd  Pd25  1  0.001029  0.997099  0.345076  1
  Pd  Pd26  1  0.999070  0.999399  0.657501  1
  Pd  Pd27  1  0.656796  0.345076  0.997099  1
  Pd  Pd28  1  0.344030  0.657501  0.999399  1
