# generated using pymatgen
data_CeDy(SiIr2)2
_symmetry_space_group_name_H-M   'P 1'
_cell_length_a   9.09532656
_cell_length_b   9.09532663
_cell_length_c   4.08799800
_cell_angle_alpha   90.00000000
_cell_angle_beta   90.00000000
_cell_angle_gamma   154.35072941
_symmetry_Int_Tables_number   1
_chemical_formula_structural   CeDy(SiIr2)2
_chemical_formula_sum   'Ce1 Dy1 Si2 Ir4'
_cell_volume   146.38475003
_cell_formula_units_Z   1
loop_
 _symmetry_equiv_pos_site_id
 _symmetry_equiv_pos_as_xyz
  1  'x, y, z'
loop_
 _atom_site_type_symbol
 _atom_site_label
 _atom_site_symmetry_multiplicity
 _atom_site_fract_x
 _atom_site_fract_y
 _atom_site_fract_z
 _atom_site_occupancy
  Ce  Ce0  1  0.902160  0.097840  0.250000  1
  Dy  Dy1  1  0.102182  0.897818  0.750000  1
  Si  Si2  1  0.322040  0.677960  0.750000  1
  Si  Si3  1  0.675957  0.324043  0.250000  1
  Ir  Ir4  1  0.544092  0.455908  0.250000  1
  Ir  Ir5  1  0.455328  0.544672  0.750000  1
  Ir  Ir6  1  0.248827  0.751173  0.250000  1
  Ir  Ir7  1  0.749417  0.250583  0.750000  1
