# generated using pymatgen
data_Yb3(SiP2)2
_symmetry_space_group_name_H-M   'P 1'
_cell_length_a   17.14766400
_cell_length_b   6.92037322
_cell_length_c   7.05828471
_cell_angle_alpha   68.30027297
_cell_angle_beta   90.00000000
_cell_angle_gamma   90.00000000
_symmetry_Int_Tables_number   1
_chemical_formula_structural   Yb3(SiP2)2
_chemical_formula_sum   'Yb12 Si8 P16'
_cell_volume   778.23751654
_cell_formula_units_Z   4
loop_
 _symmetry_equiv_pos_site_id
 _symmetry_equiv_pos_as_xyz
  1  'x, y, z'
loop_
 _atom_site_type_symbol
 _atom_site_label
 _atom_site_symmetry_multiplicity
 _atom_site_fract_x
 _atom_site_fract_y
 _atom_site_fract_z
 _atom_site_occupancy
  Yb  Yb0  1  0.316282  0.488960  0.220035  1
  Yb  Yb1  1  0.816282  0.011040  0.779965  1
  Yb  Yb2  1  0.683718  0.511040  0.779965  1
  Yb  Yb3  1  0.183718  0.988960  0.220035  1
  Yb  Yb4  1  0.062227  0.488854  0.255260  1
  Yb  Yb5  1  0.562227  0.011146  0.744740  1
  Yb  Yb6  1  0.937773  0.511146  0.744740  1
  Yb  Yb7  1  0.437773  0.988854  0.255260  1
  Yb  Yb8  1  0.558439  0.496837  0.260247  1
  Yb  Yb9  1  0.058439  0.003163  0.739753  1
  Yb  Yb10  1  0.441561  0.503163  0.739753  1
  Yb  Yb11  1  0.941561  0.996837  0.260247  1
  Si  Si12  1  0.872766  0.470550  0.209577  1
  Si  Si13  1  0.372766  0.029450  0.790423  1
  Si  Si14  1  0.127234  0.529450  0.790423  1
  Si  Si15  1  0.627234  0.970550  0.209577  1
  Si  Si16  1  0.741887  0.085844  0.313701  1
  Si  Si17  1  0.241887  0.414156  0.686299  1
  Si  Si18  1  0.258113  0.914156  0.686299  1
  Si  Si19  1  0.758113  0.585844  0.313701  1
  P  P20  1  0.560202  0.246198  0.007707  1
  P  P21  1  0.060202  0.253802  0.992293  1
  P  P22  1  0.439798  0.753802  0.992293  1
  P  P23  1  0.939798  0.746198  0.007707  1
  P  P24  1  0.814647  0.278028  0.038755  1
  P  P25  1  0.314647  0.221972  0.961245  1
  P  P26  1  0.185353  0.721972  0.961245  1
  P  P27  1  0.685353  0.778028  0.038755  1
  P  P28  1  0.932821  0.259860  0.493599  1
  P  P29  1  0.432821  0.240140  0.506401  1
  P  P30  1  0.067179  0.740140  0.506401  1
  P  P31  1  0.567179  0.759860  0.493599  1
  P  P32  1  0.698274  0.276241  0.499567  1
  P  P33  1  0.198274  0.223759  0.500433  1
  P  P34  1  0.301726  0.723759  0.500433  1
  P  P35  1  0.801726  0.776241  0.499567  1
