# generated using pymatgen
data_Dy5P12Ir9Ru10
_symmetry_space_group_name_H-M   'P 1'
_cell_length_a   12.61040845
_cell_length_b   12.57373903
_cell_length_c   3.96464500
_cell_angle_alpha   90.00000000
_cell_angle_beta   90.00000000
_cell_angle_gamma   119.83602953
_symmetry_Int_Tables_number   1
_chemical_formula_structural   Dy5P12Ir9Ru10
_chemical_formula_sum   'Dy5 P12 Ir9 Ru10'
_cell_volume   545.31034757
_cell_formula_units_Z   1
loop_
 _symmetry_equiv_pos_site_id
 _symmetry_equiv_pos_as_xyz
  1  'x, y, z'
loop_
 _atom_site_type_symbol
 _atom_site_label
 _atom_site_symmetry_multiplicity
 _atom_site_fract_x
 _atom_site_fract_y
 _atom_site_fract_z
 _atom_site_occupancy
  Dy  Dy0  1  0.667557  0.332493  0.000000  1
  Dy  Dy1  1  0.333333  0.666612  0.000000  1
  Dy  Dy2  1  0.812540  0.001018  0.500000  1
  Dy  Dy3  1  0.185496  0.187521  0.500000  1
  Dy  Dy4  1  0.000158  0.813581  0.500000  1
  P  P5  1  0.631534  0.997601  0.000000  1
  P  P6  1  0.364954  0.371049  0.000000  1
  P  P7  1  0.006202  0.635059  0.000000  1
  P  P8  1  0.689631  0.519396  0.500000  1
  P  P9  1  0.829635  0.306584  0.500000  1
  P  P10  1  0.312982  0.830120  0.500000  1
  P  P11  1  0.517128  0.686875  0.500000  1
  P  P12  1  0.181194  0.001514  0.000000  1
  P  P13  1  0.818709  0.818860  0.000000  1
  P  P14  1  0.996428  0.181462  0.000000  1
  P  P15  1  0.480040  0.168044  0.500000  1
  P  P16  1  0.170142  0.483260  0.500000  1
  Ir  Ir17  1  0.623923  0.804043  0.000000  1
  Ir  Ir18  1  0.180735  0.376448  0.000000  1
  Ir  Ir19  1  0.374718  0.184681  0.000000  1
  Ir  Ir20  1  0.195788  0.820898  0.000000  1
  Ir  Ir21  1  0.809883  0.625131  0.000000  1
  Ir  Ir22  1  0.868758  0.505217  0.500000  1
  Ir  Ir23  1  0.493866  0.361478  0.500000  1
  Ir  Ir24  1  0.636469  0.128029  0.500000  1
  Ir  Ir25  1  0.999459  0.000160  0.000000  1
  Ru  Ru26  1  0.127257  0.639866  0.500000  1
  Ru  Ru27  1  0.361607  0.488232  0.500000  1
  Ru  Ru28  1  0.510540  0.870941  0.500000  1
  Ru  Ru29  1  0.714786  0.713250  0.500000  1
  Ru  Ru30  1  0.000864  0.286337  0.500000  1
  Ru  Ru31  1  0.450663  0.001402  0.000000  1
  Ru  Ru32  1  0.551455  0.547330  0.000000  1
  Ru  Ru33  1  0.998907  0.450059  0.000000  1
  Ru  Ru34  1  0.816384  0.193676  0.000000  1
  Ru  Ru35  1  0.286274  0.001773  0.500000  1
