# generated using pymatgen
data_NaUCuSe3
_symmetry_space_group_name_H-M   'P 1'
_cell_length_a   7.09828988
_cell_length_b   7.09828956
_cell_length_c   10.65681400
_cell_angle_alpha   90.00000000
_cell_angle_beta   90.00000000
_cell_angle_gamma   146.92542472
_symmetry_Int_Tables_number   1
_chemical_formula_structural   NaUCuSe3
_chemical_formula_sum   'Na2 U2 Cu2 Se6'
_cell_volume   293.03047901
_cell_formula_units_Z   2
loop_
 _symmetry_equiv_pos_site_id
 _symmetry_equiv_pos_as_xyz
  1  'x, y, z'
loop_
 _atom_site_type_symbol
 _atom_site_label
 _atom_site_symmetry_multiplicity
 _atom_site_fract_x
 _atom_site_fract_y
 _atom_site_fract_z
 _atom_site_occupancy
  Na  Na0  1  0.246868  0.753132  0.750000  1
  Na  Na1  1  0.753132  0.246868  0.250000  1
  U  U2  1  0.000000  0.000000  0.500000  1
  U  U3  1  0.000000  0.000000  0.000000  1
  Cu  Cu4  1  0.529121  0.470879  0.750000  1
  Cu  Cu5  1  0.470879  0.529121  0.250000  1
  Se  Se6  1  0.077619  0.922381  0.250000  1
  Se  Se7  1  0.636725  0.363275  0.931087  1
  Se  Se8  1  0.922381  0.077619  0.750000  1
  Se  Se9  1  0.636725  0.363275  0.568913  1
  Se  Se10  1  0.363275  0.636725  0.068913  1
  Se  Se11  1  0.363275  0.636725  0.431087  1
