# generated using pymatgen
data_Sc5(In2Ir)2
_symmetry_space_group_name_H-M   'P 1'
_cell_length_a   17.59227800
_cell_length_b   7.67976800
_cell_length_c   3.35263200
_cell_angle_alpha   90.00000000
_cell_angle_beta   90.00000000
_cell_angle_gamma   90.00000000
_symmetry_Int_Tables_number   1
_chemical_formula_structural   Sc5(In2Ir)2
_chemical_formula_sum   'Sc10 In8 Ir4'
_cell_volume   452.95605101
_cell_formula_units_Z   2
loop_
 _symmetry_equiv_pos_site_id
 _symmetry_equiv_pos_as_xyz
  1  'x, y, z'
loop_
 _atom_site_type_symbol
 _atom_site_label
 _atom_site_symmetry_multiplicity
 _atom_site_fract_x
 _atom_site_fract_y
 _atom_site_fract_z
 _atom_site_occupancy
  Sc  Sc0  1  0.000000  0.000000  0.000000  1
  Sc  Sc1  1  0.415106  0.124761  0.000000  1
  Sc  Sc2  1  0.720969  0.245680  0.000000  1
  Sc  Sc3  1  0.220969  0.254319  0.000000  1
  Sc  Sc4  1  0.915106  0.375239  0.000000  1
  Sc  Sc5  1  0.500000  0.499999  0.000000  1
  Sc  Sc6  1  0.084894  0.624761  0.000000  1
  Sc  Sc7  1  0.779031  0.745681  0.000000  1
  Sc  Sc8  1  0.279031  0.754320  0.000000  1
  Sc  Sc9  1  0.584895  0.875240  0.000000  1
  In  In10  1  0.851385  0.068800  0.500001  1
  In  In11  1  0.566197  0.203954  0.500001  1
  In  In12  1  0.066197  0.296047  0.500001  1
  In  In13  1  0.351385  0.431199  0.500001  1
  In  In14  1  0.648615  0.568800  0.500001  1
  In  In15  1  0.933803  0.703954  0.500001  1
  In  In16  1  0.433803  0.796046  0.500001  1
  In  In17  1  0.148615  0.931200  0.500001  1
  Ir  Ir18  1  0.305204  0.037263  0.500001  1
  Ir  Ir19  1  0.805204  0.462738  0.500001  1
  Ir  Ir20  1  0.194796  0.537262  0.500001  1
  Ir  Ir21  1  0.694796  0.962737  0.500001  1
