# generated using pymatgen
data_TbSmGa6(NiHg)2
_symmetry_space_group_name_H-M   'P 1'
_cell_length_a   4.21054169
_cell_length_b   6.59066900
_cell_length_c   8.16227520
_cell_angle_alpha   90.00000000
_cell_angle_beta   104.94711335
_cell_angle_gamma   90.00000000
_symmetry_Int_Tables_number   1
_chemical_formula_structural   TbSmGa6(NiHg)2
_chemical_formula_sum   'Tb1 Sm1 Ga6 Ni2 Hg2'
_cell_volume   218.84150839
_cell_formula_units_Z   1
loop_
 _symmetry_equiv_pos_site_id
 _symmetry_equiv_pos_as_xyz
  1  'x, y, z'
loop_
 _atom_site_type_symbol
 _atom_site_label
 _atom_site_symmetry_multiplicity
 _atom_site_fract_x
 _atom_site_fract_y
 _atom_site_fract_z
 _atom_site_occupancy
  Tb  Tb0  1  0.124733  0.250000  0.249466  1
  Sm  Sm1  1  0.875556  0.750000  0.751111  1
  Ga  Ga2  1  0.073657  0.750000  0.147315  1
  Ga  Ga3  1  0.926634  0.250000  0.853268  1
  Ga  Ga4  1  0.688463  0.550398  0.376925  1
  Ga  Ga5  1  0.310588  0.448323  0.621175  1
  Ga  Ga6  1  0.688463  0.949602  0.376925  1
  Ga  Ga7  1  0.310588  0.051677  0.621175  1
  Ni  Ni8  1  0.221849  0.750000  0.443697  1
  Ni  Ni9  1  0.777757  0.250000  0.555514  1
  Hg  Hg10  1  0.500857  0.498667  0.001714  1
  Hg  Hg11  1  0.500857  0.001333  0.001714  1
