# generated using pymatgen
data_Zr4TlInCl18
_symmetry_space_group_name_H-M   'P 1'
_cell_length_a   7.21724000
_cell_length_b   9.98674512
_cell_length_c   12.24783900
_cell_angle_alpha   63.26962218
_cell_angle_beta   90.00000000
_cell_angle_gamma   90.00000000
_symmetry_Int_Tables_number   1
_chemical_formula_structural   Zr4TlInCl18
_chemical_formula_sum   'Zr4 Tl1 In1 Cl18'
_cell_volume   788.44378945
_cell_formula_units_Z   1
loop_
 _symmetry_equiv_pos_site_id
 _symmetry_equiv_pos_as_xyz
  1  'x, y, z'
loop_
 _atom_site_type_symbol
 _atom_site_label
 _atom_site_symmetry_multiplicity
 _atom_site_fract_x
 _atom_site_fract_y
 _atom_site_fract_z
 _atom_site_occupancy
  Zr  Zr0  1  0.283085  0.811963  0.868904  1
  Zr  Zr1  1  0.719650  0.183560  0.122950  1
  Zr  Zr2  1  0.283085  0.188037  0.631096  1
  Zr  Zr3  1  0.719650  0.816440  0.377050  1
  Tl  Tl4  1  0.475451  0.500000  0.250000  1
  In  In5  1  0.509173  0.500000  0.750000  1
  Cl  Cl6  1  0.143433  0.740837  0.063248  1
  Cl  Cl7  1  0.846979  0.233610  0.929877  1
  Cl  Cl8  1  0.143433  0.259163  0.436752  1
  Cl  Cl9  1  0.846979  0.766390  0.570123  1
  Cl  Cl10  1  0.154765  0.620346  0.823868  1
  Cl  Cl11  1  0.856796  0.381542  0.154684  1
  Cl  Cl12  1  0.154765  0.379654  0.676132  1
  Cl  Cl13  1  0.856796  0.618458  0.345316  1
  Cl  Cl14  1  0.019304  0.000000  0.750000  1
  Cl  Cl15  1  0.982084  0.000000  0.250000  1
  Cl  Cl16  1  0.414416  0.060087  0.856036  1
  Cl  Cl17  1  0.584016  0.926531  0.153453  1
  Cl  Cl18  1  0.414416  0.939913  0.643964  1
  Cl  Cl19  1  0.584016  0.073469  0.346547  1
  Cl  Cl20  1  0.580439  0.696145  0.936840  1
  Cl  Cl21  1  0.423414  0.302448  0.050739  1
  Cl  Cl22  1  0.580439  0.303855  0.563160  1
  Cl  Cl23  1  0.423414  0.697552  0.449261  1
