# generated using pymatgen
data_Nb12Al9Co2NiC4
_symmetry_space_group_name_H-M   'P 1'
_cell_length_a   8.29103497
_cell_length_b   8.30151399
_cell_length_c   8.30151202
_cell_angle_alpha   59.94539835
_cell_angle_beta   59.89600360
_cell_angle_gamma   59.89600944
_symmetry_Int_Tables_number   1
_chemical_formula_structural   Nb12Al9Co2NiC4
_chemical_formula_sum   'Nb12 Al9 Co2 Ni1 C4'
_cell_volume   403.22258005
_cell_formula_units_Z   1
loop_
 _symmetry_equiv_pos_site_id
 _symmetry_equiv_pos_as_xyz
  1  'x, y, z'
loop_
 _atom_site_type_symbol
 _atom_site_label
 _atom_site_symmetry_multiplicity
 _atom_site_fract_x
 _atom_site_fract_y
 _atom_site_fract_z
 _atom_site_occupancy
  Nb  Nb0  1  0.687308  0.313587  0.685076  1
  Nb  Nb1  1  0.937646  0.562966  0.562966  1
  Nb  Nb2  1  0.559048  0.937494  0.937494  1
  Nb  Nb3  1  0.938718  0.559670  0.938227  1
  Nb  Nb4  1  0.562692  0.564924  0.936413  1
  Nb  Nb5  1  0.938718  0.938227  0.559670  1
  Nb  Nb6  1  0.687308  0.685076  0.313587  1
  Nb  Nb7  1  0.312354  0.687034  0.687034  1
  Nb  Nb8  1  0.690952  0.312506  0.312506  1
  Nb  Nb9  1  0.311282  0.311773  0.690330  1
  Nb  Nb10  1  0.562692  0.936413  0.564924  1
  Nb  Nb11  1  0.311282  0.690330  0.311773  1
  Al  Al12  1  0.125000  0.125000  0.125000  1
  Al  Al13  1  0.331845  0.334425  0.334425  1
  Al  Al14  1  0.248058  0.909608  0.909608  1
  Al  Al15  1  0.910572  0.249594  0.908448  1
  Al  Al16  1  0.910572  0.908448  0.249594  1
  Al  Al17  1  0.339428  0.000406  0.341552  1
  Al  Al18  1  0.339428  0.341552  0.000406  1
  Al  Al19  1  0.001942  0.340392  0.340392  1
  Al  Al20  1  0.918155  0.915575  0.915575  1
  Co  Co21  1  0.125000  0.625000  0.125000  1
  Co  Co22  1  0.125000  0.125000  0.625000  1
  Ni  Ni23  1  0.625000  0.125000  0.125000  1
  C  C24  1  0.625000  0.625000  0.625000  1
  C  C25  1  0.125000  0.625000  0.625000  1
  C  C26  1  0.625000  0.125000  0.625000  1
  C  C27  1  0.625000  0.625000  0.125000  1
