# generated using pymatgen
data_Tc3P4Ru4W
_symmetry_space_group_name_H-M   'P 1'
_cell_length_a   3.91974300
_cell_length_b   6.00606734
_cell_length_c   6.88856475
_cell_angle_alpha   89.51616811
_cell_angle_beta   90.00000000
_cell_angle_gamma   90.00000000
_symmetry_Int_Tables_number   1
_chemical_formula_structural   Tc3P4Ru4W
_chemical_formula_sum   'Tc3 P4 Ru4 W1'
_cell_volume   162.16646537
_cell_formula_units_Z   1
loop_
 _symmetry_equiv_pos_site_id
 _symmetry_equiv_pos_as_xyz
  1  'x, y, z'
loop_
 _atom_site_type_symbol
 _atom_site_label
 _atom_site_symmetry_multiplicity
 _atom_site_fract_x
 _atom_site_fract_y
 _atom_site_fract_z
 _atom_site_occupancy
  Tc  Tc0  1  0.250000  0.975724  0.339397  1
  Tc  Tc1  1  0.250000  0.469494  0.161898  1
  Tc  Tc2  1  0.750000  0.026971  0.659877  1
  P  P3  1  0.250000  0.245438  0.889409  1
  P  P4  1  0.250000  0.745279  0.612958  1
  P  P5  1  0.750000  0.754207  0.113039  1
  P  P6  1  0.750000  0.256996  0.385747  1
  Ru  Ru7  1  0.250000  0.860663  0.927456  1
  Ru  Ru8  1  0.250000  0.358123  0.573155  1
  Ru  Ru9  1  0.750000  0.140550  0.072864  1
  Ru  Ru10  1  0.750000  0.641827  0.428092  1
  W  W11  1  0.750000  0.524728  0.836109  1
