# generated using pymatgen
data_CrCo4P4Ru3
_symmetry_space_group_name_H-M   'P 1'
_cell_length_a   3.65895200
_cell_length_b   5.74202656
_cell_length_c   6.69675383
_cell_angle_alpha   89.91538940
_cell_angle_beta   90.00000000
_cell_angle_gamma   90.00000000
_symmetry_Int_Tables_number   1
_chemical_formula_structural   CrCo4P4Ru3
_chemical_formula_sum   'Cr1 Co4 P4 Ru3'
_cell_volume   140.69730233
_cell_formula_units_Z   1
loop_
 _symmetry_equiv_pos_site_id
 _symmetry_equiv_pos_as_xyz
  1  'x, y, z'
loop_
 _atom_site_type_symbol
 _atom_site_label
 _atom_site_symmetry_multiplicity
 _atom_site_fract_x
 _atom_site_fract_y
 _atom_site_fract_z
 _atom_site_occupancy
  Cr  Cr0  1  0.250000  0.974174  0.674165  1
  Co  Co1  1  0.750000  0.644435  0.564896  1
  Co  Co2  1  0.750000  0.139091  0.930115  1
  Co  Co3  1  0.250000  0.360140  0.435619  1
  Co  Co4  1  0.250000  0.860142  0.063695  1
  P  P5  1  0.750000  0.266839  0.620688  1
  P  P6  1  0.750000  0.759943  0.879387  1
  P  P7  1  0.250000  0.739123  0.376475  1
  P  P8  1  0.250000  0.236582  0.121126  1
  Ru  Ru9  1  0.750000  0.521389  0.166759  1
  Ru  Ru10  1  0.750000  0.029782  0.336679  1
  Ru  Ru11  1  0.250000  0.468360  0.830395  1
