# generated using pymatgen
data_Pr4GaB4Ir9
_symmetry_space_group_name_H-M   'P 1'
_cell_length_a   10.96347689
_cell_length_b   10.96347629
_cell_length_c   10.96347654
_cell_angle_alpha   29.64671283
_cell_angle_beta   29.64671885
_cell_angle_gamma   29.64671709
_symmetry_Int_Tables_number   1
_chemical_formula_structural   Pr4GaB4Ir9
_chemical_formula_sum   'Pr4 Ga1 B4 Ir9'
_cell_volume   285.45830614
_cell_formula_units_Z   1
loop_
 _symmetry_equiv_pos_site_id
 _symmetry_equiv_pos_as_xyz
  1  'x, y, z'
loop_
 _atom_site_type_symbol
 _atom_site_label
 _atom_site_symmetry_multiplicity
 _atom_site_fract_x
 _atom_site_fract_y
 _atom_site_fract_z
 _atom_site_occupancy
  Pr  Pr0  1  0.149490  0.149490  0.149490  1
  Pr  Pr1  1  0.950292  0.950292  0.950292  1
  Pr  Pr2  1  0.850510  0.850510  0.850510  1
  Pr  Pr3  1  0.049708  0.049708  0.049708  1
  Ga  Ga4  1  0.500000  0.500000  0.500000  1
  B  B5  1  0.616443  0.616443  0.616443  1
  B  B6  1  0.717880  0.717880  0.717880  1
  B  B7  1  0.383557  0.383557  0.383557  1
  B  B8  1  0.282120  0.282120  0.282120  1
  Ir  Ir9  1  0.404406  0.902365  0.404406  1
  Ir  Ir10  1  0.902365  0.404406  0.404406  1
  Ir  Ir11  1  0.500000  0.500000  0.000000  1
  Ir  Ir12  1  0.500000  0.000000  0.500000  1
  Ir  Ir13  1  0.000000  0.500000  0.500000  1
  Ir  Ir14  1  0.595594  0.097635  0.595594  1
  Ir  Ir15  1  0.595594  0.595594  0.097635  1
  Ir  Ir16  1  0.097635  0.595594  0.595594  1
  Ir  Ir17  1  0.404406  0.404406  0.902365  1
