# generated using pymatgen
data_Ac8Sn25
_symmetry_space_group_name_H-M   'P 1'
_cell_length_a   9.95788900
_cell_length_b   9.95788900
_cell_length_c   9.95788900
_cell_angle_alpha   90.00000000
_cell_angle_beta   90.00000000
_cell_angle_gamma   90.00000000
_symmetry_Int_Tables_number   1
_chemical_formula_structural   Ac8Sn25
_chemical_formula_sum   'Ac8 Sn25'
_cell_volume   987.41982541
_cell_formula_units_Z   1
loop_
 _symmetry_equiv_pos_site_id
 _symmetry_equiv_pos_as_xyz
  1  'x, y, z'
loop_
 _atom_site_type_symbol
 _atom_site_label
 _atom_site_symmetry_multiplicity
 _atom_site_fract_x
 _atom_site_fract_y
 _atom_site_fract_z
 _atom_site_occupancy
  Ac  Ac0  1  0.249017  0.249017  0.249017  1
  Ac  Ac1  1  0.750983  0.750983  0.750983  1
  Ac  Ac2  1  0.750983  0.750983  0.249017  1
  Ac  Ac3  1  0.750983  0.249017  0.750983  1
  Ac  Ac4  1  0.249017  0.249017  0.750983  1
  Ac  Ac5  1  0.249017  0.750983  0.249017  1
  Ac  Ac6  1  0.249017  0.750983  0.750983  1
  Ac  Ac7  1  0.750983  0.249017  0.249017  1
  Sn  Sn8  1  0.000000  0.000000  0.000000  1
  Sn  Sn9  1  0.267009  0.500000  0.000000  1
  Sn  Sn10  1  0.732991  0.500000  0.000000  1
  Sn  Sn11  1  0.000000  0.267009  0.500000  1
  Sn  Sn12  1  0.500000  0.267009  0.000000  1
  Sn  Sn13  1  0.000000  0.732991  0.500000  1
  Sn  Sn14  1  0.500000  0.732991  0.000000  1
  Sn  Sn15  1  0.500000  0.000000  0.267009  1
  Sn  Sn16  1  0.267009  0.000000  0.500000  1
  Sn  Sn17  1  0.500000  0.000000  0.732991  1
  Sn  Sn18  1  0.732991  0.000000  0.500000  1
  Sn  Sn19  1  0.000000  0.500000  0.267009  1
  Sn  Sn20  1  0.000000  0.500000  0.732991  1
  Sn  Sn21  1  0.256398  0.500000  0.500000  1
  Sn  Sn22  1  0.743602  0.500000  0.500000  1
  Sn  Sn23  1  0.500000  0.256398  0.500000  1
  Sn  Sn24  1  0.500000  0.743602  0.500000  1
  Sn  Sn25  1  0.500000  0.500000  0.256398  1
  Sn  Sn26  1  0.500000  0.500000  0.743602  1
  Sn  Sn27  1  0.316566  0.000000  0.000000  1
  Sn  Sn28  1  0.683434  0.000000  0.000000  1
  Sn  Sn29  1  0.000000  0.316566  0.000000  1
  Sn  Sn30  1  0.000000  0.683434  0.000000  1
  Sn  Sn31  1  0.000000  0.000000  0.316566  1
  Sn  Sn32  1  0.000000  0.000000  0.683434  1
