# generated using pymatgen
data_Ni5Sn8PtRh6
_symmetry_space_group_name_H-M   'P 1'
_cell_length_a   5.57095377
_cell_length_b   7.24646353
_cell_length_c   8.36100668
_cell_angle_alpha   90.22187993
_cell_angle_beta   90.40159005
_cell_angle_gamma   89.92893398
_symmetry_Int_Tables_number   1
_chemical_formula_structural   Ni5Sn8PtRh6
_chemical_formula_sum   'Ni5 Sn8 Pt1 Rh6'
_cell_volume   337.52037252
_cell_formula_units_Z   1
loop_
 _symmetry_equiv_pos_site_id
 _symmetry_equiv_pos_as_xyz
  1  'x, y, z'
loop_
 _atom_site_type_symbol
 _atom_site_label
 _atom_site_symmetry_multiplicity
 _atom_site_fract_x
 _atom_site_fract_y
 _atom_site_fract_z
 _atom_site_occupancy
  Ni  Ni0  1  0.242326  0.910528  0.368849  1
  Ni  Ni1  1  0.741328  0.087713  0.625191  1
  Ni  Ni2  1  0.244636  0.411731  0.127447  1
  Ni  Ni3  1  0.007160  0.740252  0.122756  1
  Ni  Ni4  1  0.760953  0.594947  0.877230  1
  Sn  Sn5  1  0.245953  0.567320  0.399036  1
  Sn  Sn6  1  0.249016  0.090772  0.643141  1
  Sn  Sn7  1  0.756226  0.897297  0.358824  1
  Sn  Sn8  1  0.756251  0.408707  0.138371  1
  Sn  Sn9  1  0.250868  0.595920  0.860699  1
  Sn  Sn10  1  0.246892  0.061448  0.095363  1
  Sn  Sn11  1  0.753364  0.435685  0.606163  1
  Sn  Sn12  1  0.749694  0.938105  0.901420  1
  Pt  Pt13  1  0.496194  0.236436  0.371709  1
  Rh  Rh14  1  0.997663  0.761434  0.624164  1
  Rh  Rh15  1  0.502880  0.264308  0.878488  1
  Rh  Rh16  1  0.997021  0.257551  0.875129  1
  Rh  Rh17  1  0.502673  0.755506  0.622141  1
  Rh  Rh18  1  0.000592  0.243876  0.380743  1
  Rh  Rh19  1  0.498313  0.740463  0.123134  1
