# generated using pymatgen
data_Pr4Al18Ir4PtAu
_symmetry_space_group_name_H-M   'P 1'
_cell_length_a   7.67271939
_cell_length_b   7.67272184
_cell_length_c   9.63092211
_cell_angle_alpha   89.96837973
_cell_angle_beta   89.96835038
_cell_angle_gamma   119.45181150
_symmetry_Int_Tables_number   1
_chemical_formula_structural   Pr4Al18Ir4PtAu
_chemical_formula_sum   'Pr4 Al18 Ir4 Pt1 Au1'
_cell_volume   493.70736719
_cell_formula_units_Z   1
loop_
 _symmetry_equiv_pos_site_id
 _symmetry_equiv_pos_as_xyz
  1  'x, y, z'
loop_
 _atom_site_type_symbol
 _atom_site_label
 _atom_site_symmetry_multiplicity
 _atom_site_fract_x
 _atom_site_fract_y
 _atom_site_fract_z
 _atom_site_occupancy
  Pr  Pr0  1  0.995432  0.672915  0.249942  1
  Pr  Pr1  1  0.004568  0.327085  0.750058  1
  Pr  Pr2  1  0.672915  0.995431  0.249942  1
  Pr  Pr3  1  0.327085  0.004569  0.750058  1
  Al  Al4  1  0.138652  0.138652  0.254991  1
  Al  Al5  1  0.861348  0.861348  0.745009  1
  Al  Al6  1  0.003670  0.344708  0.075896  1
  Al  Al7  1  0.996330  0.655292  0.924104  1
  Al  Al8  1  0.998546  0.660911  0.572030  1
  Al  Al9  1  0.339089  0.001454  0.427970  1
  Al  Al10  1  0.001454  0.339089  0.427970  1
  Al  Al11  1  0.660911  0.998546  0.572030  1
  Al  Al12  1  0.655292  0.996330  0.924103  1
  Al  Al13  1  0.344708  0.003670  0.075897  1
  Al  Al14  1  0.337285  0.337285  0.548824  1
  Al  Al15  1  0.662715  0.662715  0.451176  1
  Al  Al16  1  0.656422  0.656422  0.054934  1
  Al  Al17  1  0.343578  0.343578  0.945066  1
  Al  Al18  1  0.339163  0.548146  0.251060  1
  Al  Al19  1  0.660837  0.451854  0.748940  1
  Al  Al20  1  0.548146  0.339163  0.251060  1
  Al  Al21  1  0.451854  0.660837  0.748940  1
  Ir  Ir22  1  0.670795  0.329205  0.000000  1
  Ir  Ir23  1  0.329205  0.670795  0.000000  1
  Ir  Ir24  1  0.329392  0.670608  0.500000  1
  Ir  Ir25  1  0.670608  0.329392  0.500000  1
  Pt  Pt26  1  0.000000  0.000000  0.500000  1
  Au  Au27  1  0.000000  0.000000  0.000000  1
