# generated using pymatgen
data_Ce2SmIn3CuRh2
_symmetry_space_group_name_H-M   'P 1'
_cell_length_a   7.52050600
_cell_length_b   7.67807972
_cell_length_c   3.95070000
_cell_angle_alpha   90.00000000
_cell_angle_beta   90.00000000
_cell_angle_gamma   119.32341895
_symmetry_Int_Tables_number   1
_chemical_formula_structural   Ce2SmIn3CuRh2
_chemical_formula_sum   'Ce2 Sm1 In3 Cu1 Rh2'
_cell_volume   198.89554375
_cell_formula_units_Z   1
loop_
 _symmetry_equiv_pos_site_id
 _symmetry_equiv_pos_as_xyz
  1  'x, y, z'
loop_
 _atom_site_type_symbol
 _atom_site_label
 _atom_site_symmetry_multiplicity
 _atom_site_fract_x
 _atom_site_fract_y
 _atom_site_fract_z
 _atom_site_occupancy
  Ce  Ce0  1  0.999322  0.419266  0.500000  1
  Ce  Ce1  1  0.580056  0.580734  0.500000  1
  Sm  Sm2  1  0.412930  0.000000  0.500000  1
  In  In3  1  0.746735  0.000000  0.000000  1
  In  In4  1  0.004820  0.757573  0.000000  1
  In  In5  1  0.247246  0.242427  0.000000  1
  Cu  Cu6  1  0.995559  0.000000  0.500000  1
  Rh  Rh7  1  0.330197  0.647065  0.000000  1
  Rh  Rh8  1  0.683134  0.352935  0.000000  1
