# generated using pymatgen
data_Ho5GaSe4
_symmetry_space_group_name_H-M   'P 1'
_cell_length_a   7.07722320
_cell_length_b   7.07722319
_cell_length_c   7.07722331
_cell_angle_alpha   99.47852414
_cell_angle_beta   99.47852708
_cell_angle_gamma   132.11678760
_symmetry_Int_Tables_number   1
_chemical_formula_structural   Ho5GaSe4
_chemical_formula_sum   'Ho5 Ga1 Se4'
_cell_volume   240.32028596
_cell_formula_units_Z   1
loop_
 _symmetry_equiv_pos_site_id
 _symmetry_equiv_pos_as_xyz
  1  'x, y, z'
loop_
 _atom_site_type_symbol
 _atom_site_label
 _atom_site_symmetry_multiplicity
 _atom_site_fract_x
 _atom_site_fract_y
 _atom_site_fract_z
 _atom_site_occupancy
  Ho  Ho0  1  0.403664  0.791512  0.195176  1
  Ho  Ho1  1  0.000000  0.000000  0.000000  1
  Ho  Ho2  1  0.596336  0.208488  0.804824  1
  Ho  Ho3  1  0.208488  0.403664  0.612151  1
  Ho  Ho4  1  0.791512  0.596336  0.387849  1
  Ga  Ga5  1  0.500000  0.500000  0.000000  1
  Se  Se6  1  0.096812  0.697222  0.794033  1
  Se  Se7  1  0.697222  0.903188  0.600408  1
  Se  Se8  1  0.302778  0.096812  0.399592  1
  Se  Se9  1  0.903188  0.302778  0.205967  1
