# generated using pymatgen
data_Sr3Eu4TmHg8
_symmetry_space_group_name_H-M   'P 1'
_cell_length_a   7.83446000
_cell_length_b   7.85290200
_cell_length_c   7.86467600
_cell_angle_alpha   90.00000000
_cell_angle_beta   89.99931255
_cell_angle_gamma   90.00000000
_symmetry_Int_Tables_number   1
_chemical_formula_structural   Sr3Eu4TmHg8
_chemical_formula_sum   'Sr3 Eu4 Tm1 Hg8'
_cell_volume   483.86040100
_cell_formula_units_Z   1
loop_
 _symmetry_equiv_pos_site_id
 _symmetry_equiv_pos_as_xyz
  1  'x, y, z'
loop_
 _atom_site_type_symbol
 _atom_site_label
 _atom_site_symmetry_multiplicity
 _atom_site_fract_x
 _atom_site_fract_y
 _atom_site_fract_z
 _atom_site_occupancy
  Sr  Sr0  1  0.249562  0.749996  0.499978  1
  Sr  Sr1  1  0.750562  0.249984  0.500024  1
  Sr  Sr2  1  0.250418  0.749997  0.999984  1
  Eu  Eu3  1  0.250673  0.250002  0.999997  1
  Eu  Eu4  1  0.749481  0.750006  0.000003  1
  Eu  Eu5  1  0.750466  0.750002  0.500002  1
  Eu  Eu6  1  0.249540  0.250002  0.500007  1
  Tm  Tm7  1  0.749680  0.250002  0.000024  1
  Hg  Hg8  1  0.993104  0.493021  0.242790  1
  Hg  Hg9  1  0.993106  0.006983  0.242788  1
  Hg  Hg10  1  0.506873  0.006963  0.244404  1
  Hg  Hg11  1  0.506875  0.493039  0.244405  1
  Hg  Hg12  1  0.506797  0.493114  0.755576  1
  Hg  Hg13  1  0.506795  0.006891  0.755578  1
  Hg  Hg14  1  0.993036  0.007006  0.757223  1
  Hg  Hg15  1  0.993032  0.492996  0.757221  1
