# generated using pymatgen
data_Lu3(ThGa2)2
_symmetry_space_group_name_H-M   'P 1'
_cell_length_a   7.85136700
_cell_length_b   7.53109338
_cell_length_c   7.87010818
_cell_angle_alpha   72.41122941
_cell_angle_beta   90.00000000
_cell_angle_gamma   90.00000000
_symmetry_Int_Tables_number   1
_chemical_formula_structural   Lu3(ThGa2)2
_chemical_formula_sum   'Lu6 Th4 Ga8'
_cell_volume   443.59923310
_cell_formula_units_Z   2
loop_
 _symmetry_equiv_pos_site_id
 _symmetry_equiv_pos_as_xyz
  1  'x, y, z'
loop_
 _atom_site_type_symbol
 _atom_site_label
 _atom_site_symmetry_multiplicity
 _atom_site_fract_x
 _atom_site_fract_y
 _atom_site_fract_z
 _atom_site_occupancy
  Lu  Lu0  1  0.676053  0.748910  0.256496  1
  Lu  Lu1  1  0.323947  0.251090  0.743504  1
  Lu  Lu2  1  0.176053  0.751090  0.743504  1
  Lu  Lu3  1  0.823947  0.248910  0.256496  1
  Lu  Lu4  1  0.000000  0.000000  0.000000  1
  Lu  Lu5  1  0.500000  0.500000  0.000000  1
  Th  Th6  1  0.676614  0.926098  0.693868  1
  Th  Th7  1  0.323386  0.073902  0.306132  1
  Th  Th8  1  0.176614  0.573902  0.306132  1
  Th  Th9  1  0.823386  0.426098  0.693868  1
  Ga  Ga10  1  0.966592  0.864906  0.421745  1
  Ga  Ga11  1  0.033408  0.135094  0.578255  1
  Ga  Ga12  1  0.466592  0.635094  0.578255  1
  Ga  Ga13  1  0.533408  0.364906  0.421745  1
  Ga  Ga14  1  0.879638  0.627140  0.992448  1
  Ga  Ga15  1  0.120362  0.372860  0.007552  1
  Ga  Ga16  1  0.379638  0.872860  0.007552  1
  Ga  Ga17  1  0.620362  0.127140  0.992448  1
