# generated using pymatgen
data_NaTm(SiAu)2
_symmetry_space_group_name_H-M   'P 1'
_cell_length_a   5.60302635
_cell_length_b   5.60302726
_cell_length_c   5.60302740
_cell_angle_alpha   134.18041951
_cell_angle_beta   101.62448865
_cell_angle_gamma   95.83035880
_symmetry_Int_Tables_number   1
_chemical_formula_structural   NaTm(SiAu)2
_chemical_formula_sum   'Na1 Tm1 Si2 Au2'
_cell_volume   115.99492981
_cell_formula_units_Z   1
loop_
 _symmetry_equiv_pos_site_id
 _symmetry_equiv_pos_as_xyz
  1  'x, y, z'
loop_
 _atom_site_type_symbol
 _atom_site_label
 _atom_site_symmetry_multiplicity
 _atom_site_fract_x
 _atom_site_fract_y
 _atom_site_fract_z
 _atom_site_occupancy
  Na  Na0  1  0.286578  0.286578  0.000000  1
  Tm  Tm1  1  0.865192  0.365192  0.500000  1
  Si  Si2  1  0.483589  0.660746  0.822843  1
  Si  Si3  1  0.837902  0.660746  0.177157  1
  Au  Au4  1  0.266984  0.994269  0.272716  1
  Au  Au5  1  0.721553  0.994269  0.727284  1
