# generated using pymatgen
data_Dy20Fe3Bi8Pt
_symmetry_space_group_name_H-M   'P 1'
_cell_length_a   8.01550064
_cell_length_b   8.96944800
_cell_length_c   12.45313146
_cell_angle_alpha   90.00000000
_cell_angle_beta   90.14554383
_cell_angle_gamma   90.00000000
_symmetry_Int_Tables_number   1
_chemical_formula_structural   Dy20Fe3Bi8Pt
_chemical_formula_sum   'Dy20 Fe3 Bi8 Pt1'
_cell_volume   895.31021821
_cell_formula_units_Z   1
loop_
 _symmetry_equiv_pos_site_id
 _symmetry_equiv_pos_as_xyz
  1  'x, y, z'
loop_
 _atom_site_type_symbol
 _atom_site_label
 _atom_site_symmetry_multiplicity
 _atom_site_fract_x
 _atom_site_fract_y
 _atom_site_fract_z
 _atom_site_occupancy
  Dy  Dy0  1  0.652557  0.750000  0.697622  1
  Dy  Dy1  1  0.345956  0.250000  0.299427  1
  Dy  Dy2  1  0.155002  0.250000  0.799544  1
  Dy  Dy3  1  0.837248  0.750000  0.211843  1
  Dy  Dy4  1  0.126287  0.750000  0.803899  1
  Dy  Dy5  1  0.882162  0.250000  0.187837  1
  Dy  Dy6  1  0.615697  0.250000  0.688601  1
  Dy  Dy7  1  0.380654  0.750000  0.310037  1
  Dy  Dy8  1  0.550678  0.750000  0.996937  1
  Dy  Dy9  1  0.448557  0.250000  0.002929  1
  Dy  Dy10  1  0.059032  0.250000  0.505209  1
  Dy  Dy11  1  0.950173  0.750000  0.497781  1
  Dy  Dy12  1  0.822415  0.450687  0.934190  1
  Dy  Dy13  1  0.174759  0.528953  0.064701  1
  Dy  Dy14  1  0.325271  0.539617  0.562035  1
  Dy  Dy15  1  0.174759  0.971047  0.064701  1
  Dy  Dy16  1  0.672691  0.467810  0.439201  1
  Dy  Dy17  1  0.822415  0.049313  0.934190  1
  Dy  Dy18  1  0.672691  0.032190  0.439201  1
  Dy  Dy19  1  0.325271  0.960383  0.562035  1
  Fe  Fe20  1  0.070362  0.250000  0.009390  1
  Fe  Fe21  1  0.432255  0.250000  0.508495  1
  Fe  Fe22  1  0.575556  0.750000  0.486218  1
  Bi  Bi23  1  0.929115  0.008794  0.673591  1
  Bi  Bi24  1  0.069841  0.993281  0.327805  1
  Bi  Bi25  1  0.430525  0.991708  0.826439  1
  Bi  Bi26  1  0.069841  0.506719  0.327805  1
  Bi  Bi27  1  0.569498  0.008672  0.173317  1
  Bi  Bi28  1  0.929115  0.491206  0.673591  1
  Bi  Bi29  1  0.569498  0.491328  0.173317  1
  Bi  Bi30  1  0.430525  0.508292  0.826439  1
  Pt  Pt31  1  0.929589  0.750000  0.991676  1
