# generated using pymatgen
data_Ni9Sn8Rh3
_symmetry_space_group_name_H-M   'P 1'
_cell_length_a   5.34029853
_cell_length_b   7.21426588
_cell_length_c   8.26907515
_cell_angle_alpha   90.28179369
_cell_angle_beta   90.21615367
_cell_angle_gamma   90.02877828
_symmetry_Int_Tables_number   1
_chemical_formula_structural   Ni9Sn8Rh3
_chemical_formula_sum   'Ni9 Sn8 Rh3'
_cell_volume   318.57098330
_cell_formula_units_Z   1
loop_
 _symmetry_equiv_pos_site_id
 _symmetry_equiv_pos_as_xyz
  1  'x, y, z'
loop_
 _atom_site_type_symbol
 _atom_site_label
 _atom_site_symmetry_multiplicity
 _atom_site_fract_x
 _atom_site_fract_y
 _atom_site_fract_z
 _atom_site_occupancy
  Ni  Ni0  1  0.252334  0.905369  0.368834  1
  Ni  Ni1  1  0.755220  0.090486  0.626895  1
  Ni  Ni2  1  0.993608  0.264671  0.876564  1
  Ni  Ni3  1  0.506158  0.766171  0.623317  1
  Ni  Ni4  1  0.004347  0.233775  0.375614  1
  Ni  Ni5  1  0.494304  0.734813  0.124303  1
  Ni  Ni6  1  0.237774  0.412744  0.126086  1
  Ni  Ni7  1  0.004229  0.739414  0.123192  1
  Ni  Ni8  1  0.749290  0.593385  0.876889  1
  Sn  Sn9  1  0.251266  0.561699  0.401191  1
  Sn  Sn10  1  0.247121  0.096429  0.639124  1
  Sn  Sn11  1  0.749743  0.900552  0.356830  1
  Sn  Sn12  1  0.752780  0.407649  0.142301  1
  Sn  Sn13  1  0.254334  0.598456  0.861119  1
  Sn  Sn14  1  0.246384  0.061041  0.097801  1
  Sn  Sn15  1  0.749577  0.436796  0.601100  1
  Sn  Sn16  1  0.753856  0.937569  0.903084  1
  Rh  Rh17  1  0.497405  0.238952  0.373953  1
  Rh  Rh18  1  0.998705  0.759201  0.623532  1
  Rh  Rh19  1  0.501563  0.260826  0.878270  1
