# generated using pymatgen
data_La2Ga(SiRh2)3
_symmetry_space_group_name_H-M   'P 1'
_cell_length_a   5.68591404
_cell_length_b   6.76478743
_cell_length_c   6.76478756
_cell_angle_alpha   65.42071287
_cell_angle_beta   65.09808271
_cell_angle_gamma   65.09808320
_symmetry_Int_Tables_number   1
_chemical_formula_structural   La2Ga(SiRh2)3
_chemical_formula_sum   'La2 Ga1 Si3 Rh6'
_cell_volume   204.86319087
_cell_formula_units_Z   1
loop_
 _symmetry_equiv_pos_site_id
 _symmetry_equiv_pos_as_xyz
  1  'x, y, z'
loop_
 _atom_site_type_symbol
 _atom_site_label
 _atom_site_symmetry_multiplicity
 _atom_site_fract_x
 _atom_site_fract_y
 _atom_site_fract_z
 _atom_site_occupancy
  La  La0  1  0.547479  0.749650  0.749650  1
  La  La1  1  0.458900  0.251262  0.251262  1
  Ga  Ga2  1  0.214058  0.586005  0.586005  1
  Si  Si3  1  0.770896  0.430634  0.430634  1
  Si  Si4  1  0.126935  0.074224  0.074224  1
  Si  Si5  1  0.886672  0.908690  0.908690  1
  Rh  Rh6  1  0.504189  0.211099  0.787386  1
  Rh  Rh7  1  0.999136  0.727581  0.269310  1
  Rh  Rh8  1  0.504189  0.787386  0.211099  1
  Rh  Rh9  1  0.999136  0.269310  0.727581  1
  Rh  Rh10  1  0.994204  0.481447  0.022711  1
  Rh  Rh11  1  0.994204  0.022711  0.481447  1
