# generated using pymatgen
data_Y13Ho7Si15Pd
_symmetry_space_group_name_H-M   'P 1'
_cell_length_a   7.43967050
_cell_length_b   7.67178893
_cell_length_c   14.56699400
_cell_angle_alpha   90.26603186
_cell_angle_beta   90.37044698
_cell_angle_gamma   90.22718889
_symmetry_Int_Tables_number   1
_chemical_formula_structural   Y13Ho7Si15Pd
_chemical_formula_sum   'Y13 Ho7 Si15 Pd1'
_cell_volume   831.38668163
_cell_formula_units_Z   1
loop_
 _symmetry_equiv_pos_site_id
 _symmetry_equiv_pos_as_xyz
  1  'x, y, z'
loop_
 _atom_site_type_symbol
 _atom_site_label
 _atom_site_symmetry_multiplicity
 _atom_site_fract_x
 _atom_site_fract_y
 _atom_site_fract_z
 _atom_site_occupancy
  Y  Y0  1  0.178069  0.320921  0.622904  1
  Y  Y1  1  0.526136  0.679568  0.599418  1
  Y  Y2  1  0.028331  0.818245  0.901611  1
  Y  Y3  1  0.471427  0.318526  0.098558  1
  Y  Y4  1  0.975255  0.180053  0.399764  1
  Y  Y5  1  0.472111  0.322237  0.400964  1
  Y  Y6  1  0.970424  0.181366  0.098371  1
  Y  Y7  1  0.529666  0.681639  0.900795  1
  Y  Y8  1  0.026408  0.818275  0.600003  1
  Y  Y9  1  0.851645  0.506704  0.749842  1
  Y  Y10  1  0.351269  0.989963  0.748321  1
  Y  Y11  1  0.149313  0.490516  0.250586  1
  Y  Y12  1  0.652119  0.010286  0.253776  1
  Ho  Ho13  1  0.681321  0.169814  0.620564  1
  Ho  Ho14  1  0.182463  0.321969  0.877054  1
  Ho  Ho15  1  0.319965  0.819811  0.121577  1
  Ho  Ho16  1  0.820924  0.683009  0.379691  1
  Ho  Ho17  1  0.320813  0.824902  0.377834  1
  Ho  Ho18  1  0.817631  0.679545  0.122212  1
  Ho  Ho19  1  0.680501  0.179191  0.877793  1
  Si  Si20  1  0.145646  0.529020  0.040048  1
  Si  Si21  1  0.352562  0.030482  0.960207  1
  Si  Si22  1  0.849763  0.470494  0.540732  1
  Si  Si23  1  0.344230  0.028695  0.541187  1
  Si  Si24  1  0.854899  0.470294  0.959583  1
  Si  Si25  1  0.645280  0.970291  0.039207  1
  Si  Si26  1  0.146951  0.531584  0.460424  1
  Si  Si27  1  0.478690  0.391335  0.749970  1
  Si  Si28  1  0.975896  0.105163  0.752299  1
  Si  Si29  1  0.523840  0.608153  0.248622  1
  Si  Si30  1  0.026551  0.892767  0.247326  1
  Si  Si31  1  0.734612  0.871341  0.751876  1
  Si  Si32  1  0.234245  0.626315  0.751395  1
  Si  Si33  1  0.267344  0.126279  0.246750  1
  Si  Si34  1  0.766526  0.376544  0.249079  1
  Pd  Pd35  1  0.647171  0.974706  0.459654  1
