# generated using pymatgen
data_LaPr6Nd3(Al2Ru3)2
_symmetry_space_group_name_H-M   'P 1'
_cell_length_a   8.63442803
_cell_length_b   8.56947995
_cell_length_c   8.56946753
_cell_angle_alpha   109.01357507
_cell_angle_beta   109.70149317
_cell_angle_gamma   109.37588785
_symmetry_Int_Tables_number   1
_chemical_formula_structural   LaPr6Nd3(Al2Ru3)2
_chemical_formula_sum   'La1 Pr6 Nd3 Al4 Ru6'
_cell_volume   490.03361930
_cell_formula_units_Z   1
loop_
 _symmetry_equiv_pos_site_id
 _symmetry_equiv_pos_as_xyz
  1  'x, y, z'
loop_
 _atom_site_type_symbol
 _atom_site_label
 _atom_site_symmetry_multiplicity
 _atom_site_fract_x
 _atom_site_fract_y
 _atom_site_fract_z
 _atom_site_occupancy
  La  La0  1  0.249903  0.689909  0.439885  1
  Pr  Pr1  1  0.064073  0.750409  0.816770  1
  Pr  Pr2  1  0.816376  0.065859  0.751170  1
  Pr  Pr3  1  0.215072  0.214269  0.216072  1
  Pr  Pr4  1  0.502756  0.000907  0.287028  1
  Pr  Pr5  1  0.285379  0.500919  0.999345  1
  Pr  Pr6  1  0.997293  0.284160  0.497817  1
  Nd  Nd7  1  0.749907  0.814608  0.064812  1
  Nd  Nd8  1  0.435786  0.252753  0.686315  1
  Nd  Nd9  1  0.683281  0.434533  0.249188  1
  Al  Al10  1  0.591410  0.590374  0.589124  1
  Al  Al11  1  0.500089  0.001870  0.912441  1
  Al  Al12  1  0.908102  0.497696  0.999228  1
  Al  Al13  1  0.000132  0.912344  0.501471  1
  Ru  Ru14  1  0.250442  0.118487  0.868250  1
  Ru  Ru15  1  0.749718  0.381693  0.631693  1
  Ru  Ru16  1  0.864497  0.245379  0.115694  1
  Ru  Ru17  1  0.121835  0.860705  0.254412  1
  Ru  Ru18  1  0.635560  0.750679  0.380473  1
  Ru  Ru19  1  0.378385  0.632445  0.738812  1
