# generated using pymatgen
data_DyY2Ho(Al8Pt3)3
_symmetry_space_group_name_H-M   'P 1'
_cell_length_a   7.53433352
_cell_length_b   7.55506245
_cell_length_c   13.18364528
_cell_angle_alpha   84.57371691
_cell_angle_beta   79.11368705
_cell_angle_gamma   59.97327628
_symmetry_Int_Tables_number   1
_chemical_formula_structural   DyY2Ho(Al8Pt3)3
_chemical_formula_sum   'Dy1 Y2 Ho1 Al24 Pt9'
_cell_volume   638.03605388
_cell_formula_units_Z   1
loop_
 _symmetry_equiv_pos_site_id
 _symmetry_equiv_pos_as_xyz
  1  'x, y, z'
loop_
 _atom_site_type_symbol
 _atom_site_label
 _atom_site_symmetry_multiplicity
 _atom_site_fract_x
 _atom_site_fract_y
 _atom_site_fract_z
 _atom_site_occupancy
  Dy  Dy0  1  0.265973  0.501478  0.192335  1
  Y  Y1  1  0.393392  0.168420  0.807922  1
  Y  Y2  1  0.606593  0.831565  0.192065  1
  Ho  Ho3  1  0.734153  0.498487  0.807552  1
  Al  Al4  1  0.684529  0.833561  0.944345  1
  Al  Al5  1  0.315508  0.166284  0.055562  1
  Al  Al6  1  0.146791  0.832405  0.561380  1
  Al  Al7  1  0.853198  0.167604  0.438642  1
  Al  Al8  1  0.479694  0.166838  0.558676  1
  Al  Al9  1  0.520311  0.833153  0.441343  1
  Al  Al10  1  0.217073  0.165287  0.329998  1
  Al  Al11  1  0.782879  0.834619  0.670093  1
  Al  Al12  1  0.437909  0.506236  0.670131  1
  Al  Al13  1  0.562183  0.493765  0.329949  1
  Al  Al14  1  0.109539  0.160095  0.669312  1
  Al  Al15  1  0.890298  0.840027  0.330785  1
  Al  Al16  1  0.353335  0.499135  0.944465  1
  Al  Al17  1  0.646863  0.500864  0.055366  1
  Al  Al18  1  0.014963  0.167909  0.952965  1
  Al  Al19  1  0.984936  0.832219  0.046932  1
  Al  Al20  1  0.186743  0.498962  0.441281  1
  Al  Al21  1  0.813230  0.501042  0.558774  1
  Al  Al22  1  0.734492  0.163881  0.183374  1
  Al  Al23  1  0.265665  0.835979  0.816618  1
  Al  Al24  1  0.061622  0.631584  0.815409  1
  Al  Al25  1  0.938214  0.368415  0.184589  1
  Al  Al26  1  0.855106  0.041711  0.815991  1
  Al  Al27  1  0.144876  0.958492  0.184006  1
  Pt  Pt28  1  0.119915  0.491984  0.638826  1
  Pt  Pt29  1  0.879952  0.508008  0.361256  1
  Pt  Pt30  1  0.657123  0.171329  0.999923  1
  Pt  Pt31  1  0.342914  0.828663  0.000009  1
  Pt  Pt32  1  0.537861  0.166719  0.361272  1
  Pt  Pt33  1  0.462231  0.833175  0.638811  1
  Pt  Pt34  1  0.778808  0.175244  0.637305  1
  Pt  Pt35  1  0.221126  0.824882  0.362776  1
  Pt  Pt36  1  0.000003  0.499979  0.999961  1
