# generated using pymatgen
data_HoEr2Cd3Sn2Au
_symmetry_space_group_name_H-M   'P 1'
_cell_length_a   7.44926529
_cell_length_b   7.44926368
_cell_length_c   4.51971300
_cell_angle_alpha   90.00000000
_cell_angle_beta   90.00000000
_cell_angle_gamma   120.03220164
_symmetry_Int_Tables_number   1
_chemical_formula_structural   HoEr2Cd3Sn2Au
_chemical_formula_sum   'Ho1 Er2 Cd3 Sn2 Au1'
_cell_volume   217.13371605
_cell_formula_units_Z   1
loop_
 _symmetry_equiv_pos_site_id
 _symmetry_equiv_pos_as_xyz
  1  'x, y, z'
loop_
 _atom_site_type_symbol
 _atom_site_label
 _atom_site_symmetry_multiplicity
 _atom_site_fract_x
 _atom_site_fract_y
 _atom_site_fract_z
 _atom_site_occupancy
  Ho  Ho0  1  0.406470  0.406470  0.000000  1
  Er  Er1  1  0.593706  0.000051  0.000000  1
  Er  Er2  1  0.000051  0.593706  0.000000  1
  Cd  Cd3  1  0.240348  0.999923  0.500000  1
  Cd  Cd4  1  0.999923  0.240348  0.500000  1
  Cd  Cd5  1  0.759704  0.759704  0.500000  1
  Sn  Sn6  1  0.333240  0.666894  0.500000  1
  Sn  Sn7  1  0.666894  0.333240  0.500000  1
  Au  Au8  1  0.999665  0.999665  0.000000  1
