# generated using pymatgen
data_Pr2Sc2Al15(GaIr2)3
_symmetry_space_group_name_H-M   'P 1'
_cell_length_a   7.53410718
_cell_length_b   7.53383118
_cell_length_c   9.53709200
_cell_angle_alpha   90.00000000
_cell_angle_beta   90.00000000
_cell_angle_gamma   119.37178517
_symmetry_Int_Tables_number   1
_chemical_formula_structural   Pr2Sc2Al15(GaIr2)3
_chemical_formula_sum   'Pr2 Sc2 Al15 Ga3 Ir6'
_cell_volume   471.74666550
_cell_formula_units_Z   1
loop_
 _symmetry_equiv_pos_site_id
 _symmetry_equiv_pos_as_xyz
  1  'x, y, z'
loop_
 _atom_site_type_symbol
 _atom_site_label
 _atom_site_symmetry_multiplicity
 _atom_site_fract_x
 _atom_site_fract_y
 _atom_site_fract_z
 _atom_site_occupancy
  Pr  Pr0  1  0.997715  0.674459  0.250000  1
  Pr  Pr1  1  0.669910  0.990091  0.250000  1
  Sc  Sc2  1  0.004141  0.323723  0.750000  1
  Sc  Sc3  1  0.322954  0.002316  0.750000  1
  Al  Al4  1  0.005107  0.335535  0.061365  1
  Al  Al5  1  0.003052  0.663515  0.915603  1
  Al  Al6  1  0.003052  0.663515  0.584397  1
  Al  Al7  1  0.336318  0.007307  0.438094  1
  Al  Al8  1  0.005107  0.335535  0.438635  1
  Al  Al9  1  0.663521  0.003565  0.584250  1
  Al  Al10  1  0.663521  0.003565  0.915750  1
  Al  Al11  1  0.336318  0.007307  0.061906  1
  Al  Al12  1  0.330618  0.330907  0.570916  1
  Al  Al13  1  0.664831  0.664342  0.463771  1
  Al  Al14  1  0.664831  0.664342  0.036229  1
  Al  Al15  1  0.330618  0.330907  0.929084  1
  Al  Al16  1  0.661747  0.440936  0.750000  1
  Al  Al17  1  0.545444  0.337664  0.250000  1
  Al  Al18  1  0.441781  0.661739  0.750000  1
  Ga  Ga19  1  0.135526  0.136040  0.250000  1
  Ga  Ga20  1  0.871353  0.871176  0.750000  1
  Ga  Ga21  1  0.336512  0.540625  0.250000  1
  Ir  Ir22  1  0.671826  0.329723  0.997415  1
  Ir  Ir23  1  0.329179  0.673224  0.995259  1
  Ir  Ir24  1  0.329179  0.673224  0.504741  1
  Ir  Ir25  1  0.671826  0.329723  0.502585  1
  Ir  Ir26  1  0.002004  0.002497  0.995203  1
  Ir  Ir27  1  0.002004  0.002497  0.504797  1
