# generated using pymatgen
data_Dy9YSn5Sb
_symmetry_space_group_name_H-M   'P 1'
_cell_length_a   8.98036000
_cell_length_b   8.97465655
_cell_length_c   6.50334700
_cell_angle_alpha   90.00000000
_cell_angle_beta   90.00000000
_cell_angle_gamma   120.02101723
_symmetry_Int_Tables_number   1
_chemical_formula_structural   Dy9YSn5Sb
_chemical_formula_sum   'Dy9 Y1 Sn5 Sb1'
_cell_volume   453.82365387
_cell_formula_units_Z   1
loop_
 _symmetry_equiv_pos_site_id
 _symmetry_equiv_pos_as_xyz
  1  'x, y, z'
loop_
 _atom_site_type_symbol
 _atom_site_label
 _atom_site_symmetry_multiplicity
 _atom_site_fract_x
 _atom_site_fract_y
 _atom_site_fract_z
 _atom_site_occupancy
  Dy  Dy0  1  0.998237  0.760053  0.750000  1
  Dy  Dy1  1  0.761439  0.760792  0.250000  1
  Dy  Dy2  1  0.761626  0.000000  0.750000  1
  Dy  Dy3  1  0.238184  0.239947  0.750000  1
  Dy  Dy4  1  0.239089  0.000000  0.250000  1
  Dy  Dy5  1  0.333177  0.665775  0.500125  1
  Dy  Dy6  1  0.667403  0.334225  0.999875  1
  Dy  Dy7  1  0.667403  0.334225  0.500125  1
  Dy  Dy8  1  0.333177  0.665775  0.999875  1
  Y  Y9  1  0.000647  0.239208  0.250000  1
  Sn  Sn10  1  0.395418  0.394870  0.250000  1
  Sn  Sn11  1  0.000548  0.605130  0.250000  1
  Sn  Sn12  1  0.999962  0.395410  0.750000  1
  Sn  Sn13  1  0.604552  0.604590  0.750000  1
  Sn  Sn14  1  0.605234  0.000000  0.250000  1
  Sb  Sb15  1  0.393903  0.000000  0.750000  1
