# generated using pymatgen
data_CaNbOsF12
_symmetry_space_group_name_H-M   'P 1'
_cell_length_a   11.76955309
_cell_length_b   5.86295941
_cell_length_c   5.88061193
_cell_angle_alpha   57.51992422
_cell_angle_beta   57.42009953
_cell_angle_gamma   57.39883021
_symmetry_Int_Tables_number   1
_chemical_formula_structural   CaNbOsF12
_chemical_formula_sum   'Ca1 Nb1 Os1 F12'
_cell_volume   270.07725147
_cell_formula_units_Z   1
loop_
 _symmetry_equiv_pos_site_id
 _symmetry_equiv_pos_as_xyz
  1  'x, y, z'
loop_
 _atom_site_type_symbol
 _atom_site_label
 _atom_site_symmetry_multiplicity
 _atom_site_fract_x
 _atom_site_fract_y
 _atom_site_fract_z
 _atom_site_occupancy
  Ca  Ca0  1  0.749917  0.495731  0.504165  1
  Nb  Nb1  1  0.483733  0.016381  0.006520  1
  Os  Os2  1  0.007453  0.990318  0.998815  1
  F  F3  1  0.161554  0.125370  0.775502  1
  F  F4  1  0.659253  0.136173  0.777033  1
  F  F5  1  0.062421  0.777086  0.323375  1
  F  F6  1  0.572185  0.770197  0.312149  1
  F  F7  1  0.112303  0.673036  0.875701  1
  F  F8  1  0.615774  0.681722  0.862681  1
  F  F9  1  0.441392  0.221341  0.665739  1
  F  F10  1  0.934222  0.224341  0.679908  1
  F  F11  1  0.334260  0.867868  0.235250  1
  F  F12  1  0.840160  0.864592  0.225395  1
  F  F13  1  0.388080  0.335008  0.125286  1
  F  F14  1  0.887292  0.320834  0.132481  1
