# generated using pymatgen
data_Ho8Sc12Si15B
_symmetry_space_group_name_H-M   'P 1'
_cell_length_a   7.01541118
_cell_length_b   7.36458204
_cell_length_c   13.91595800
_cell_angle_alpha   90.00000000
_cell_angle_beta   90.00000000
_cell_angle_gamma   89.42309719
_symmetry_Int_Tables_number   1
_chemical_formula_structural   Ho8Sc12Si15B
_chemical_formula_sum   'Ho8 Sc12 Si15 B1'
_cell_volume   718.93947335
_cell_formula_units_Z   1
loop_
 _symmetry_equiv_pos_site_id
 _symmetry_equiv_pos_as_xyz
  1  'x, y, z'
loop_
 _atom_site_type_symbol
 _atom_site_label
 _atom_site_symmetry_multiplicity
 _atom_site_fract_x
 _atom_site_fract_y
 _atom_site_fract_z
 _atom_site_occupancy
  Ho  Ho0  1  0.010231  0.178090  0.096726  1
  Ho  Ho1  1  0.988461  0.828860  0.902728  1
  Ho  Ho2  1  0.488761  0.678357  0.901859  1
  Ho  Ho3  1  0.988461  0.828860  0.597272  1
  Ho  Ho4  1  0.511471  0.324590  0.095350  1
  Ho  Ho5  1  0.010231  0.178090  0.403274  1
  Ho  Ho6  1  0.511471  0.324590  0.404650  1
  Ho  Ho7  1  0.488761  0.678357  0.598141  1
  Sc  Sc8  1  0.166570  0.509526  0.750000  1
  Sc  Sc9  1  0.838749  0.497455  0.250000  1
  Sc  Sc10  1  0.338368  0.003290  0.250000  1
  Sc  Sc11  1  0.673326  0.997753  0.750000  1
  Sc  Sc12  1  0.314830  0.174262  0.629328  1
  Sc  Sc13  1  0.669244  0.823435  0.375535  1
  Sc  Sc14  1  0.168490  0.676917  0.375640  1
  Sc  Sc15  1  0.669244  0.823435  0.124465  1
  Sc  Sc16  1  0.848549  0.310492  0.631972  1
  Sc  Sc17  1  0.314830  0.174262  0.870672  1
  Sc  Sc18  1  0.848549  0.310492  0.868028  1
  Sc  Sc19  1  0.168490  0.676917  0.124360  1
  Si  Si20  1  0.966482  0.883505  0.250000  1
  Si  Si21  1  0.467196  0.616014  0.250000  1
  Si  Si22  1  0.538008  0.380574  0.750000  1
  Si  Si23  1  0.267939  0.885399  0.750000  1
  Si  Si24  1  0.711978  0.129185  0.250000  1
  Si  Si25  1  0.214600  0.372366  0.250000  1
  Si  Si26  1  0.787464  0.623385  0.750000  1
  Si  Si27  1  0.159192  0.466839  0.539974  1
  Si  Si28  1  0.839763  0.534584  0.464994  1
  Si  Si29  1  0.339813  0.964762  0.463062  1
  Si  Si30  1  0.839763  0.534584  0.035006  1
  Si  Si31  1  0.654787  0.037646  0.540790  1
  Si  Si32  1  0.159192  0.466839  0.960026  1
  Si  Si33  1  0.654787  0.037646  0.959210  1
  Si  Si34  1  0.339813  0.964762  0.036938  1
  B  B35  1  0.042138  0.103881  0.750000  1
