# generated using pymatgen
data_Sr9Ce(PN5)2
_symmetry_space_group_name_H-M   'P 1'
_cell_length_a   7.48520866
_cell_length_b   7.48520823
_cell_length_c   8.67016079
_cell_angle_alpha   76.20460000
_cell_angle_beta   76.20459760
_cell_angle_gamma   95.56810555
_symmetry_Int_Tables_number   1
_chemical_formula_structural   Sr9Ce(PN5)2
_chemical_formula_sum   'Sr9 Ce1 P2 N10'
_cell_volume   452.01309518
_cell_formula_units_Z   1
loop_
 _symmetry_equiv_pos_site_id
 _symmetry_equiv_pos_as_xyz
  1  'x, y, z'
loop_
 _atom_site_type_symbol
 _atom_site_label
 _atom_site_symmetry_multiplicity
 _atom_site_fract_x
 _atom_site_fract_y
 _atom_site_fract_z
 _atom_site_occupancy
  Sr  Sr0  1  0.608547  0.608547  0.629032  1
  Sr  Sr1  1  0.676125  0.676125  0.000018  1
  Sr  Sr2  1  0.327612  0.327612  0.997778  1
  Sr  Sr3  1  0.928187  0.928187  0.200741  1
  Sr  Sr4  1  0.071461  0.071461  0.794597  1
  Sr  Sr5  1  0.558854  0.088084  0.758889  1
  Sr  Sr6  1  0.915696  0.438036  0.243711  1
  Sr  Sr7  1  0.438036  0.915696  0.243711  1
  Sr  Sr8  1  0.088084  0.558854  0.758889  1
  Ce  Ce9  1  0.411762  0.411762  0.368377  1
  P  P10  1  0.757605  0.242609  0.001997  1
  P  P11  1  0.242609  0.757605  0.001997  1
  N  N12  1  0.634427  0.634427  0.327031  1
  N  N13  1  0.347919  0.347919  0.638830  1
  N  N14  1  0.719311  0.022577  0.993007  1
  N  N15  1  0.977119  0.277139  0.015009  1
  N  N16  1  0.277139  0.977119  0.015009  1
  N  N17  1  0.022577  0.719311  0.993007  1
  N  N18  1  0.392325  0.725491  0.837328  1
  N  N19  1  0.275608  0.603505  0.171855  1
  N  N20  1  0.603505  0.275608  0.171855  1
  N  N21  1  0.725491  0.392325  0.837328  1
