# generated using pymatgen
data_DyHoLu6(WO6)4
_symmetry_space_group_name_H-M   'P 1'
_cell_length_a   5.32355300
_cell_length_b   7.60223596
_cell_length_c   11.33643005
_cell_angle_alpha   75.19557885
_cell_angle_beta   90.00000000
_cell_angle_gamma   90.00000000
_symmetry_Int_Tables_number   1
_chemical_formula_structural   DyHoLu6(WO6)4
_chemical_formula_sum   'Dy1 Ho1 Lu6 W4 O24'
_cell_volume   443.56526799
_cell_formula_units_Z   1
loop_
 _symmetry_equiv_pos_site_id
 _symmetry_equiv_pos_as_xyz
  1  'x, y, z'
loop_
 _atom_site_type_symbol
 _atom_site_label
 _atom_site_symmetry_multiplicity
 _atom_site_fract_x
 _atom_site_fract_y
 _atom_site_fract_z
 _atom_site_occupancy
  Dy  Dy0  1  0.684950  0.500000  0.750000  1
  Ho  Ho1  1  0.315127  0.500000  0.250000  1
  Lu  Lu2  1  0.739302  0.000000  0.750000  1
  Lu  Lu3  1  0.260815  0.000000  0.250000  1
  Lu  Lu4  1  0.186557  0.797650  0.578490  1
  Lu  Lu5  1  0.813537  0.797423  0.078664  1
  Lu  Lu6  1  0.186557  0.202350  0.921510  1
  Lu  Lu7  1  0.813537  0.202577  0.421336  1
  W  W8  1  0.254121  0.723822  0.886257  1
  W  W9  1  0.745839  0.723677  0.386020  1
  W  W10  1  0.254121  0.276178  0.613743  1
  W  W11  1  0.745839  0.276323  0.113980  1
  O  O12  1  0.037252  0.942508  0.895480  1
  O  O13  1  0.535275  0.850335  0.931323  1
  O  O14  1  0.962655  0.942618  0.395255  1
  O  O15  1  0.461160  0.793100  0.725850  1
  O  O16  1  0.464921  0.850385  0.431283  1
  O  O17  1  0.982109  0.713691  0.769219  1
  O  O18  1  0.538553  0.792770  0.225795  1
  O  O19  1  0.856801  0.635806  0.549977  1
  O  O20  1  0.358940  0.486442  0.888041  1
  O  O21  1  0.018532  0.712984  0.269301  1
  O  O22  1  0.358940  0.513558  0.611959  1
  O  O23  1  0.856801  0.364194  0.950023  1
  O  O24  1  0.143584  0.635805  0.050378  1
  O  O25  1  0.640066  0.486477  0.387701  1
  O  O26  1  0.982109  0.286309  0.730781  1
  O  O27  1  0.640066  0.513523  0.112299  1
  O  O28  1  0.143584  0.364195  0.449622  1
  O  O29  1  0.461160  0.206900  0.774150  1
  O  O30  1  0.018532  0.287016  0.230699  1
  O  O31  1  0.535275  0.149665  0.568677  1
  O  O32  1  0.538553  0.207230  0.274205  1
  O  O33  1  0.037252  0.057492  0.604520  1
  O  O34  1  0.464921  0.149615  0.068717  1
  O  O35  1  0.962655  0.057382  0.104745  1
