# generated using pymatgen
data_K2HfWO6
_symmetry_space_group_name_H-M   'P 1'
_cell_length_a   5.74078259
_cell_length_b   5.74078087
_cell_length_c   5.74078400
_cell_angle_alpha   59.99997310
_cell_angle_beta   59.99993889
_cell_angle_gamma   89.99989242
_symmetry_Int_Tables_number   1
_chemical_formula_structural   K2HfWO6
_chemical_formula_sum   'K2 Hf1 W1 O6'
_cell_volume   133.78213063
_cell_formula_units_Z   1
loop_
 _symmetry_equiv_pos_site_id
 _symmetry_equiv_pos_as_xyz
  1  'x, y, z'
loop_
 _atom_site_type_symbol
 _atom_site_label
 _atom_site_symmetry_multiplicity
 _atom_site_fract_x
 _atom_site_fract_y
 _atom_site_fract_z
 _atom_site_occupancy
  K  K0  1  0.250001  0.749999  0.500001  1
  K  K1  1  0.749999  0.249998  0.500003  1
  Hf  Hf2  1  0.500000  0.500000  0.000000  1
  W  W3  1  0.000000  0.000000  0.000001  1
  O  O4  1  0.758443  0.241557  0.000000  1
  O  O5  1  0.241557  0.241556  0.000000  1
  O  O6  1  0.241558  0.758443  0.000000  1
  O  O7  1  0.758444  0.758443  0.000000  1
  O  O8  1  0.758443  0.758443  0.483113  1
  O  O9  1  0.241558  0.241557  0.516886  1
