# generated using pymatgen
data_Nd3Sb5Pd5Au
_symmetry_space_group_name_H-M   'P 1'
_cell_length_a   13.51222400
_cell_length_b   4.51003400
_cell_length_c   10.27535500
_cell_angle_alpha   90.00000000
_cell_angle_beta   90.00000000
_cell_angle_gamma   90.00000000
_symmetry_Int_Tables_number   1
_chemical_formula_structural   Nd3Sb5Pd5Au
_chemical_formula_sum   'Nd6 Sb10 Pd10 Au2'
_cell_volume   626.18619262
_cell_formula_units_Z   2
loop_
 _symmetry_equiv_pos_site_id
 _symmetry_equiv_pos_as_xyz
  1  'x, y, z'
loop_
 _atom_site_type_symbol
 _atom_site_label
 _atom_site_symmetry_multiplicity
 _atom_site_fract_x
 _atom_site_fract_y
 _atom_site_fract_z
 _atom_site_occupancy
  Nd  Nd0  1  0.571852  0.250000  0.753358  1
  Nd  Nd1  1  0.750000  0.749998  0.242888  1
  Nd  Nd2  1  0.250000  0.250000  0.757112  1
  Nd  Nd3  1  0.928149  0.250000  0.753358  1
  Nd  Nd4  1  0.071851  0.749998  0.246642  1
  Nd  Nd5  1  0.428149  0.749998  0.246642  1
  Sb  Sb6  1  0.588276  0.250000  0.129393  1
  Sb  Sb7  1  0.911724  0.250000  0.129393  1
  Sb  Sb8  1  0.088276  0.749998  0.870608  1
  Sb  Sb9  1  0.411725  0.749998  0.870608  1
  Sb  Sb10  1  0.250000  0.250000  0.179537  1
  Sb  Sb11  1  0.750000  0.749998  0.820463  1
  Sb  Sb12  1  0.388578  0.250000  0.480909  1
  Sb  Sb13  1  0.111421  0.250000  0.480909  1
  Sb  Sb14  1  0.888579  0.749998  0.519092  1
  Sb  Sb15  1  0.611421  0.749998  0.519092  1
  Pd  Pd16  1  0.577281  0.250000  0.383373  1
  Pd  Pd17  1  0.922720  0.250000  0.383373  1
  Pd  Pd18  1  0.077280  0.749998  0.616627  1
  Pd  Pd19  1  0.422719  0.749998  0.616627  1
  Pd  Pd20  1  0.250000  0.749998  0.023936  1
  Pd  Pd21  1  0.750000  0.250000  0.976064  1
  Pd  Pd22  1  0.406697  0.250000  0.013435  1
  Pd  Pd23  1  0.093302  0.250000  0.013435  1
  Pd  Pd24  1  0.906698  0.749998  0.986565  1
  Pd  Pd25  1  0.593303  0.749998  0.986565  1
  Au  Au26  1  0.250000  0.749998  0.461796  1
  Au  Au27  1  0.750000  0.250000  0.538203  1
