# generated using pymatgen
data_Y5RuPt2
_symmetry_space_group_name_H-M   'P 1'
_cell_length_a   11.02095600
_cell_length_b   11.02095600
_cell_length_c   6.44285700
_cell_angle_alpha   90.00000000
_cell_angle_beta   90.00000000
_cell_angle_gamma   90.00000000
_symmetry_Int_Tables_number   1
_chemical_formula_structural   Y5RuPt2
_chemical_formula_sum   'Y20 Ru4 Pt8'
_cell_volume   782.55888965
_cell_formula_units_Z   4
loop_
 _symmetry_equiv_pos_site_id
 _symmetry_equiv_pos_as_xyz
  1  'x, y, z'
loop_
 _atom_site_type_symbol
 _atom_site_label
 _atom_site_symmetry_multiplicity
 _atom_site_fract_x
 _atom_site_fract_y
 _atom_site_fract_z
 _atom_site_occupancy
  Y  Y0  1  0.296723  0.086342  0.372954  1
  Y  Y1  1  0.296723  0.913658  0.872954  1
  Y  Y2  1  0.703277  0.086342  0.872954  1
  Y  Y3  1  0.703277  0.913658  0.372954  1
  Y  Y4  1  0.586342  0.796723  0.872954  1
  Y  Y5  1  0.586342  0.203277  0.372954  1
  Y  Y6  1  0.413658  0.796723  0.372954  1
  Y  Y7  1  0.413658  0.203277  0.872954  1
  Y  Y8  1  0.203277  0.413658  0.627046  1
  Y  Y9  1  0.203277  0.586342  0.127046  1
  Y  Y10  1  0.796723  0.413658  0.127046  1
  Y  Y11  1  0.796723  0.586342  0.627046  1
  Y  Y12  1  0.913658  0.703277  0.127046  1
  Y  Y13  1  0.913658  0.296723  0.627046  1
  Y  Y14  1  0.086342  0.703277  0.627046  1
  Y  Y15  1  0.086342  0.296723  0.127046  1
  Y  Y16  1  0.000000  0.000000  0.500000  1
  Y  Y17  1  0.000000  0.000000  0.000000  1
  Y  Y18  1  0.500000  0.500000  0.000000  1
  Y  Y19  1  0.500000  0.500000  0.500000  1
  Ru  Ru20  1  0.500000  0.000000  0.124041  1
  Ru  Ru21  1  0.500000  0.000000  0.624041  1
  Ru  Ru22  1  0.000000  0.500000  0.875959  1
  Ru  Ru23  1  0.000000  0.500000  0.375959  1
  Pt  Pt24  1  0.846324  0.153676  0.250000  1
  Pt  Pt25  1  0.846324  0.846324  0.750000  1
  Pt  Pt26  1  0.153676  0.153676  0.750000  1
  Pt  Pt27  1  0.153676  0.846324  0.250000  1
  Pt  Pt28  1  0.653676  0.346324  0.750000  1
  Pt  Pt29  1  0.653676  0.653676  0.250000  1
  Pt  Pt30  1  0.346324  0.346324  0.250000  1
  Pt  Pt31  1  0.346324  0.653676  0.750000  1
