# generated using pymatgen
data_Dy3NiSn3Ir2
_symmetry_space_group_name_H-M   'P 1'
_cell_length_a   7.50914500
_cell_length_b   7.50914496
_cell_length_c   3.83028500
_cell_angle_alpha   90.00000000
_cell_angle_beta   90.00000000
_cell_angle_gamma   120.00000457
_symmetry_Int_Tables_number   1
_chemical_formula_structural   Dy3NiSn3Ir2
_chemical_formula_sum   'Dy3 Ni1 Sn3 Ir2'
_cell_volume   187.04352580
_cell_formula_units_Z   1
loop_
 _symmetry_equiv_pos_site_id
 _symmetry_equiv_pos_as_xyz
  1  'x, y, z'
loop_
 _atom_site_type_symbol
 _atom_site_label
 _atom_site_symmetry_multiplicity
 _atom_site_fract_x
 _atom_site_fract_y
 _atom_site_fract_z
 _atom_site_occupancy
  Dy  Dy0  1  0.407722  0.407722  0.500000  1
  Dy  Dy1  1  0.592278  0.000000  0.500000  1
  Dy  Dy2  1  0.000000  0.592278  0.500000  1
  Ni  Ni3  1  0.000000  0.000000  0.500000  1
  Sn  Sn4  1  0.746196  0.746196  0.000000  1
  Sn  Sn5  1  0.253804  0.000000  0.000000  1
  Sn  Sn6  1  0.000000  0.253804  0.000000  1
  Ir  Ir7  1  0.666667  0.333333  0.000000  1
  Ir  Ir8  1  0.333333  0.666667  0.000000  1
