# generated using pymatgen
data_Pr4PdPb2Au3
_symmetry_space_group_name_H-M   'P 1'
_cell_length_a   8.24342114
_cell_length_b   8.24342114
_cell_length_c   3.89880700
_cell_angle_alpha   90.00000000
_cell_angle_beta   90.00000000
_cell_angle_gamma   90.21228185
_symmetry_Int_Tables_number   1
_chemical_formula_structural   Pr4PdPb2Au3
_chemical_formula_sum   'Pr4 Pd1 Pb2 Au3'
_cell_volume   264.93768192
_cell_formula_units_Z   1
loop_
 _symmetry_equiv_pos_site_id
 _symmetry_equiv_pos_as_xyz
  1  'x, y, z'
loop_
 _atom_site_type_symbol
 _atom_site_label
 _atom_site_symmetry_multiplicity
 _atom_site_fract_x
 _atom_site_fract_y
 _atom_site_fract_z
 _atom_site_occupancy
  Pr  Pr0  1  0.319496  0.819496  0.500000  1
  Pr  Pr1  1  0.673969  0.173969  0.500000  1
  Pr  Pr2  1  0.832343  0.675594  0.500000  1
  Pr  Pr3  1  0.175594  0.332343  0.500000  1
  Pd  Pd4  1  0.124063  0.624063  0.000000  1
  Pb  Pb5  1  0.496077  0.502096  0.000000  1
  Pb  Pb6  1  0.002096  0.996077  0.000000  1
  Au  Au7  1  0.878844  0.378844  0.000000  1
  Au  Au8  1  0.622154  0.875364  0.000000  1
  Au  Au9  1  0.375364  0.122154  0.000000  1
