# generated using pymatgen
data_Dy7YCo17Si10Ir
_symmetry_space_group_name_H-M   'P 1'
_cell_length_a   5.22468804
_cell_length_b   5.22468795
_cell_length_c   21.94775300
_cell_angle_alpha   89.89456427
_cell_angle_beta   90.10543711
_cell_angle_gamma   120.36325224
_symmetry_Int_Tables_number   1
_chemical_formula_structural   Dy7YCo17Si10Ir
_chemical_formula_sum   'Dy7 Y1 Co17 Si10 Ir1'
_cell_volume   516.93875831
_cell_formula_units_Z   1
loop_
 _symmetry_equiv_pos_site_id
 _symmetry_equiv_pos_as_xyz
  1  'x, y, z'
loop_
 _atom_site_type_symbol
 _atom_site_label
 _atom_site_symmetry_multiplicity
 _atom_site_fract_x
 _atom_site_fract_y
 _atom_site_fract_z
 _atom_site_occupancy
  Dy  Dy0  1  0.332561  0.667439  0.530078  1
  Dy  Dy1  1  0.665176  0.334824  0.474222  1
  Dy  Dy2  1  0.666718  0.333282  0.027501  1
  Dy  Dy3  1  0.333387  0.666613  0.972010  1
  Dy  Dy4  1  0.332772  0.667228  0.675589  1
  Dy  Dy5  1  0.667851  0.332149  0.325645  1
  Dy  Dy6  1  0.666941  0.333059  0.173644  1
  Y  Y7  1  0.333473  0.666527  0.826341  1
  Co  Co8  1  0.166298  0.332496  0.087215  1
  Co  Co9  1  0.833393  0.667125  0.912097  1
  Co  Co10  1  0.667504  0.833702  0.087215  1
  Co  Co11  1  0.832526  0.668211  0.589583  1
  Co  Co12  1  0.332875  0.166607  0.912097  1
  Co  Co13  1  0.165130  0.330862  0.412304  1
  Co  Co14  1  0.166051  0.833949  0.087139  1
  Co  Co15  1  0.331789  0.167474  0.589583  1
  Co  Co16  1  0.834153  0.165847  0.911538  1
  Co  Co17  1  0.669138  0.834870  0.412304  1
  Co  Co18  1  0.832427  0.167573  0.590081  1
  Co  Co19  1  0.168160  0.334454  0.247396  1
  Co  Co20  1  0.832609  0.665030  0.750664  1
  Co  Co21  1  0.665546  0.831840  0.247396  1
  Co  Co22  1  0.334970  0.167391  0.750664  1
  Co  Co23  1  0.167906  0.832094  0.249520  1
  Co  Co24  1  0.832602  0.167398  0.750848  1
  Si  Si25  1  0.999625  0.000375  0.999525  1
  Si  Si26  1  0.996707  0.003293  0.502721  1
  Si  Si27  1  0.332164  0.667836  0.166517  1
  Si  Si28  1  0.666063  0.333937  0.832378  1
  Si  Si29  1  0.665932  0.334068  0.669223  1
  Si  Si30  1  0.344033  0.655967  0.328895  1
  Si  Si31  1  0.001569  0.998431  0.167540  1
  Si  Si32  1  0.001023  0.998977  0.831433  1
  Si  Si33  1  0.999758  0.000242  0.670063  1
  Si  Si34  1  0.992148  0.007852  0.328208  1
  Ir  Ir35  1  0.169024  0.830976  0.410821  1
