# generated using pymatgen
data_Th10Sn6P
_symmetry_space_group_name_H-M   'P 1'
_cell_length_a   6.51917200
_cell_length_b   9.48501374
_cell_length_c   9.48484600
_cell_angle_alpha   120.00059018
_cell_angle_beta   89.99964025
_cell_angle_gamma   90.00071556
_symmetry_Int_Tables_number   1
_chemical_formula_structural   Th10Sn6P
_chemical_formula_sum   'Th10 Sn6 P1'
_cell_volume   507.91230729
_cell_formula_units_Z   1
loop_
 _symmetry_equiv_pos_site_id
 _symmetry_equiv_pos_as_xyz
  1  'x, y, z'
loop_
 _atom_site_type_symbol
 _atom_site_label
 _atom_site_symmetry_multiplicity
 _atom_site_fract_x
 _atom_site_fract_y
 _atom_site_fract_z
 _atom_site_occupancy
  Th  Th0  1  0.500000  0.333352  0.666706  1
  Th  Th1  1  0.500000  0.666647  0.333294  1
  Th  Th2  1  0.000000  0.666656  0.333312  1
  Th  Th3  1  0.000000  0.333345  0.666688  1
  Th  Th4  1  0.750688  0.254026  0.000000  1
  Th  Th5  1  0.750713  0.745978  0.745966  1
  Th  Th6  1  0.750713  0.000012  0.254034  1
  Th  Th7  1  0.249312  0.745974  0.000000  1
  Th  Th8  1  0.249287  0.254024  0.254034  1
  Th  Th9  1  0.249287  0.999989  0.745966  1
  Sn  Sn10  1  0.750713  0.612549  0.000000  1
  Sn  Sn11  1  0.750714  0.387472  0.387462  1
  Sn  Sn12  1  0.750714  0.000011  0.612538  1
  Sn  Sn13  1  0.249287  0.387451  0.000000  1
  Sn  Sn14  1  0.249286  0.612528  0.612538  1
  Sn  Sn15  1  0.249286  0.999989  0.387462  1
  P  P16  1  0.499999  0.000001  0.000000  1
