# generated using pymatgen
data_Ho6ZnSi5Rh12
_symmetry_space_group_name_H-M   'P 1'
_cell_length_a   5.55012200
_cell_length_b   5.55012094
_cell_length_c   15.15820600
_cell_angle_alpha   90.00000000
_cell_angle_beta   90.00000000
_cell_angle_gamma   119.99999439
_symmetry_Int_Tables_number   1
_chemical_formula_structural   Ho6ZnSi5Rh12
_chemical_formula_sum   'Ho6 Zn1 Si5 Rh12'
_cell_volume   404.37419876
_cell_formula_units_Z   1
loop_
 _symmetry_equiv_pos_site_id
 _symmetry_equiv_pos_as_xyz
  1  'x, y, z'
loop_
 _atom_site_type_symbol
 _atom_site_label
 _atom_site_symmetry_multiplicity
 _atom_site_fract_x
 _atom_site_fract_y
 _atom_site_fract_z
 _atom_site_occupancy
  Ho  Ho0  1  0.333333  0.666667  0.538234  1
  Ho  Ho1  1  0.666667  0.333333  0.461766  1
  Ho  Ho2  1  0.666667  0.333333  0.037159  1
  Ho  Ho3  1  0.333333  0.666667  0.962841  1
  Ho  Ho4  1  0.333333  0.666667  0.750490  1
  Ho  Ho5  1  0.666667  0.333333  0.249510  1
  Zn  Zn6  1  0.000000  0.000000  0.000000  1
  Si  Si7  1  0.000000  0.000000  0.252091  1
  Si  Si8  1  0.000000  0.000000  0.747909  1
  Si  Si9  1  0.333333  0.666667  0.252232  1
  Si  Si10  1  0.666667  0.333333  0.747768  1
  Si  Si11  1  0.000000  0.000000  0.500000  1
  Rh  Rh12  1  0.167755  0.335511  0.135049  1
  Rh  Rh13  1  0.832245  0.664489  0.864951  1
  Rh  Rh14  1  0.664489  0.832245  0.135049  1
  Rh  Rh15  1  0.833059  0.666120  0.628840  1
  Rh  Rh16  1  0.335511  0.167755  0.864951  1
  Rh  Rh17  1  0.166941  0.333880  0.371160  1
  Rh  Rh18  1  0.167755  0.832245  0.135049  1
  Rh  Rh19  1  0.333880  0.166941  0.628840  1
  Rh  Rh20  1  0.832245  0.167755  0.864951  1
  Rh  Rh21  1  0.666120  0.833059  0.371160  1
  Rh  Rh22  1  0.833059  0.166941  0.628840  1
  Rh  Rh23  1  0.166941  0.833059  0.371160  1
