# generated using pymatgen
data_Zr6ScTa3Ga12Rh7
_symmetry_space_group_name_H-M   'P 1'
_cell_length_a   8.87271857
_cell_length_b   8.87271873
_cell_length_c   8.87271900
_cell_angle_alpha   59.90216719
_cell_angle_beta   59.90215877
_cell_angle_gamma   59.90216013
_symmetry_Int_Tables_number   1
_chemical_formula_structural   Zr6ScTa3Ga12Rh7
_chemical_formula_sum   'Zr6 Sc1 Ta3 Ga12 Rh7'
_cell_volume   492.82204063
_cell_formula_units_Z   1
loop_
 _symmetry_equiv_pos_site_id
 _symmetry_equiv_pos_as_xyz
  1  'x, y, z'
loop_
 _atom_site_type_symbol
 _atom_site_label
 _atom_site_symmetry_multiplicity
 _atom_site_fract_x
 _atom_site_fract_y
 _atom_site_fract_z
 _atom_site_occupancy
  Zr  Zr0  1  0.692870  0.692870  0.307513  1
  Zr  Zr1  1  0.304384  0.695242  0.304384  1
  Zr  Zr2  1  0.695242  0.304384  0.304384  1
  Zr  Zr3  1  0.304384  0.304384  0.695242  1
  Zr  Zr4  1  0.692870  0.307513  0.692870  1
  Zr  Zr5  1  0.307513  0.692870  0.692870  1
  Sc  Sc6  1  0.879334  0.879334  0.879334  1
  Ta  Ta7  1  0.877193  0.877193  0.367430  1
  Ta  Ta8  1  0.877193  0.367430  0.877193  1
  Ta  Ta9  1  0.367430  0.877193  0.877193  1
  Ga  Ga10  1  0.120469  0.120469  0.637016  1
  Ga  Ga11  1  0.120469  0.637016  0.120469  1
  Ga  Ga12  1  0.637016  0.120469  0.120469  1
  Ga  Ga13  1  0.122072  0.122072  0.122072  1
  Ga  Ga14  1  0.657620  0.657620  0.029777  1
  Ga  Ga15  1  0.657620  0.029777  0.657620  1
  Ga  Ga16  1  0.029777  0.657620  0.657620  1
  Ga  Ga17  1  0.655028  0.655028  0.655028  1
  Ga  Ga18  1  0.342442  0.342442  0.973921  1
  Ga  Ga19  1  0.342442  0.973921  0.342442  1
  Ga  Ga20  1  0.973921  0.342442  0.342442  1
  Ga  Ga21  1  0.341855  0.341855  0.341855  1
  Rh  Rh22  1  0.004308  0.004308  0.004308  1
  Rh  Rh23  1  0.998139  0.998139  0.495349  1
  Rh  Rh24  1  0.504562  0.995795  0.504562  1
  Rh  Rh25  1  0.995795  0.504562  0.504562  1
  Rh  Rh26  1  0.504562  0.504562  0.995795  1
  Rh  Rh27  1  0.998139  0.495349  0.998139  1
  Rh  Rh28  1  0.495349  0.998139  0.998139  1
