# generated using pymatgen
data_Y2HoEr5(WO6)4
_symmetry_space_group_name_H-M   'P 1'
_cell_length_a   5.37892900
_cell_length_b   7.68334591
_cell_length_c   11.43224825
_cell_angle_alpha   75.36931276
_cell_angle_beta   90.00000000
_cell_angle_gamma   90.00000000
_symmetry_Int_Tables_number   1
_chemical_formula_structural   Y2HoEr5(WO6)4
_chemical_formula_sum   'Y2 Ho1 Er5 W4 O24'
_cell_volume   457.15349573
_cell_formula_units_Z   1
loop_
 _symmetry_equiv_pos_site_id
 _symmetry_equiv_pos_as_xyz
  1  'x, y, z'
loop_
 _atom_site_type_symbol
 _atom_site_label
 _atom_site_symmetry_multiplicity
 _atom_site_fract_x
 _atom_site_fract_y
 _atom_site_fract_z
 _atom_site_occupancy
  Y  Y0  1  0.684312  0.500000  0.250000  1
  Y  Y1  1  0.315624  0.500000  0.750000  1
  Ho  Ho2  1  0.740870  0.000000  0.250000  1
  Er  Er3  1  0.183785  0.205283  0.422017  1
  Er  Er4  1  0.183785  0.794717  0.077983  1
  Er  Er5  1  0.816270  0.794760  0.578067  1
  Er  Er6  1  0.816270  0.205240  0.921933  1
  Er  Er7  1  0.259314  0.000000  0.750000  1
  W  W8  1  0.255849  0.275636  0.114911  1
  W  W9  1  0.255849  0.724364  0.385089  1
  W  W10  1  0.744138  0.724507  0.885022  1
  W  W11  1  0.744138  0.275493  0.614978  1
  O  O12  1  0.457533  0.207457  0.273824  1
  O  O13  1  0.457533  0.792543  0.226176  1
  O  O14  1  0.541828  0.793016  0.726203  1
  O  O15  1  0.541828  0.206984  0.773797  1
  O  O16  1  0.044125  0.059367  0.104187  1
  O  O17  1  0.044125  0.940633  0.395813  1
  O  O18  1  0.956555  0.940761  0.895484  1
  O  O19  1  0.956555  0.059239  0.604516  1
  O  O20  1  0.981217  0.287661  0.229366  1
  O  O21  1  0.981217  0.712339  0.270634  1
  O  O22  1  0.018916  0.712590  0.770611  1
  O  O23  1  0.018916  0.287410  0.729389  1
  O  O24  1  0.850264  0.364411  0.451718  1
  O  O25  1  0.850264  0.635589  0.048282  1
  O  O26  1  0.149664  0.635518  0.548298  1
  O  O27  1  0.149664  0.364482  0.951702  1
  O  O28  1  0.641392  0.510420  0.614190  1
  O  O29  1  0.641392  0.489580  0.885810  1
  O  O30  1  0.358656  0.489546  0.385852  1
  O  O31  1  0.358656  0.510454  0.114148  1
  O  O32  1  0.463526  0.153328  0.569487  1
  O  O33  1  0.463526  0.846672  0.930513  1
  O  O34  1  0.536221  0.846402  0.430795  1
  O  O35  1  0.536221  0.153598  0.069205  1
