# generated using pymatgen
data_Hf2Ta4V4Si6B
_symmetry_space_group_name_H-M   'P 1'
_cell_length_a   7.45934712
_cell_length_b   7.46132797
_cell_length_c   5.03029900
_cell_angle_alpha   89.99488576
_cell_angle_beta   90.01023887
_cell_angle_gamma   119.99122274
_symmetry_Int_Tables_number   1
_chemical_formula_structural   Hf2Ta4V4Si6B
_chemical_formula_sum   'Hf2 Ta4 V4 Si6 B1'
_cell_volume   242.48215173
_cell_formula_units_Z   1
loop_
 _symmetry_equiv_pos_site_id
 _symmetry_equiv_pos_as_xyz
  1  'x, y, z'
loop_
 _atom_site_type_symbol
 _atom_site_label
 _atom_site_symmetry_multiplicity
 _atom_site_fract_x
 _atom_site_fract_y
 _atom_site_fract_z
 _atom_site_occupancy
  Hf  Hf0  1  0.000760  0.755691  0.243081  1
  Hf  Hf1  1  0.245068  0.244309  0.243081  1
  Ta  Ta2  1  0.756582  0.000000  0.246346  1
  Ta  Ta3  1  0.998269  0.247224  0.756595  1
  Ta  Ta4  1  0.751046  0.752776  0.756595  1
  Ta  Ta5  1  0.248209  0.000000  0.749737  1
  V  V6  1  0.334217  0.666984  0.500052  1
  V  V7  1  0.667234  0.333016  0.500052  1
  V  V8  1  0.666897  0.333916  0.999864  1
  V  V9  1  0.332980  0.666084  0.999864  1
  Si  Si10  1  0.998243  0.402227  0.248282  1
  Si  Si11  1  0.596016  0.597773  0.248282  1
  Si  Si12  1  0.409292  0.000000  0.244746  1
  Si  Si13  1  0.999966  0.597098  0.750073  1
  Si  Si14  1  0.402868  0.402902  0.750073  1
  Si  Si15  1  0.596234  0.000000  0.753469  1
  B  B16  1  0.996117  0.000000  0.509806  1
