# generated using pymatgen
data_Tb3Er7In8(PtAu)2
_symmetry_space_group_name_H-M   'P 1'
_cell_length_a   3.63112600
_cell_length_b   8.16336635
_cell_length_c   18.30204908
_cell_angle_alpha   89.97406662
_cell_angle_beta   90.00000000
_cell_angle_gamma   90.00000000
_symmetry_Int_Tables_number   1
_chemical_formula_structural   Tb3Er7In8(PtAu)2
_chemical_formula_sum   'Tb3 Er7 In8 Pt2 Au2'
_cell_volume   542.51315970
_cell_formula_units_Z   1
loop_
 _symmetry_equiv_pos_site_id
 _symmetry_equiv_pos_as_xyz
  1  'x, y, z'
loop_
 _atom_site_type_symbol
 _atom_site_label
 _atom_site_symmetry_multiplicity
 _atom_site_fract_x
 _atom_site_fract_y
 _atom_site_fract_z
 _atom_site_occupancy
  Tb  Tb0  1  0.000000  0.120139  0.420085  1
  Tb  Tb1  1  0.000000  0.000226  0.999779  1
  Tb  Tb2  1  0.000000  0.499725  0.500247  1
  Er  Er3  1  0.000000  0.879472  0.581430  1
  Er  Er4  1  0.000000  0.383480  0.916155  1
  Er  Er5  1  0.000000  0.616803  0.083632  1
  Er  Er6  1  0.000000  0.254094  0.216318  1
  Er  Er7  1  0.000000  0.746042  0.783618  1
  Er  Er8  1  0.000000  0.268546  0.721589  1
  Er  Er9  1  0.000000  0.731752  0.278119  1
  In  In10  1  0.500000  0.422795  0.351162  1
  In  In11  1  0.500000  0.578307  0.648600  1
  In  In12  1  0.500000  0.078302  0.852092  1
  In  In13  1  0.500000  0.921855  0.147623  1
  In  In14  1  0.500000  0.294112  0.065337  1
  In  In15  1  0.500000  0.706323  0.934419  1
  In  In16  1  0.500000  0.208748  0.569349  1
  In  In17  1  0.500000  0.789838  0.431806  1
  Pt  Pt18  1  0.500000  0.472039  0.804130  1
  Pt  Pt19  1  0.500000  0.528190  0.195607  1
  Au  Au20  1  0.500000  0.029007  0.300726  1
  Au  Au21  1  0.500000  0.970206  0.698177  1
