# generated using pymatgen
data_Ho5Er5Si16Pd
_symmetry_space_group_name_H-M   'P 1'
_cell_length_a   11.04255066
_cell_length_b   11.05179998
_cell_length_c   11.04235578
_cell_angle_alpha   144.77320617
_cell_angle_beta   136.45263551
_cell_angle_gamma   57.17543253
_symmetry_Int_Tables_number   1
_chemical_formula_structural   Ho5Er5Si16Pd
_chemical_formula_sum   'Ho5 Er5 Si16 Pd1'
_cell_volume   531.28128164
_cell_formula_units_Z   1
loop_
 _symmetry_equiv_pos_site_id
 _symmetry_equiv_pos_as_xyz
  1  'x, y, z'
loop_
 _atom_site_type_symbol
 _atom_site_label
 _atom_site_symmetry_multiplicity
 _atom_site_fract_x
 _atom_site_fract_y
 _atom_site_fract_z
 _atom_site_occupancy
  Ho  Ho0  1  0.948292  0.963059  0.511510  1
  Ho  Ho1  1  0.849619  0.371284  0.019262  1
  Ho  Ho2  1  0.547471  0.563534  0.511703  1
  Ho  Ho3  1  0.249147  0.763304  0.010883  1
  Ho  Ho4  1  0.752405  0.763280  0.514151  1
  Er  Er5  1  0.051745  0.563418  0.015754  1
  Er  Er6  1  0.352044  0.371359  0.521746  1
  Er  Er7  1  0.151767  0.166628  0.520648  1
  Er  Er8  1  0.451549  0.963027  0.014843  1
  Er  Er9  1  0.645977  0.166592  0.014839  1
  Si  Si10  1  0.118561  0.079023  0.961015  1
  Si  Si11  1  0.798094  0.182417  0.384103  1
  Si  Si12  1  0.300479  0.899245  0.598747  1
  Si  Si13  1  0.399802  0.500940  0.100987  1
  Si  Si14  1  0.884519  0.847983  0.963721  1
  Si  Si15  1  0.104481  0.709041  0.604975  1
  Si  Si16  1  0.200546  0.584654  0.384238  1
  Si  Si17  1  0.697892  0.293443  0.595290  1
  Si  Si18  1  0.999923  0.433120  0.433428  1
  Si  Si19  1  0.714165  0.668047  0.953715  1
  Si  Si20  1  0.600449  0.702118  0.101259  1
  Si  Si21  1  0.000438  0.085241  0.084980  1
  Si  Si22  1  0.500820  0.391660  0.890538  1
  Si  Si23  1  0.285486  0.240873  0.955315  1
  Si  Si24  1  0.582859  0.040791  0.457632  1
  Si  Si25  1  0.415274  0.872376  0.457049  1
  Pd  Pd26  1  0.896196  0.502461  0.606586  1
