# generated using pymatgen
data_Tb4B8Os3Ru
_symmetry_space_group_name_H-M   'P 1'
_cell_length_a   5.32984300
_cell_length_b   5.92739538
_cell_length_c   6.39940481
_cell_angle_alpha   89.65393008
_cell_angle_beta   90.00000000
_cell_angle_gamma   90.00000000
_symmetry_Int_Tables_number   1
_chemical_formula_structural   Tb4B8Os3Ru
_chemical_formula_sum   'Tb4 B8 Os3 Ru1'
_cell_volume   202.16686420
_cell_formula_units_Z   1
loop_
 _symmetry_equiv_pos_site_id
 _symmetry_equiv_pos_as_xyz
  1  'x, y, z'
loop_
 _atom_site_type_symbol
 _atom_site_label
 _atom_site_symmetry_multiplicity
 _atom_site_fract_x
 _atom_site_fract_y
 _atom_site_fract_z
 _atom_site_occupancy
  Tb  Tb0  1  0.250000  0.010744  0.336349  1
  Tb  Tb1  1  0.250000  0.511280  0.164990  1
  Tb  Tb2  1  0.750000  0.989838  0.662463  1
  Tb  Tb3  1  0.750000  0.489270  0.837071  1
  B  B4  1  0.082865  0.367143  0.540664  1
  B  B5  1  0.418004  0.865961  0.959523  1
  B  B6  1  0.581979  0.634282  0.459371  1
  B  B7  1  0.916139  0.131866  0.037549  1
  B  B8  1  0.918021  0.634282  0.459371  1
  B  B9  1  0.583861  0.131866  0.037549  1
  B  B10  1  0.417135  0.367143  0.540664  1
  B  B11  1  0.081996  0.865961  0.959523  1
  Os  Os12  1  0.250000  0.179102  0.819308  1
  Os  Os13  1  0.250000  0.678803  0.683578  1
  Os  Os14  1  0.750000  0.820893  0.182514  1
  Ru  Ru15  1  0.750000  0.321565  0.319515  1
