# generated using pymatgen
data_Er8Ti10ReSi16Mo
_symmetry_space_group_name_H-M   'P 1'
_cell_length_a   6.98095453
_cell_length_b   6.98095446
_cell_length_c   12.82352994
_cell_angle_alpha   90.00917949
_cell_angle_beta   89.99081981
_cell_angle_gamma   90.03425267
_symmetry_Int_Tables_number   1
_chemical_formula_structural   Er8Ti10ReSi16Mo
_chemical_formula_sum   'Er8 Ti10 Re1 Si16 Mo1'
_cell_volume   624.93826286
_cell_formula_units_Z   1
loop_
 _symmetry_equiv_pos_site_id
 _symmetry_equiv_pos_as_xyz
  1  'x, y, z'
loop_
 _atom_site_type_symbol
 _atom_site_label
 _atom_site_symmetry_multiplicity
 _atom_site_fract_x
 _atom_site_fract_y
 _atom_site_fract_z
 _atom_site_occupancy
  Er  Er0  1  0.342209  0.001044  0.467882  1
  Er  Er1  1  0.499128  0.839788  0.716036  1
  Er  Er2  1  0.501368  0.159727  0.216634  1
  Er  Er3  1  0.839788  0.499128  0.283964  1
  Er  Er4  1  0.159727  0.501368  0.783366  1
  Er  Er5  1  0.657705  0.998874  0.967603  1
  Er  Er6  1  0.001044  0.342209  0.532118  1
  Er  Er7  1  0.998874  0.657705  0.032397  1
  Ti  Ti8  1  0.172786  0.826575  0.250322  1
  Ti  Ti9  1  0.826575  0.172786  0.749678  1
  Ti  Ti10  1  0.153025  0.007582  0.875999  1
  Ti  Ti11  1  0.492566  0.650654  0.125173  1
  Ti  Ti12  1  0.507682  0.348725  0.624981  1
  Ti  Ti13  1  0.650654  0.492566  0.874827  1
  Ti  Ti14  1  0.348725  0.507682  0.375019  1
  Ti  Ti15  1  0.847287  0.992816  0.375966  1
  Ti  Ti16  1  0.007582  0.153025  0.124001  1
  Ti  Ti17  1  0.992816  0.847287  0.624034  1
  Re  Re18  1  0.673146  0.673146  0.500000  1
  Si  Si19  1  0.203022  0.131462  0.683616  1
  Si  Si20  1  0.369037  0.702799  0.933779  1
  Si  Si21  1  0.630617  0.298937  0.433727  1
  Si  Si22  1  0.702799  0.369037  0.066221  1
  Si  Si23  1  0.298937  0.630617  0.566273  1
  Si  Si24  1  0.797407  0.868641  0.183487  1
  Si  Si25  1  0.131462  0.203022  0.316384  1
  Si  Si26  1  0.868641  0.797407  0.816513  1
  Si  Si27  1  0.291203  0.952798  0.064814  1
  Si  Si28  1  0.548286  0.791897  0.316334  1
  Si  Si29  1  0.452629  0.207534  0.815543  1
  Si  Si30  1  0.791897  0.548286  0.683666  1
  Si  Si31  1  0.207534  0.452629  0.184457  1
  Si  Si32  1  0.709020  0.045629  0.565051  1
  Si  Si33  1  0.952798  0.291203  0.935186  1
  Si  Si34  1  0.045629  0.709020  0.434949  1
  Mo  Mo35  1  0.326397  0.326397  0.000000  1
