# generated using pymatgen
data_Ti7MnP4
_symmetry_space_group_name_H-M   'P 1'
_cell_length_a   3.42027300
_cell_length_b   6.40762761
_cell_length_c   7.79108201
_cell_angle_alpha   90.16050130
_cell_angle_beta   90.00000000
_cell_angle_gamma   90.00000000
_symmetry_Int_Tables_number   1
_chemical_formula_structural   Ti7MnP4
_chemical_formula_sum   'Ti7 Mn1 P4'
_cell_volume   170.74740331
_cell_formula_units_Z   1
loop_
 _symmetry_equiv_pos_site_id
 _symmetry_equiv_pos_as_xyz
  1  'x, y, z'
loop_
 _atom_site_type_symbol
 _atom_site_label
 _atom_site_symmetry_multiplicity
 _atom_site_fract_x
 _atom_site_fract_y
 _atom_site_fract_z
 _atom_site_occupancy
  Ti  Ti0  1  0.250000  0.538412  0.676532  1
  Ti  Ti1  1  0.250000  0.034365  0.834842  1
  Ti  Ti2  1  0.750000  0.958177  0.165479  1
  Ti  Ti3  1  0.750000  0.464718  0.326816  1
  Ti  Ti4  1  0.750000  0.369263  0.940330  1
  Ti  Ti5  1  0.250000  0.135408  0.435529  1
  Ti  Ti6  1  0.750000  0.853533  0.561727  1
  Mn  Mn7  1  0.250000  0.639876  0.058437  1
  P  P8  1  0.250000  0.261610  0.139781  1
  P  P9  1  0.250000  0.753063  0.348914  1
  P  P10  1  0.750000  0.746629  0.872353  1
  P  P11  1  0.750000  0.244946  0.639259  1
