# generated using pymatgen
data_Sm2B6MoW
_symmetry_space_group_name_H-M   'P 1'
_cell_length_a   3.18419000
_cell_length_b   5.55139548
_cell_length_c   6.93220260
_cell_angle_alpha   76.90241882
_cell_angle_beta   90.00000000
_cell_angle_gamma   90.00000000
_symmetry_Int_Tables_number   1
_chemical_formula_structural   Sm2B6MoW
_chemical_formula_sum   'Sm2 B6 Mo1 W1'
_cell_volume   119.35067935
_cell_formula_units_Z   1
loop_
 _symmetry_equiv_pos_site_id
 _symmetry_equiv_pos_as_xyz
  1  'x, y, z'
loop_
 _atom_site_type_symbol
 _atom_site_label
 _atom_site_symmetry_multiplicity
 _atom_site_fract_x
 _atom_site_fract_y
 _atom_site_fract_z
 _atom_site_occupancy
  Sm  Sm0  1  0.250000  0.329009  0.706637  1
  Sm  Sm1  1  0.750000  0.670640  0.293198  1
  B  B2  1  0.250000  0.923821  0.526436  1
  B  B3  1  0.750000  0.076412  0.471975  1
  B  B4  1  0.250000  0.913532  0.004157  1
  B  B5  1  0.750000  0.086736  0.996736  1
  B  B6  1  0.250000  0.582409  0.005541  1
  B  B7  1  0.750000  0.417207  0.995156  1
  Mo  Mo8  1  0.750000  0.814350  0.783168  1
  W  W9  1  0.250000  0.185882  0.216996  1
