# generated using pymatgen
data_Hf3TiBr12
_symmetry_space_group_name_H-M   'P 1'
_cell_length_a   6.20431522
_cell_length_b   7.33030342
_cell_length_c   12.76563200
_cell_angle_alpha   90.00000000
_cell_angle_beta   90.00000000
_cell_angle_gamma   89.91418838
_symmetry_Int_Tables_number   1
_chemical_formula_structural   Hf3TiBr12
_chemical_formula_sum   'Hf3 Ti1 Br12'
_cell_volume   580.57407679
_cell_formula_units_Z   1
loop_
 _symmetry_equiv_pos_site_id
 _symmetry_equiv_pos_as_xyz
  1  'x, y, z'
loop_
 _atom_site_type_symbol
 _atom_site_label
 _atom_site_symmetry_multiplicity
 _atom_site_fract_x
 _atom_site_fract_y
 _atom_site_fract_z
 _atom_site_occupancy
  Hf  Hf0  1  0.243075  0.249553  0.500000  1
  Hf  Hf1  1  0.757044  0.249491  0.500000  1
  Hf  Hf2  1  0.750054  0.750535  0.000000  1
  Ti  Ti3  1  0.249731  0.750507  0.000000  1
  Br  Br4  1  0.499920  0.396367  0.352942  1
  Br  Br5  1  0.001062  0.604335  0.854262  1
  Br  Br6  1  0.001062  0.604335  0.145738  1
  Br  Br7  1  0.499920  0.396367  0.647058  1
  Br  Br8  1  0.498828  0.896981  0.854472  1
  Br  Br9  1  0.000290  0.100021  0.350929  1
  Br  Br10  1  0.000290  0.100021  0.649071  1
  Br  Br11  1  0.498828  0.896981  0.145528  1
  Br  Br12  1  0.500362  0.954012  0.500000  1
  Br  Br13  1  0.003448  0.042086  0.000000  1
  Br  Br14  1  0.496350  0.459188  0.000000  1
  Br  Br15  1  0.999737  0.549220  0.500000  1
