# generated using pymatgen
data_Yb3Zn(BrO3)8
_symmetry_space_group_name_H-M   'P 1'
_cell_length_a   5.75321585
_cell_length_b   11.14659565
_cell_length_c   11.22339233
_cell_angle_alpha   119.47279797
_cell_angle_beta   90.18516233
_cell_angle_gamma   90.10057162
_symmetry_Int_Tables_number   1
_chemical_formula_structural   Yb3Zn(BrO3)8
_chemical_formula_sum   'Yb3 Zn1 Br8 O24'
_cell_volume   626.59215411
_cell_formula_units_Z   1
loop_
 _symmetry_equiv_pos_site_id
 _symmetry_equiv_pos_as_xyz
  1  'x, y, z'
loop_
 _atom_site_type_symbol
 _atom_site_label
 _atom_site_symmetry_multiplicity
 _atom_site_fract_x
 _atom_site_fract_y
 _atom_site_fract_z
 _atom_site_occupancy
  Yb  Yb0  1  0.641390  0.237727  0.492545  1
  Yb  Yb1  1  0.139961  0.266015  0.007527  1
  Yb  Yb2  1  0.635551  0.733723  0.993744  1
  Zn  Zn3  1  0.154872  0.762173  0.508232  1
  Br  Br4  1  0.264110  0.428502  0.357254  1
  Br  Br5  1  0.777458  0.591162  0.647616  1
  Br  Br6  1  0.262680  0.912537  0.839100  1
  Br  Br7  1  0.762406  0.083272  0.145960  1
  Br  Br8  1  0.790678  0.069613  0.678539  1
  Br  Br9  1  0.273836  0.906833  0.318329  1
  Br  Br10  1  0.278562  0.413902  0.804230  1
  Br  Br11  1  0.788422  0.592691  0.206763  1
  O  O12  1  0.421475  0.875345  0.942442  1
  O  O13  1  0.923583  0.111667  0.038044  1
  O  O14  1  0.370691  0.806269  0.680059  1
  O  O15  1  0.863929  0.195538  0.303084  1
  O  O16  1  0.370161  0.321195  0.199968  1
  O  O17  1  0.876363  0.697311  0.807603  1
  O  O18  1  0.917325  0.204787  0.813512  1
  O  O19  1  0.411157  0.779185  0.183453  1
  O  O20  1  0.942281  0.929077  0.654151  1
  O  O21  1  0.413199  0.051176  0.346308  1
  O  O22  1  0.362777  0.069909  0.877698  1
  O  O23  1  0.857549  0.929673  0.120756  1
  O  O24  1  0.413192  0.278676  0.676018  1
  O  O25  1  0.936118  0.724667  0.335704  1
  O  O26  1  0.346522  0.402467  0.944272  1
  O  O27  1  0.851096  0.608897  0.068752  1
  O  O28  1  0.425995  0.553521  0.825473  1
  O  O29  1  0.924899  0.446603  0.175593  1
  O  O30  1  0.362569  0.586045  0.389227  1
  O  O31  1  0.869025  0.434064  0.615841  1
  O  O32  1  0.425597  0.394249  0.461727  1
  O  O33  1  0.943292  0.621210  0.540913  1
  O  O34  1  0.856899  0.093794  0.545776  1
  O  O35  1  0.353979  0.886527  0.453783  1
