# generated using pymatgen
data_Zr5Sc3Pt4
_symmetry_space_group_name_H-M   'P 1'
_cell_length_a   4.55522500
_cell_length_b   6.87781250
_cell_length_c   8.03422406
_cell_angle_alpha   89.66690859
_cell_angle_beta   90.00000000
_cell_angle_gamma   90.00000000
_symmetry_Int_Tables_number   1
_chemical_formula_structural   Zr5Sc3Pt4
_chemical_formula_sum   'Zr5 Sc3 Pt4'
_cell_volume   251.70785339
_cell_formula_units_Z   1
loop_
 _symmetry_equiv_pos_site_id
 _symmetry_equiv_pos_as_xyz
  1  'x, y, z'
loop_
 _atom_site_type_symbol
 _atom_site_label
 _atom_site_symmetry_multiplicity
 _atom_site_fract_x
 _atom_site_fract_y
 _atom_site_fract_z
 _atom_site_occupancy
  Zr  Zr0  1  0.250000  0.845371  0.919096  1
  Zr  Zr1  1  0.250000  0.346913  0.584403  1
  Zr  Zr2  1  0.750000  0.151450  0.079879  1
  Zr  Zr3  1  0.750000  0.654108  0.417552  1
  Zr  Zr4  1  0.250000  0.989269  0.325840  1
  Sc  Sc5  1  0.250000  0.484210  0.178413  1
  Sc  Sc6  1  0.750000  0.014887  0.676824  1
  Sc  Sc7  1  0.750000  0.515632  0.820112  1
  Pt  Pt8  1  0.250000  0.241213  0.909720  1
  Pt  Pt9  1  0.250000  0.742821  0.592852  1
  Pt  Pt10  1  0.750000  0.755092  0.089317  1
  Pt  Pt11  1  0.750000  0.259034  0.405992  1
