# generated using pymatgen
data_InCuSb12Os2Ru
_symmetry_space_group_name_H-M   'P 1'
_cell_length_a   8.17661001
_cell_length_b   8.17178351
_cell_length_c   8.16982287
_cell_angle_alpha   109.40611088
_cell_angle_beta   109.46798246
_cell_angle_gamma   109.47246173
_symmetry_Int_Tables_number   1
_chemical_formula_structural   InCuSb12Os2Ru
_chemical_formula_sum   'In1 Cu1 Sb12 Os2 Ru1'
_cell_volume   420.57156622
_cell_formula_units_Z   1
loop_
 _symmetry_equiv_pos_site_id
 _symmetry_equiv_pos_as_xyz
  1  'x, y, z'
loop_
 _atom_site_type_symbol
 _atom_site_label
 _atom_site_symmetry_multiplicity
 _atom_site_fract_x
 _atom_site_fract_y
 _atom_site_fract_z
 _atom_site_occupancy
  In  In0  1  0.000000  0.000000  0.000000  1
  Cu  Cu1  1  0.500000  0.500000  0.500000  1
  Sb  Sb2  1  0.848630  0.660280  0.502653  1
  Sb  Sb3  1  0.151370  0.339720  0.497347  1
  Sb  Sb4  1  0.157884  0.663100  0.820830  1
  Sb  Sb5  1  0.842116  0.336900  0.179170  1
  Sb  Sb6  1  0.661134  0.502566  0.849045  1
  Sb  Sb7  1  0.338866  0.497434  0.150955  1
  Sb  Sb8  1  0.663441  0.819771  0.157564  1
  Sb  Sb9  1  0.336559  0.180229  0.842436  1
  Sb  Sb10  1  0.502497  0.848718  0.660108  1
  Sb  Sb11  1  0.497503  0.151282  0.339892  1
  Sb  Sb12  1  0.179308  0.841480  0.335603  1
  Sb  Sb13  1  0.820692  0.158520  0.664397  1
  Os  Os14  1  0.500000  0.000000  0.000000  1
  Os  Os15  1  0.000000  0.000000  0.500000  1
  Ru  Ru16  1  0.000000  0.500000  0.000000  1
