# generated using pymatgen
data_BaThI6
_symmetry_space_group_name_H-M   'P 1'
_cell_length_a   8.50527666
_cell_length_b   8.50527719
_cell_length_c   15.47179968
_cell_angle_alpha   84.29037834
_cell_angle_beta   84.29037987
_cell_angle_gamma   120.30473388
_symmetry_Int_Tables_number   1
_chemical_formula_structural   BaThI6
_chemical_formula_sum   'Ba2 Th2 I12'
_cell_volume   946.78570466
_cell_formula_units_Z   2
loop_
 _symmetry_equiv_pos_site_id
 _symmetry_equiv_pos_as_xyz
  1  'x, y, z'
loop_
 _atom_site_type_symbol
 _atom_site_label
 _atom_site_symmetry_multiplicity
 _atom_site_fract_x
 _atom_site_fract_y
 _atom_site_fract_z
 _atom_site_occupancy
  Ba  Ba0  1  0.170826  0.335327  0.996624  1
  Ba  Ba1  1  0.335327  0.170826  0.496624  1
  Th  Th2  1  0.666668  0.840341  0.499272  1
  Th  Th3  1  0.840341  0.666668  0.999272  1
  I  I4  1  0.587345  0.712145  0.882303  1
  I  I5  1  0.712145  0.587345  0.382303  1
  I  I6  1  0.890890  0.424572  0.876169  1
  I  I7  1  0.607180  0.079145  0.621220  1
  I  I8  1  0.424572  0.890890  0.376169  1
  I  I9  1  0.007143  0.190634  0.386191  1
  I  I10  1  0.190634  0.007143  0.886191  1
  I  I11  1  0.922251  0.803428  0.617240  1
  I  I12  1  0.079145  0.607180  0.121220  1
  I  I13  1  0.494374  0.327731  0.115581  1
  I  I14  1  0.327731  0.494374  0.615581  1
  I  I15  1  0.803428  0.922251  0.117240  1
