# generated using pymatgen
data_ErLu19(Tl2Os)4
_symmetry_space_group_name_H-M   'P 1'
_cell_length_a   7.67936625
_cell_length_b   8.83184100
_cell_length_c   12.03652900
_cell_angle_alpha   90.00000000
_cell_angle_beta   90.03267174
_cell_angle_gamma   90.00000000
_symmetry_Int_Tables_number   1
_chemical_formula_structural   ErLu19(Tl2Os)4
_chemical_formula_sum   'Er1 Lu19 Tl8 Os4'
_cell_volume   816.35267177
_cell_formula_units_Z   1
loop_
 _symmetry_equiv_pos_site_id
 _symmetry_equiv_pos_as_xyz
  1  'x, y, z'
loop_
 _atom_site_type_symbol
 _atom_site_label
 _atom_site_symmetry_multiplicity
 _atom_site_fract_x
 _atom_site_fract_y
 _atom_site_fract_z
 _atom_site_occupancy
  Er  Er0  1  0.877729  0.750000  0.806416  1
  Lu  Lu1  1  0.158026  0.750000  0.218767  1
  Lu  Lu2  1  0.657792  0.250000  0.281368  1
  Lu  Lu3  1  0.842031  0.250000  0.781146  1
  Lu  Lu4  1  0.343254  0.750000  0.718189  1
  Lu  Lu5  1  0.452361  0.750000  0.998347  1
  Lu  Lu6  1  0.954132  0.250000  0.501988  1
  Lu  Lu7  1  0.547095  0.250000  0.001841  1
  Lu  Lu8  1  0.047271  0.750000  0.498202  1
  Lu  Lu9  1  0.620368  0.750000  0.307954  1
  Lu  Lu10  1  0.119455  0.250000  0.192305  1
  Lu  Lu11  1  0.380219  0.250000  0.691599  1
  Lu  Lu12  1  0.826805  0.962013  0.071932  1
  Lu  Lu13  1  0.327475  0.038233  0.428622  1
  Lu  Lu14  1  0.172778  0.461404  0.929089  1
  Lu  Lu15  1  0.673592  0.537841  0.571144  1
  Lu  Lu16  1  0.172778  0.038596  0.929089  1
  Lu  Lu17  1  0.673592  0.962159  0.571144  1
  Lu  Lu18  1  0.826805  0.537987  0.071932  1
  Lu  Lu19  1  0.327475  0.461767  0.428622  1
  Tl  Tl20  1  0.923919  0.993672  0.331925  1
  Tl  Tl21  1  0.423748  0.006526  0.168329  1
  Tl  Tl22  1  0.077124  0.492959  0.668054  1
  Tl  Tl23  1  0.574008  0.505907  0.831677  1
  Tl  Tl24  1  0.077124  0.007041  0.668054  1
  Tl  Tl25  1  0.574008  0.994093  0.831677  1
  Tl  Tl26  1  0.923919  0.506328  0.331925  1
  Tl  Tl27  1  0.423748  0.493474  0.168329  1
  Os  Os28  1  0.422861  0.750000  0.496705  1
  Os  Os29  1  0.921879  0.250000  0.003031  1
  Os  Os30  1  0.579023  0.250000  0.503038  1
  Os  Os31  1  0.077610  0.750000  0.997559  1
