# generated using pymatgen
data_Er10In8CuRu3
_symmetry_space_group_name_H-M   'P 1'
_cell_length_a   3.59903900
_cell_length_b   7.97651786
_cell_length_c   18.16490762
_cell_angle_alpha   90.03105436
_cell_angle_beta   90.00000000
_cell_angle_gamma   90.00000000
_symmetry_Int_Tables_number   1
_chemical_formula_structural   Er10In8CuRu3
_chemical_formula_sum   'Er10 In8 Cu1 Ru3'
_cell_volume   521.47443752
_cell_formula_units_Z   1
loop_
 _symmetry_equiv_pos_site_id
 _symmetry_equiv_pos_as_xyz
  1  'x, y, z'
loop_
 _atom_site_type_symbol
 _atom_site_label
 _atom_site_symmetry_multiplicity
 _atom_site_fract_x
 _atom_site_fract_y
 _atom_site_fract_z
 _atom_site_occupancy
  Er  Er0  1  0.000000  0.116090  0.413492  1
  Er  Er1  1  0.000000  0.882426  0.589239  1
  Er  Er2  1  0.000000  0.381662  0.910924  1
  Er  Er3  1  0.000000  0.619265  0.084656  1
  Er  Er4  1  0.000000  0.231462  0.222888  1
  Er  Er5  1  0.000000  0.755459  0.778533  1
  Er  Er6  1  0.000000  0.256850  0.720885  1
  Er  Er7  1  0.000000  0.758286  0.279671  1
  Er  Er8  1  0.000000  0.999554  0.999779  1
  Er  Er9  1  0.000000  0.500097  0.499822  1
  In  In10  1  0.500000  0.425578  0.350048  1
  In  In11  1  0.500000  0.569005  0.649657  1
  In  In12  1  0.500000  0.069622  0.849527  1
  In  In13  1  0.500000  0.931078  0.149154  1
  In  In14  1  0.500000  0.292879  0.067204  1
  In  In15  1  0.500000  0.704573  0.931997  1
  In  In16  1  0.500000  0.207137  0.568369  1
  In  In17  1  0.500000  0.792266  0.431464  1
  Cu  Cu18  1  0.500000  0.522558  0.197598  1
  Ru  Ru19  1  0.500000  0.023581  0.304248  1
  Ru  Ru20  1  0.500000  0.979545  0.696952  1
  Ru  Ru21  1  0.500000  0.481028  0.803894  1
