# generated using pymatgen
data_Pr3YEr4(CdIr)2
_symmetry_space_group_name_H-M   'P 1'
_cell_length_a   9.73276641
_cell_length_b   9.73276492
_cell_length_c   9.74374000
_cell_angle_alpha   59.96269087
_cell_angle_beta   59.96269593
_cell_angle_gamma   60.07461528
_symmetry_Int_Tables_number   1
_chemical_formula_structural   Pr3YEr4(CdIr)2
_chemical_formula_sum   'Pr6 Y2 Er8 Cd4 Ir4'
_cell_volume   652.65267747
_cell_formula_units_Z   2
loop_
 _symmetry_equiv_pos_site_id
 _symmetry_equiv_pos_as_xyz
  1  'x, y, z'
loop_
 _atom_site_type_symbol
 _atom_site_label
 _atom_site_symmetry_multiplicity
 _atom_site_fract_x
 _atom_site_fract_y
 _atom_site_fract_z
 _atom_site_occupancy
  Pr  Pr0  1  0.941274  0.558726  0.558726  1
  Pr  Pr1  1  0.558726  0.941274  0.941274  1
  Pr  Pr2  1  0.558726  0.941274  0.558726  1
  Pr  Pr3  1  0.941274  0.558726  0.941274  1
  Pr  Pr4  1  0.558595  0.558595  0.941405  1
  Pr  Pr5  1  0.941405  0.941405  0.558595  1
  Y  Y6  1  0.187535  0.187535  0.812465  1
  Y  Y7  1  0.812465  0.812465  0.187535  1
  Er  Er8  1  0.347026  0.347026  0.346543  1
  Er  Er9  1  0.347026  0.347026  0.959406  1
  Er  Er10  1  0.346543  0.959406  0.347026  1
  Er  Er11  1  0.959406  0.346543  0.347026  1
  Er  Er12  1  0.812408  0.187592  0.187592  1
  Er  Er13  1  0.187592  0.812408  0.812408  1
  Er  Er14  1  0.187592  0.812408  0.187592  1
  Er  Er15  1  0.812408  0.187592  0.812408  1
  Cd  Cd16  1  0.579162  0.579162  0.579255  1
  Cd  Cd17  1  0.579162  0.579162  0.262420  1
  Cd  Cd18  1  0.579255  0.262420  0.579162  1
  Cd  Cd19  1  0.262420  0.579255  0.579162  1
  Ir  Ir20  1  0.140743  0.140743  0.142976  1
  Ir  Ir21  1  0.140743  0.140743  0.575538  1
  Ir  Ir22  1  0.142976  0.575538  0.140743  1
  Ir  Ir23  1  0.575538  0.142976  0.140743  1
