# generated using pymatgen
data_Yb3Tm3(MnC3)4
_symmetry_space_group_name_H-M   'P 1'
_cell_length_a   8.04196536
_cell_length_b   8.04386229
_cell_length_c   4.93524200
_cell_angle_alpha   90.00000000
_cell_angle_beta   90.00000000
_cell_angle_gamma   120.19304621
_symmetry_Int_Tables_number   1
_chemical_formula_structural   Yb3Tm3(MnC3)4
_chemical_formula_sum   'Yb3 Tm3 Mn4 C12'
_cell_volume   275.94199675
_cell_formula_units_Z   1
loop_
 _symmetry_equiv_pos_site_id
 _symmetry_equiv_pos_as_xyz
  1  'x, y, z'
loop_
 _atom_site_type_symbol
 _atom_site_label
 _atom_site_symmetry_multiplicity
 _atom_site_fract_x
 _atom_site_fract_y
 _atom_site_fract_z
 _atom_site_occupancy
  Yb  Yb0  1  0.613119  0.684846  0.750000  1
  Yb  Yb1  1  0.927680  0.614891  0.250000  1
  Yb  Yb2  1  0.680482  0.070650  0.250000  1
  Tm  Tm3  1  0.308884  0.934639  0.750000  1
  Tm  Tm4  1  0.066418  0.381201  0.750000  1
  Tm  Tm5  1  0.378286  0.313811  0.250000  1
  Mn  Mn6  1  0.996750  0.998366  0.501043  1
  Mn  Mn7  1  0.996750  0.998366  0.998957  1
  Mn  Mn8  1  0.667696  0.330443  0.750000  1
  Mn  Mn9  1  0.332251  0.662831  0.250000  1
  C  C10  1  0.960339  0.772121  0.750000  1
  C  C11  1  0.199767  0.968112  0.250000  1
  C  C12  1  0.774700  0.819411  0.250000  1
  C  C13  1  0.228691  0.196136  0.750000  1
  C  C14  1  0.822115  0.043915  0.750000  1
  C  C15  1  0.039170  0.221971  0.250000  1
  C  C16  1  0.860747  0.577213  0.750000  1
  C  C17  1  0.282356  0.856373  0.250000  1
  C  C18  1  0.581009  0.717686  0.250000  1
  C  C19  1  0.424967  0.282590  0.750000  1
  C  C20  1  0.136713  0.417053  0.250000  1
  C  C21  1  0.721111  0.137377  0.750000  1
