# generated using pymatgen
data_Ba4Ga7SiPt8
_symmetry_space_group_name_H-M   'P 1'
_cell_length_a   6.65578965
_cell_length_b   8.28776181
_cell_length_c   8.57160698
_cell_angle_alpha   83.60328498
_cell_angle_beta   90.54552315
_cell_angle_gamma   90.61020070
_symmetry_Int_Tables_number   1
_chemical_formula_structural   Ba4Ga7SiPt8
_chemical_formula_sum   'Ba4 Ga7 Si1 Pt8'
_cell_volume   469.83672215
_cell_formula_units_Z   1
loop_
 _symmetry_equiv_pos_site_id
 _symmetry_equiv_pos_as_xyz
  1  'x, y, z'
loop_
 _atom_site_type_symbol
 _atom_site_label
 _atom_site_symmetry_multiplicity
 _atom_site_fract_x
 _atom_site_fract_y
 _atom_site_fract_z
 _atom_site_occupancy
  Ba  Ba0  1  0.887811  0.503291  0.764059  1
  Ba  Ba1  1  0.385980  0.997899  0.233949  1
  Ba  Ba2  1  0.609767  0.001001  0.762837  1
  Ba  Ba3  1  0.114406  0.499020  0.235303  1
  Ga  Ga4  1  0.073996  0.872063  0.926322  1
  Ga  Ga5  1  0.652447  0.309076  0.440650  1
  Ga  Ga6  1  0.149352  0.188798  0.556661  1
  Ga  Ga7  1  0.579564  0.628798  0.076767  1
  Ga  Ga8  1  0.922277  0.129538  0.070026  1
  Ga  Ga9  1  0.348563  0.691536  0.560187  1
  Ga  Ga10  1  0.423621  0.374481  0.925979  1
  Si  Si11  1  0.851453  0.811144  0.437008  1
  Pt  Pt12  1  0.890422  0.097541  0.371799  1
  Pt  Pt13  1  0.087078  0.885932  0.622349  1
  Pt  Pt14  1  0.170032  0.173645  0.852594  1
  Pt  Pt15  1  0.401678  0.392535  0.626107  1
  Pt  Pt16  1  0.329509  0.675785  0.856299  1
  Pt  Pt17  1  0.837359  0.827498  0.154387  1
  Pt  Pt18  1  0.671752  0.326483  0.145502  1
  Pt  Pt19  1  0.612931  0.613935  0.381216  1
