# generated using pymatgen
data_YZr2(Ni3P2)3
_symmetry_space_group_name_H-M   'P 1'
_cell_length_a   3.70039900
_cell_length_b   10.41243600
_cell_length_c   12.16943500
_cell_angle_alpha   90.00000000
_cell_angle_beta   90.00000000
_cell_angle_gamma   90.00000000
_symmetry_Int_Tables_number   1
_chemical_formula_structural   YZr2(Ni3P2)3
_chemical_formula_sum   'Y2 Zr4 Ni18 P12'
_cell_volume   468.89037212
_cell_formula_units_Z   2
loop_
 _symmetry_equiv_pos_site_id
 _symmetry_equiv_pos_as_xyz
  1  'x, y, z'
loop_
 _atom_site_type_symbol
 _atom_site_label
 _atom_site_symmetry_multiplicity
 _atom_site_fract_x
 _atom_site_fract_y
 _atom_site_fract_z
 _atom_site_occupancy
  Y  Y0  1  0.751951  0.000000  0.474914  1
  Y  Y1  1  0.251951  0.500000  0.525086  1
  Zr  Zr2  1  0.251835  0.679694  0.795737  1
  Zr  Zr3  1  0.251835  0.320306  0.795737  1
  Zr  Zr4  1  0.751835  0.820306  0.204263  1
  Zr  Zr5  1  0.751835  0.179694  0.204263  1
  Ni  Ni6  1  0.751765  0.000000  0.013495  1
  Ni  Ni7  1  0.251765  0.500000  0.986505  1
  Ni  Ni8  1  0.251946  0.199181  0.571888  1
  Ni  Ni9  1  0.251946  0.800819  0.571888  1
  Ni  Ni10  1  0.751946  0.300819  0.428112  1
  Ni  Ni11  1  0.751946  0.699181  0.428112  1
  Ni  Ni12  1  0.251824  0.623425  0.288806  1
  Ni  Ni13  1  0.251824  0.376575  0.288806  1
  Ni  Ni14  1  0.751824  0.876575  0.711194  1
  Ni  Ni15  1  0.751824  0.123425  0.711194  1
  Ni  Ni16  1  0.251734  0.168797  0.003839  1
  Ni  Ni17  1  0.251734  0.831203  0.003839  1
  Ni  Ni18  1  0.751734  0.331203  0.996161  1
  Ni  Ni19  1  0.751734  0.668797  0.996161  1
  Ni  Ni20  1  0.251409  0.000000  0.839249  1
  Ni  Ni21  1  0.751409  0.500000  0.160751  1
  Ni  Ni22  1  0.251923  0.000000  0.296720  1
  Ni  Ni23  1  0.751923  0.500000  0.703280  1
  P  P24  1  0.251968  0.185900  0.382107  1
  P  P25  1  0.251968  0.814100  0.382107  1
  P  P26  1  0.751968  0.314100  0.617893  1
  P  P27  1  0.751968  0.685900  0.617893  1
  P  P28  1  0.251797  0.000000  0.121298  1
  P  P29  1  0.751797  0.500000  0.878702  1
  P  P30  1  0.251725  0.655752  0.110596  1
  P  P31  1  0.251725  0.344248  0.110596  1
  P  P32  1  0.751725  0.844248  0.889404  1
  P  P33  1  0.751725  0.155752  0.889404  1
  P  P34  1  0.251891  0.000000  0.654675  1
  P  P35  1  0.751891  0.500000  0.345325  1
