# generated using pymatgen
data_Ce6Nb3Al13Os7
_symmetry_space_group_name_H-M   'P 1'
_cell_length_a   9.07033827
_cell_length_b   9.07033944
_cell_length_c   9.07033945
_cell_angle_alpha   59.69921071
_cell_angle_beta   59.69919946
_cell_angle_gamma   59.69919978
_symmetry_Int_Tables_number   1
_chemical_formula_structural   Ce6Nb3Al13Os7
_chemical_formula_sum   'Ce6 Nb3 Al13 Os7'
_cell_volume   524.05639215
_cell_formula_units_Z   1
loop_
 _symmetry_equiv_pos_site_id
 _symmetry_equiv_pos_as_xyz
  1  'x, y, z'
loop_
 _atom_site_type_symbol
 _atom_site_label
 _atom_site_symmetry_multiplicity
 _atom_site_fract_x
 _atom_site_fract_y
 _atom_site_fract_z
 _atom_site_occupancy
  Ce  Ce0  1  0.701832  0.701832  0.290613  1
  Ce  Ce1  1  0.304085  0.698192  0.304085  1
  Ce  Ce2  1  0.698192  0.304085  0.304085  1
  Ce  Ce3  1  0.304085  0.304085  0.698192  1
  Ce  Ce4  1  0.701832  0.290613  0.701832  1
  Ce  Ce5  1  0.290613  0.701832  0.701832  1
  Nb  Nb6  1  0.878827  0.878827  0.358383  1
  Nb  Nb7  1  0.878827  0.358383  0.878827  1
  Nb  Nb8  1  0.358383  0.878827  0.878827  1
  Al  Al9  1  0.880949  0.880949  0.880949  1
  Al  Al10  1  0.120778  0.120778  0.641556  1
  Al  Al11  1  0.120778  0.641556  0.120778  1
  Al  Al12  1  0.641556  0.120778  0.120778  1
  Al  Al13  1  0.119598  0.119598  0.119598  1
  Al  Al14  1  0.670798  0.670798  0.989550  1
  Al  Al15  1  0.670798  0.989550  0.670798  1
  Al  Al16  1  0.989550  0.670798  0.670798  1
  Al  Al17  1  0.668021  0.668021  0.668021  1
  Al  Al18  1  0.329003  0.329003  0.015469  1
  Al  Al19  1  0.329003  0.015469  0.329003  1
  Al  Al20  1  0.015469  0.329003  0.329003  1
  Al  Al21  1  0.329497  0.329497  0.329497  1
  Os  Os22  1  0.001118  0.001118  0.001118  1
  Os  Os23  1  0.998723  0.998723  0.497898  1
  Os  Os24  1  0.502069  0.996926  0.502069  1
  Os  Os25  1  0.996926  0.502069  0.502069  1
  Os  Os26  1  0.502069  0.502069  0.996926  1
  Os  Os27  1  0.998723  0.497898  0.998723  1
  Os  Os28  1  0.497898  0.998723  0.998723  1
