# generated using pymatgen
data_Y8Tm4ZnCo4Sn
_symmetry_space_group_name_H-M   'P 1'
_cell_length_a   8.30805259
_cell_length_b   8.30805261
_cell_length_c   8.30805253
_cell_angle_alpha   111.74296023
_cell_angle_beta   109.27446333
_cell_angle_gamma   107.42534799
_symmetry_Int_Tables_number   1
_chemical_formula_structural   Y8Tm4ZnCo4Sn
_chemical_formula_sum   'Y8 Tm4 Zn1 Co4 Sn1'
_cell_volume   440.81129810
_cell_formula_units_Z   1
loop_
 _symmetry_equiv_pos_site_id
 _symmetry_equiv_pos_as_xyz
  1  'x, y, z'
loop_
 _atom_site_type_symbol
 _atom_site_label
 _atom_site_symmetry_multiplicity
 _atom_site_fract_x
 _atom_site_fract_y
 _atom_site_fract_z
 _atom_site_occupancy
  Y  Y0  1  0.429082  0.229436  0.199646  1
  Y  Y1  1  0.570918  0.770564  0.800354  1
  Y  Y2  1  0.029790  0.229436  0.800354  1
  Y  Y3  1  0.970210  0.770564  0.199646  1
  Y  Y4  1  0.181902  0.283078  0.464980  1
  Y  Y5  1  0.818098  0.716922  0.535020  1
  Y  Y6  1  0.181902  0.716922  0.898824  1
  Y  Y7  1  0.818098  0.283078  0.101176  1
  Tm  Tm8  1  0.324228  0.637889  0.313659  1
  Tm  Tm9  1  0.675772  0.362111  0.686341  1
  Tm  Tm10  1  0.324228  0.010569  0.686341  1
  Tm  Tm11  1  0.675772  0.989431  0.313659  1
  Zn  Zn12  1  0.000000  0.000000  0.000000  1
  Co  Co13  1  0.352173  0.000000  0.352173  1
  Co  Co14  1  0.647827  0.000000  0.647827  1
  Co  Co15  1  0.114729  0.614729  0.500000  1
  Co  Co16  1  0.885271  0.385271  0.500000  1
  Sn  Sn17  1  0.500000  0.500000  0.000000  1
