# generated using pymatgen
data_RbLaMnSe3
_symmetry_space_group_name_H-M   'P 1'
_cell_length_a   7.98977977
_cell_length_b   7.98978022
_cell_length_c   11.65214800
_cell_angle_alpha   90.00000000
_cell_angle_beta   90.00000000
_cell_angle_gamma   147.97315801
_symmetry_Int_Tables_number   1
_chemical_formula_structural   RbLaMnSe3
_chemical_formula_sum   'Rb2 La2 Mn2 Se6'
_cell_volume   394.46708803
_cell_formula_units_Z   2
loop_
 _symmetry_equiv_pos_site_id
 _symmetry_equiv_pos_as_xyz
  1  'x, y, z'
loop_
 _atom_site_type_symbol
 _atom_site_label
 _atom_site_symmetry_multiplicity
 _atom_site_fract_x
 _atom_site_fract_y
 _atom_site_fract_z
 _atom_site_occupancy
  Rb  Rb0  1  0.255831  0.744169  0.250000  1
  Rb  Rb1  1  0.744169  0.255831  0.750000  1
  La  La2  1  0.000000  0.000000  0.000000  1
  La  La3  1  0.000000  0.000000  0.500000  1
  Mn  Mn4  1  0.535140  0.464860  0.250000  1
  Mn  Mn5  1  0.464860  0.535140  0.750000  1
  Se  Se6  1  0.623552  0.376448  0.071453  1
  Se  Se7  1  0.376448  0.623552  0.928547  1
  Se  Se8  1  0.376448  0.623552  0.571453  1
  Se  Se9  1  0.623552  0.376448  0.428547  1
  Se  Se10  1  0.941675  0.058325  0.250000  1
  Se  Se11  1  0.058325  0.941675  0.750000  1
