# generated using pymatgen
data_Dy10Ho5Er(Tl3Co)2
_symmetry_space_group_name_H-M   'P 1'
_cell_length_a   10.25452600
_cell_length_b   10.25480062
_cell_length_c   7.10417800
_cell_angle_alpha   89.96928708
_cell_angle_beta   90.00000000
_cell_angle_gamma   119.99910768
_symmetry_Int_Tables_number   1
_chemical_formula_structural   Dy10Ho5Er(Tl3Co)2
_chemical_formula_sum   'Dy10 Ho5 Er1 Tl6 Co2'
_cell_volume   646.98036330
_cell_formula_units_Z   1
loop_
 _symmetry_equiv_pos_site_id
 _symmetry_equiv_pos_as_xyz
  1  'x, y, z'
loop_
 _atom_site_type_symbol
 _atom_site_label
 _atom_site_symmetry_multiplicity
 _atom_site_fract_x
 _atom_site_fract_y
 _atom_site_fract_z
 _atom_site_occupancy
  Dy  Dy0  1  0.333366  0.666733  0.820751  1
  Dy  Dy1  1  0.666795  0.333589  0.320223  1
  Dy  Dy2  1  0.462621  0.537728  0.212135  1
  Dy  Dy3  1  0.075107  0.537728  0.212135  1
  Dy  Dy4  1  0.462261  0.924520  0.212138  1
  Dy  Dy5  1  0.537993  0.462489  0.712545  1
  Dy  Dy6  1  0.924495  0.462489  0.712545  1
  Dy  Dy7  1  0.537788  0.075574  0.712342  1
  Dy  Dy8  1  0.999935  0.999871  0.229320  1
  Dy  Dy9  1  0.999800  0.999600  0.729815  1
  Ho  Ho10  1  0.177231  0.822808  0.509979  1
  Ho  Ho11  1  0.645577  0.822808  0.509979  1
  Ho  Ho12  1  0.177242  0.354484  0.509879  1
  Ho  Ho13  1  0.822697  0.177114  0.009930  1
  Ho  Ho14  1  0.354418  0.177114  0.009930  1
  Er  Er15  1  0.822631  0.645261  0.010031  1
  Tl  Tl16  1  0.162783  0.836127  0.959276  1
  Tl  Tl17  1  0.673347  0.836127  0.959276  1
  Tl  Tl18  1  0.163527  0.327053  0.959165  1
  Tl  Tl19  1  0.836479  0.163595  0.459116  1
  Tl  Tl20  1  0.327116  0.163595  0.459116  1
  Tl  Tl21  1  0.836523  0.673046  0.458381  1
  Co  Co22  1  0.333342  0.666683  0.443397  1
  Co  Co23  1  0.666931  0.333861  0.943425  1
