# generated using pymatgen
data_Li2Dy3GeP11Ir16Rh3
_symmetry_space_group_name_H-M   'P 1'
_cell_length_a   12.65545759
_cell_length_b   12.67143728
_cell_length_c   3.96339200
_cell_angle_alpha   90.00000000
_cell_angle_beta   90.00000000
_cell_angle_gamma   119.61988553
_symmetry_Int_Tables_number   1
_chemical_formula_structural   Li2Dy3GeP11Ir16Rh3
_chemical_formula_sum   'Li2 Dy3 Ge1 P11 Ir16 Rh3'
_cell_volume   552.52527859
_cell_formula_units_Z   1
loop_
 _symmetry_equiv_pos_site_id
 _symmetry_equiv_pos_as_xyz
  1  'x, y, z'
loop_
 _atom_site_type_symbol
 _atom_site_label
 _atom_site_symmetry_multiplicity
 _atom_site_fract_x
 _atom_site_fract_y
 _atom_site_fract_z
 _atom_site_occupancy
  Li  Li0  1  0.000566  0.824499  0.000000  1
  Li  Li1  1  0.180384  0.179171  0.000000  1
  Dy  Dy2  1  0.333513  0.666410  0.500000  1
  Dy  Dy3  1  0.668025  0.331418  0.500000  1
  Dy  Dy4  1  0.818884  0.998395  0.000000  1
  Ge  Ge5  1  0.999724  0.645870  0.500000  1
  P  P6  1  0.356860  0.357643  0.500000  1
  P  P7  1  0.641337  0.000801  0.500000  1
  P  P8  1  0.517068  0.687084  0.000000  1
  P  P9  1  0.310537  0.830174  0.000000  1
  P  P10  1  0.166167  0.479726  0.000000  1
  P  P11  1  0.482258  0.171332  0.000000  1
  P  P12  1  0.686343  0.516700  0.000000  1
  P  P13  1  0.835469  0.313502  0.000000  1
  P  P14  1  0.006224  0.176446  0.500000  1
  P  P15  1  0.821866  0.818174  0.500000  1
  P  P16  1  0.181354  0.003223  0.500000  1
  Ir  Ir17  1  0.505834  0.867828  0.000000  1
  Ir  Ir18  1  0.132180  0.639757  0.000000  1
  Ir  Ir19  1  0.357248  0.492736  0.000000  1
  Ir  Ir20  1  0.490945  0.362501  0.000000  1
  Ir  Ir21  1  0.865333  0.505272  0.000000  1
  Ir  Ir22  1  0.643561  0.135956  0.000000  1
  Ir  Ir23  1  0.001473  0.277352  0.000000  1
  Ir  Ir24  1  0.717008  0.719844  0.000000  1
  Ir  Ir25  1  0.284065  0.004868  0.000000  1
  Ir  Ir26  1  0.625176  0.807622  0.500000  1
  Ir  Ir27  1  0.205982  0.826748  0.500000  1
  Ir  Ir28  1  0.181265  0.373998  0.500000  1
  Ir  Ir29  1  0.377798  0.184738  0.500000  1
  Ir  Ir30  1  0.791472  0.616648  0.500000  1
  Ir  Ir31  1  0.821807  0.190906  0.500000  1
  Ir  Ir32  1  0.998659  0.995290  0.500000  1
  Rh  Rh33  1  0.996494  0.449134  0.500000  1
  Rh  Rh34  1  0.532817  0.541413  0.500000  1
  Rh  Rh35  1  0.464306  0.006820  0.500000  1
