# generated using pymatgen
data_Sr8Tl4CdHg3
_symmetry_space_group_name_H-M   'P 1'
_cell_length_a   8.20268503
_cell_length_b   8.19539500
_cell_length_c   7.93564700
_cell_angle_alpha   90.00011885
_cell_angle_beta   90.00513398
_cell_angle_gamma   90.00007689
_symmetry_Int_Tables_number   1
_chemical_formula_structural   Sr8Tl4CdHg3
_chemical_formula_sum   'Sr8 Tl4 Cd1 Hg3'
_cell_volume   533.46786733
_cell_formula_units_Z   1
loop_
 _symmetry_equiv_pos_site_id
 _symmetry_equiv_pos_as_xyz
  1  'x, y, z'
loop_
 _atom_site_type_symbol
 _atom_site_label
 _atom_site_symmetry_multiplicity
 _atom_site_fract_x
 _atom_site_fract_y
 _atom_site_fract_z
 _atom_site_occupancy
  Sr  Sr0  1  0.500733  0.499169  0.246078  1
  Sr  Sr1  1  0.500729  0.000819  0.246078  1
  Sr  Sr2  1  0.999291  0.499261  0.251740  1
  Sr  Sr3  1  0.999293  0.000704  0.251746  1
  Sr  Sr4  1  0.999232  0.000656  0.748264  1
  Sr  Sr5  1  0.999238  0.499371  0.748258  1
  Sr  Sr6  1  0.500806  0.499247  0.753923  1
  Sr  Sr7  1  0.500804  0.000769  0.753921  1
  Tl  Tl8  1  0.754604  0.750000  0.000107  1
  Tl  Tl9  1  0.745243  0.750000  0.499889  1
  Tl  Tl10  1  0.254640  0.250000  0.500111  1
  Tl  Tl11  1  0.245381  0.250000  0.999894  1
  Cd  Cd12  1  0.256537  0.750001  0.500013  1
  Hg  Hg13  1  0.756529  0.250002  0.999998  1
  Hg  Hg14  1  0.243499  0.750001  0.000003  1
  Hg  Hg15  1  0.743441  0.250002  0.499976  1
