# generated using pymatgen
data_La16Cd4IrPt3
_symmetry_space_group_name_H-M   'P 1'
_cell_length_a   10.19337883
_cell_length_b   10.19337948
_cell_length_c   10.19337956
_cell_angle_alpha   59.89386235
_cell_angle_beta   59.89385977
_cell_angle_gamma   59.89386361
_symmetry_Int_Tables_number   1
_chemical_formula_structural   La16Cd4IrPt3
_chemical_formula_sum   'La16 Cd4 Ir1 Pt3'
_cell_volume   747.12368608
_cell_formula_units_Z   1
loop_
 _symmetry_equiv_pos_site_id
 _symmetry_equiv_pos_as_xyz
  1  'x, y, z'
loop_
 _atom_site_type_symbol
 _atom_site_label
 _atom_site_symmetry_multiplicity
 _atom_site_fract_x
 _atom_site_fract_y
 _atom_site_fract_z
 _atom_site_occupancy
  La  La0  1  0.599774  0.599774  0.599774  1
  La  La1  1  0.597826  0.597826  0.202940  1
  La  La2  1  0.597826  0.202940  0.597826  1
  La  La3  1  0.202940  0.597826  0.597826  1
  La  La4  1  0.063410  0.440025  0.440025  1
  La  La5  1  0.441111  0.058498  0.058498  1
  La  La6  1  0.440025  0.063410  0.440025  1
  La  La7  1  0.058498  0.441111  0.058498  1
  La  La8  1  0.440025  0.440025  0.063410  1
  La  La9  1  0.058498  0.058498  0.441111  1
  La  La10  1  0.186624  0.813186  0.813186  1
  La  La11  1  0.810712  0.187776  0.187776  1
  La  La12  1  0.813186  0.186624  0.813186  1
  La  La13  1  0.187776  0.810712  0.187776  1
  La  La14  1  0.813186  0.813186  0.186624  1
  La  La15  1  0.187776  0.187776  0.810712  1
  Cd  Cd16  1  0.830394  0.830394  0.830394  1
  Cd  Cd17  1  0.830503  0.830503  0.508607  1
  Cd  Cd18  1  0.830503  0.508607  0.830503  1
  Cd  Cd19  1  0.508607  0.830503  0.830503  1
  Ir  Ir20  1  0.392157  0.392157  0.392157  1
  Pt  Pt21  1  0.392865  0.392865  0.822916  1
  Pt  Pt22  1  0.392865  0.822916  0.392865  1
  Pt  Pt23  1  0.822916  0.392865  0.392865  1
