# generated using pymatgen
data_Y2Th(InRh)3
_symmetry_space_group_name_H-M   'P 1'
_cell_length_a   7.59767547
_cell_length_b   7.83545381
_cell_length_c   3.89586600
_cell_angle_alpha   90.00000000
_cell_angle_beta   90.00000000
_cell_angle_gamma   121.04078476
_symmetry_Int_Tables_number   1
_chemical_formula_structural   Y2Th(InRh)3
_chemical_formula_sum   'Y2 Th1 In3 Rh3'
_cell_volume   198.71406075
_cell_formula_units_Z   1
loop_
 _symmetry_equiv_pos_site_id
 _symmetry_equiv_pos_as_xyz
  1  'x, y, z'
loop_
 _atom_site_type_symbol
 _atom_site_label
 _atom_site_symmetry_multiplicity
 _atom_site_fract_x
 _atom_site_fract_y
 _atom_site_fract_z
 _atom_site_occupancy
  Y  Y0  1  0.405748  0.407296  0.500000  1
  Y  Y1  1  0.594252  0.001548  0.500000  1
  Th  Th2  1  0.000000  0.580723  0.500000  1
  In  In3  1  0.000000  0.241156  0.000000  1
  In  In4  1  0.268684  0.012574  0.000000  1
  In  In5  1  0.731316  0.743890  0.000000  1
  Rh  Rh6  1  0.310862  0.665497  0.000000  1
  Rh  Rh7  1  0.000000  0.992683  0.500000  1
  Rh  Rh8  1  0.689138  0.354633  0.000000  1
