# generated using pymatgen
data_Ta7Si2B4W3
_symmetry_space_group_name_H-M   'P 1'
_cell_length_a   7.22593919
_cell_length_b   7.22593982
_cell_length_c   7.24615705
_cell_angle_alpha   129.52532487
_cell_angle_beta   129.52532250
_cell_angle_gamma   74.16525397
_symmetry_Int_Tables_number   1
_chemical_formula_structural   Ta7Si2B4W3
_chemical_formula_sum   'Ta7 Si2 B4 W3'
_cell_volume   219.48420647
_cell_formula_units_Z   1
loop_
 _symmetry_equiv_pos_site_id
 _symmetry_equiv_pos_as_xyz
  1  'x, y, z'
loop_
 _atom_site_type_symbol
 _atom_site_label
 _atom_site_symmetry_multiplicity
 _atom_site_fract_x
 _atom_site_fract_y
 _atom_site_fract_z
 _atom_site_occupancy
  Ta  Ta0  1  0.191309  0.691309  0.164206  1
  Ta  Ta1  1  0.475864  0.975864  0.171275  1
  Ta  Ta2  1  0.306603  0.472661  0.499885  1
  Ta  Ta3  1  0.027830  0.193230  0.499039  1
  Ta  Ta4  1  0.526082  0.026082  0.832189  1
  Ta  Ta5  1  0.693230  0.527830  0.499039  1
  Ta  Ta6  1  0.972661  0.806603  0.499885  1
  Si  Si7  1  0.247149  0.249639  0.998824  1
  Si  Si8  1  0.749639  0.747149  0.998824  1
  B  B9  1  0.122677  0.622677  0.744646  1
  B  B10  1  0.877967  0.377967  0.254799  1
  B  B11  1  0.619732  0.882338  0.501636  1
  B  B12  1  0.382338  0.119732  0.501636  1
  W  W13  1  0.000221  0.000823  0.999350  1
  W  W14  1  0.500823  0.500221  0.999350  1
  W  W15  1  0.805874  0.305874  0.835417  1
