# generated using pymatgen
data_Lu12Tc3Ru
_symmetry_space_group_name_H-M   'P 1'
_cell_length_a   6.13526700
_cell_length_b   7.32662700
_cell_length_c   8.88195800
_cell_angle_alpha   90.00000000
_cell_angle_beta   90.00000000
_cell_angle_gamma   90.00262183
_symmetry_Int_Tables_number   1
_chemical_formula_structural   Lu12Tc3Ru
_chemical_formula_sum   'Lu12 Tc3 Ru1'
_cell_volume   399.25123163
_cell_formula_units_Z   1
loop_
 _symmetry_equiv_pos_site_id
 _symmetry_equiv_pos_as_xyz
  1  'x, y, z'
loop_
 _atom_site_type_symbol
 _atom_site_label
 _atom_site_symmetry_multiplicity
 _atom_site_fract_x
 _atom_site_fract_y
 _atom_site_fract_z
 _atom_site_occupancy
  Lu  Lu0  1  0.339058  0.675738  0.061996  1
  Lu  Lu1  1  0.158396  0.175316  0.438427  1
  Lu  Lu2  1  0.659251  0.325498  0.562440  1
  Lu  Lu3  1  0.840740  0.824781  0.937925  1
  Lu  Lu4  1  0.659251  0.325498  0.937560  1
  Lu  Lu5  1  0.840740  0.824781  0.562075  1
  Lu  Lu6  1  0.339058  0.675738  0.438004  1
  Lu  Lu7  1  0.158396  0.175316  0.061573  1
  Lu  Lu8  1  0.873254  0.540852  0.250000  1
  Lu  Lu9  1  0.626420  0.039658  0.250000  1
  Lu  Lu10  1  0.130441  0.457694  0.750000  1
  Lu  Lu11  1  0.374575  0.957811  0.750000  1
  Tc  Tc12  1  0.040689  0.883736  0.250000  1
  Tc  Tc13  1  0.460150  0.384681  0.250000  1
  Tc  Tc14  1  0.960157  0.116432  0.750000  1
  Ru  Ru15  1  0.539423  0.616469  0.750000  1
