# generated using pymatgen
data_NaWF6
_symmetry_space_group_name_H-M   'P 1'
_cell_length_a   5.86421085
_cell_length_b   5.86423782
_cell_length_c   5.86401079
_cell_angle_alpha   55.56022445
_cell_angle_beta   55.55513613
_cell_angle_gamma   55.56214841
_symmetry_Int_Tables_number   1
_chemical_formula_structural   NaWF6
_chemical_formula_sum   'Na1 W1 F6'
_cell_volume   127.89505711
_cell_formula_units_Z   1
loop_
 _symmetry_equiv_pos_site_id
 _symmetry_equiv_pos_as_xyz
  1  'x, y, z'
loop_
 _atom_site_type_symbol
 _atom_site_label
 _atom_site_symmetry_multiplicity
 _atom_site_fract_x
 _atom_site_fract_y
 _atom_site_fract_z
 _atom_site_occupancy
  Na  Na0  1  0.500000  0.500000  0.500000  1
  W  W1  1  0.000000  0.000000  0.000000  1
  F  F2  1  0.351630  0.763736  0.102558  1
  F  F3  1  0.897422  0.648306  0.236263  1
  F  F4  1  0.763706  0.102639  0.351687  1
  F  F5  1  0.236294  0.897361  0.648313  1
  F  F6  1  0.102578  0.351694  0.763737  1
  F  F7  1  0.648370  0.236264  0.897442  1
