# generated using pymatgen
data_Er5Tm15(IrRh3)3
_symmetry_space_group_name_H-M   'P 1'
_cell_length_a   10.75884047
_cell_length_b   10.75769261
_cell_length_c   6.30566610
_cell_angle_alpha   90.00714446
_cell_angle_beta   90.00191406
_cell_angle_gamma   89.85471795
_symmetry_Int_Tables_number   1
_chemical_formula_structural   Er5Tm15(IrRh3)3
_chemical_formula_sum   'Er5 Tm15 Ir3 Rh9'
_cell_volume   729.81732507
_cell_formula_units_Z   1
loop_
 _symmetry_equiv_pos_site_id
 _symmetry_equiv_pos_as_xyz
  1  'x, y, z'
loop_
 _atom_site_type_symbol
 _atom_site_label
 _atom_site_symmetry_multiplicity
 _atom_site_fract_x
 _atom_site_fract_y
 _atom_site_fract_z
 _atom_site_occupancy
  Er  Er0  1  0.290865  0.089259  0.377238  1
  Er  Er1  1  0.291227  0.910587  0.877146  1
  Er  Er2  1  0.708867  0.087899  0.876955  1
  Er  Er3  1  0.708849  0.910576  0.376820  1
  Er  Er4  1  0.586840  0.789664  0.877975  1
  Tm  Tm5  1  0.586356  0.209214  0.376897  1
  Tm  Tm6  1  0.413310  0.790307  0.377422  1
  Tm  Tm7  1  0.411166  0.209350  0.878151  1
  Tm  Tm8  1  0.210017  0.413218  0.621822  1
  Tm  Tm9  1  0.209490  0.586546  0.122592  1
  Tm  Tm10  1  0.790979  0.413688  0.123132  1
  Tm  Tm11  1  0.790910  0.588693  0.621752  1
  Tm  Tm12  1  0.910968  0.708842  0.122524  1
  Tm  Tm13  1  0.912446  0.291372  0.622768  1
  Tm  Tm14  1  0.089252  0.708457  0.622616  1
  Tm  Tm15  1  0.089277  0.291456  0.122896  1
  Tm  Tm16  1  0.999814  0.999989  0.499864  1
  Tm  Tm17  1  0.000029  0.000195  0.000285  1
  Tm  Tm18  1  0.499888  0.499736  0.999917  1
  Tm  Tm19  1  0.500137  0.500063  0.500267  1
  Ir  Ir20  1  0.654576  0.653346  0.250171  1
  Ir  Ir21  1  0.346406  0.345641  0.249922  1
  Ir  Ir22  1  0.345219  0.654410  0.749813  1
  Rh  Rh23  1  0.845911  0.154493  0.250249  1
  Rh  Rh24  1  0.846698  0.846770  0.750319  1
  Rh  Rh25  1  0.152924  0.153844  0.750042  1
  Rh  Rh26  1  0.153325  0.846298  0.250259  1
  Rh  Rh27  1  0.655012  0.345126  0.749880  1
  Rh  Rh28  1  0.500116  0.000688  0.122791  1
  Rh  Rh29  1  0.500216  0.000771  0.623113  1
  Rh  Rh30  1  0.999404  0.499704  0.876902  1
  Rh  Rh31  1  0.999506  0.499800  0.377500  1
