# generated using pymatgen
data_Er8Tm12Si15Pb
_symmetry_space_group_name_H-M   'P 1'
_cell_length_a   7.66268652
_cell_length_b   7.64242016
_cell_length_c   13.88709837
_cell_angle_alpha   89.96854300
_cell_angle_beta   89.56115299
_cell_angle_gamma   89.81270232
_symmetry_Int_Tables_number   1
_chemical_formula_structural   Er8Tm12Si15Pb
_chemical_formula_sum   'Er8 Tm12 Si15 Pb1'
_cell_volume   813.22058232
_cell_formula_units_Z   1
loop_
 _symmetry_equiv_pos_site_id
 _symmetry_equiv_pos_as_xyz
  1  'x, y, z'
loop_
 _atom_site_type_symbol
 _atom_site_label
 _atom_site_symmetry_multiplicity
 _atom_site_fract_x
 _atom_site_fract_y
 _atom_site_fract_z
 _atom_site_occupancy
  Er  Er0  1  0.354327  0.999742  0.457263  1
  Er  Er1  1  0.506835  0.844383  0.714316  1
  Er  Er2  1  0.501879  0.149407  0.212354  1
  Er  Er3  1  0.849729  0.498772  0.286100  1
  Er  Er4  1  0.146732  0.511921  0.791326  1
  Er  Er5  1  0.651492  0.997273  0.964946  1
  Er  Er6  1  0.988809  0.360298  0.531140  1
  Er  Er7  1  0.998530  0.648995  0.038679  1
  Tm  Tm8  1  0.323445  0.323066  0.001299  1
  Tm  Tm9  1  0.176406  0.822516  0.249163  1
  Tm  Tm10  1  0.816169  0.174079  0.752779  1
  Tm  Tm11  1  0.673700  0.677205  0.497570  1
  Tm  Tm12  1  0.147218  0.996547  0.878080  1
  Tm  Tm13  1  0.504783  0.645084  0.124184  1
  Tm  Tm14  1  0.506324  0.360687  0.624509  1
  Tm  Tm15  1  0.648489  0.506461  0.878719  1
  Tm  Tm16  1  0.352279  0.496412  0.375966  1
  Tm  Tm17  1  0.852795  0.005822  0.373215  1
  Tm  Tm18  1  0.996253  0.145531  0.126587  1
  Tm  Tm19  1  0.991277  0.837703  0.623858  1
  Si  Si20  1  0.356001  0.707022  0.932693  1
  Si  Si21  1  0.643291  0.295507  0.428541  1
  Si  Si22  1  0.708357  0.354803  0.070721  1
  Si  Si23  1  0.295879  0.647622  0.569471  1
  Si  Si24  1  0.792750  0.855062  0.180313  1
  Si  Si25  1  0.145005  0.207362  0.318015  1
  Si  Si26  1  0.857537  0.795608  0.822482  1
  Si  Si27  1  0.300310  0.948596  0.064323  1
  Si  Si28  1  0.551187  0.798672  0.311570  1
  Si  Si29  1  0.458708  0.201097  0.819307  1
  Si  Si30  1  0.799330  0.545767  0.687229  1
  Si  Si31  1  0.200857  0.448332  0.187283  1
  Si  Si32  1  0.699480  0.049141  0.563565  1
  Si  Si33  1  0.950950  0.300466  0.937816  1
  Si  Si34  1  0.049418  0.703052  0.433956  1
  Pb  Pb35  1  0.203468  0.139987  0.670665  1
