# generated using pymatgen
data_CrFe2P3PbO12
_symmetry_space_group_name_H-M   'P 1'
_cell_length_a   9.21123488
_cell_length_b   9.21123502
_cell_length_c   9.21123600
_cell_angle_alpha   137.66398677
_cell_angle_beta   109.86543137
_cell_angle_gamma   85.46775631
_symmetry_Int_Tables_number   1
_chemical_formula_structural   CrFe2P3PbO12
_chemical_formula_sum   'Cr2 Fe4 P6 Pb2 O24'
_cell_volume   476.39187214
_cell_formula_units_Z   2
loop_
 _symmetry_equiv_pos_site_id
 _symmetry_equiv_pos_as_xyz
  1  'x, y, z'
loop_
 _atom_site_type_symbol
 _atom_site_label
 _atom_site_symmetry_multiplicity
 _atom_site_fract_x
 _atom_site_fract_y
 _atom_site_fract_z
 _atom_site_occupancy
  Cr  Cr0  1  0.000000  0.000000  0.000000  1
  Cr  Cr1  1  0.500000  0.500000  0.000000  1
  Fe  Fe2  1  0.618211  0.618211  0.500000  1
  Fe  Fe3  1  0.381789  0.381789  0.500000  1
  Fe  Fe4  1  0.118211  0.618211  0.000000  1
  Fe  Fe5  1  0.881789  0.381789  0.000000  1
  P  P6  1  0.323667  0.823667  0.000000  1
  P  P7  1  0.750000  0.653279  0.903279  1
  P  P8  1  0.176333  0.176333  0.500000  1
  P  P9  1  0.676333  0.176333  0.000000  1
  P  P10  1  0.250000  0.346721  0.096721  1
  P  P11  1  0.823667  0.823667  0.500000  1
  Pb  Pb12  1  0.750000  0.147025  0.397025  1
  Pb  Pb13  1  0.250000  0.852975  0.602975  1
  O  O14  1  0.575070  0.930925  0.778348  1
  O  O15  1  0.075070  0.296722  0.644145  1
  O  O16  1  0.843827  0.881599  0.037773  1
  O  O17  1  0.347423  0.703278  0.778348  1
  O  O18  1  0.139764  0.203950  0.341519  1
  O  O19  1  0.343827  0.306054  0.962227  1
  O  O20  1  0.637569  0.701755  0.341519  1
  O  O21  1  0.860236  0.796050  0.658481  1
  O  O22  1  0.366991  0.488400  0.355391  1
  O  O23  1  0.152577  0.930925  0.355855  1
  O  O24  1  0.639764  0.298245  0.935814  1
  O  O25  1  0.633009  0.511600  0.644609  1
  O  O26  1  0.862431  0.203950  0.064186  1
  O  O27  1  0.847423  0.069075  0.644145  1
  O  O28  1  0.360236  0.701755  0.064186  1
  O  O29  1  0.362431  0.298245  0.658481  1
  O  O30  1  0.656173  0.693946  0.037773  1
  O  O31  1  0.924930  0.703278  0.355855  1
  O  O32  1  0.156173  0.118400  0.962227  1
  O  O33  1  0.866991  0.511600  0.878591  1
  O  O34  1  0.133009  0.488400  0.121409  1
  O  O35  1  0.137569  0.796050  0.935814  1
  O  O36  1  0.652577  0.296722  0.221652  1
  O  O37  1  0.424930  0.069075  0.221652  1
