# generated using pymatgen
data_La2(Ga3Ir)3
_symmetry_space_group_name_H-M   'P 1'
_cell_length_a   7.70053143
_cell_length_b   7.70053077
_cell_length_c   9.70556800
_cell_angle_alpha   90.00000000
_cell_angle_beta   90.00000000
_cell_angle_gamma   119.64416231
_symmetry_Int_Tables_number   1
_chemical_formula_structural   La2(Ga3Ir)3
_chemical_formula_sum   'La4 Ga18 Ir6'
_cell_volume   500.19464417
_cell_formula_units_Z   2
loop_
 _symmetry_equiv_pos_site_id
 _symmetry_equiv_pos_as_xyz
  1  'x, y, z'
loop_
 _atom_site_type_symbol
 _atom_site_label
 _atom_site_symmetry_multiplicity
 _atom_site_fract_x
 _atom_site_fract_y
 _atom_site_fract_z
 _atom_site_occupancy
  La  La0  1  0.002476  0.330645  0.750000  1
  La  La1  1  0.997524  0.669355  0.250000  1
  La  La2  1  0.330645  0.002476  0.750000  1
  La  La3  1  0.669355  0.997524  0.250000  1
  Ga  Ga4  1  0.664967  0.664967  0.442549  1
  Ga  Ga5  1  0.335033  0.335033  0.942549  1
  Ga  Ga6  1  0.664967  0.664967  0.057451  1
  Ga  Ga7  1  0.335033  0.335033  0.557451  1
  Ga  Ga8  1  0.002989  0.334738  0.424317  1
  Ga  Ga9  1  0.997011  0.665262  0.924317  1
  Ga  Ga10  1  0.334738  0.002989  0.075683  1
  Ga  Ga11  1  0.665262  0.997011  0.575683  1
  Ga  Ga12  1  0.997011  0.665262  0.575683  1
  Ga  Ga13  1  0.002989  0.334738  0.075683  1
  Ga  Ga14  1  0.665262  0.997011  0.924317  1
  Ga  Ga15  1  0.334738  0.002989  0.424317  1
  Ga  Ga16  1  0.130942  0.130942  0.250000  1
  Ga  Ga17  1  0.869058  0.869058  0.750000  1
  Ga  Ga18  1  0.662541  0.457315  0.750000  1
  Ga  Ga19  1  0.337459  0.542685  0.250000  1
  Ga  Ga20  1  0.457315  0.662541  0.750000  1
  Ga  Ga21  1  0.542685  0.337459  0.250000  1
  Ir  Ir22  1  0.000000  0.000000  0.500000  1
  Ir  Ir23  1  0.000000  0.000000  0.000000  1
  Ir  Ir24  1  0.670320  0.329680  0.500000  1
  Ir  Ir25  1  0.329680  0.670320  0.000000  1
  Ir  Ir26  1  0.329680  0.670320  0.500000  1
  Ir  Ir27  1  0.670320  0.329680  0.000000  1
