# generated using pymatgen
data_FeCo3(MoP)4
_symmetry_space_group_name_H-M   'P 1'
_cell_length_a   3.74940200
_cell_length_b   5.84601550
_cell_length_c   6.73045109
_cell_angle_alpha   90.14154299
_cell_angle_beta   90.00000000
_cell_angle_gamma   90.00000000
_symmetry_Int_Tables_number   1
_chemical_formula_structural   FeCo3(MoP)4
_chemical_formula_sum   'Fe1 Co3 Mo4 P4'
_cell_volume   147.52472593
_cell_formula_units_Z   1
loop_
 _symmetry_equiv_pos_site_id
 _symmetry_equiv_pos_as_xyz
  1  'x, y, z'
loop_
 _atom_site_type_symbol
 _atom_site_label
 _atom_site_symmetry_multiplicity
 _atom_site_fract_x
 _atom_site_fract_y
 _atom_site_fract_z
 _atom_site_occupancy
  Fe  Fe0  1  0.750000  0.638814  0.435871  1
  Co  Co1  1  0.250000  0.860652  0.932340  1
  Co  Co2  1  0.250000  0.359411  0.566480  1
  Co  Co3  1  0.750000  0.139082  0.065908  1
  Mo  Mo4  1  0.250000  0.967415  0.330673  1
  Mo  Mo5  1  0.250000  0.469754  0.171239  1
  Mo  Mo6  1  0.750000  0.033366  0.668577  1
  Mo  Mo7  1  0.750000  0.532487  0.828785  1
  P  P8  1  0.250000  0.233673  0.880660  1
  P  P9  1  0.250000  0.731816  0.618969  1
  P  P10  1  0.750000  0.765447  0.121041  1
  P  P11  1  0.750000  0.268084  0.379456  1
