# generated using pymatgen
data_Dy3ErSc4In3Co
_symmetry_space_group_name_H-M   'P 1'
_cell_length_a   9.93006000
_cell_length_b   9.93005931
_cell_length_c   6.94861800
_cell_angle_alpha   90.00000000
_cell_angle_beta   90.00000000
_cell_angle_gamma   119.99999564
_symmetry_Int_Tables_number   1
_chemical_formula_structural   Dy3ErSc4In3Co
_chemical_formula_sum   'Dy6 Er2 Sc8 In6 Co2'
_cell_volume   593.37986139
_cell_formula_units_Z   2
loop_
 _symmetry_equiv_pos_site_id
 _symmetry_equiv_pos_as_xyz
  1  'x, y, z'
loop_
 _atom_site_type_symbol
 _atom_site_label
 _atom_site_symmetry_multiplicity
 _atom_site_fract_x
 _atom_site_fract_y
 _atom_site_fract_z
 _atom_site_occupancy
  Dy  Dy0  1  0.532956  0.065911  0.787553  1
  Dy  Dy1  1  0.934089  0.467044  0.787553  1
  Dy  Dy2  1  0.532956  0.467044  0.787553  1
  Dy  Dy3  1  0.467044  0.934089  0.287553  1
  Dy  Dy4  1  0.065911  0.532956  0.287553  1
  Dy  Dy5  1  0.467044  0.532956  0.287553  1
  Er  Er6  1  0.000000  0.000000  0.781844  1
  Er  Er7  1  0.000000  0.000000  0.281844  1
  Sc  Sc8  1  0.820330  0.640660  0.496137  1
  Sc  Sc9  1  0.359340  0.179670  0.496137  1
  Sc  Sc10  1  0.820330  0.179670  0.496137  1
  Sc  Sc11  1  0.179670  0.359340  0.996137  1
  Sc  Sc12  1  0.640660  0.820330  0.996137  1
  Sc  Sc13  1  0.179670  0.820330  0.996137  1
  Sc  Sc14  1  0.666667  0.333333  0.190934  1
  Sc  Sc15  1  0.333333  0.666667  0.690934  1
  In  In16  1  0.836879  0.673759  0.047221  1
  In  In17  1  0.326241  0.163121  0.047221  1
  In  In18  1  0.836879  0.163121  0.047221  1
  In  In19  1  0.163121  0.326241  0.547221  1
  In  In20  1  0.673759  0.836879  0.547221  1
  In  In21  1  0.163121  0.836879  0.547221  1
  Co  Co22  1  0.666667  0.333333  0.552438  1
  Co  Co23  1  0.333333  0.666667  0.052438  1
