# generated using pymatgen
data_NdEr2(ZnPt)4
_symmetry_space_group_name_H-M   'P 1'
_cell_length_a   3.96990662
_cell_length_b   7.65188625
_cell_length_c   8.25930043
_cell_angle_alpha   117.59563908
_cell_angle_beta   103.90598803
_cell_angle_gamma   89.99999509
_symmetry_Int_Tables_number   1
_chemical_formula_structural   NdEr2(ZnPt)4
_chemical_formula_sum   'Nd1 Er2 Zn4 Pt4'
_cell_volume   214.02111409
_cell_formula_units_Z   1
loop_
 _symmetry_equiv_pos_site_id
 _symmetry_equiv_pos_as_xyz
  1  'x, y, z'
loop_
 _atom_site_type_symbol
 _atom_site_label
 _atom_site_symmetry_multiplicity
 _atom_site_fract_x
 _atom_site_fract_y
 _atom_site_fract_z
 _atom_site_occupancy
  Nd  Nd0  1  0.000000  0.500000  0.000000  1
  Er  Er1  1  0.875940  0.875940  0.751882  1
  Er  Er2  1  0.124060  0.124060  0.248118  1
  Zn  Zn3  1  0.673773  0.873360  0.347547  1
  Zn  Zn4  1  0.673773  0.474187  0.347547  1
  Zn  Zn5  1  0.326227  0.525813  0.652453  1
  Zn  Zn6  1  0.326227  0.126640  0.652453  1
  Pt  Pt7  1  0.775961  0.275961  0.551922  1
  Pt  Pt8  1  0.224039  0.724039  0.448078  1
  Pt  Pt9  1  0.500000  0.186733  0.000000  1
  Pt  Pt10  1  0.500000  0.813267  0.000000  1
