# generated using pymatgen
data_Nb4Cr(NiP)4
_symmetry_space_group_name_H-M   'P 1'
_cell_length_a   7.14494959
_cell_length_b   7.14495017
_cell_length_c   7.14495096
_cell_angle_alpha   93.52906033
_cell_angle_beta   93.52904916
_cell_angle_gamma   151.26954215
_symmetry_Int_Tables_number   1
_chemical_formula_structural   Nb4Cr(NiP)4
_chemical_formula_sum   'Nb4 Cr1 Ni4 P4'
_cell_volume   169.85053605
_cell_formula_units_Z   1
loop_
 _symmetry_equiv_pos_site_id
 _symmetry_equiv_pos_as_xyz
  1  'x, y, z'
loop_
 _atom_site_type_symbol
 _atom_site_label
 _atom_site_symmetry_multiplicity
 _atom_site_fract_x
 _atom_site_fract_y
 _atom_site_fract_z
 _atom_site_occupancy
  Nb  Nb0  1  0.807222  0.126926  0.934148  1
  Nb  Nb1  1  0.126926  0.192778  0.319703  1
  Nb  Nb2  1  0.873074  0.807222  0.680297  1
  Nb  Nb3  1  0.192778  0.873074  0.065852  1
  Cr  Cr4  1  0.500000  0.500000  0.000000  1
  Ni  Ni5  1  0.914157  0.390704  0.304860  1
  Ni  Ni6  1  0.085843  0.609296  0.695140  1
  Ni  Ni7  1  0.609296  0.914157  0.523453  1
  Ni  Ni8  1  0.390704  0.085843  0.476547  1
  P  P9  1  0.556396  0.246707  0.803104  1
  P  P10  1  0.246707  0.443604  0.690310  1
  P  P11  1  0.753293  0.556396  0.309690  1
  P  P12  1  0.443604  0.753293  0.196896  1
