# generated using pymatgen
data_CoTcI18
_symmetry_space_group_name_H-M   'P 1'
_cell_length_a   9.99477859
_cell_length_b   9.99477959
_cell_length_c   9.99478138
_cell_angle_alpha   92.48545945
_cell_angle_beta   92.48545293
_cell_angle_gamma   92.48546111
_symmetry_Int_Tables_number   1
_chemical_formula_structural   CoTcI18
_chemical_formula_sum   'Co1 Tc1 I18'
_cell_volume   995.53265358
_cell_formula_units_Z   1
loop_
 _symmetry_equiv_pos_site_id
 _symmetry_equiv_pos_as_xyz
  1  'x, y, z'
loop_
 _atom_site_type_symbol
 _atom_site_label
 _atom_site_symmetry_multiplicity
 _atom_site_fract_x
 _atom_site_fract_y
 _atom_site_fract_z
 _atom_site_occupancy
  Co  Co0  1  0.000000  0.000000  0.000000  1
  Tc  Tc1  1  0.500000  0.500000  0.500000  1
  I  I2  1  0.742485  0.130743  0.617174  1
  I  I3  1  0.983753  0.018095  0.739255  1
  I  I4  1  0.617174  0.742485  0.130743  1
  I  I5  1  0.981905  0.260745  0.016247  1
  I  I6  1  0.739255  0.983753  0.018095  1
  I  I7  1  0.018095  0.739255  0.983753  1
  I  I8  1  0.016247  0.981905  0.260745  1
  I  I9  1  0.869257  0.382826  0.257515  1
  I  I10  1  0.260745  0.016247  0.981905  1
  I  I11  1  0.257515  0.869257  0.382826  1
  I  I12  1  0.130743  0.617174  0.742485  1
  I  I13  1  0.382826  0.257515  0.869257  1
  I  I14  1  0.771083  0.536398  0.490759  1
  I  I15  1  0.536398  0.490759  0.771083  1
  I  I16  1  0.228917  0.463602  0.509241  1
  I  I17  1  0.463602  0.509241  0.228917  1
  I  I18  1  0.490759  0.771083  0.536398  1
  I  I19  1  0.509241  0.228917  0.463602  1
