# generated using pymatgen
data_Tm4CoHg
_symmetry_space_group_name_H-M   'P 1'
_cell_length_a   9.33411550
_cell_length_b   9.33411611
_cell_length_c   9.33411500
_cell_angle_alpha   60.00000038
_cell_angle_beta   59.99999823
_cell_angle_gamma   60.00000097
_symmetry_Int_Tables_number   1
_chemical_formula_structural   Tm4CoHg
_chemical_formula_sum   'Tm16 Co4 Hg4'
_cell_volume   575.04855617
_cell_formula_units_Z   4
loop_
 _symmetry_equiv_pos_site_id
 _symmetry_equiv_pos_as_xyz
  1  'x, y, z'
loop_
 _atom_site_type_symbol
 _atom_site_label
 _atom_site_symmetry_multiplicity
 _atom_site_fract_x
 _atom_site_fract_y
 _atom_site_fract_z
 _atom_site_occupancy
  Tm  Tm0  1  0.347907  0.347907  0.347907  1
  Tm  Tm1  1  0.347907  0.347907  0.956279  1
  Tm  Tm2  1  0.347907  0.956279  0.347907  1
  Tm  Tm3  1  0.956279  0.347907  0.347907  1
  Tm  Tm4  1  0.812219  0.187781  0.187781  1
  Tm  Tm5  1  0.187781  0.812219  0.812219  1
  Tm  Tm6  1  0.187781  0.812219  0.187781  1
  Tm  Tm7  1  0.812219  0.187781  0.812219  1
  Tm  Tm8  1  0.187781  0.187781  0.812219  1
  Tm  Tm9  1  0.812219  0.812219  0.187781  1
  Tm  Tm10  1  0.938308  0.561692  0.561692  1
  Tm  Tm11  1  0.561692  0.938308  0.938308  1
  Tm  Tm12  1  0.561692  0.938308  0.561692  1
  Tm  Tm13  1  0.938308  0.561692  0.938308  1
  Tm  Tm14  1  0.561692  0.561692  0.938308  1
  Tm  Tm15  1  0.938308  0.938308  0.561692  1
  Co  Co16  1  0.141715  0.141715  0.141715  1
  Co  Co17  1  0.141715  0.141715  0.574855  1
  Co  Co18  1  0.141715  0.574855  0.141715  1
  Co  Co19  1  0.574855  0.141715  0.141715  1
  Hg  Hg20  1  0.583945  0.583945  0.583945  1
  Hg  Hg21  1  0.583945  0.583945  0.248165  1
  Hg  Hg22  1  0.583945  0.248165  0.583945  1
  Hg  Hg23  1  0.248165  0.583945  0.583945  1
