# generated using pymatgen
data_HfSc3Co6Si6Ir
_symmetry_space_group_name_H-M   'P 1'
_cell_length_a   6.70267686
_cell_length_b   6.69064156
_cell_length_c   6.70267719
_cell_angle_alpha   109.43485485
_cell_angle_beta   109.50756606
_cell_angle_gamma   109.43484758
_symmetry_Int_Tables_number   1
_chemical_formula_structural   HfSc3Co6Si6Ir
_chemical_formula_sum   'Hf1 Sc3 Co6 Si6 Ir1'
_cell_volume   231.49264201
_cell_formula_units_Z   1
loop_
 _symmetry_equiv_pos_site_id
 _symmetry_equiv_pos_as_xyz
  1  'x, y, z'
loop_
 _atom_site_type_symbol
 _atom_site_label
 _atom_site_symmetry_multiplicity
 _atom_site_fract_x
 _atom_site_fract_y
 _atom_site_fract_z
 _atom_site_occupancy
  Hf  Hf0  1  0.000000  0.500000  0.000000  1
  Sc  Sc1  1  0.000000  0.000000  0.500000  1
  Sc  Sc2  1  0.500000  0.000000  0.000000  1
  Sc  Sc3  1  0.500000  0.500000  0.500000  1
  Co  Co4  1  0.750869  0.250869  0.501739  1
  Co  Co5  1  0.750869  0.500000  0.249131  1
  Co  Co6  1  0.501739  0.250869  0.750869  1
  Co  Co7  1  0.249131  0.500000  0.750869  1
  Co  Co8  1  0.249131  0.749131  0.498261  1
  Co  Co9  1  0.498261  0.749131  0.249131  1
  Si  Si10  1  0.669907  0.672434  0.000000  1
  Si  Si11  1  0.330093  0.002526  0.330093  1
  Si  Si12  1  0.000000  0.327566  0.330093  1
  Si  Si13  1  0.330093  0.327566  0.000000  1
  Si  Si14  1  0.669907  0.997474  0.669907  1
  Si  Si15  1  0.000000  0.672434  0.669907  1
  Ir  Ir16  1  0.000000  0.000000  0.000000  1
