# generated using pymatgen
data_Eu5CdNi2
_symmetry_space_group_name_H-M   'P 1'
_cell_length_a   9.23628668
_cell_length_b   9.23628646
_cell_length_c   9.23628644
_cell_angle_alpha   129.07221805
_cell_angle_beta   129.07221785
_cell_angle_gamma   74.89439645
_symmetry_Int_Tables_number   1
_chemical_formula_structural   Eu5CdNi2
_chemical_formula_sum   'Eu10 Cd2 Ni4'
_cell_volume   462.53624198
_cell_formula_units_Z   2
loop_
 _symmetry_equiv_pos_site_id
 _symmetry_equiv_pos_as_xyz
  1  'x, y, z'
loop_
 _atom_site_type_symbol
 _atom_site_label
 _atom_site_symmetry_multiplicity
 _atom_site_fract_x
 _atom_site_fract_y
 _atom_site_fract_z
 _atom_site_occupancy
  Eu  Eu0  1  0.500000  0.500000  0.000000  1
  Eu  Eu1  1  0.000000  0.000000  0.000000  1
  Eu  Eu2  1  0.532804  0.032804  0.833868  1
  Eu  Eu3  1  0.198935  0.698935  0.166132  1
  Eu  Eu4  1  0.032804  0.198935  0.500000  1
  Eu  Eu5  1  0.698935  0.532804  0.500000  1
  Eu  Eu6  1  0.467196  0.967196  0.166132  1
  Eu  Eu7  1  0.801065  0.301065  0.833868  1
  Eu  Eu8  1  0.967196  0.801065  0.500000  1
  Eu  Eu9  1  0.301065  0.467196  0.500000  1
  Cd  Cd10  1  0.250000  0.250000  0.000000  1
  Cd  Cd11  1  0.750000  0.750000  0.000000  1
  Ni  Ni12  1  0.111858  0.611858  0.723714  1
  Ni  Ni13  1  0.888142  0.388142  0.276286  1
  Ni  Ni14  1  0.611858  0.888142  0.500000  1
  Ni  Ni15  1  0.388142  0.111858  0.500000  1
