# generated using pymatgen
data_Ho10Tl2Cd3In3Pd4
_symmetry_space_group_name_H-M   'P 1'
_cell_length_a   3.60471300
_cell_length_b   8.13584405
_cell_length_c   18.35091034
_cell_angle_alpha   89.94894206
_cell_angle_beta   90.00000000
_cell_angle_gamma   90.00000000
_symmetry_Int_Tables_number   1
_chemical_formula_structural   Ho10Tl2Cd3In3Pd4
_chemical_formula_sum   'Ho10 Tl2 Cd3 In3 Pd4'
_cell_volume   538.18395906
_cell_formula_units_Z   1
loop_
 _symmetry_equiv_pos_site_id
 _symmetry_equiv_pos_as_xyz
  1  'x, y, z'
loop_
 _atom_site_type_symbol
 _atom_site_label
 _atom_site_symmetry_multiplicity
 _atom_site_fract_x
 _atom_site_fract_y
 _atom_site_fract_z
 _atom_site_occupancy
  Ho  Ho0  1  0.000000  0.500601  0.498471  1
  Ho  Ho1  1  0.000000  0.999380  0.999907  1
  Ho  Ho2  1  0.000000  0.744117  0.280445  1
  Ho  Ho3  1  0.000000  0.258140  0.720560  1
  Ho  Ho4  1  0.000000  0.755944  0.782930  1
  Ho  Ho5  1  0.000000  0.244308  0.218258  1
  Ho  Ho6  1  0.000000  0.614055  0.084705  1
  Ho  Ho7  1  0.000000  0.386272  0.917263  1
  Ho  Ho8  1  0.000000  0.883510  0.585458  1
  Ho  Ho9  1  0.000000  0.112770  0.412950  1
  Tl  Tl10  1  0.500000  0.205641  0.564929  1
  Tl  Tl11  1  0.500000  0.579809  0.648710  1
  Cd  Cd12  1  0.500000  0.709177  0.933044  1
  Cd  Cd13  1  0.500000  0.290185  0.067396  1
  Cd  Cd14  1  0.500000  0.789214  0.431639  1
  In  In15  1  0.500000  0.426387  0.350858  1
  In  In16  1  0.500000  0.926358  0.147218  1
  In  In17  1  0.500000  0.076659  0.852769  1
  Pd  Pd18  1  0.500000  0.524087  0.196705  1
  Pd  Pd19  1  0.500000  0.473811  0.805235  1
  Pd  Pd20  1  0.500000  0.975234  0.698794  1
  Pd  Pd21  1  0.500000  0.024339  0.301755  1
