# generated using pymatgen
data_Hf4ZnNi4Ir
_symmetry_space_group_name_H-M   'P 1'
_cell_length_a   7.00177800
_cell_length_b   7.00177800
_cell_length_c   3.21792000
_cell_angle_alpha   90.00000000
_cell_angle_beta   90.00000000
_cell_angle_gamma   90.00000000
_symmetry_Int_Tables_number   1
_chemical_formula_structural   Hf4ZnNi4Ir
_chemical_formula_sum   'Hf4 Zn1 Ni4 Ir1'
_cell_volume   157.75819064
_cell_formula_units_Z   1
loop_
 _symmetry_equiv_pos_site_id
 _symmetry_equiv_pos_as_xyz
  1  'x, y, z'
loop_
 _atom_site_type_symbol
 _atom_site_label
 _atom_site_symmetry_multiplicity
 _atom_site_fract_x
 _atom_site_fract_y
 _atom_site_fract_z
 _atom_site_occupancy
  Hf  Hf0  1  0.650452  0.191429  0.500000  1
  Hf  Hf1  1  0.349548  0.808571  0.500000  1
  Hf  Hf2  1  0.808571  0.650452  0.500000  1
  Hf  Hf3  1  0.191429  0.349548  0.500000  1
  Zn  Zn4  1  0.000000  0.000000  0.000000  1
  Ni  Ni5  1  0.639654  0.885051  0.000000  1
  Ni  Ni6  1  0.114949  0.639654  0.000000  1
  Ni  Ni7  1  0.885051  0.360346  0.000000  1
  Ni  Ni8  1  0.360346  0.114949  0.000000  1
  Ir  Ir9  1  0.500000  0.500000  0.000000  1
