# generated using pymatgen
data_Tb6Dy4CuBi6As
_symmetry_space_group_name_H-M   'P 1'
_cell_length_a   9.37575400
_cell_length_b   9.37575438
_cell_length_c   6.45149700
_cell_angle_alpha   90.00000000
_cell_angle_beta   90.00000000
_cell_angle_gamma   120.00000573
_symmetry_Int_Tables_number   1
_chemical_formula_structural   Tb6Dy4CuBi6As
_chemical_formula_sum   'Tb6 Dy4 Cu1 Bi6 As1'
_cell_volume   491.13799322
_cell_formula_units_Z   1
loop_
 _symmetry_equiv_pos_site_id
 _symmetry_equiv_pos_as_xyz
  1  'x, y, z'
loop_
 _atom_site_type_symbol
 _atom_site_label
 _atom_site_symmetry_multiplicity
 _atom_site_fract_x
 _atom_site_fract_y
 _atom_site_fract_z
 _atom_site_occupancy
  Tb  Tb0  1  0.747978  0.747978  0.248076  1
  Tb  Tb1  1  0.252022  0.000000  0.248076  1
  Tb  Tb2  1  0.000000  0.252022  0.248076  1
  Tb  Tb3  1  0.252022  0.252022  0.751924  1
  Tb  Tb4  1  0.747978  0.000000  0.751924  1
  Tb  Tb5  1  0.000000  0.747978  0.751924  1
  Dy  Dy6  1  0.666667  0.333333  0.500000  1
  Dy  Dy7  1  0.333333  0.666667  0.500000  1
  Dy  Dy8  1  0.333333  0.666667  0.000000  1
  Dy  Dy9  1  0.666667  0.333333  0.000000  1
  Cu  Cu10  1  0.000000  0.000000  0.000000  1
  Bi  Bi11  1  0.390434  0.390434  0.248891  1
  Bi  Bi12  1  0.609566  0.000000  0.248891  1
  Bi  Bi13  1  0.000000  0.609566  0.248891  1
  Bi  Bi14  1  0.609566  0.609566  0.751109  1
  Bi  Bi15  1  0.390434  0.000000  0.751109  1
  Bi  Bi16  1  0.000000  0.390434  0.751109  1
  As  As17  1  0.000000  0.000000  0.500000  1
