# generated using pymatgen
data_NdPa3(CdRh2)2
_symmetry_space_group_name_H-M   'P 1'
_cell_length_a   7.75355900
_cell_length_b   7.75355900
_cell_length_c   3.63341400
_cell_angle_alpha   90.00000000
_cell_angle_beta   90.00000000
_cell_angle_gamma   92.50532182
_symmetry_Int_Tables_number   1
_chemical_formula_structural   NdPa3(CdRh2)2
_chemical_formula_sum   'Nd1 Pa3 Cd2 Rh4'
_cell_volume   218.22362473
_cell_formula_units_Z   1
loop_
 _symmetry_equiv_pos_site_id
 _symmetry_equiv_pos_as_xyz
  1  'x, y, z'
loop_
 _atom_site_type_symbol
 _atom_site_label
 _atom_site_symmetry_multiplicity
 _atom_site_fract_x
 _atom_site_fract_y
 _atom_site_fract_z
 _atom_site_occupancy
  Nd  Nd0  1  0.830744  0.669256  0.500000  1
  Pa  Pa1  1  0.670652  0.167521  0.500000  1
  Pa  Pa2  1  0.332479  0.829348  0.500000  1
  Pa  Pa3  1  0.170065  0.329935  0.500000  1
  Cd  Cd4  1  0.001062  0.993098  0.000000  1
  Cd  Cd5  1  0.506902  0.498938  0.000000  1
  Rh  Rh6  1  0.153801  0.629133  0.000000  1
  Rh  Rh7  1  0.870867  0.346199  0.000000  1
  Rh  Rh8  1  0.609589  0.890411  0.000000  1
  Rh  Rh9  1  0.353840  0.146160  0.000000  1
