# generated using pymatgen
data_Li2CoAs2Ru
_symmetry_space_group_name_H-M   'P 1'
_cell_length_a   3.91272100
_cell_length_b   3.91272100
_cell_length_c   6.10661600
_cell_angle_alpha   90.00000000
_cell_angle_beta   90.00000000
_cell_angle_gamma   90.00000000
_symmetry_Int_Tables_number   1
_chemical_formula_structural   Li2CoAs2Ru
_chemical_formula_sum   'Li2 Co1 As2 Ru1'
_cell_volume   93.48853920
_cell_formula_units_Z   1
loop_
 _symmetry_equiv_pos_site_id
 _symmetry_equiv_pos_as_xyz
  1  'x, y, z'
loop_
 _atom_site_type_symbol
 _atom_site_label
 _atom_site_symmetry_multiplicity
 _atom_site_fract_x
 _atom_site_fract_y
 _atom_site_fract_z
 _atom_site_occupancy
  Li  Li0  1  0.000000  0.500000  0.670053  1
  Li  Li1  1  0.500000  0.000000  0.329947  1
  Co  Co2  1  0.000000  0.000000  0.000000  1
  As  As3  1  0.500000  0.000000  0.769232  1
  As  As4  1  0.000000  0.500000  0.230768  1
  Ru  Ru5  1  0.500000  0.500000  0.000000  1
