# generated using pymatgen
data_Pr8Ho11Si16Ag
_symmetry_space_group_name_H-M   'P 1'
_cell_length_a   7.46821719
_cell_length_b   7.80156221
_cell_length_c   14.83046600
_cell_angle_alpha   90.00000000
_cell_angle_beta   90.00000000
_cell_angle_gamma   90.02638301
_symmetry_Int_Tables_number   1
_chemical_formula_structural   Pr8Ho11Si16Ag
_chemical_formula_sum   'Pr8 Ho11 Si16 Ag1'
_cell_volume   864.07863559
_cell_formula_units_Z   1
loop_
 _symmetry_equiv_pos_site_id
 _symmetry_equiv_pos_as_xyz
  1  'x, y, z'
loop_
 _atom_site_type_symbol
 _atom_site_label
 _atom_site_symmetry_multiplicity
 _atom_site_fract_x
 _atom_site_fract_y
 _atom_site_fract_z
 _atom_site_occupancy
  Pr  Pr0  1  0.966013  0.823400  0.103466  1
  Pr  Pr1  1  0.478982  0.690465  0.396688  1
  Pr  Pr2  1  0.522084  0.323313  0.903415  1
  Pr  Pr3  1  0.023083  0.178877  0.596961  1
  Pr  Pr4  1  0.023083  0.178877  0.903039  1
  Pr  Pr5  1  0.522084  0.323313  0.596585  1
  Pr  Pr6  1  0.478982  0.690465  0.103312  1
  Pr  Pr7  1  0.966013  0.823400  0.396534  1
  Ho  Ho8  1  0.146877  0.505425  0.250000  1
  Ho  Ho9  1  0.850646  0.489451  0.750000  1
  Ho  Ho10  1  0.347941  0.011152  0.750000  1
  Ho  Ho11  1  0.681034  0.818855  0.876076  1
  Ho  Ho12  1  0.181405  0.677267  0.621860  1
  Ho  Ho13  1  0.814879  0.312802  0.125681  1
  Ho  Ho14  1  0.330714  0.172967  0.373928  1
  Ho  Ho15  1  0.330714  0.172967  0.126072  1
  Ho  Ho16  1  0.814879  0.312802  0.374319  1
  Ho  Ho17  1  0.181405  0.677267  0.878140  1
  Ho  Ho18  1  0.681034  0.818855  0.623924  1
  Si  Si19  1  0.771597  0.608781  0.250000  1
  Si  Si20  1  0.259446  0.878124  0.250000  1
  Si  Si21  1  0.729740  0.119698  0.750000  1
  Si  Si22  1  0.230248  0.380241  0.750000  1
  Si  Si23  1  0.032014  0.111269  0.250000  1
  Si  Si24  1  0.519972  0.405526  0.250000  1
  Si  Si25  1  0.475350  0.610883  0.750000  1
  Si  Si26  1  0.975283  0.884425  0.750000  1
  Si  Si27  1  0.856876  0.530677  0.963597  1
  Si  Si28  1  0.356727  0.968522  0.539564  1
  Si  Si29  1  0.648381  0.036282  0.032103  1
  Si  Si30  1  0.146239  0.469820  0.457326  1
  Si  Si31  1  0.146239  0.469820  0.042674  1
  Si  Si32  1  0.648381  0.036282  0.467897  1
  Si  Si33  1  0.356727  0.968522  0.960436  1
  Si  Si34  1  0.856876  0.530677  0.536403  1
  Ag  Ag35  1  0.648054  0.988533  0.250000  1
