# generated using pymatgen
data_CoGeMo12(Pt3N2)2
_symmetry_space_group_name_H-M   'P 1'
_cell_length_a   6.86855475
_cell_length_b   6.86062191
_cell_length_c   6.87013703
_cell_angle_alpha   90.01615735
_cell_angle_beta   90.11935952
_cell_angle_gamma   90.22840334
_symmetry_Int_Tables_number   1
_chemical_formula_structural   CoGeMo12(Pt3N2)2
_chemical_formula_sum   'Co1 Ge1 Mo12 Pt6 N4'
_cell_volume   323.73513654
_cell_formula_units_Z   1
loop_
 _symmetry_equiv_pos_site_id
 _symmetry_equiv_pos_as_xyz
  1  'x, y, z'
loop_
 _atom_site_type_symbol
 _atom_site_label
 _atom_site_symmetry_multiplicity
 _atom_site_fract_x
 _atom_site_fract_y
 _atom_site_fract_z
 _atom_site_occupancy
  Co  Co0  1  0.705602  0.685763  0.675634  1
  Ge  Ge1  1  0.924901  0.570555  0.446402  1
  Mo  Mo2  1  0.123293  0.201764  0.451386  1
  Mo  Mo3  1  0.372087  0.800895  0.956289  1
  Mo  Mo4  1  0.867935  0.702864  0.033493  1
  Mo  Mo5  1  0.215122  0.443679  0.117255  1
  Mo  Mo6  1  0.796024  0.955127  0.372714  1
  Mo  Mo7  1  0.048143  0.877152  0.711554  1
  Mo  Mo8  1  0.451749  0.126104  0.203796  1
  Mo  Mo9  1  0.303780  0.547654  0.623714  1
  Mo  Mo10  1  0.951414  0.379011  0.795185  1
  Mo  Mo11  1  0.545086  0.628190  0.300013  1
  Mo  Mo12  1  0.699221  0.037611  0.868120  1
  Mo  Mo13  1  0.619683  0.291829  0.556169  1
  Pt  Pt14  1  0.056415  0.062595  0.064114  1
  Pt  Pt15  1  0.309825  0.191338  0.807017  1
  Pt  Pt16  1  0.815694  0.328428  0.203159  1
  Pt  Pt17  1  0.174967  0.795327  0.318084  1
  Pt  Pt18  1  0.447348  0.925686  0.564064  1
  Pt  Pt19  1  0.568672  0.452176  0.927319  1
  N  N20  1  0.377026  0.373332  0.376962  1
  N  N21  1  0.622412  0.877428  0.124778  1
  N  N22  1  0.128105  0.622533  0.876763  1
  N  N23  1  0.875494  0.122958  0.626014  1
