# generated using pymatgen
data_BaSr2(CrH6)2
_symmetry_space_group_name_H-M   'P 1'
_cell_length_a   5.30213400
_cell_length_b   5.30213336
_cell_length_c   8.85373800
_cell_angle_alpha   90.00000000
_cell_angle_beta   90.00000000
_cell_angle_gamma   120.00000399
_symmetry_Int_Tables_number   1
_chemical_formula_structural   BaSr2(CrH6)2
_chemical_formula_sum   'Ba1 Sr2 Cr2 H12'
_cell_volume   215.55526090
_cell_formula_units_Z   1
loop_
 _symmetry_equiv_pos_site_id
 _symmetry_equiv_pos_as_xyz
  1  'x, y, z'
loop_
 _atom_site_type_symbol
 _atom_site_label
 _atom_site_symmetry_multiplicity
 _atom_site_fract_x
 _atom_site_fract_y
 _atom_site_fract_z
 _atom_site_occupancy
  Ba  Ba0  1  0.000000  0.000000  0.000000  1
  Sr  Sr1  1  0.666667  0.333333  0.365606  1
  Sr  Sr2  1  0.333333  0.666667  0.634394  1
  Cr  Cr3  1  0.666667  0.333333  0.751947  1
  Cr  Cr4  1  0.333333  0.666667  0.248053  1
  H  H5  1  0.185562  0.814438  0.368583  1
  H  H6  1  0.628877  0.814438  0.368583  1
  H  H7  1  0.185562  0.371123  0.368583  1
  H  H8  1  0.814438  0.185562  0.631417  1
  H  H9  1  0.371123  0.185562  0.631417  1
  H  H10  1  0.814438  0.628877  0.631417  1
  H  H11  1  0.508775  0.017548  0.855616  1
  H  H12  1  0.508775  0.491225  0.855616  1
  H  H13  1  0.982452  0.491225  0.855616  1
  H  H14  1  0.491225  0.982452  0.144384  1
  H  H15  1  0.491225  0.508775  0.144384  1
  H  H16  1  0.017548  0.508775  0.144384  1
