# generated using pymatgen
data_Y2HfTcF14
_symmetry_space_group_name_H-M   'P 1'
_cell_length_a   5.67858503
_cell_length_b   9.01279113
_cell_length_c   12.10975919
_cell_angle_alpha   62.36761095
_cell_angle_beta   90.02345870
_cell_angle_gamma   90.00187114
_symmetry_Int_Tables_number   1
_chemical_formula_structural   Y2HfTcF14
_chemical_formula_sum   'Y4 Hf2 Tc2 F28'
_cell_volume   549.08549135
_cell_formula_units_Z   2
loop_
 _symmetry_equiv_pos_site_id
 _symmetry_equiv_pos_as_xyz
  1  'x, y, z'
loop_
 _atom_site_type_symbol
 _atom_site_label
 _atom_site_symmetry_multiplicity
 _atom_site_fract_x
 _atom_site_fract_y
 _atom_site_fract_z
 _atom_site_occupancy
  Y  Y0  1  0.257118  0.813287  0.268512  1
  Y  Y1  1  0.742882  0.186713  0.731488  1
  Y  Y2  1  0.758629  0.184943  0.237305  1
  Y  Y3  1  0.241371  0.815057  0.762695  1
  Hf  Hf4  1  0.755250  0.725869  0.044605  1
  Hf  Hf5  1  0.244750  0.274131  0.955395  1
  Tc  Tc6  1  0.258380  0.273352  0.456021  1
  Tc  Tc7  1  0.741620  0.726648  0.543979  1
  F  F8  1  0.948789  0.709035  0.421122  1
  F  F9  1  0.051211  0.290965  0.578878  1
  F  F10  1  0.464707  0.291203  0.078070  1
  F  F11  1  0.535293  0.708797  0.921930  1
  F  F12  1  0.485716  0.731979  0.149494  1
  F  F13  1  0.514284  0.268021  0.850506  1
  F  F14  1  0.983135  0.267359  0.359905  1
  F  F15  1  0.016865  0.732641  0.640095  1
  F  F16  1  0.965823  0.748585  0.170449  1
  F  F17  1  0.034177  0.251415  0.829551  1
  F  F18  1  0.460309  0.257796  0.328657  1
  F  F19  1  0.539691  0.742204  0.671343  1
  F  F20  1  0.774832  0.475939  0.142287  1
  F  F21  1  0.225168  0.524061  0.857713  1
  F  F22  1  0.264615  0.519080  0.361110  1
  F  F23  1  0.735385  0.480920  0.638890  1
  F  F24  1  0.955786  0.277824  0.051088  1
  F  F25  1  0.044214  0.722176  0.948912  1
  F  F26  1  0.454920  0.717234  0.455173  1
  F  F27  1  0.545080  0.282766  0.544827  1
  F  F28  1  0.737989  0.971419  0.449296  1
  F  F29  1  0.262011  0.028581  0.550704  1
  F  F30  1  0.243042  0.025113  0.058380  1
  F  F31  1  0.756958  0.974887  0.941620  1
  F  F32  1  0.574885  0.972893  0.235622  1
  F  F33  1  0.425115  0.027107  0.764378  1
  F  F34  1  0.076957  0.027349  0.270055  1
  F  F35  1  0.923043  0.972651  0.729945  1
