# generated using pymatgen
data_YTm2Si3Os2
_symmetry_space_group_name_H-M   'P 1'
_cell_length_a   5.70136624
_cell_length_b   5.70136621
_cell_length_c   13.64075400
_cell_angle_alpha   90.00000000
_cell_angle_beta   90.00000000
_cell_angle_gamma   137.04767408
_symmetry_Int_Tables_number   1
_chemical_formula_structural   YTm2Si3Os2
_chemical_formula_sum   'Y2 Tm4 Si6 Os4'
_cell_volume   302.12853609
_cell_formula_units_Z   2
loop_
 _symmetry_equiv_pos_site_id
 _symmetry_equiv_pos_as_xyz
  1  'x, y, z'
loop_
 _atom_site_type_symbol
 _atom_site_label
 _atom_site_symmetry_multiplicity
 _atom_site_fract_x
 _atom_site_fract_y
 _atom_site_fract_z
 _atom_site_occupancy
  Y  Y0  1  0.639775  0.360225  0.250000  1
  Y  Y1  1  0.360225  0.639775  0.750000  1
  Tm  Tm2  1  0.924107  0.075893  0.114995  1
  Tm  Tm3  1  0.075893  0.924107  0.885005  1
  Tm  Tm4  1  0.075893  0.924107  0.614995  1
  Tm  Tm5  1  0.924107  0.075893  0.385005  1
  Si  Si6  1  0.328190  0.671810  0.250000  1
  Si  Si7  1  0.671810  0.328190  0.750000  1
  Si  Si8  1  0.615253  0.384747  0.037199  1
  Si  Si9  1  0.384747  0.615253  0.962801  1
  Si  Si10  1  0.384747  0.615253  0.537199  1
  Si  Si11  1  0.615253  0.384747  0.462801  1
  Os  Os12  1  0.787596  0.212404  0.581756  1
  Os  Os13  1  0.212404  0.787596  0.418244  1
  Os  Os14  1  0.212404  0.787596  0.081756  1
  Os  Os15  1  0.787596  0.212404  0.918244  1
