# generated using pymatgen
data_Ac6MgCd22S
_symmetry_space_group_name_H-M   'P 1'
_cell_length_a   10.34227125
_cell_length_b   10.34227150
_cell_length_c   10.34227200
_cell_angle_alpha   60.00000481
_cell_angle_beta   60.00000401
_cell_angle_gamma   60.00000716
_symmetry_Int_Tables_number   1
_chemical_formula_structural   Ac6MgCd22S
_chemical_formula_sum   'Ac6 Mg1 Cd22 S1'
_cell_volume   782.22711964
_cell_formula_units_Z   1
loop_
 _symmetry_equiv_pos_site_id
 _symmetry_equiv_pos_as_xyz
  1  'x, y, z'
loop_
 _atom_site_type_symbol
 _atom_site_label
 _atom_site_symmetry_multiplicity
 _atom_site_fract_x
 _atom_site_fract_y
 _atom_site_fract_z
 _atom_site_occupancy
  Ac  Ac0  1  0.790380  0.790380  0.209620  1
  Ac  Ac1  1  0.209620  0.790380  0.209620  1
  Ac  Ac2  1  0.790380  0.209620  0.209620  1
  Ac  Ac3  1  0.209620  0.209620  0.790380  1
  Ac  Ac4  1  0.790380  0.209620  0.790380  1
  Ac  Ac5  1  0.209620  0.790380  0.790380  1
  Mg  Mg6  1  0.500000  0.500000  0.500000  1
  Cd  Cd7  1  0.828997  0.828997  0.513008  1
  Cd  Cd8  1  0.828997  0.513008  0.828997  1
  Cd  Cd9  1  0.513008  0.828997  0.828997  1
  Cd  Cd10  1  0.828997  0.828997  0.828997  1
  Cd  Cd11  1  0.171003  0.171003  0.486992  1
  Cd  Cd12  1  0.171003  0.486992  0.171003  1
  Cd  Cd13  1  0.486992  0.171003  0.171003  1
  Cd  Cd14  1  0.171003  0.171003  0.171003  1
  Cd  Cd15  1  0.621334  0.621334  0.135997  1
  Cd  Cd16  1  0.621334  0.135997  0.621334  1
  Cd  Cd17  1  0.135997  0.621334  0.621334  1
  Cd  Cd18  1  0.621334  0.621334  0.621334  1
  Cd  Cd19  1  0.378666  0.378666  0.864003  1
  Cd  Cd20  1  0.378666  0.864003  0.378666  1
  Cd  Cd21  1  0.864003  0.378666  0.378666  1
  Cd  Cd22  1  0.378666  0.378666  0.378666  1
  Cd  Cd23  1  0.000000  0.000000  0.500000  1
  Cd  Cd24  1  0.500000  0.000000  0.500000  1
  Cd  Cd25  1  0.000000  0.500000  0.500000  1
  Cd  Cd26  1  0.500000  0.500000  0.000000  1
  Cd  Cd27  1  0.000000  0.500000  0.000000  1
  Cd  Cd28  1  0.500000  0.000000  0.000000  1
  S  S29  1  0.000000  0.000000  0.000000  1
