# generated using pymatgen
data_Nd3ThTlInPd4
_symmetry_space_group_name_H-M   'P 1'
_cell_length_a   7.97812503
_cell_length_b   7.97356595
_cell_length_c   3.84124100
_cell_angle_alpha   90.00000000
_cell_angle_beta   90.00000000
_cell_angle_gamma   91.21290587
_symmetry_Int_Tables_number   1
_chemical_formula_structural   Nd3ThTlInPd4
_chemical_formula_sum   'Nd3 Th1 Tl1 In1 Pd4'
_cell_volume   244.30236212
_cell_formula_units_Z   1
loop_
 _symmetry_equiv_pos_site_id
 _symmetry_equiv_pos_as_xyz
  1  'x, y, z'
loop_
 _atom_site_type_symbol
 _atom_site_label
 _atom_site_symmetry_multiplicity
 _atom_site_fract_x
 _atom_site_fract_y
 _atom_site_fract_z
 _atom_site_occupancy
  Nd  Nd0  1  0.822468  0.671867  0.500000  1
  Nd  Nd1  1  0.174065  0.324661  0.500000  1
  Nd  Nd2  1  0.675843  0.178134  0.500000  1
  Th  Th3  1  0.328730  0.826220  0.500000  1
  Tl  Tl4  1  0.996171  0.999319  0.000000  1
  In  In5  1  0.498899  0.497139  0.000000  1
  Pd  Pd6  1  0.374055  0.120246  0.000000  1
  Pd  Pd7  1  0.877153  0.382011  0.000000  1
  Pd  Pd8  1  0.137368  0.631843  0.000000  1
  Pd  Pd9  1  0.615248  0.868559  0.000000  1
