# generated using pymatgen
data_Nd6Mn2NbWC12
_symmetry_space_group_name_H-M   'P 1'
_cell_length_a   8.32431700
_cell_length_b   8.32431799
_cell_length_c   5.14585400
_cell_angle_alpha   90.00000000
_cell_angle_beta   90.00000000
_cell_angle_gamma   119.99998415
_symmetry_Int_Tables_number   1
_chemical_formula_structural   Nd6Mn2NbWC12
_chemical_formula_sum   'Nd6 Mn2 Nb1 W1 C12'
_cell_volume   308.80578916
_cell_formula_units_Z   1
loop_
 _symmetry_equiv_pos_site_id
 _symmetry_equiv_pos_as_xyz
  1  'x, y, z'
loop_
 _atom_site_type_symbol
 _atom_site_label
 _atom_site_symmetry_multiplicity
 _atom_site_fract_x
 _atom_site_fract_y
 _atom_site_fract_z
 _atom_site_occupancy
  Nd  Nd0  1  0.613840  0.676529  0.749559  1
  Nd  Nd1  1  0.937312  0.613840  0.250441  1
  Nd  Nd2  1  0.676529  0.062688  0.250441  1
  Nd  Nd3  1  0.323471  0.937312  0.749559  1
  Nd  Nd4  1  0.062688  0.386160  0.749559  1
  Nd  Nd5  1  0.386160  0.323471  0.250441  1
  Mn  Mn6  1  0.666667  0.333333  0.747890  1
  Mn  Mn7  1  0.333333  0.666667  0.252110  1
  Nb  Nb8  1  0.000000  0.000000  0.500000  1
  W  W9  1  0.000000  0.000000  0.000000  1
  C  C10  1  0.958245  0.758289  0.756433  1
  C  C11  1  0.199956  0.958245  0.243567  1
  C  C12  1  0.758289  0.800044  0.243567  1
  C  C13  1  0.241711  0.199956  0.756433  1
  C  C14  1  0.800044  0.041755  0.756433  1
  C  C15  1  0.041755  0.241711  0.243567  1
  C  C16  1  0.858389  0.568808  0.752878  1
  C  C17  1  0.289579  0.858389  0.247122  1
  C  C18  1  0.568808  0.710421  0.247122  1
  C  C19  1  0.431192  0.289579  0.752878  1
  C  C20  1  0.141611  0.431192  0.247122  1
  C  C21  1  0.710421  0.141611  0.752878  1
