# generated using pymatgen
data_Cs2UCl5
_symmetry_space_group_name_H-M   'P 1'
_cell_length_a   8.68557100
_cell_length_b   9.17217600
_cell_length_c   14.12329200
_cell_angle_alpha   90.00000000
_cell_angle_beta   90.00000000
_cell_angle_gamma   90.00000000
_symmetry_Int_Tables_number   1
_chemical_formula_structural   Cs2UCl5
_chemical_formula_sum   'Cs8 U4 Cl20'
_cell_volume   1125.14033163
_cell_formula_units_Z   4
loop_
 _symmetry_equiv_pos_site_id
 _symmetry_equiv_pos_as_xyz
  1  'x, y, z'
loop_
 _atom_site_type_symbol
 _atom_site_label
 _atom_site_symmetry_multiplicity
 _atom_site_fract_x
 _atom_site_fract_y
 _atom_site_fract_z
 _atom_site_occupancy
  Cs  Cs0  1  0.947199  0.005586  0.828518  1
  Cs  Cs1  1  0.052801  0.994414  0.171482  1
  Cs  Cs2  1  0.447199  0.994414  0.671482  1
  Cs  Cs3  1  0.052801  0.505586  0.171482  1
  Cs  Cs4  1  0.552801  0.005586  0.328518  1
  Cs  Cs5  1  0.947199  0.494414  0.828518  1
  Cs  Cs6  1  0.552801  0.494414  0.328518  1
  Cs  Cs7  1  0.447199  0.505586  0.671482  1
  U  U8  1  0.936661  0.750000  0.501462  1
  U  U9  1  0.063339  0.250000  0.498538  1
  U  U10  1  0.436661  0.250000  0.998538  1
  U  U11  1  0.563339  0.750000  0.001462  1
  Cl  Cl12  1  0.111602  0.750000  0.666928  1
  Cl  Cl13  1  0.888398  0.250000  0.333072  1
  Cl  Cl14  1  0.611602  0.250000  0.833072  1
  Cl  Cl15  1  0.388398  0.750000  0.166928  1
  Cl  Cl16  1  0.846819  0.040432  0.569011  1
  Cl  Cl17  1  0.153181  0.959568  0.430989  1
  Cl  Cl18  1  0.346819  0.959568  0.930989  1
  Cl  Cl19  1  0.153181  0.540432  0.430989  1
  Cl  Cl20  1  0.653181  0.040432  0.069011  1
  Cl  Cl21  1  0.846819  0.459568  0.569011  1
  Cl  Cl22  1  0.653181  0.459568  0.069011  1
  Cl  Cl23  1  0.346819  0.540432  0.930989  1
  Cl  Cl24  1  0.609638  0.750000  0.512291  1
  Cl  Cl25  1  0.390362  0.250000  0.487709  1
  Cl  Cl26  1  0.109638  0.250000  0.987709  1
  Cl  Cl27  1  0.890362  0.750000  0.012291  1
  Cl  Cl28  1  0.650275  0.750000  0.811914  1
  Cl  Cl29  1  0.349725  0.250000  0.188086  1
  Cl  Cl30  1  0.150275  0.250000  0.688086  1
  Cl  Cl31  1  0.849725  0.750000  0.311914  1
