# generated using pymatgen
data_Pr5HoAl24(IrRu)4
_symmetry_space_group_name_H-M   'P 1'
_cell_length_a   8.87800100
_cell_length_b   8.91951557
_cell_length_c   9.67377664
_cell_angle_alpha   89.92246601
_cell_angle_beta   90.00000000
_cell_angle_gamma   119.84615063
_symmetry_Int_Tables_number   1
_chemical_formula_structural   Pr5HoAl24(IrRu)4
_chemical_formula_sum   'Pr5 Ho1 Al24 Ir4 Ru4'
_cell_volume   664.43700590
_cell_formula_units_Z   1
loop_
 _symmetry_equiv_pos_site_id
 _symmetry_equiv_pos_as_xyz
  1  'x, y, z'
loop_
 _atom_site_type_symbol
 _atom_site_label
 _atom_site_symmetry_multiplicity
 _atom_site_fract_x
 _atom_site_fract_y
 _atom_site_fract_z
 _atom_site_occupancy
  Pr  Pr0  1  0.808501  0.617002  0.749083  1
  Pr  Pr1  1  0.619975  0.810222  0.250075  1
  Pr  Pr2  1  0.380307  0.189337  0.749720  1
  Pr  Pr3  1  0.190246  0.810222  0.250075  1
  Pr  Pr4  1  0.809030  0.189337  0.749720  1
  Ho  Ho5  1  0.194616  0.389231  0.251564  1
  Al  Al6  1  0.332834  0.665668  0.021459  1
  Al  Al7  1  0.666157  0.332314  0.982349  1
  Al  Al8  1  0.666900  0.333797  0.517147  1
  Al  Al9  1  0.332057  0.664116  0.478832  1
  Al  Al10  1  0.163743  0.327484  0.572834  1
  Al  Al11  1  0.835790  0.671583  0.422758  1
  Al  Al12  1  0.672052  0.834646  0.574699  1
  Al  Al13  1  0.836587  0.673174  0.076637  1
  Al  Al14  1  0.325859  0.166380  0.422542  1
  Al  Al15  1  0.163119  0.326238  0.927792  1
  Al  Al16  1  0.162595  0.834646  0.574699  1
  Al  Al17  1  0.325153  0.164759  0.077733  1
  Al  Al18  1  0.840521  0.166380  0.422542  1
  Al  Al19  1  0.673171  0.836235  0.924712  1
  Al  Al20  1  0.839605  0.164759  0.077733  1
  Al  Al21  1  0.163065  0.836235  0.924712  1
  Al  Al22  1  0.563464  0.126927  0.249406  1
  Al  Al23  1  0.436281  0.872562  0.750626  1
  Al  Al24  1  0.876361  0.437100  0.250799  1
  Al  Al25  1  0.126054  0.561210  0.749301  1
  Al  Al26  1  0.560739  0.437100  0.250799  1
  Al  Al27  1  0.435156  0.561210  0.749301  1
  Al  Al28  1  0.004297  0.008595  0.250070  1
  Al  Al29  1  0.999139  0.998278  0.750010  1
  Ir  Ir30  1  0.499537  0.999074  0.000565  1
  Ir  Ir31  1  0.001009  0.498808  0.001661  1
  Ir  Ir32  1  0.499527  0.999053  0.499319  1
  Ir  Ir33  1  0.497798  0.498808  0.001661  1
  Ru  Ru34  1  0.001059  0.498966  0.498506  1
  Ru  Ru35  1  0.497907  0.498966  0.498506  1
  Ru  Ru36  1  0.999913  0.999826  0.000371  1
  Ru  Ru37  1  0.999876  0.999752  0.499683  1
