# generated using pymatgen
data_CaMgZnP2
_symmetry_space_group_name_H-M   'P 1'
_cell_length_a   4.14704200
_cell_length_b   4.14704174
_cell_length_c   6.90266800
_cell_angle_alpha   90.00000000
_cell_angle_beta   90.00000000
_cell_angle_gamma   119.99998612
_symmetry_Int_Tables_number   1
_chemical_formula_structural   CaMgZnP2
_chemical_formula_sum   'Ca1 Mg1 Zn1 P2'
_cell_volume   102.80743369
_cell_formula_units_Z   1
loop_
 _symmetry_equiv_pos_site_id
 _symmetry_equiv_pos_as_xyz
  1  'x, y, z'
loop_
 _atom_site_type_symbol
 _atom_site_label
 _atom_site_symmetry_multiplicity
 _atom_site_fract_x
 _atom_site_fract_y
 _atom_site_fract_z
 _atom_site_occupancy
  Ca  Ca0  1  0.000000  0.000000  0.001565  1
  Mg  Mg1  1  0.333333  0.666667  0.629633  1
  Zn  Zn2  1  0.666667  0.333333  0.367056  1
  P  P3  1  0.666667  0.333333  0.745036  1
  P  P4  1  0.333333  0.666667  0.256710  1
