# generated using pymatgen
data_Pa8Zn7InRh8
_symmetry_space_group_name_H-M   'P 1'
_cell_length_a   3.85588400
_cell_length_b   7.36850210
_cell_length_c   16.42072294
_cell_angle_alpha   90.11362224
_cell_angle_beta   90.00000000
_cell_angle_gamma   90.00000000
_symmetry_Int_Tables_number   1
_chemical_formula_structural   Pa8Zn7InRh8
_chemical_formula_sum   'Pa8 Zn7 In1 Rh8'
_cell_volume   466.54613003
_cell_formula_units_Z   1
loop_
 _symmetry_equiv_pos_site_id
 _symmetry_equiv_pos_as_xyz
  1  'x, y, z'
loop_
 _atom_site_type_symbol
 _atom_site_label
 _atom_site_symmetry_multiplicity
 _atom_site_fract_x
 _atom_site_fract_y
 _atom_site_fract_z
 _atom_site_occupancy
  Pa  Pa0  1  0.750000  0.328972  0.442037  1
  Pa  Pa1  1  0.250000  0.058464  0.714848  1
  Pa  Pa2  1  0.250000  0.559323  0.782463  1
  Pa  Pa3  1  0.250000  0.667089  0.560287  1
  Pa  Pa4  1  0.750000  0.826764  0.055215  1
  Pa  Pa5  1  0.250000  0.170280  0.936328  1
  Pa  Pa6  1  0.750000  0.453230  0.218002  1
  Pa  Pa7  1  0.750000  0.933668  0.292146  1
  Zn  Zn8  1  0.250000  0.995323  0.442076  1
  Zn  Zn9  1  0.750000  0.886844  0.843283  1
  Zn  Zn10  1  0.750000  0.004386  0.562383  1
  Zn  Zn11  1  0.250000  0.497549  0.060003  1
  Zn  Zn12  1  0.750000  0.387150  0.654793  1
  Zn  Zn13  1  0.750000  0.506320  0.934550  1
  Zn  Zn14  1  0.250000  0.610556  0.348511  1
  In  In15  1  0.250000  0.114833  0.155138  1
  Rh  Rh16  1  0.750000  0.257371  0.811475  1
  Rh  Rh17  1  0.250000  0.244207  0.318298  1
  Rh  Rh18  1  0.250000  0.761980  0.939007  1
  Rh  Rh19  1  0.250000  0.263092  0.559944  1
  Rh  Rh20  1  0.250000  0.734584  0.188813  1
  Rh  Rh21  1  0.750000  0.737133  0.443769  1
  Rh  Rh22  1  0.750000  0.242542  0.050476  1
  Rh  Rh23  1  0.750000  0.758342  0.686153  1
