# generated using pymatgen
data_Ta2ReSe6
_symmetry_space_group_name_H-M   'P 1'
_cell_length_a   5.87454045
_cell_length_b   5.87454041
_cell_length_c   7.41164824
_cell_angle_alpha   82.40023273
_cell_angle_beta   82.40023159
_cell_angle_gamma   119.99576233
_symmetry_Int_Tables_number   1
_chemical_formula_structural   Ta2ReSe6
_chemical_formula_sum   'Ta2 Re1 Se6'
_cell_volume   213.63088007
_cell_formula_units_Z   1
loop_
 _symmetry_equiv_pos_site_id
 _symmetry_equiv_pos_as_xyz
  1  'x, y, z'
loop_
 _atom_site_type_symbol
 _atom_site_label
 _atom_site_symmetry_multiplicity
 _atom_site_fract_x
 _atom_site_fract_y
 _atom_site_fract_z
 _atom_site_occupancy
  Ta  Ta0  1  0.833308  0.500099  0.500030  1
  Ta  Ta1  1  0.500099  0.833308  0.500030  1
  Re  Re2  1  0.166574  0.166574  0.500079  1
  Se  Se3  1  0.571268  0.245165  0.265047  1
  Se  Se4  1  0.245165  0.571268  0.265047  1
  Se  Se5  1  0.919003  0.919003  0.264998  1
  Se  Se6  1  0.762095  0.762095  0.735139  1
  Se  Se7  1  0.414296  0.088094  0.734965  1
  Se  Se8  1  0.088094  0.414296  0.734965  1
