# generated using pymatgen
data_Nd2Tc2C3
_symmetry_space_group_name_H-M   'P 1'
_cell_length_a   6.27847473
_cell_length_b   6.27847492
_cell_length_c   5.87270802
_cell_angle_alpha   115.51816986
_cell_angle_beta   115.51817313
_cell_angle_gamma   31.61760840
_symmetry_Int_Tables_number   1
_chemical_formula_structural   Nd2Tc2C3
_chemical_formula_sum   'Nd2 Tc2 C3'
_cell_volume   108.51809496
_cell_formula_units_Z   1
loop_
 _symmetry_equiv_pos_site_id
 _symmetry_equiv_pos_as_xyz
  1  'x, y, z'
loop_
 _atom_site_type_symbol
 _atom_site_label
 _atom_site_symmetry_multiplicity
 _atom_site_fract_x
 _atom_site_fract_y
 _atom_site_fract_z
 _atom_site_occupancy
  Nd  Nd0  1  0.393830  0.393830  0.187836  1
  Nd  Nd1  1  0.606170  0.606170  0.812165  1
  Tc  Tc2  1  0.160639  0.160639  0.318795  1
  Tc  Tc3  1  0.839361  0.839361  0.681204  1
  C  C4  1  0.000000  0.000000  0.000000  1
  C  C5  1  0.749217  0.749217  0.276664  1
  C  C6  1  0.250783  0.250783  0.723335  1
