# generated using pymatgen
data_K(HfTe2)2
_symmetry_space_group_name_H-M   'P 1'
_cell_length_a   6.81611600
_cell_length_b   7.92240800
_cell_length_c   18.05174400
_cell_angle_alpha   90.00000000
_cell_angle_beta   90.00000000
_cell_angle_gamma   90.00000000
_symmetry_Int_Tables_number   1
_chemical_formula_structural   K(HfTe2)2
_chemical_formula_sum   'K4 Hf8 Te16'
_cell_volume   974.79511338
_cell_formula_units_Z   4
loop_
 _symmetry_equiv_pos_site_id
 _symmetry_equiv_pos_as_xyz
  1  'x, y, z'
loop_
 _atom_site_type_symbol
 _atom_site_label
 _atom_site_symmetry_multiplicity
 _atom_site_fract_x
 _atom_site_fract_y
 _atom_site_fract_z
 _atom_site_occupancy
  K  K0  1  0.343769  0.000000  0.000000  1
  K  K1  1  0.656231  0.500000  0.500000  1
  K  K2  1  0.024363  0.000000  0.500000  1
  K  K3  1  0.975637  0.500000  0.000000  1
  Hf  Hf4  1  0.002294  0.000000  0.250014  1
  Hf  Hf5  1  0.002294  0.000000  0.749986  1
  Hf  Hf6  1  0.997706  0.500000  0.249986  1
  Hf  Hf7  1  0.997706  0.500000  0.750014  1
  Hf  Hf8  1  0.500000  0.250000  0.250000  1
  Hf  Hf9  1  0.500000  0.750000  0.750000  1
  Hf  Hf10  1  0.500000  0.750000  0.250000  1
  Hf  Hf11  1  0.500000  0.250000  0.750000  1
  Te  Te12  1  0.834381  0.249212  0.348960  1
  Te  Te13  1  0.834381  0.750788  0.651040  1
  Te  Te14  1  0.165619  0.749212  0.151040  1
  Te  Te15  1  0.165619  0.250788  0.848960  1
  Te  Te16  1  0.165619  0.250788  0.151040  1
  Te  Te17  1  0.165619  0.749212  0.848960  1
  Te  Te18  1  0.834381  0.750788  0.348960  1
  Te  Te19  1  0.834381  0.249212  0.651040  1
  Te  Te20  1  0.669503  0.000000  0.151892  1
  Te  Te21  1  0.669503  0.000000  0.848108  1
  Te  Te22  1  0.330497  0.500000  0.348108  1
  Te  Te23  1  0.330497  0.500000  0.651892  1
  Te  Te24  1  0.337780  0.000000  0.348242  1
  Te  Te25  1  0.337780  0.000000  0.651758  1
  Te  Te26  1  0.662220  0.500000  0.151758  1
  Te  Te27  1  0.662220  0.500000  0.848242  1
