# generated using pymatgen
data_Yb3TaFeC6
_symmetry_space_group_name_H-M   'P 1'
_cell_length_a   8.21914200
_cell_length_b   8.21914120
_cell_length_c   5.17596400
_cell_angle_alpha   90.00000000
_cell_angle_beta   90.00000000
_cell_angle_gamma   119.99998712
_symmetry_Int_Tables_number   1
_chemical_formula_structural   Yb3TaFeC6
_chemical_formula_sum   'Yb6 Ta2 Fe2 C12'
_cell_volume   302.81324014
_cell_formula_units_Z   2
loop_
 _symmetry_equiv_pos_site_id
 _symmetry_equiv_pos_as_xyz
  1  'x, y, z'
loop_
 _atom_site_type_symbol
 _atom_site_label
 _atom_site_symmetry_multiplicity
 _atom_site_fract_x
 _atom_site_fract_y
 _atom_site_fract_z
 _atom_site_occupancy
  Yb  Yb0  1  0.603897  0.674422  0.750000  1
  Yb  Yb1  1  0.929477  0.603897  0.250000  1
  Yb  Yb2  1  0.674422  0.070523  0.250000  1
  Yb  Yb3  1  0.325578  0.929477  0.750000  1
  Yb  Yb4  1  0.070523  0.396103  0.750000  1
  Yb  Yb5  1  0.396103  0.325578  0.250000  1
  Ta  Ta6  1  0.000000  0.000000  0.500000  1
  Ta  Ta7  1  0.000000  0.000000  0.000000  1
  Fe  Fe8  1  0.666667  0.333333  0.750000  1
  Fe  Fe9  1  0.333333  0.666667  0.250000  1
  C  C10  1  0.952263  0.757438  0.750000  1
  C  C11  1  0.194825  0.952263  0.250000  1
  C  C12  1  0.757438  0.805175  0.250000  1
  C  C13  1  0.242562  0.194825  0.750000  1
  C  C14  1  0.805175  0.047737  0.750000  1
  C  C15  1  0.047737  0.242562  0.250000  1
  C  C16  1  0.854660  0.568566  0.750000  1
  C  C17  1  0.286092  0.854660  0.250000  1
  C  C18  1  0.568566  0.713908  0.250000  1
  C  C19  1  0.431434  0.286092  0.750000  1
  C  C20  1  0.145340  0.431434  0.250000  1
  C  C21  1  0.713908  0.145340  0.750000  1
