# generated using pymatgen
data_Yb4Al7Tc
_symmetry_space_group_name_H-M   'P 1'
_cell_length_a   5.65375700
_cell_length_b   5.65375559
_cell_length_c   8.95523900
_cell_angle_alpha   90.00000000
_cell_angle_beta   90.00000000
_cell_angle_gamma   119.99997902
_symmetry_Int_Tables_number   1
_chemical_formula_structural   Yb4Al7Tc
_chemical_formula_sum   'Yb4 Al7 Tc1'
_cell_volume   247.90316575
_cell_formula_units_Z   1
loop_
 _symmetry_equiv_pos_site_id
 _symmetry_equiv_pos_as_xyz
  1  'x, y, z'
loop_
 _atom_site_type_symbol
 _atom_site_label
 _atom_site_symmetry_multiplicity
 _atom_site_fract_x
 _atom_site_fract_y
 _atom_site_fract_z
 _atom_site_occupancy
  Yb  Yb0  1  0.333333  0.666667  0.443909  1
  Yb  Yb1  1  0.666667  0.333333  0.938952  1
  Yb  Yb2  1  0.666667  0.333333  0.556091  1
  Yb  Yb3  1  0.333333  0.666667  0.061048  1
  Al  Al4  1  0.164008  0.328015  0.759116  1
  Al  Al5  1  0.835992  0.164008  0.240884  1
  Al  Al6  1  0.328015  0.164008  0.240884  1
  Al  Al7  1  0.671985  0.835992  0.759116  1
  Al  Al8  1  0.000000  0.000000  0.500000  1
  Al  Al9  1  0.835992  0.671985  0.240884  1
  Al  Al10  1  0.164008  0.835992  0.759116  1
  Tc  Tc11  1  0.000000  0.000000  0.000000  1
