# generated using pymatgen
data_EuSi2B6(PbO8)2
_symmetry_space_group_name_H-M   'P 1'
_cell_length_a   5.01021986
_cell_length_b   7.50033274
_cell_length_c   8.44713632
_cell_angle_alpha   102.56051727
_cell_angle_beta   102.32736176
_cell_angle_gamma   88.50314836
_symmetry_Int_Tables_number   1
_chemical_formula_structural   EuSi2B6(PbO8)2
_chemical_formula_sum   'Eu1 Si2 B6 Pb2 O16'
_cell_volume   302.61986059
_cell_formula_units_Z   1
loop_
 _symmetry_equiv_pos_site_id
 _symmetry_equiv_pos_as_xyz
  1  'x, y, z'
loop_
 _atom_site_type_symbol
 _atom_site_label
 _atom_site_symmetry_multiplicity
 _atom_site_fract_x
 _atom_site_fract_y
 _atom_site_fract_z
 _atom_site_occupancy
  Eu  Eu0  1  0.500000  0.000000  0.500000  1
  Si  Si1  1  0.788985  0.185312  0.943079  1
  Si  Si2  1  0.211015  0.814688  0.056921  1
  B  B3  1  0.220506  0.250822  0.804817  1
  B  B4  1  0.779494  0.749178  0.195183  1
  B  B5  1  0.034939  0.693802  0.466526  1
  B  B6  1  0.965061  0.306198  0.533474  1
  B  B7  1  0.965180  0.083298  0.250944  1
  B  B8  1  0.034820  0.916702  0.749056  1
  Pb  Pb9  1  0.420374  0.417959  0.255562  1
  Pb  Pb10  1  0.579626  0.582041  0.744438  1
  O  O11  1  0.780128  0.176497  0.133848  1
  O  O12  1  0.219872  0.823503  0.866152  1
  O  O13  1  0.861923  0.620037  0.312082  1
  O  O14  1  0.138077  0.379963  0.687918  1
  O  O15  1  0.068654  0.291788  0.939289  1
  O  O16  1  0.931346  0.708212  0.060711  1
  O  O17  1  0.088711  0.218642  0.406174  1
  O  O18  1  0.911289  0.781358  0.593826  1
  O  O19  1  0.311344  0.677216  0.486797  1
  O  O20  1  0.688656  0.322784  0.513203  1
  O  O21  1  0.482710  0.703544  0.124200  1
  O  O22  1  0.517290  0.296456  0.875800  1
  O  O23  1  0.173824  0.062942  0.706588  1
  O  O24  1  0.826176  0.937058  0.293412  1
  O  O25  1  0.211672  0.014954  0.184865  1
  O  O26  1  0.788328  0.985046  0.815135  1
