# generated using pymatgen
data_Ta14(ZnS8)3
_symmetry_space_group_name_H-M   'P 1'
_cell_length_a   6.67965314
_cell_length_b   8.81650495
_cell_length_c   13.09462500
_cell_angle_alpha   92.35603155
_cell_angle_beta   97.84461626
_cell_angle_gamma   101.39692540
_symmetry_Int_Tables_number   1
_chemical_formula_structural   Ta14(ZnS8)3
_chemical_formula_sum   'Ta14 Zn3 S24'
_cell_volume   747.03542133
_cell_formula_units_Z   1
loop_
 _symmetry_equiv_pos_site_id
 _symmetry_equiv_pos_as_xyz
  1  'x, y, z'
loop_
 _atom_site_type_symbol
 _atom_site_label
 _atom_site_symmetry_multiplicity
 _atom_site_fract_x
 _atom_site_fract_y
 _atom_site_fract_z
 _atom_site_occupancy
  Ta  Ta0  1  0.058498  0.021657  0.240185  1
  Ta  Ta1  1  0.407897  0.361637  0.243607  1
  Ta  Ta2  1  0.570160  0.027904  0.239268  1
  Ta  Ta3  1  0.857432  0.355651  0.001289  1
  Ta  Ta4  1  0.896887  0.360760  0.245831  1
  Ta  Ta5  1  0.726434  0.700126  0.244158  1
  Ta  Ta6  1  0.763434  0.304897  0.754168  1
  Ta  Ta7  1  0.234553  0.693402  0.246432  1
  Ta  Ta8  1  0.274266  0.301918  0.755984  1
  Ta  Ta9  1  0.098083  0.639391  0.755099  1
  Ta  Ta10  1  0.144303  0.644562  0.000697  1
  Ta  Ta11  1  0.434069  0.973822  0.761021  1
  Ta  Ta12  1  0.596529  0.637083  0.756946  1
  Ta  Ta13  1  0.936542  0.975312  0.760038  1
  Zn  Zn14  1  0.797432  0.716639  0.465073  1
  Zn  Zn15  1  0.199793  0.293957  0.532097  1
  Zn  Zn16  1  0.378762  0.941788  0.533392  1
  S  S17  1  0.167803  0.064125  0.632386  1
  S  S18  1  0.250451  0.097477  0.879417  1
  S  S19  1  0.518826  0.408727  0.631269  1
  S  S20  1  0.684018  0.071892  0.635136  1
  S  S21  1  0.581839  0.431191  0.878415  1
  S  S22  1  0.750596  0.100852  0.881530  1
  S  S23  1  0.590131  0.240015  0.117881  1
  S  S24  1  0.658249  0.259592  0.364898  1
  S  S25  1  0.840902  0.740264  0.638778  1
  S  S26  1  0.001910  0.406982  0.632987  1
  S  S27  1  0.908350  0.761243  0.878777  1
  S  S28  1  0.089682  0.422647  0.874731  1
  S  S29  1  0.909963  0.578029  0.126177  1
  S  S30  1  0.090999  0.239128  0.123223  1
  S  S31  1  0.996441  0.593843  0.368513  1
  S  S32  1  0.158135  0.259413  0.360088  1
  S  S33  1  0.339589  0.730943  0.634914  1
  S  S34  1  0.409813  0.760168  0.880743  1
  S  S35  1  0.248451  0.898162  0.119672  1
  S  S36  1  0.418420  0.568392  0.122625  1
  S  S37  1  0.325359  0.932275  0.360638  1
  S  S38  1  0.481484  0.590153  0.368880  1
  S  S39  1  0.748665  0.901693  0.118878  1
  S  S40  1  0.825184  0.940419  0.367360  1
