# generated using pymatgen
data_HoEr2Zr2Sn3
_symmetry_space_group_name_H-M   'P 1'
_cell_length_a   8.80461318
_cell_length_b   8.80156982
_cell_length_c   6.10817400
_cell_angle_alpha   90.00000000
_cell_angle_beta   90.00000000
_cell_angle_gamma   119.98856706
_symmetry_Int_Tables_number   1
_chemical_formula_structural   HoEr2Zr2Sn3
_chemical_formula_sum   'Ho2 Er4 Zr4 Sn6'
_cell_volume   409.97981203
_cell_formula_units_Z   2
loop_
 _symmetry_equiv_pos_site_id
 _symmetry_equiv_pos_as_xyz
  1  'x, y, z'
loop_
 _atom_site_type_symbol
 _atom_site_label
 _atom_site_symmetry_multiplicity
 _atom_site_fract_x
 _atom_site_fract_y
 _atom_site_fract_z
 _atom_site_occupancy
  Ho  Ho0  1  0.000000  0.759813  0.750000  1
  Ho  Ho1  1  0.000000  0.240187  0.250000  1
  Er  Er2  1  0.759713  0.759732  0.250000  1
  Er  Er3  1  0.759713  0.999981  0.750000  1
  Er  Er4  1  0.240287  0.240268  0.750000  1
  Er  Er5  1  0.240287  0.000019  0.250000  1
  Zr  Zr6  1  0.333327  0.666664  0.500000  1
  Zr  Zr7  1  0.666673  0.333336  0.000000  1
  Zr  Zr8  1  0.666673  0.333336  0.500000  1
  Zr  Zr9  1  0.333327  0.666664  0.000000  1
  Sn  Sn10  1  0.399994  0.000052  0.750000  1
  Sn  Sn11  1  0.399994  0.399942  0.250000  1
  Sn  Sn12  1  0.000000  0.600123  0.250000  1
  Sn  Sn13  1  0.000000  0.399877  0.750000  1
  Sn  Sn14  1  0.600006  0.600058  0.750000  1
  Sn  Sn15  1  0.600006  0.999948  0.250000  1
