# generated using pymatgen
data_NdGd2(Si3Pd10)2
_symmetry_space_group_name_H-M   'P 1'
_cell_length_a   8.73812951
_cell_length_b   8.73812953
_cell_length_c   8.73813000
_cell_angle_alpha   59.99999824
_cell_angle_beta   59.99999816
_cell_angle_gamma   60.00000322
_symmetry_Int_Tables_number   1
_chemical_formula_structural   NdGd2(Si3Pd10)2
_chemical_formula_sum   'Nd1 Gd2 Si6 Pd20'
_cell_volume   471.78101268
_cell_formula_units_Z   1
loop_
 _symmetry_equiv_pos_site_id
 _symmetry_equiv_pos_as_xyz
  1  'x, y, z'
loop_
 _atom_site_type_symbol
 _atom_site_label
 _atom_site_symmetry_multiplicity
 _atom_site_fract_x
 _atom_site_fract_y
 _atom_site_fract_z
 _atom_site_occupancy
  Nd  Nd0  1  0.000000  0.000000  0.000000  1
  Gd  Gd1  1  0.250061  0.250642  0.249957  1
  Gd  Gd2  1  0.749939  0.749358  0.750043  1
  Si  Si3  1  0.732236  0.267804  0.267836  1
  Si  Si4  1  0.267764  0.732196  0.732164  1
  Si  Si5  1  0.267809  0.732276  0.267798  1
  Si  Si6  1  0.732191  0.267724  0.732202  1
  Si  Si7  1  0.267855  0.267802  0.732217  1
  Si  Si8  1  0.732145  0.732198  0.267783  1
  Pd  Pd9  1  0.384184  0.384214  0.384249  1
  Pd  Pd10  1  0.615816  0.615786  0.615751  1
  Pd  Pd11  1  0.384029  0.384063  0.847766  1
  Pd  Pd12  1  0.383854  0.848245  0.383934  1
  Pd  Pd13  1  0.615971  0.615937  0.152234  1
  Pd  Pd14  1  0.616146  0.151755  0.616066  1
  Pd  Pd15  1  0.847939  0.383972  0.384023  1
  Pd  Pd16  1  0.152061  0.616028  0.615977  1
  Pd  Pd17  1  0.346889  0.999907  0.999858  1
  Pd  Pd18  1  0.653111  0.000093  0.000142  1
  Pd  Pd19  1  0.000073  0.346689  0.653204  1
  Pd  Pd20  1  0.999927  0.653311  0.346796  1
  Pd  Pd21  1  0.000021  0.346763  0.999983  1
  Pd  Pd22  1  0.653217  0.000048  0.346705  1
  Pd  Pd23  1  0.999979  0.653237  0.000017  1
  Pd  Pd24  1  0.346783  0.999952  0.653295  1
  Pd  Pd25  1  0.999863  0.999912  0.346843  1
  Pd  Pd26  1  0.000137  0.000088  0.653157  1
  Pd  Pd27  1  0.653133  0.346665  0.000126  1
  Pd  Pd28  1  0.346867  0.653335  0.999874  1
