# generated using pymatgen
data_CaSn6(RuRh)2
_symmetry_space_group_name_H-M   'P 1'
_cell_length_a   6.98613673
_cell_length_b   6.97458407
_cell_length_c   6.98613644
_cell_angle_alpha   120.20869877
_cell_angle_beta   120.30342000
_cell_angle_gamma   89.60410095
_symmetry_Int_Tables_number   1
_chemical_formula_structural   CaSn6(RuRh)2
_chemical_formula_sum   'Ca1 Sn6 Ru2 Rh2'
_cell_volume   239.66338984
_cell_formula_units_Z   1
loop_
 _symmetry_equiv_pos_site_id
 _symmetry_equiv_pos_as_xyz
  1  'x, y, z'
loop_
 _atom_site_type_symbol
 _atom_site_label
 _atom_site_symmetry_multiplicity
 _atom_site_fract_x
 _atom_site_fract_y
 _atom_site_fract_z
 _atom_site_occupancy
  Ca  Ca0  1  0.996901  0.000000  0.996901  1
  Sn  Sn1  1  0.881316  0.534305  0.003638  1
  Sn  Sn2  1  0.538877  0.885570  0.006084  1
  Sn  Sn3  1  0.120514  0.114430  0.653306  1
  Sn  Sn4  1  0.998571  0.500000  0.498571  1
  Sn  Sn5  1  0.469333  0.465695  0.347010  1
  Sn  Sn6  1  0.505788  0.000000  0.505788  1
  Ru  Ru7  1  0.590986  0.251052  0.998208  1
  Ru  Ru8  1  0.747156  0.748948  0.339934  1
  Rh  Rh9  1  0.246315  0.593441  0.997684  1
  Rh  Rh10  1  0.404244  0.406559  0.652874  1
