# generated using pymatgen
data_Th3Cd(Pd3Pt)3
_symmetry_space_group_name_H-M   'P 1'
_cell_length_a   5.89727200
_cell_length_b   5.89727032
_cell_length_c   9.69509200
_cell_angle_alpha   90.00000000
_cell_angle_beta   90.00000000
_cell_angle_gamma   119.99999822
_symmetry_Int_Tables_number   1
_chemical_formula_structural   Th3Cd(Pd3Pt)3
_chemical_formula_sum   'Th3 Cd1 Pd9 Pt3'
_cell_volume   292.00128904
_cell_formula_units_Z   1
loop_
 _symmetry_equiv_pos_site_id
 _symmetry_equiv_pos_as_xyz
  1  'x, y, z'
loop_
 _atom_site_type_symbol
 _atom_site_label
 _atom_site_symmetry_multiplicity
 _atom_site_fract_x
 _atom_site_fract_y
 _atom_site_fract_z
 _atom_site_occupancy
  Th  Th0  1  0.000000  0.000000  0.493443  1
  Th  Th1  1  0.000000  0.000000  0.006557  1
  Th  Th2  1  0.666667  0.333333  0.750000  1
  Cd  Cd3  1  0.333333  0.666667  0.250000  1
  Pd  Pd4  1  0.499163  0.500837  0.496761  1
  Pd  Pd5  1  0.499163  0.998326  0.496761  1
  Pd  Pd6  1  0.001674  0.500837  0.496761  1
  Pd  Pd7  1  0.499163  0.500837  0.003239  1
  Pd  Pd8  1  0.499163  0.998326  0.003239  1
  Pd  Pd9  1  0.001674  0.500837  0.003239  1
  Pd  Pd10  1  0.824731  0.649462  0.250000  1
  Pd  Pd11  1  0.350538  0.175269  0.250000  1
  Pd  Pd12  1  0.824731  0.175269  0.250000  1
  Pt  Pt13  1  0.172472  0.344945  0.750000  1
  Pt  Pt14  1  0.655055  0.827528  0.750000  1
  Pt  Pt15  1  0.172472  0.827528  0.750000  1
