# generated using pymatgen
data_TmLu15(Ga3Ir)2
_symmetry_space_group_name_H-M   'P 1'
_cell_length_a   9.85417200
_cell_length_b   9.85417089
_cell_length_c   6.86595300
_cell_angle_alpha   90.00000000
_cell_angle_beta   90.00000000
_cell_angle_gamma   120.00000374
_symmetry_Int_Tables_number   1
_chemical_formula_structural   TmLu15(Ga3Ir)2
_chemical_formula_sum   'Tm1 Lu15 Ga6 Ir2'
_cell_volume   577.39320592
_cell_formula_units_Z   1
loop_
 _symmetry_equiv_pos_site_id
 _symmetry_equiv_pos_as_xyz
  1  'x, y, z'
loop_
 _atom_site_type_symbol
 _atom_site_label
 _atom_site_symmetry_multiplicity
 _atom_site_fract_x
 _atom_site_fract_y
 _atom_site_fract_z
 _atom_site_occupancy
  Tm  Tm0  1  0.000000  0.000000  0.765667  1
  Lu  Lu1  1  0.171548  0.828452  0.990298  1
  Lu  Lu2  1  0.343103  0.171551  0.489407  1
  Lu  Lu3  1  0.828449  0.656897  0.489407  1
  Lu  Lu4  1  0.171548  0.343096  0.990298  1
  Lu  Lu5  1  0.656904  0.828452  0.990298  1
  Lu  Lu6  1  0.828449  0.171551  0.489407  1
  Lu  Lu7  1  0.333333  0.666667  0.661601  1
  Lu  Lu8  1  0.666667  0.333333  0.162036  1
  Lu  Lu9  1  0.466141  0.533859  0.294758  1
  Lu  Lu10  1  0.932244  0.466122  0.794705  1
  Lu  Lu11  1  0.533878  0.067756  0.794705  1
  Lu  Lu12  1  0.466141  0.932280  0.294758  1
  Lu  Lu13  1  0.067720  0.533859  0.294758  1
  Lu  Lu14  1  0.533878  0.466122  0.794705  1
  Lu  Lu15  1  0.000000  0.000000  0.265215  1
  Ga  Ga16  1  0.163160  0.836840  0.540889  1
  Ga  Ga17  1  0.326068  0.163034  0.042254  1
  Ga  Ga18  1  0.836966  0.673932  0.042254  1
  Ga  Ga19  1  0.163160  0.326320  0.540889  1
  Ga  Ga20  1  0.673680  0.836840  0.540889  1
  Ga  Ga21  1  0.836966  0.163034  0.042254  1
  Ir  Ir22  1  0.333333  0.666667  0.056012  1
  Ir  Ir23  1  0.666667  0.333333  0.556546  1
