# generated using pymatgen
data_Y2HoMgRu2
_symmetry_space_group_name_H-M   'P 1'
_cell_length_a   3.44421900
_cell_length_b   3.44421900
_cell_length_c   11.47745600
_cell_angle_alpha   90.00000000
_cell_angle_beta   90.00000000
_cell_angle_gamma   90.00000000
_symmetry_Int_Tables_number   1
_chemical_formula_structural   Y2HoMgRu2
_chemical_formula_sum   'Y2 Ho1 Mg1 Ru2'
_cell_volume   136.15298052
_cell_formula_units_Z   1
loop_
 _symmetry_equiv_pos_site_id
 _symmetry_equiv_pos_as_xyz
  1  'x, y, z'
loop_
 _atom_site_type_symbol
 _atom_site_label
 _atom_site_symmetry_multiplicity
 _atom_site_fract_x
 _atom_site_fract_y
 _atom_site_fract_z
 _atom_site_occupancy
  Y  Y0  1  0.499999  0.499999  0.289875  1
  Y  Y1  1  0.499999  0.499999  0.710126  1
  Ho  Ho2  1  0.499999  0.499999  0.000000  1
  Mg  Mg3  1  0.000000  0.000000  0.500000  1
  Ru  Ru4  1  0.000000  0.000000  0.151083  1
  Ru  Ru5  1  0.000000  0.000000  0.848917  1
