# generated using pymatgen
data_DyTmTi2(Co4P3)2
_symmetry_space_group_name_H-M   'P 1'
_cell_length_a   3.64430700
_cell_length_b   10.29149400
_cell_length_c   11.78442200
_cell_angle_alpha   90.00000000
_cell_angle_beta   90.00000000
_cell_angle_gamma   90.00000000
_symmetry_Int_Tables_number   1
_chemical_formula_structural   DyTmTi2(Co4P3)2
_chemical_formula_sum   'Dy2 Tm2 Ti4 Co16 P12'
_cell_volume   441.97903222
_cell_formula_units_Z   2
loop_
 _symmetry_equiv_pos_site_id
 _symmetry_equiv_pos_as_xyz
  1  'x, y, z'
loop_
 _atom_site_type_symbol
 _atom_site_label
 _atom_site_symmetry_multiplicity
 _atom_site_fract_x
 _atom_site_fract_y
 _atom_site_fract_z
 _atom_site_occupancy
  Dy  Dy0  1  0.750000  0.417557  0.293715  1
  Dy  Dy1  1  0.750000  0.082443  0.793715  1
  Tm  Tm2  1  0.250000  0.582173  0.706206  1
  Tm  Tm3  1  0.250000  0.917827  0.206206  1
  Ti  Ti4  1  0.250000  0.702724  0.990260  1
  Ti  Ti5  1  0.250000  0.797276  0.490260  1
  Ti  Ti6  1  0.750000  0.297486  0.010143  1
  Ti  Ti7  1  0.750000  0.202514  0.510143  1
  Co  Co8  1  0.250000  0.406639  0.490173  1
  Co  Co9  1  0.250000  0.093361  0.990173  1
  Co  Co10  1  0.750000  0.593793  0.511272  1
  Co  Co11  1  0.750000  0.906207  0.011272  1
  Co  Co12  1  0.250000  0.220218  0.176460  1
  Co  Co13  1  0.250000  0.279782  0.676460  1
  Co  Co14  1  0.750000  0.779587  0.823562  1
  Co  Co15  1  0.750000  0.720413  0.323562  1
  Co  Co16  1  0.250000  0.883484  0.699498  1
  Co  Co17  1  0.250000  0.616516  0.199498  1
  Co  Co18  1  0.750000  0.114783  0.299874  1
  Co  Co19  1  0.750000  0.385217  0.799874  1
  Co  Co20  1  0.250000  0.465166  0.932438  1
  Co  Co21  1  0.250000  0.034834  0.432438  1
  Co  Co22  1  0.750000  0.536272  0.066627  1
  Co  Co23  1  0.750000  0.963728  0.566627  1
  P  P24  1  0.250000  0.421487  0.115700  1
  P  P25  1  0.250000  0.078513  0.615700  1
  P  P26  1  0.750000  0.579338  0.883033  1
  P  P27  1  0.750000  0.920662  0.383033  1
  P  P28  1  0.250000  0.268050  0.863493  1
  P  P29  1  0.250000  0.231950  0.363493  1
  P  P30  1  0.750000  0.733476  0.136932  1
  P  P31  1  0.750000  0.766524  0.636932  1
  P  P32  1  0.250000  0.592456  0.389518  1
  P  P33  1  0.250000  0.907544  0.889518  1
  P  P34  1  0.750000  0.408332  0.611092  1
  P  P35  1  0.750000  0.091668  0.111092  1
