# generated using pymatgen
data_Si2IrPd3
_symmetry_space_group_name_H-M   'P 1'
_cell_length_a   3.90332300
_cell_length_b   6.05298994
_cell_length_c   7.35319728
_cell_angle_alpha   90.82223163
_cell_angle_beta   90.00000000
_cell_angle_gamma   90.00000000
_symmetry_Int_Tables_number   1
_chemical_formula_structural   Si2IrPd3
_chemical_formula_sum   'Si4 Ir2 Pd6'
_cell_volume   173.71444747
_cell_formula_units_Z   2
loop_
 _symmetry_equiv_pos_site_id
 _symmetry_equiv_pos_as_xyz
  1  'x, y, z'
loop_
 _atom_site_type_symbol
 _atom_site_label
 _atom_site_symmetry_multiplicity
 _atom_site_fract_x
 _atom_site_fract_y
 _atom_site_fract_z
 _atom_site_occupancy
  Si  Si0  1  0.250000  0.251272  0.875044  1
  Si  Si1  1  0.750000  0.748728  0.124956  1
  Si  Si2  1  0.250000  0.748537  0.609582  1
  Si  Si3  1  0.750000  0.251463  0.390418  1
  Ir  Ir4  1  0.250000  0.352889  0.568466  1
  Ir  Ir5  1  0.750000  0.647111  0.431534  1
  Pd  Pd6  1  0.750000  0.530111  0.838050  1
  Pd  Pd7  1  0.250000  0.469889  0.161950  1
  Pd  Pd8  1  0.750000  0.031778  0.676122  1
  Pd  Pd9  1  0.250000  0.968222  0.323878  1
  Pd  Pd10  1  0.250000  0.853085  0.928162  1
  Pd  Pd11  1  0.750000  0.146915  0.071838  1
