# generated using pymatgen
data_YbEu2CdPt2
_symmetry_space_group_name_H-M   'P 1'
_cell_length_a   4.39291200
_cell_length_b   7.62806900
_cell_length_c   9.04687600
_cell_angle_alpha   90.00000000
_cell_angle_beta   90.00000000
_cell_angle_gamma   90.00000000
_symmetry_Int_Tables_number   1
_chemical_formula_structural   YbEu2CdPt2
_chemical_formula_sum   'Yb2 Eu4 Cd2 Pt4'
_cell_volume   303.15571094
_cell_formula_units_Z   2
loop_
 _symmetry_equiv_pos_site_id
 _symmetry_equiv_pos_as_xyz
  1  'x, y, z'
loop_
 _atom_site_type_symbol
 _atom_site_label
 _atom_site_symmetry_multiplicity
 _atom_site_fract_x
 _atom_site_fract_y
 _atom_site_fract_z
 _atom_site_occupancy
  Yb  Yb0  1  0.250000  0.131806  0.940837  1
  Yb  Yb1  1  0.250000  0.631806  0.559163  1
  Eu  Eu2  1  0.250000  0.038133  0.323671  1
  Eu  Eu3  1  0.250000  0.538133  0.176329  1
  Eu  Eu4  1  0.750000  0.969773  0.672468  1
  Eu  Eu5  1  0.750000  0.469773  0.827532  1
  Cd  Cd6  1  0.750000  0.857157  0.065030  1
  Cd  Cd7  1  0.750000  0.357157  0.434970  1
  Pt  Pt8  1  0.250000  0.259799  0.631580  1
  Pt  Pt9  1  0.250000  0.759799  0.868420  1
  Pt  Pt10  1  0.750000  0.743333  0.376696  1
  Pt  Pt11  1  0.750000  0.243333  0.123304  1
