# generated using pymatgen
data_Tm5B(RuC3)2
_symmetry_space_group_name_H-M   'P 1'
_cell_length_a   8.08071731
_cell_length_b   8.08071692
_cell_length_c   3.44856200
_cell_angle_alpha   90.00000000
_cell_angle_beta   90.00000000
_cell_angle_gamma   121.29537099
_symmetry_Int_Tables_number   1
_chemical_formula_structural   Tm5B(RuC3)2
_chemical_formula_sum   'Tm5 B1 Ru2 C6'
_cell_volume   192.42004815
_cell_formula_units_Z   1
loop_
 _symmetry_equiv_pos_site_id
 _symmetry_equiv_pos_as_xyz
  1  'x, y, z'
loop_
 _atom_site_type_symbol
 _atom_site_label
 _atom_site_symmetry_multiplicity
 _atom_site_fract_x
 _atom_site_fract_y
 _atom_site_fract_z
 _atom_site_occupancy
  Tm  Tm0  1  0.500000  0.500000  0.000000  1
  Tm  Tm1  1  0.080462  0.335098  0.500000  1
  Tm  Tm2  1  0.919538  0.664902  0.500000  1
  Tm  Tm3  1  0.664902  0.919538  0.500000  1
  Tm  Tm4  1  0.335098  0.080462  0.500000  1
  B  B5  1  0.000000  0.000000  0.000000  1
  Ru  Ru6  1  0.713431  0.286569  0.000000  1
  Ru  Ru7  1  0.286569  0.713431  0.000000  1
  C  C8  1  0.628348  0.371652  0.500000  1
  C  C9  1  0.371652  0.628348  0.500000  1
  C  C10  1  0.184932  0.184932  0.000000  1
  C  C11  1  0.815068  0.815068  0.000000  1
  C  C12  1  0.000000  0.500000  0.000000  1
  C  C13  1  0.500000  0.000000  0.000000  1
