# generated using pymatgen
data_Cs6LaBiSe3
_symmetry_space_group_name_H-M   'P 1'
_cell_length_a   11.50720800
_cell_length_b   11.50720711
_cell_length_c   9.31788200
_cell_angle_alpha   90.00000000
_cell_angle_beta   90.00000000
_cell_angle_gamma   119.99999682
_symmetry_Int_Tables_number   1
_chemical_formula_structural   Cs6LaBiSe3
_chemical_formula_sum   'Cs12 La2 Bi2 Se6'
_cell_volume   1068.53252169
_cell_formula_units_Z   2
loop_
 _symmetry_equiv_pos_site_id
 _symmetry_equiv_pos_as_xyz
  1  'x, y, z'
loop_
 _atom_site_type_symbol
 _atom_site_label
 _atom_site_symmetry_multiplicity
 _atom_site_fract_x
 _atom_site_fract_y
 _atom_site_fract_z
 _atom_site_occupancy
  Cs  Cs0  1  0.139266  0.860734  0.536388  1
  Cs  Cs1  1  0.278531  0.139266  0.036388  1
  Cs  Cs2  1  0.860734  0.721469  0.036388  1
  Cs  Cs3  1  0.139266  0.278531  0.536388  1
  Cs  Cs4  1  0.721469  0.860734  0.536388  1
  Cs  Cs5  1  0.860734  0.139266  0.036388  1
  Cs  Cs6  1  0.528488  0.471512  0.373540  1
  Cs  Cs7  1  0.056976  0.528488  0.873540  1
  Cs  Cs8  1  0.471512  0.943024  0.873540  1
  Cs  Cs9  1  0.528488  0.056976  0.373540  1
  Cs  Cs10  1  0.943024  0.471512  0.373540  1
  Cs  Cs11  1  0.471512  0.528488  0.873540  1
  La  La12  1  0.333333  0.666667  0.239603  1
  La  La13  1  0.666667  0.333333  0.739603  1
  Bi  Bi14  1  0.333333  0.666667  0.577084  1
  Bi  Bi15  1  0.666667  0.333333  0.077084  1
  Se  Se16  1  0.193217  0.806783  0.154410  1
  Se  Se17  1  0.386434  0.193217  0.654410  1
  Se  Se18  1  0.806783  0.613566  0.654410  1
  Se  Se19  1  0.193217  0.386434  0.154410  1
  Se  Se20  1  0.613566  0.806783  0.154410  1
  Se  Se21  1  0.806783  0.193217  0.654410  1
