# generated using pymatgen
data_Li2LaPr(PO3)8
_symmetry_space_group_name_H-M   'P 1'
_cell_length_a   7.20896408
_cell_length_b   9.11768255
_cell_length_c   9.13151145
_cell_angle_alpha   95.33846382
_cell_angle_beta   113.24914363
_cell_angle_gamma   113.28648050
_symmetry_Int_Tables_number   1
_chemical_formula_structural   Li2LaPr(PO3)8
_chemical_formula_sum   'Li2 La1 Pr1 P8 O24'
_cell_volume   483.97929532
_cell_formula_units_Z   1
loop_
 _symmetry_equiv_pos_site_id
 _symmetry_equiv_pos_as_xyz
  1  'x, y, z'
loop_
 _atom_site_type_symbol
 _atom_site_label
 _atom_site_symmetry_multiplicity
 _atom_site_fract_x
 _atom_site_fract_y
 _atom_site_fract_z
 _atom_site_occupancy
  Li  Li0  1  0.448699  0.250001  0.250000  1
  Li  Li1  1  0.551328  0.750001  0.750000  1
  La  La2  1  0.053074  0.750001  0.750000  1
  Pr  Pr3  1  0.947463  0.250001  0.250000  1
  P  P4  1  0.611928  0.798433  0.097238  1
  P  P5  1  0.085672  0.887569  0.165173  1
  P  P6  1  0.532930  0.612431  0.334827  1
  P  P7  1  0.216255  0.701567  0.402762  1
  P  P8  1  0.783302  0.297454  0.596481  1
  P  P9  1  0.465167  0.386680  0.663882  1
  P  P10  1  0.914605  0.113320  0.836117  1
  P  P11  1  0.389367  0.202546  0.903519  1
  O  O12  1  0.154847  0.822176  0.049748  1
  O  O13  1  0.554556  0.235205  0.082484  1
  O  O14  1  0.815726  0.767880  0.092004  1
  O  O15  1  0.492090  0.643294  0.155963  1
  O  O16  1  0.144098  0.069928  0.204050  1
  O  O17  1  0.710098  0.963180  0.220969  1
  O  O18  1  0.025949  0.536820  0.279031  1
  O  O19  1  0.370122  0.430072  0.295950  1
  O  O20  1  0.192832  0.856706  0.344036  1
  O  O21  1  0.455842  0.732121  0.407996  1
  O  O22  1  0.736868  0.264795  0.417516  1
  O  O23  1  0.782923  0.677824  0.450252  1
  O  O24  1  0.215281  0.320813  0.547351  1
  O  O25  1  0.264524  0.734883  0.581983  1
  O  O26  1  0.543794  0.267602  0.591161  1
  O  O27  1  0.806677  0.142883  0.656480  1
  O  O28  1  0.627144  0.569111  0.703253  1
  O  O29  1  0.973834  0.461691  0.721037  1
  O  O30  1  0.291106  0.038309  0.778963  1
  O  O31  1  0.854780  0.930888  0.796747  1
  O  O32  1  0.507314  0.357117  0.843519  1
  O  O33  1  0.185032  0.232397  0.908839  1
  O  O34  1  0.447660  0.765117  0.918018  1
  O  O35  1  0.847117  0.179187  0.952649  1
