# generated using pymatgen
data_Ho3PtRh2Pb3
_symmetry_space_group_name_H-M   'P 1'
_cell_length_a   7.75502800
_cell_length_b   7.75502865
_cell_length_c   3.85857700
_cell_angle_alpha   90.00000000
_cell_angle_beta   90.00000000
_cell_angle_gamma   119.99999725
_symmetry_Int_Tables_number   1
_chemical_formula_structural   Ho3PtRh2Pb3
_chemical_formula_sum   'Ho3 Pt1 Rh2 Pb3'
_cell_volume   200.96692690
_cell_formula_units_Z   1
loop_
 _symmetry_equiv_pos_site_id
 _symmetry_equiv_pos_as_xyz
  1  'x, y, z'
loop_
 _atom_site_type_symbol
 _atom_site_label
 _atom_site_symmetry_multiplicity
 _atom_site_fract_x
 _atom_site_fract_y
 _atom_site_fract_z
 _atom_site_occupancy
  Ho  Ho0  1  0.003789  0.594766  0.000000  1
  Ho  Ho1  1  0.405234  0.409024  0.000000  1
  Ho  Ho2  1  0.590976  0.996211  0.000000  1
  Pt  Pt3  1  0.666667  0.333333  0.500000  1
  Rh  Rh4  1  0.000000  0.000000  0.000000  1
  Rh  Rh5  1  0.333333  0.666667  0.500000  1
  Pb  Pb6  1  0.735615  0.740958  0.500000  1
  Pb  Pb7  1  0.005343  0.264385  0.500000  1
  Pb  Pb8  1  0.259042  0.994657  0.500000  1
