# generated using pymatgen
data_Er8Lu2(InSb)3
_symmetry_space_group_name_H-M   'P 1'
_cell_length_a   8.87795600
_cell_length_b   8.86077489
_cell_length_c   6.46075232
_cell_angle_alpha   90.06329535
_cell_angle_beta   90.00000000
_cell_angle_gamma   120.06415513
_symmetry_Int_Tables_number   1
_chemical_formula_structural   Er8Lu2(InSb)3
_chemical_formula_sum   'Er8 Lu2 In3 Sb3'
_cell_volume   439.86250217
_cell_formula_units_Z   1
loop_
 _symmetry_equiv_pos_site_id
 _symmetry_equiv_pos_as_xyz
  1  'x, y, z'
loop_
 _atom_site_type_symbol
 _atom_site_label
 _atom_site_symmetry_multiplicity
 _atom_site_fract_x
 _atom_site_fract_y
 _atom_site_fract_z
 _atom_site_occupancy
  Er  Er0  1  0.002758  0.763642  0.750018  1
  Er  Er1  1  0.003485  0.239304  0.249983  1
  Er  Er2  1  0.764181  0.760696  0.250017  1
  Er  Er3  1  0.761542  0.000000  0.750000  1
  Er  Er4  1  0.239116  0.236358  0.749982  1
  Er  Er5  1  0.237428  0.000000  0.250000  1
  Er  Er6  1  0.664668  0.334022  0.499038  1
  Er  Er7  1  0.330645  0.665978  0.000962  1
  Lu  Lu8  1  0.330502  0.666069  0.498730  1
  Lu  Lu9  1  0.664434  0.333931  0.001270  1
  In  In10  1  0.398218  0.000000  0.750000  1
  In  In11  1  0.396042  0.398254  0.250061  1
  In  In12  1  0.997788  0.601746  0.249939  1
  Sb  Sb13  1  0.997280  0.392126  0.750055  1
  Sb  Sb14  1  0.605153  0.607874  0.749945  1
  Sb  Sb15  1  0.606757  0.000000  0.250000  1
