# generated using pymatgen
data_Er5Lu5(In2Bi)2
_symmetry_space_group_name_H-M   'P 1'
_cell_length_a   8.90226450
_cell_length_b   8.87254432
_cell_length_c   6.50634300
_cell_angle_alpha   90.00000000
_cell_angle_beta   90.00000000
_cell_angle_gamma   119.69677400
_symmetry_Int_Tables_number   1
_chemical_formula_structural   Er5Lu5(In2Bi)2
_chemical_formula_sum   'Er5 Lu5 In4 Bi2'
_cell_volume   446.41127418
_cell_formula_units_Z   1
loop_
 _symmetry_equiv_pos_site_id
 _symmetry_equiv_pos_as_xyz
  1  'x, y, z'
loop_
 _atom_site_type_symbol
 _atom_site_label
 _atom_site_symmetry_multiplicity
 _atom_site_fract_x
 _atom_site_fract_y
 _atom_site_fract_z
 _atom_site_occupancy
  Er  Er0  1  0.770226  0.760345  0.750000  1
  Er  Er1  1  0.228897  0.991163  0.750000  1
  Er  Er2  1  0.000186  0.238805  0.750000  1
  Er  Er3  1  0.764558  0.000959  0.250000  1
  Er  Er4  1  0.000446  0.763119  0.250000  1
  Lu  Lu5  1  0.671141  0.338411  0.007641  1
  Lu  Lu6  1  0.328477  0.666860  0.007779  1
  Lu  Lu7  1  0.328477  0.666860  0.492221  1
  Lu  Lu8  1  0.671141  0.338411  0.492359  1
  Lu  Lu9  1  0.235607  0.236202  0.250000  1
  In  In10  1  0.000315  0.596237  0.750000  1
  In  In11  1  0.601766  0.604660  0.250000  1
  In  In12  1  0.397024  0.003992  0.250000  1
  In  In13  1  0.000865  0.397140  0.250000  1
  Bi  Bi14  1  0.397209  0.396829  0.750000  1
  Bi  Bi15  1  0.603665  0.000006  0.750000  1
