# generated using pymatgen
data_La8Co3Si12Pt
_symmetry_space_group_name_H-M   'P 1'
_cell_length_a   8.19738700
_cell_length_b   8.19738728
_cell_length_c   8.73282600
_cell_angle_alpha   90.00000000
_cell_angle_beta   90.00000000
_cell_angle_gamma   119.99999483
_symmetry_Int_Tables_number   1
_chemical_formula_structural   La8Co3Si12Pt
_chemical_formula_sum   'La8 Co3 Si12 Pt1'
_cell_volume   508.20198097
_cell_formula_units_Z   1
loop_
 _symmetry_equiv_pos_site_id
 _symmetry_equiv_pos_as_xyz
  1  'x, y, z'
loop_
 _atom_site_type_symbol
 _atom_site_label
 _atom_site_symmetry_multiplicity
 _atom_site_fract_x
 _atom_site_fract_y
 _atom_site_fract_z
 _atom_site_occupancy
  La  La0  1  0.000000  0.000000  0.251154  1
  La  La1  1  0.000000  0.000000  0.748652  1
  La  La2  1  0.501836  0.498164  0.253457  1
  La  La3  1  0.501836  0.003673  0.253457  1
  La  La4  1  0.996327  0.498164  0.253457  1
  La  La5  1  0.501487  0.498513  0.746880  1
  La  La6  1  0.501487  0.002972  0.746880  1
  La  La7  1  0.997028  0.498513  0.746880  1
  Co  Co8  1  0.333333  0.666667  0.497015  1
  Co  Co9  1  0.666667  0.333333  0.502976  1
  Co  Co10  1  0.666667  0.333333  0.997249  1
  Si  Si11  1  0.171053  0.828947  0.500895  1
  Si  Si12  1  0.171053  0.342106  0.500895  1
  Si  Si13  1  0.657894  0.828947  0.500895  1
  Si  Si14  1  0.829789  0.170211  0.499186  1
  Si  Si15  1  0.829789  0.659578  0.499186  1
  Si  Si16  1  0.340422  0.170211  0.499186  1
  Si  Si17  1  0.828121  0.171879  0.001049  1
  Si  Si18  1  0.828121  0.656241  0.001049  1
  Si  Si19  1  0.343759  0.171879  0.001049  1
  Si  Si20  1  0.163664  0.836336  0.998845  1
  Si  Si21  1  0.163664  0.327328  0.998845  1
  Si  Si22  1  0.672672  0.836336  0.998845  1
  Pt  Pt23  1  0.333333  0.666667  0.002021  1
