# generated using pymatgen
data_Li2CaErSi4
_symmetry_space_group_name_H-M   'P 1'
_cell_length_a   3.77848300
_cell_length_b   7.78133375
_cell_length_c   10.38884183
_cell_angle_alpha   89.28180557
_cell_angle_beta   90.00000000
_cell_angle_gamma   90.00000000
_symmetry_Int_Tables_number   1
_chemical_formula_structural   Li2CaErSi4
_chemical_formula_sum   'Li4 Ca2 Er2 Si8'
_cell_volume   305.42496327
_cell_formula_units_Z   2
loop_
 _symmetry_equiv_pos_site_id
 _symmetry_equiv_pos_as_xyz
  1  'x, y, z'
loop_
 _atom_site_type_symbol
 _atom_site_label
 _atom_site_symmetry_multiplicity
 _atom_site_fract_x
 _atom_site_fract_y
 _atom_site_fract_z
 _atom_site_occupancy
  Li  Li0  1  0.250000  0.998801  0.389475  1
  Li  Li1  1  0.750000  0.001199  0.610525  1
  Li  Li2  1  0.250000  0.491584  0.110397  1
  Li  Li3  1  0.750000  0.508416  0.889603  1
  Ca  Ca4  1  0.250000  0.636834  0.635084  1
  Ca  Ca5  1  0.750000  0.363166  0.364916  1
  Er  Er6  1  0.250000  0.129467  0.864743  1
  Er  Er7  1  0.750000  0.870533  0.135257  1
  Si  Si8  1  0.750000  0.261086  0.060543  1
  Si  Si9  1  0.250000  0.738914  0.939457  1
  Si  Si10  1  0.750000  0.774295  0.426369  1
  Si  Si11  1  0.250000  0.225705  0.573631  1
  Si  Si12  1  0.750000  0.845072  0.827800  1
  Si  Si13  1  0.250000  0.154928  0.172200  1
  Si  Si14  1  0.750000  0.330533  0.684371  1
  Si  Si15  1  0.250000  0.669467  0.315629  1
