# generated using pymatgen
data_Yb10Cd2Cu3Pt
_symmetry_space_group_name_H-M   'P 1'
_cell_length_a   9.03806935
_cell_length_b   9.03806891
_cell_length_c   9.03385284
_cell_angle_alpha   129.05940570
_cell_angle_beta   129.05940387
_cell_angle_gamma   74.94988146
_symmetry_Int_Tables_number   1
_chemical_formula_structural   Yb10Cd2Cu3Pt
_chemical_formula_sum   'Yb10 Cd2 Cu3 Pt1'
_cell_volume   433.23195278
_cell_formula_units_Z   1
loop_
 _symmetry_equiv_pos_site_id
 _symmetry_equiv_pos_as_xyz
  1  'x, y, z'
loop_
 _atom_site_type_symbol
 _atom_site_label
 _atom_site_symmetry_multiplicity
 _atom_site_fract_x
 _atom_site_fract_y
 _atom_site_fract_z
 _atom_site_occupancy
  Yb  Yb0  1  0.496663  0.501143  0.997806  1
  Yb  Yb1  1  0.001143  0.996663  0.997806  1
  Yb  Yb2  1  0.530279  0.030279  0.831997  1
  Yb  Yb3  1  0.195208  0.695208  0.160292  1
  Yb  Yb4  1  0.031459  0.202791  0.503692  1
  Yb  Yb5  1  0.702791  0.531459  0.503692  1
  Yb  Yb6  1  0.465085  0.965085  0.160292  1
  Yb  Yb7  1  0.801716  0.301716  0.831997  1
  Yb  Yb8  1  0.972233  0.800901  0.503692  1
  Yb  Yb9  1  0.300901  0.472233  0.503692  1
  Cd  Cd10  1  0.251060  0.251060  0.002120  1
  Cd  Cd11  1  0.751060  0.751060  0.002120  1
  Cu  Cu12  1  0.875309  0.375309  0.250617  1
  Cu  Cu13  1  0.618058  0.882408  0.500466  1
  Cu  Cu14  1  0.382408  0.118058  0.500466  1
  Pt  Pt15  1  0.124625  0.624625  0.749250  1
