# generated using pymatgen
data_Ho5W2C7
_symmetry_space_group_name_H-M   'P 1'
_cell_length_a   8.39546313
_cell_length_b   8.39546316
_cell_length_c   3.40809100
_cell_angle_alpha   90.00000000
_cell_angle_beta   90.00000000
_cell_angle_gamma   122.46678582
_symmetry_Int_Tables_number   1
_chemical_formula_structural   Ho5W2C7
_chemical_formula_sum   'Ho5 W2 C7'
_cell_volume   202.67023884
_cell_formula_units_Z   1
loop_
 _symmetry_equiv_pos_site_id
 _symmetry_equiv_pos_as_xyz
  1  'x, y, z'
loop_
 _atom_site_type_symbol
 _atom_site_label
 _atom_site_symmetry_multiplicity
 _atom_site_fract_x
 _atom_site_fract_y
 _atom_site_fract_z
 _atom_site_occupancy
  Ho  Ho0  1  0.500000  0.500000  0.000000  1
  Ho  Ho1  1  0.074940  0.332445  0.500000  1
  Ho  Ho2  1  0.925060  0.667555  0.500000  1
  Ho  Ho3  1  0.667555  0.925060  0.500000  1
  Ho  Ho4  1  0.332445  0.074940  0.500000  1
  W  W5  1  0.713135  0.286865  0.000000  1
  W  W6  1  0.286865  0.713135  0.000000  1
  C  C7  1  0.624987  0.375013  0.500000  1
  C  C8  1  0.375013  0.624987  0.500000  1
  C  C9  1  0.000000  0.000000  0.000000  1
  C  C10  1  0.167703  0.167703  0.000000  1
  C  C11  1  0.832297  0.832297  0.000000  1
  C  C12  1  0.000000  0.500000  0.000000  1
  C  C13  1  0.500000  0.000000  0.000000  1
