# generated using pymatgen
data_Dy(LuZn4)3
_symmetry_space_group_name_H-M   'P 1'
_cell_length_a   4.34708400
_cell_length_b   6.60192624
_cell_length_c   10.00749634
_cell_angle_alpha   90.15706645
_cell_angle_beta   90.00000000
_cell_angle_gamma   90.00000000
_symmetry_Int_Tables_number   1
_chemical_formula_structural   Dy(LuZn4)3
_chemical_formula_sum   'Dy1 Lu3 Zn12'
_cell_volume   287.20533861
_cell_formula_units_Z   1
loop_
 _symmetry_equiv_pos_site_id
 _symmetry_equiv_pos_as_xyz
  1  'x, y, z'
loop_
 _atom_site_type_symbol
 _atom_site_label
 _atom_site_symmetry_multiplicity
 _atom_site_fract_x
 _atom_site_fract_y
 _atom_site_fract_z
 _atom_site_occupancy
  Dy  Dy0  1  0.250000  0.278952  0.665292  1
  Lu  Lu1  1  0.250000  0.779165  0.835782  1
  Lu  Lu2  1  0.750000  0.720433  0.335310  1
  Lu  Lu3  1  0.750000  0.220816  0.165182  1
  Zn  Zn4  1  0.250000  0.534671  0.103130  1
  Zn  Zn5  1  0.250000  0.034044  0.395166  1
  Zn  Zn6  1  0.750000  0.464699  0.896850  1
  Zn  Zn7  1  0.750000  0.964904  0.601880  1
  Zn  Zn8  1  0.250000  0.919615  0.151039  1
  Zn  Zn9  1  0.250000  0.420212  0.348938  1
  Zn  Zn10  1  0.750000  0.078041  0.851371  1
  Zn  Zn11  1  0.750000  0.582294  0.649245  1
  Zn  Zn12  1  0.250000  0.213052  0.959274  1
  Zn  Zn13  1  0.250000  0.718905  0.542689  1
  Zn  Zn14  1  0.750000  0.785514  0.043349  1
  Zn  Zn15  1  0.750000  0.284682  0.455502  1
