# generated using pymatgen
data_Cs4TaMn2VTe8
_symmetry_space_group_name_H-M   'P 1'
_cell_length_a   15.89617487
_cell_length_b   14.09816873
_cell_length_c   8.54226953
_cell_angle_alpha   85.46596601
_cell_angle_beta   62.14282712
_cell_angle_gamma   32.39120897
_symmetry_Int_Tables_number   1
_chemical_formula_structural   Cs4TaMn2VTe8
_chemical_formula_sum   'Cs4 Ta1 Mn2 V1 Te8'
_cell_volume   676.19708375
_cell_formula_units_Z   1
loop_
 _symmetry_equiv_pos_site_id
 _symmetry_equiv_pos_as_xyz
  1  'x, y, z'
loop_
 _atom_site_type_symbol
 _atom_site_label
 _atom_site_symmetry_multiplicity
 _atom_site_fract_x
 _atom_site_fract_y
 _atom_site_fract_z
 _atom_site_occupancy
  Cs  Cs0  1  0.820696  0.820696  0.179304  1
  Cs  Cs1  1  0.179304  0.179304  0.820696  1
  Cs  Cs2  1  0.431438  0.431438  0.068562  1
  Cs  Cs3  1  0.068562  0.068562  0.431438  1
  Ta  Ta4  1  0.250000  0.250000  0.250000  1
  Mn  Mn5  1  0.750000  0.750000  0.750000  1
  Mn  Mn6  1  0.500000  0.500000  0.500000  1
  V  V7  1  0.000000  0.000000  0.000000  1
  Te  Te8  1  0.383094  0.725999  0.805838  1
  Te  Te9  1  0.085069  0.805838  0.725999  1
  Te  Te10  1  0.805838  0.085069  0.383094  1
  Te  Te11  1  0.725999  0.383094  0.085069  1
  Te  Te12  1  0.851713  0.535259  0.453510  1
  Te  Te13  1  0.159518  0.453510  0.535259  1
  Te  Te14  1  0.453510  0.159518  0.851713  1
  Te  Te15  1  0.535259  0.851713  0.159518  1
