# generated using pymatgen
data_NdTa4(NbSn3)2
_symmetry_space_group_name_H-M   'P 1'
_cell_length_a   5.80886702
_cell_length_b   5.81090086
_cell_length_c   9.63186500
_cell_angle_alpha   90.00000000
_cell_angle_beta   90.00000000
_cell_angle_gamma   120.01158167
_symmetry_Int_Tables_number   1
_chemical_formula_structural   NdTa4(NbSn3)2
_chemical_formula_sum   'Nd1 Ta4 Nb2 Sn6'
_cell_volume   281.53035156
_cell_formula_units_Z   1
loop_
 _symmetry_equiv_pos_site_id
 _symmetry_equiv_pos_as_xyz
  1  'x, y, z'
loop_
 _atom_site_type_symbol
 _atom_site_label
 _atom_site_symmetry_multiplicity
 _atom_site_fract_x
 _atom_site_fract_y
 _atom_site_fract_z
 _atom_site_occupancy
  Nd  Nd0  1  0.000000  0.000000  0.999832  1
  Ta  Ta1  1  0.000000  0.500000  0.750275  1
  Ta  Ta2  1  0.500000  0.500000  0.750024  1
  Ta  Ta3  1  0.500000  0.000000  0.750024  1
  Ta  Ta4  1  0.000000  0.500000  0.250030  1
  Nb  Nb5  1  0.500000  0.500000  0.250388  1
  Nb  Nb6  1  0.500000  0.000000  0.250388  1
  Sn  Sn7  1  0.667273  0.333636  0.499980  1
  Sn  Sn8  1  0.332727  0.666364  0.499980  1
  Sn  Sn9  1  0.666665  0.333332  0.000128  1
  Sn  Sn10  1  0.333335  0.666668  0.000128  1
  Sn  Sn11  1  0.000000  0.000000  0.666752  1
  Sn  Sn12  1  0.000000  0.000000  0.332069  1
