# generated using pymatgen
data_HfSc3(Al3Ir)6
_symmetry_space_group_name_H-M   'P 1'
_cell_length_a   7.47290749
_cell_length_b   7.47038966
_cell_length_c   9.29752900
_cell_angle_alpha   90.00000000
_cell_angle_beta   90.00000000
_cell_angle_gamma   119.65595177
_symmetry_Int_Tables_number   1
_chemical_formula_structural   HfSc3(Al3Ir)6
_chemical_formula_sum   'Hf1 Sc3 Al18 Ir6'
_cell_volume   451.05162966
_cell_formula_units_Z   1
loop_
 _symmetry_equiv_pos_site_id
 _symmetry_equiv_pos_as_xyz
  1  'x, y, z'
loop_
 _atom_site_type_symbol
 _atom_site_label
 _atom_site_symmetry_multiplicity
 _atom_site_fract_x
 _atom_site_fract_y
 _atom_site_fract_z
 _atom_site_occupancy
  Hf  Hf0  1  0.996762  0.673208  0.250000  1
  Sc  Sc1  1  0.005298  0.325883  0.750000  1
  Sc  Sc2  1  0.672252  0.995979  0.250000  1
  Sc  Sc3  1  0.328166  0.006673  0.750000  1
  Al  Al4  1  0.124872  0.123571  0.250000  1
  Al  Al5  1  0.874437  0.874384  0.750000  1
  Al  Al6  1  0.997848  0.334681  0.078776  1
  Al  Al7  1  0.001909  0.664673  0.921637  1
  Al  Al8  1  0.001909  0.664673  0.578363  1
  Al  Al9  1  0.335859  0.998843  0.421025  1
  Al  Al10  1  0.997848  0.334681  0.421224  1
  Al  Al11  1  0.664702  0.001537  0.577933  1
  Al  Al12  1  0.664702  0.001537  0.922067  1
  Al  Al13  1  0.335859  0.998843  0.078975  1
  Al  Al14  1  0.331150  0.331362  0.557422  1
  Al  Al15  1  0.668605  0.668895  0.440994  1
  Al  Al16  1  0.668605  0.668895  0.059006  1
  Al  Al17  1  0.331150  0.331362  0.942578  1
  Al  Al18  1  0.337923  0.552296  0.250000  1
  Al  Al19  1  0.659237  0.447128  0.750000  1
  Al  Al20  1  0.554905  0.342426  0.250000  1
  Al  Al21  1  0.445796  0.658956  0.750000  1
  Ir  Ir22  1  0.673259  0.328916  0.000796  1
  Ir  Ir23  1  0.327116  0.672376  0.001561  1
  Ir  Ir24  1  0.327116  0.672376  0.498439  1
  Ir  Ir25  1  0.673259  0.328916  0.499204  1
  Ir  Ir26  1  0.999729  0.998464  0.001061  1
  Ir  Ir27  1  0.999729  0.998464  0.498939  1
