# generated using pymatgen
data_LiHg2Pd3
_symmetry_space_group_name_H-M   'P 1'
_cell_length_a   4.87551004
_cell_length_b   4.87551095
_cell_length_c   5.62547433
_cell_angle_alpha   102.54376431
_cell_angle_beta   102.54376366
_cell_angle_gamma   51.87783569
_symmetry_Int_Tables_number   1
_chemical_formula_structural   LiHg2Pd3
_chemical_formula_sum   'Li1 Hg2 Pd3'
_cell_volume   102.08357659
_cell_formula_units_Z   1
loop_
 _symmetry_equiv_pos_site_id
 _symmetry_equiv_pos_as_xyz
  1  'x, y, z'
loop_
 _atom_site_type_symbol
 _atom_site_label
 _atom_site_symmetry_multiplicity
 _atom_site_fract_x
 _atom_site_fract_y
 _atom_site_fract_z
 _atom_site_occupancy
  Li  Li0  1  0.500000  0.500000  0.000000  1
  Hg  Hg1  1  0.158650  0.158650  0.314846  1
  Hg  Hg2  1  0.841350  0.841350  0.685154  1
  Pd  Pd3  1  0.829037  0.829037  0.171635  1
  Pd  Pd4  1  0.500000  0.500000  0.500001  1
  Pd  Pd5  1  0.170964  0.170964  0.828364  1
