# generated using pymatgen
data_Nd3Sb4Rh7
_symmetry_space_group_name_H-M   'P 1'
_cell_length_a   8.46431068
_cell_length_b   8.46431100
_cell_length_c   9.99540400
_cell_angle_alpha   56.02545995
_cell_angle_beta   56.02545848
_cell_angle_gamma   29.34302011
_symmetry_Int_Tables_number   1
_chemical_formula_structural   Nd3Sb4Rh7
_chemical_formula_sum   'Nd3 Sb4 Rh7'
_cell_volume   286.45105796
_cell_formula_units_Z   1
loop_
 _symmetry_equiv_pos_site_id
 _symmetry_equiv_pos_as_xyz
  1  'x, y, z'
loop_
 _atom_site_type_symbol
 _atom_site_label
 _atom_site_symmetry_multiplicity
 _atom_site_fract_x
 _atom_site_fract_y
 _atom_site_fract_z
 _atom_site_occupancy
  Nd  Nd0  1  0.661926  0.661926  0.350384  1
  Nd  Nd1  1  0.338074  0.338074  0.649616  1
  Nd  Nd2  1  0.000000  0.000000  0.000000  1
  Sb  Sb3  1  0.334205  0.334205  0.273630  1
  Sb  Sb4  1  0.665795  0.665795  0.726370  1
  Sb  Sb5  1  0.888669  0.888669  0.834582  1
  Sb  Sb6  1  0.111331  0.111331  0.165418  1
  Rh  Rh7  1  0.304373  0.304373  0.037940  1
  Rh  Rh8  1  0.695627  0.695627  0.962060  1
  Rh  Rh9  1  0.509164  0.509164  0.710267  1
  Rh  Rh10  1  0.838627  0.838627  0.426098  1
  Rh  Rh11  1  0.490836  0.490836  0.289733  1
  Rh  Rh12  1  0.161373  0.161373  0.573902  1
  Rh  Rh13  1  0.000000  0.000000  0.500000  1
