# generated using pymatgen
data_Ti2Mo2W
_symmetry_space_group_name_H-M   'P 1'
_cell_length_a   4.50657900
_cell_length_b   5.26815104
_cell_length_c   6.91558095
_cell_angle_alpha   77.69207548
_cell_angle_beta   90.00000000
_cell_angle_gamma   90.00000000
_symmetry_Int_Tables_number   1
_chemical_formula_structural   Ti2Mo2W
_chemical_formula_sum   'Ti4 Mo4 W2'
_cell_volume   160.41153566
_cell_formula_units_Z   2
loop_
 _symmetry_equiv_pos_site_id
 _symmetry_equiv_pos_as_xyz
  1  'x, y, z'
loop_
 _atom_site_type_symbol
 _atom_site_label
 _atom_site_symmetry_multiplicity
 _atom_site_fract_x
 _atom_site_fract_y
 _atom_site_fract_z
 _atom_site_occupancy
  Ti  Ti0  1  0.750000  0.160693  0.954961  1
  Ti  Ti1  1  0.250000  0.839307  0.045039  1
  Ti  Ti2  1  0.250000  0.660823  0.455007  1
  Ti  Ti3  1  0.750000  0.339177  0.544993  1
  Mo  Mo4  1  0.250000  0.056155  0.653159  1
  Mo  Mo5  1  0.750000  0.943845  0.346841  1
  Mo  Mo6  1  0.750000  0.556258  0.153026  1
  Mo  Mo7  1  0.250000  0.443742  0.846974  1
  W  W8  1  0.750000  0.750015  0.749997  1
  W  W9  1  0.250000  0.249985  0.250003  1
