# generated using pymatgen
data_Er(NbSe2)5
_symmetry_space_group_name_H-M   'P 1'
_cell_length_a   6.08986246
_cell_length_b   8.08453629
_cell_length_c   8.86198350
_cell_angle_alpha   113.61666111
_cell_angle_beta   96.82954857
_cell_angle_gamma   104.25117962
_symmetry_Int_Tables_number   1
_chemical_formula_structural   Er(NbSe2)5
_chemical_formula_sum   'Er1 Nb5 Se10'
_cell_volume   375.65864758
_cell_formula_units_Z   1
loop_
 _symmetry_equiv_pos_site_id
 _symmetry_equiv_pos_as_xyz
  1  'x, y, z'
loop_
 _atom_site_type_symbol
 _atom_site_label
 _atom_site_symmetry_multiplicity
 _atom_site_fract_x
 _atom_site_fract_y
 _atom_site_fract_z
 _atom_site_occupancy
  Er  Er0  1  0.667011  0.508207  0.994721  1
  Nb  Nb1  1  0.002487  0.996867  0.000985  1
  Nb  Nb2  1  0.599823  0.205523  0.201029  1
  Nb  Nb3  1  0.197975  0.400111  0.398720  1
  Nb  Nb4  1  0.798120  0.598908  0.603052  1
  Nb  Nb5  1  0.401443  0.794645  0.798877  1
  Se  Se6  1  0.237470  0.059574  0.294883  1
  Se  Se7  1  0.047332  0.653207  0.896521  1
  Se  Se8  1  0.833792  0.256916  0.492069  1
  Se  Se9  1  0.635750  0.867060  0.105023  1
  Se  Se10  1  0.424401  0.442744  0.685400  1
  Se  Se11  1  0.901632  0.552330  0.311373  1
  Se  Se12  1  0.699101  0.137066  0.900913  1
  Se  Se13  1  0.497962  0.742018  0.507405  1
  Se  Se14  1  0.289229  0.343522  0.102859  1
  Se  Se15  1  0.099272  0.938901  0.707770  1
