# generated using pymatgen
data_HoTmB6Rh
_symmetry_space_group_name_H-M   'P 1'
_cell_length_a   3.63321000
_cell_length_b   9.13318800
_cell_length_c   11.46859400
_cell_angle_alpha   90.00000000
_cell_angle_beta   90.00000000
_cell_angle_gamma   90.00000000
_symmetry_Int_Tables_number   1
_chemical_formula_structural   HoTmB6Rh
_chemical_formula_sum   'Ho4 Tm4 B24 Rh4'
_cell_volume   380.55994599
_cell_formula_units_Z   4
loop_
 _symmetry_equiv_pos_site_id
 _symmetry_equiv_pos_as_xyz
  1  'x, y, z'
loop_
 _atom_site_type_symbol
 _atom_site_label
 _atom_site_symmetry_multiplicity
 _atom_site_fract_x
 _atom_site_fract_y
 _atom_site_fract_z
 _atom_site_occupancy
  Ho  Ho0  1  0.500000  0.321953  0.413681  1
  Ho  Ho1  1  0.500000  0.678047  0.586319  1
  Ho  Ho2  1  0.500000  0.178047  0.913681  1
  Ho  Ho3  1  0.500000  0.821953  0.086319  1
  Tm  Tm4  1  0.500000  0.444382  0.126694  1
  Tm  Tm5  1  0.500000  0.555618  0.873306  1
  Tm  Tm6  1  0.500000  0.055618  0.626694  1
  Tm  Tm7  1  0.500000  0.944382  0.373306  1
  B  B8  1  0.000000  0.108462  0.470614  1
  B  B9  1  0.000000  0.891538  0.529386  1
  B  B10  1  0.000000  0.391538  0.970614  1
  B  B11  1  0.000000  0.608462  0.029386  1
  B  B12  1  0.000000  0.132903  0.316387  1
  B  B13  1  0.000000  0.867097  0.683613  1
  B  B14  1  0.000000  0.367097  0.816387  1
  B  B15  1  0.000000  0.632903  0.183613  1
  B  B16  1  0.000000  0.054258  0.065348  1
  B  B17  1  0.000000  0.945742  0.934652  1
  B  B18  1  0.000000  0.445742  0.565348  1
  B  B19  1  0.000000  0.554258  0.434652  1
  B  B20  1  0.000000  0.482834  0.286298  1
  B  B21  1  0.000000  0.517166  0.713702  1
  B  B22  1  0.000000  0.017166  0.786298  1
  B  B23  1  0.000000  0.982834  0.213702  1
  B  B24  1  0.000000  0.250037  0.079374  1
  B  B25  1  0.000000  0.749963  0.920626  1
  B  B26  1  0.000000  0.249963  0.579374  1
  B  B27  1  0.000000  0.750037  0.420626  1
  B  B28  1  0.000000  0.294589  0.235827  1
  B  B29  1  0.000000  0.705411  0.764173  1
  B  B30  1  0.000000  0.205411  0.735827  1
  B  B31  1  0.000000  0.794589  0.264173  1
  Rh  Rh32  1  0.500000  0.139946  0.179243  1
  Rh  Rh33  1  0.500000  0.860054  0.820757  1
  Rh  Rh34  1  0.500000  0.360054  0.679243  1
  Rh  Rh35  1  0.500000  0.639946  0.320757  1
