# generated using pymatgen
data_Sc8Re11Si16Os
_symmetry_space_group_name_H-M   'P 1'
_cell_length_a   6.63244838
_cell_length_b   6.63244838
_cell_length_c   12.47403100
_cell_angle_alpha   90.00212045
_cell_angle_beta   89.99787955
_cell_angle_gamma   90.09701271
_symmetry_Int_Tables_number   1
_chemical_formula_structural   Sc8Re11Si16Os
_chemical_formula_sum   'Sc8 Re11 Si16 Os1'
_cell_volume   548.72399646
_cell_formula_units_Z   1
loop_
 _symmetry_equiv_pos_site_id
 _symmetry_equiv_pos_as_xyz
  1  'x, y, z'
loop_
 _atom_site_type_symbol
 _atom_site_label
 _atom_site_symmetry_multiplicity
 _atom_site_fract_x
 _atom_site_fract_y
 _atom_site_fract_z
 _atom_site_occupancy
  Sc  Sc0  1  0.007300  0.658671  0.030957  1
  Sc  Sc1  1  0.993251  0.340065  0.531238  1
  Sc  Sc2  1  0.340065  0.993251  0.468762  1
  Sc  Sc3  1  0.158645  0.492474  0.781060  1
  Sc  Sc4  1  0.841882  0.506826  0.280326  1
  Sc  Sc5  1  0.492474  0.158645  0.218940  1
  Sc  Sc6  1  0.506826  0.841882  0.719674  1
  Sc  Sc7  1  0.658671  0.007300  0.969043  1
  Re  Re8  1  0.168248  0.831580  0.250027  1
  Re  Re9  1  0.331917  0.331917  0.000000  1
  Re  Re10  1  0.019451  0.813997  0.631917  1
  Re  Re11  1  0.981466  0.186355  0.133079  1
  Re  Re12  1  0.813997  0.019451  0.368083  1
  Re  Re13  1  0.314221  0.481609  0.383313  1
  Re  Re14  1  0.685900  0.517596  0.882362  1
  Re  Re15  1  0.481609  0.314221  0.616687  1
  Re  Re16  1  0.517596  0.685900  0.117638  1
  Re  Re17  1  0.186355  0.981466  0.866921  1
  Re  Re18  1  0.831580  0.168248  0.749973  1
  Si  Si19  1  0.025971  0.721853  0.438009  1
  Si  Si20  1  0.619678  0.304800  0.430650  1
  Si  Si21  1  0.379526  0.695565  0.930317  1
  Si  Si22  1  0.195426  0.120681  0.680340  1
  Si  Si23  1  0.304800  0.619678  0.569350  1
  Si  Si24  1  0.695565  0.379526  0.069683  1
  Si  Si25  1  0.804812  0.879282  0.180280  1
  Si  Si26  1  0.120681  0.195426  0.319660  1
  Si  Si27  1  0.973780  0.278356  0.937723  1
  Si  Si28  1  0.721853  0.025971  0.561991  1
  Si  Si29  1  0.221378  0.473759  0.187772  1
  Si  Si30  1  0.778161  0.525893  0.687862  1
  Si  Si31  1  0.473759  0.221378  0.812228  1
  Si  Si32  1  0.525893  0.778161  0.312138  1
  Si  Si33  1  0.278356  0.973780  0.062277  1
  Si  Si34  1  0.879282  0.804812  0.819720  1
  Os  Os35  1  0.669626  0.669626  0.500000  1
