# generated using pymatgen
data_Ba4Lu(FeO4)3
_symmetry_space_group_name_H-M   'P 1'
_cell_length_a   10.24736606
_cell_length_b   10.24736646
_cell_length_c   10.24736792
_cell_angle_alpha   33.31398162
_cell_angle_beta   33.31397631
_cell_angle_gamma   33.31397467
_symmetry_Int_Tables_number   1
_chemical_formula_structural   Ba4Lu(FeO4)3
_chemical_formula_sum   'Ba4 Lu1 Fe3 O12'
_cell_volume   289.00799199
_cell_formula_units_Z   1
loop_
 _symmetry_equiv_pos_site_id
 _symmetry_equiv_pos_as_xyz
  1  'x, y, z'
loop_
 _atom_site_type_symbol
 _atom_site_label
 _atom_site_symmetry_multiplicity
 _atom_site_fract_x
 _atom_site_fract_y
 _atom_site_fract_z
 _atom_site_occupancy
  Ba  Ba0  1  0.714184  0.714184  0.714184  1
  Ba  Ba1  1  0.285816  0.285816  0.285816  1
  Ba  Ba2  1  0.870990  0.870990  0.870990  1
  Ba  Ba3  1  0.129010  0.129010  0.129010  1
  Lu  Lu4  1  0.000000  0.000000  0.000000  1
  Fe  Fe5  1  0.409417  0.409417  0.409417  1
  Fe  Fe6  1  0.500000  0.500000  0.500000  1
  Fe  Fe7  1  0.590583  0.590583  0.590583  1
  O  O8  1  0.215866  0.215866  0.698448  1
  O  O9  1  0.698448  0.215866  0.215866  1
  O  O10  1  0.215866  0.698448  0.215866  1
  O  O11  1  0.784134  0.301552  0.784134  1
  O  O12  1  0.784134  0.784134  0.301552  1
  O  O13  1  0.301552  0.784134  0.784134  1
  O  O14  1  0.392855  0.392855  0.833936  1
  O  O15  1  0.833936  0.392855  0.392855  1
  O  O16  1  0.166064  0.607145  0.607145  1
  O  O17  1  0.607145  0.607145  0.166064  1
  O  O18  1  0.607145  0.166064  0.607145  1
  O  O19  1  0.392855  0.833936  0.392855  1
