# generated using pymatgen
data_Y5Er7Ru4
_symmetry_space_group_name_H-M   'P 1'
_cell_length_a   6.28073870
_cell_length_b   7.30156537
_cell_length_c   9.09676027
_cell_angle_alpha   90.00494915
_cell_angle_beta   90.08051187
_cell_angle_gamma   90.06994701
_symmetry_Int_Tables_number   1
_chemical_formula_structural   Y5Er7Ru4
_chemical_formula_sum   'Y5 Er7 Ru4'
_cell_volume   417.16964473
_cell_formula_units_Z   1
loop_
 _symmetry_equiv_pos_site_id
 _symmetry_equiv_pos_as_xyz
  1  'x, y, z'
loop_
 _atom_site_type_symbol
 _atom_site_label
 _atom_site_symmetry_multiplicity
 _atom_site_fract_x
 _atom_site_fract_y
 _atom_site_fract_z
 _atom_site_occupancy
  Y  Y0  1  0.331413  0.676960  0.064094  1
  Y  Y1  1  0.866803  0.538989  0.250226  1
  Y  Y2  1  0.633138  0.039266  0.250138  1
  Y  Y3  1  0.132859  0.460783  0.749750  1
  Y  Y4  1  0.367132  0.961051  0.749769  1
  Er  Er5  1  0.168630  0.176618  0.435452  1
  Er  Er6  1  0.668737  0.323376  0.564587  1
  Er  Er7  1  0.831279  0.823555  0.935259  1
  Er  Er8  1  0.668939  0.323242  0.935309  1
  Er  Er9  1  0.831342  0.823450  0.564564  1
  Er  Er10  1  0.331323  0.676559  0.435758  1
  Er  Er11  1  0.168515  0.176531  0.064506  1
  Ru  Ru12  1  0.042296  0.884990  0.250479  1
  Ru  Ru13  1  0.457271  0.383552  0.250586  1
  Ru  Ru14  1  0.956925  0.115599  0.749996  1
  Ru  Ru15  1  0.543399  0.615479  0.749528  1
