# generated using pymatgen
data_YLu(B3Mo)2
_symmetry_space_group_name_H-M   'P 1'
_cell_length_a   3.15646700
_cell_length_b   5.41721145
_cell_length_c   6.80173615
_cell_angle_alpha   78.39513628
_cell_angle_beta   90.00000000
_cell_angle_gamma   90.00000000
_symmetry_Int_Tables_number   1
_chemical_formula_structural   YLu(B3Mo)2
_chemical_formula_sum   'Y1 Lu1 B6 Mo2'
_cell_volume   113.92710360
_cell_formula_units_Z   1
loop_
 _symmetry_equiv_pos_site_id
 _symmetry_equiv_pos_as_xyz
  1  'x, y, z'
loop_
 _atom_site_type_symbol
 _atom_site_label
 _atom_site_symmetry_multiplicity
 _atom_site_fract_x
 _atom_site_fract_y
 _atom_site_fract_z
 _atom_site_occupancy
  Y  Y0  1  0.750000  0.674489  0.293525  1
  Lu  Lu1  1  0.250000  0.318839  0.713616  1
  B  B2  1  0.250000  0.924399  0.524676  1
  B  B3  1  0.750000  0.086449  0.477552  1
  B  B4  1  0.250000  0.912428  0.002398  1
  B  B5  1  0.750000  0.087288  0.994061  1
  B  B6  1  0.250000  0.582395  0.004832  1
  B  B7  1  0.750000  0.415228  0.990902  1
  Mo  Mo8  1  0.250000  0.188685  0.219921  1
  Mo  Mo9  1  0.750000  0.809800  0.778517  1
