# generated using pymatgen
data_Cs3Li2TiP3
_symmetry_space_group_name_H-M   'P 1'
_cell_length_a   10.09637718
_cell_length_b   10.09637721
_cell_length_c   16.97261900
_cell_angle_alpha   90.00000000
_cell_angle_beta   90.00000000
_cell_angle_gamma   143.03332818
_symmetry_Int_Tables_number   1
_chemical_formula_structural   Cs3Li2TiP3
_chemical_formula_sum   'Cs12 Li8 Ti4 P12'
_cell_volume   1040.41732629
_cell_formula_units_Z   4
loop_
 _symmetry_equiv_pos_site_id
 _symmetry_equiv_pos_as_xyz
  1  'x, y, z'
loop_
 _atom_site_type_symbol
 _atom_site_label
 _atom_site_symmetry_multiplicity
 _atom_site_fract_x
 _atom_site_fract_y
 _atom_site_fract_z
 _atom_site_occupancy
  Cs  Cs0  1  0.948833  0.605585  0.833983  1
  Cs  Cs1  1  0.551167  0.894415  0.333983  1
  Cs  Cs2  1  0.394415  0.051167  0.166017  1
  Cs  Cs3  1  0.051167  0.394415  0.166017  1
  Cs  Cs4  1  0.894415  0.551167  0.333983  1
  Cs  Cs5  1  0.448833  0.105585  0.666017  1
  Cs  Cs6  1  0.605585  0.948833  0.833983  1
  Cs  Cs7  1  0.287324  0.287324  0.324626  1
  Cs  Cs8  1  0.787324  0.787324  0.175374  1
  Cs  Cs9  1  0.212676  0.212676  0.824626  1
  Cs  Cs10  1  0.712676  0.712676  0.675374  1
  Cs  Cs11  1  0.105585  0.448833  0.666017  1
  Li  Li12  1  0.918632  0.081368  0.000000  1
  Li  Li13  1  0.581368  0.418632  0.500000  1
  Li  Li14  1  0.081368  0.918632  0.000000  1
  Li  Li15  1  0.418632  0.581368  0.500000  1
  Li  Li16  1  0.748497  0.251503  0.000000  1
  Li  Li17  1  0.751503  0.248497  0.500000  1
  Li  Li18  1  0.251503  0.748497  0.000000  1
  Li  Li19  1  0.248497  0.751503  0.500000  1
  Ti  Ti20  1  0.585653  0.414347  0.000000  1
  Ti  Ti21  1  0.914347  0.085653  0.500000  1
  Ti  Ti22  1  0.414347  0.585653  0.000000  1
  Ti  Ti23  1  0.085653  0.914347  0.500000  1
  P  P24  1  0.885550  0.568387  0.074508  1
  P  P25  1  0.431613  0.114450  0.925492  1
  P  P26  1  0.614450  0.931613  0.574508  1
  P  P27  1  0.931613  0.614450  0.574508  1
  P  P28  1  0.114450  0.431613  0.925492  1
  P  P29  1  0.568387  0.885550  0.074508  1
  P  P30  1  0.385550  0.068387  0.425492  1
  P  P31  1  0.212058  0.212058  0.572963  1
  P  P32  1  0.712058  0.712058  0.927037  1
  P  P33  1  0.287942  0.287942  0.072963  1
  P  P34  1  0.068387  0.385550  0.425492  1
  P  P35  1  0.787942  0.787942  0.427037  1
