# generated using pymatgen
data_Tb2Dy3Bi2Ir
_symmetry_space_group_name_H-M   'P 1'
_cell_length_a   8.03024900
_cell_length_b   9.02806400
_cell_length_c   12.53280900
_cell_angle_alpha   90.00000000
_cell_angle_beta   90.00000000
_cell_angle_gamma   90.00000000
_symmetry_Int_Tables_number   1
_chemical_formula_structural   Tb2Dy3Bi2Ir
_chemical_formula_sum   'Tb8 Dy12 Bi8 Ir4'
_cell_volume   908.59859767
_cell_formula_units_Z   4
loop_
 _symmetry_equiv_pos_site_id
 _symmetry_equiv_pos_as_xyz
  1  'x, y, z'
loop_
 _atom_site_type_symbol
 _atom_site_label
 _atom_site_symmetry_multiplicity
 _atom_site_fract_x
 _atom_site_fract_y
 _atom_site_fract_z
 _atom_site_occupancy
  Tb  Tb0  1  0.840935  0.750000  0.793079  1
  Tb  Tb1  1  0.159065  0.250000  0.206921  1
  Tb  Tb2  1  0.340935  0.250000  0.706921  1
  Tb  Tb3  1  0.659065  0.750000  0.293079  1
  Tb  Tb4  1  0.376474  0.750000  0.693193  1
  Tb  Tb5  1  0.623526  0.250000  0.306807  1
  Tb  Tb6  1  0.876474  0.250000  0.806807  1
  Tb  Tb7  1  0.123526  0.750000  0.193193  1
  Dy  Dy8  1  0.945971  0.750000  0.501295  1
  Dy  Dy9  1  0.054029  0.250000  0.498705  1
  Dy  Dy10  1  0.445971  0.250000  0.998705  1
  Dy  Dy11  1  0.554029  0.750000  0.001295  1
  Dy  Dy12  1  0.676293  0.041769  0.566107  1
  Dy  Dy13  1  0.323707  0.958231  0.433893  1
  Dy  Dy14  1  0.176293  0.958231  0.933893  1
  Dy  Dy15  1  0.323707  0.541769  0.433893  1
  Dy  Dy16  1  0.823707  0.041769  0.066107  1
  Dy  Dy17  1  0.676293  0.458231  0.566107  1
  Dy  Dy18  1  0.823707  0.458231  0.066107  1
  Dy  Dy19  1  0.176293  0.541769  0.933893  1
  Bi  Bi20  1  0.569228  0.491298  0.827528  1
  Bi  Bi21  1  0.430772  0.508702  0.172472  1
  Bi  Bi22  1  0.069228  0.508702  0.672472  1
  Bi  Bi23  1  0.430772  0.991298  0.172472  1
  Bi  Bi24  1  0.930772  0.491298  0.327528  1
  Bi  Bi25  1  0.569228  0.008702  0.827528  1
  Bi  Bi26  1  0.930772  0.008702  0.327528  1
  Bi  Bi27  1  0.069228  0.991298  0.672472  1
  Ir  Ir28  1  0.570303  0.750000  0.509044  1
  Ir  Ir29  1  0.429697  0.250000  0.490956  1
  Ir  Ir30  1  0.070303  0.250000  0.990956  1
  Ir  Ir31  1  0.929697  0.750000  0.009044  1
