# generated using pymatgen
data_Sn2P2RuRh3
_symmetry_space_group_name_H-M   'P 1'
_cell_length_a   3.65092400
_cell_length_b   5.68652043
_cell_length_c   6.45445384
_cell_angle_alpha   89.48146814
_cell_angle_beta   90.00000000
_cell_angle_gamma   90.00000000
_symmetry_Int_Tables_number   1
_chemical_formula_structural   Sn2P2RuRh3
_chemical_formula_sum   'Sn2 P2 Ru1 Rh3'
_cell_volume   133.99577659
_cell_formula_units_Z   1
loop_
 _symmetry_equiv_pos_site_id
 _symmetry_equiv_pos_as_xyz
  1  'x, y, z'
loop_
 _atom_site_type_symbol
 _atom_site_label
 _atom_site_symmetry_multiplicity
 _atom_site_fract_x
 _atom_site_fract_y
 _atom_site_fract_z
 _atom_site_occupancy
  Sn  Sn0  1  0.000000  0.494400  0.430514  1
  Sn  Sn1  1  0.500000  0.006612  0.568216  1
  P  P2  1  0.000000  0.002852  0.102288  1
  P  P3  1  0.500000  0.501561  0.904438  1
  Ru  Ru4  1  0.500000  0.240347  0.181769  1
  Rh  Rh5  1  0.500000  0.750418  0.189556  1
  Rh  Rh6  1  0.000000  0.256410  0.814315  1
  Rh  Rh7  1  0.000000  0.747404  0.808906  1
