# generated using pymatgen
data_Ho13Tm7(Bi2Ir)4
_symmetry_space_group_name_H-M   'P 1'
_cell_length_a   7.93050118
_cell_length_b   8.99281887
_cell_length_c   12.46016317
_cell_angle_alpha   89.98531301
_cell_angle_beta   90.04049097
_cell_angle_gamma   90.01721997
_symmetry_Int_Tables_number   1
_chemical_formula_structural   Ho13Tm7(Bi2Ir)4
_chemical_formula_sum   'Ho13 Tm7 Bi8 Ir4'
_cell_volume   888.62815158
_cell_formula_units_Z   1
loop_
 _symmetry_equiv_pos_site_id
 _symmetry_equiv_pos_as_xyz
  1  'x, y, z'
loop_
 _atom_site_type_symbol
 _atom_site_label
 _atom_site_symmetry_multiplicity
 _atom_site_fract_x
 _atom_site_fract_y
 _atom_site_fract_z
 _atom_site_occupancy
  Ho  Ho0  1  0.343047  0.749990  0.705830  1
  Ho  Ho1  1  0.657056  0.249947  0.293925  1
  Ho  Ho2  1  0.842698  0.250251  0.794006  1
  Ho  Ho3  1  0.157203  0.749892  0.206178  1
  Ho  Ho4  1  0.878172  0.749662  0.807179  1
  Ho  Ho5  1  0.120822  0.250454  0.192840  1
  Ho  Ho6  1  0.378642  0.249860  0.692502  1
  Ho  Ho7  1  0.621351  0.750108  0.307383  1
  Ho  Ho8  1  0.177293  0.041510  0.934971  1
  Ho  Ho9  1  0.054431  0.749976  0.498542  1
  Ho  Ho10  1  0.945492  0.250095  0.501445  1
  Ho  Ho11  1  0.554792  0.250416  0.001483  1
  Ho  Ho12  1  0.446628  0.749423  0.998648  1
  Tm  Tm13  1  0.675006  0.541638  0.564831  1
  Tm  Tm14  1  0.324888  0.458414  0.435066  1
  Tm  Tm15  1  0.174897  0.458276  0.935237  1
  Tm  Tm16  1  0.324863  0.041644  0.435108  1
  Tm  Tm17  1  0.824825  0.542068  0.065192  1
  Tm  Tm18  1  0.675113  0.958458  0.564768  1
  Tm  Tm19  1  0.824832  0.958231  0.065006  1
  Bi  Bi20  1  0.568775  0.508995  0.827329  1
  Bi  Bi21  1  0.430832  0.490916  0.172627  1
  Bi  Bi22  1  0.068929  0.490958  0.672527  1
  Bi  Bi23  1  0.430572  0.009088  0.172335  1
  Bi  Bi24  1  0.930800  0.509208  0.327667  1
  Bi  Bi25  1  0.570008  0.990712  0.827227  1
  Bi  Bi26  1  0.931009  0.990881  0.327526  1
  Bi  Bi27  1  0.068708  0.008993  0.672340  1
  Ir  Ir28  1  0.068897  0.749375  0.991554  1
  Ir  Ir29  1  0.929483  0.250502  0.008889  1
  Ir  Ir30  1  0.569329  0.250036  0.508449  1
  Ir  Ir31  1  0.430610  0.750021  0.491391  1
