# generated using pymatgen
data_Tb3In3NiIrPt
_symmetry_space_group_name_H-M   'P 1'
_cell_length_a   7.70652400
_cell_length_b   7.70652525
_cell_length_c   3.76230600
_cell_angle_alpha   90.00000000
_cell_angle_beta   90.00000000
_cell_angle_gamma   119.99999464
_symmetry_Int_Tables_number   1
_chemical_formula_structural   Tb3In3NiIrPt
_chemical_formula_sum   'Tb3 In3 Ni1 Ir1 Pt1'
_cell_volume   193.50933084
_cell_formula_units_Z   1
loop_
 _symmetry_equiv_pos_site_id
 _symmetry_equiv_pos_as_xyz
  1  'x, y, z'
loop_
 _atom_site_type_symbol
 _atom_site_label
 _atom_site_symmetry_multiplicity
 _atom_site_fract_x
 _atom_site_fract_y
 _atom_site_fract_z
 _atom_site_occupancy
  Tb  Tb0  1  0.008095  0.593272  0.500000  1
  Tb  Tb1  1  0.585177  0.991905  0.500000  1
  Tb  Tb2  1  0.406728  0.414823  0.500000  1
  In  In3  1  0.748476  0.750802  0.000000  1
  In  In4  1  0.002326  0.251524  0.000000  1
  In  In5  1  0.249198  0.997674  0.000000  1
  Ni  Ni6  1  0.000000  0.000000  0.500000  1
  Ir  Ir7  1  0.333333  0.666667  0.000000  1
  Pt  Pt8  1  0.666667  0.333333  0.000000  1
