# generated using pymatgen
data_Sr5NbTcN7
_symmetry_space_group_name_H-M   'P 1'
_cell_length_a   6.56990931
_cell_length_b   9.41955011
_cell_length_c   9.42775191
_cell_angle_alpha   115.92789889
_cell_angle_beta   96.71541769
_cell_angle_gamma   88.75975864
_symmetry_Int_Tables_number   1
_chemical_formula_structural   Sr5NbTcN7
_chemical_formula_sum   'Sr10 Nb2 Tc2 N14'
_cell_volume   520.83163725
_cell_formula_units_Z   2
loop_
 _symmetry_equiv_pos_site_id
 _symmetry_equiv_pos_as_xyz
  1  'x, y, z'
loop_
 _atom_site_type_symbol
 _atom_site_label
 _atom_site_symmetry_multiplicity
 _atom_site_fract_x
 _atom_site_fract_y
 _atom_site_fract_z
 _atom_site_occupancy
  Sr  Sr0  1  0.846246  0.592395  0.315082  1
  Sr  Sr1  1  0.261403  0.987577  0.560475  1
  Sr  Sr2  1  0.703908  0.415074  0.859659  1
  Sr  Sr3  1  0.296092  0.584926  0.140341  1
  Sr  Sr4  1  0.406791  0.795659  0.932154  1
  Sr  Sr5  1  0.593209  0.204341  0.067846  1
  Sr  Sr6  1  0.153754  0.407605  0.684918  1
  Sr  Sr7  1  0.907612  0.851576  0.770648  1
  Sr  Sr8  1  0.092388  0.148424  0.229352  1
  Sr  Sr9  1  0.738597  0.012423  0.439525  1
  Nb  Nb10  1  0.117062  0.214508  0.913505  1
  Nb  Nb11  1  0.882938  0.785492  0.086495  1
  Tc  Tc12  1  0.572418  0.360068  0.475404  1
  Tc  Tc13  1  0.427582  0.639932  0.524596  1
  N  N14  1  0.530574  0.550466  0.672959  1
  N  N15  1  0.469426  0.449534  0.327041  1
  N  N16  1  0.167858  0.695500  0.545812  1
  N  N17  1  0.832142  0.304500  0.454188  1
  N  N18  1  0.412344  0.201527  0.464290  1
  N  N19  1  0.587656  0.798473  0.535710  1
  N  N20  1  0.947413  0.128005  0.704791  1
  N  N21  1  0.052587  0.871995  0.295209  1
  N  N22  1  0.233784  0.045509  0.961917  1
  N  N23  1  0.766216  0.954491  0.038083  1
  N  N24  1  0.355807  0.327560  0.894496  1
  N  N25  1  0.954236  0.349333  0.086152  1
  N  N26  1  0.045764  0.650667  0.913848  1
  N  N27  1  0.644193  0.672440  0.105504  1
