# generated using pymatgen
data_HoPa3(Co3Si5)2
_symmetry_space_group_name_H-M   'P 1'
_cell_length_a   7.82762945
_cell_length_b   7.85525012
_cell_length_c   7.85525054
_cell_angle_alpha   138.23252318
_cell_angle_beta   104.59317559
_cell_angle_gamma   90.17695560
_symmetry_Int_Tables_number   1
_chemical_formula_structural   HoPa3(Co3Si5)2
_chemical_formula_sum   'Ho1 Pa3 Co6 Si10'
_cell_volume   297.37108510
_cell_formula_units_Z   1
loop_
 _symmetry_equiv_pos_site_id
 _symmetry_equiv_pos_as_xyz
  1  'x, y, z'
loop_
 _atom_site_type_symbol
 _atom_site_label
 _atom_site_symmetry_multiplicity
 _atom_site_fract_x
 _atom_site_fract_y
 _atom_site_fract_z
 _atom_site_occupancy
  Ho  Ho0  1  0.398496  0.131967  0.266529  1
  Pa  Pa1  1  0.599042  0.865812  0.733230  1
  Pa  Pa2  1  0.134119  0.367961  0.766157  1
  Pa  Pa3  1  0.868073  0.633565  0.234509  1
  Co  Co4  1  0.997647  0.251945  0.251473  1
  Co  Co5  1  0.997647  0.746173  0.745702  1
  Co  Co6  1  0.242311  0.859449  0.382863  1
  Co  Co7  1  0.522415  0.636989  0.885426  1
  Co  Co8  1  0.479510  0.364610  0.114899  1
  Co  Co9  1  0.759106  0.140450  0.618655  1
  Si  Si10  1  0.767386  0.016865  0.248040  1
  Si  Si11  1  0.231957  0.982547  0.753071  1
  Si  Si12  1  0.767386  0.519345  0.750520  1
  Si  Si13  1  0.953626  0.104115  0.849511  1
  Si  Si14  1  0.048570  0.897475  0.151094  1
  Si  Si15  1  0.500447  0.248042  0.746745  1
  Si  Si16  1  0.500447  0.753703  0.252405  1
  Si  Si17  1  0.741493  0.394516  0.346977  1
  Si  Si18  1  0.258367  0.605586  0.652782  1
  Si  Si19  1  0.231957  0.478885  0.249410  1
