# generated using pymatgen
data_Na3Er2Ni16(MoAs4)3
_symmetry_space_group_name_H-M   'P 1'
_cell_length_a   12.60924515
_cell_length_b   12.60924475
_cell_length_c   3.82775100
_cell_angle_alpha   90.00000000
_cell_angle_beta   90.00000000
_cell_angle_gamma   120.13599229
_symmetry_Int_Tables_number   1
_chemical_formula_structural   Na3Er2Ni16(MoAs4)3
_chemical_formula_sum   'Na3 Er2 Ni16 Mo3 As12'
_cell_volume   526.32706859
_cell_formula_units_Z   1
loop_
 _symmetry_equiv_pos_site_id
 _symmetry_equiv_pos_as_xyz
  1  'x, y, z'
loop_
 _atom_site_type_symbol
 _atom_site_label
 _atom_site_symmetry_multiplicity
 _atom_site_fract_x
 _atom_site_fract_y
 _atom_site_fract_z
 _atom_site_occupancy
  Na  Na0  1  0.184934  0.184934  0.500000  1
  Na  Na1  1  0.333418  0.667604  0.000000  1
  Na  Na2  1  0.667604  0.333418  0.000000  1
  Er  Er3  1  0.814808  0.000858  0.500000  1
  Er  Er4  1  0.000858  0.814808  0.500000  1
  Ni  Ni5  1  0.718846  0.718846  0.500000  1
  Ni  Ni6  1  0.281551  0.999751  0.500000  1
  Ni  Ni7  1  0.999751  0.281551  0.500000  1
  Ni  Ni8  1  0.182485  0.379738  0.000000  1
  Ni  Ni9  1  0.623669  0.805667  0.000000  1
  Ni  Ni10  1  0.192899  0.819917  0.000000  1
  Ni  Ni11  1  0.805667  0.623669  0.000000  1
  Ni  Ni12  1  0.819917  0.192899  0.000000  1
  Ni  Ni13  1  0.379738  0.182485  0.000000  1
  Ni  Ni14  1  0.358370  0.480628  0.500000  1
  Ni  Ni15  1  0.519392  0.877308  0.500000  1
  Ni  Ni16  1  0.121190  0.641382  0.500000  1
  Ni  Ni17  1  0.877308  0.519392  0.500000  1
  Ni  Ni18  1  0.641382  0.121190  0.500000  1
  Ni  Ni19  1  0.480628  0.358370  0.500000  1
  Ni  Ni20  1  0.998292  0.998292  0.000000  1
  Mo  Mo21  1  0.560996  0.560996  0.000000  1
  Mo  Mo22  1  0.437433  0.999158  0.000000  1
  Mo  Mo23  1  0.999158  0.437433  0.000000  1
  As  As24  1  0.820955  0.820955  0.000000  1
  As  As25  1  0.178826  0.002267  0.000000  1
  As  As26  1  0.002267  0.178826  0.000000  1
  As  As27  1  0.168596  0.484067  0.500000  1
  As  As28  1  0.516733  0.684966  0.500000  1
  As  As29  1  0.314281  0.831102  0.500000  1
  As  As30  1  0.684966  0.516733  0.500000  1
  As  As31  1  0.831102  0.314281  0.500000  1
  As  As32  1  0.484067  0.168596  0.500000  1
  As  As33  1  0.361633  0.361633  0.000000  1
  As  As34  1  0.636558  0.999721  0.000000  1
  As  As35  1  0.999721  0.636558  0.000000  1
