# generated using pymatgen
data_Th2Pt2Au
_symmetry_space_group_name_H-M   'P 1'
_cell_length_a   7.84108801
_cell_length_b   7.84108800
_cell_length_c   3.82686800
_cell_angle_alpha   90.00000000
_cell_angle_beta   90.00000000
_cell_angle_gamma   89.99895508
_symmetry_Int_Tables_number   1
_chemical_formula_structural   Th2Pt2Au
_chemical_formula_sum   'Th4 Pt4 Au2'
_cell_volume   235.28602843
_cell_formula_units_Z   2
loop_
 _symmetry_equiv_pos_site_id
 _symmetry_equiv_pos_as_xyz
  1  'x, y, z'
loop_
 _atom_site_type_symbol
 _atom_site_label
 _atom_site_symmetry_multiplicity
 _atom_site_fract_x
 _atom_site_fract_y
 _atom_site_fract_z
 _atom_site_occupancy
  Th  Th0  1  0.326560  0.173441  0.500001  1
  Th  Th1  1  0.826568  0.326568  0.500001  1
  Th  Th2  1  0.173433  0.673433  0.500001  1
  Th  Th3  1  0.673441  0.826560  0.500001  1
  Pt  Pt4  1  0.629935  0.129934  0.000000  1
  Pt  Pt5  1  0.129937  0.370063  0.000000  1
  Pt  Pt6  1  0.870062  0.629938  0.000000  1
  Pt  Pt7  1  0.370066  0.870065  0.000000  1
  Au  Au8  1  0.000000  0.000000  0.000000  1
  Au  Au9  1  0.500000  0.500000  0.000000  1
