# generated using pymatgen
data_Y2Tm2ReB12Os
_symmetry_space_group_name_H-M   'P 1'
_cell_length_a   3.64845700
_cell_length_b   9.12416407
_cell_length_c   11.52050913
_cell_angle_alpha   90.12285410
_cell_angle_beta   90.00000000
_cell_angle_gamma   90.00000000
_symmetry_Int_Tables_number   1
_chemical_formula_structural   Y2Tm2ReB12Os
_chemical_formula_sum   'Y4 Tm4 Re2 B24 Os2'
_cell_volume   383.50673254
_cell_formula_units_Z   2
loop_
 _symmetry_equiv_pos_site_id
 _symmetry_equiv_pos_as_xyz
  1  'x, y, z'
loop_
 _atom_site_type_symbol
 _atom_site_label
 _atom_site_symmetry_multiplicity
 _atom_site_fract_x
 _atom_site_fract_y
 _atom_site_fract_z
 _atom_site_occupancy
  Y  Y0  1  0.000000  0.320345  0.412581  1
  Y  Y1  1  0.000000  0.679655  0.587419  1
  Y  Y2  1  0.000000  0.823878  0.084821  1
  Y  Y3  1  0.000000  0.176122  0.915179  1
  Tm  Tm4  1  0.000000  0.943500  0.370734  1
  Tm  Tm5  1  0.000000  0.056500  0.629266  1
  Tm  Tm6  1  0.000000  0.442637  0.128727  1
  Tm  Tm7  1  0.000000  0.557363  0.871273  1
  Re  Re8  1  0.000000  0.138652  0.180325  1
  Re  Re9  1  0.000000  0.861348  0.819675  1
  B  B10  1  0.500000  0.553990  0.432644  1
  B  B11  1  0.500000  0.446010  0.567356  1
  B  B12  1  0.500000  0.053378  0.067354  1
  B  B13  1  0.500000  0.946622  0.932646  1
  B  B14  1  0.500000  0.749599  0.418354  1
  B  B15  1  0.500000  0.250401  0.581646  1
  B  B16  1  0.500000  0.249646  0.081466  1
  B  B17  1  0.500000  0.750354  0.918534  1
  B  B18  1  0.500000  0.791173  0.265892  1
  B  B19  1  0.500000  0.208827  0.734108  1
  B  B20  1  0.500000  0.292103  0.234616  1
  B  B21  1  0.500000  0.707897  0.765384  1
  B  B22  1  0.500000  0.630152  0.185616  1
  B  B23  1  0.500000  0.369848  0.814384  1
  B  B24  1  0.500000  0.130518  0.315234  1
  B  B25  1  0.500000  0.869482  0.684766  1
  B  B26  1  0.500000  0.982258  0.213117  1
  B  B27  1  0.500000  0.017742  0.786883  1
  B  B28  1  0.500000  0.482656  0.287444  1
  B  B29  1  0.500000  0.517344  0.712556  1
  B  B30  1  0.500000  0.601175  0.028189  1
  B  B31  1  0.500000  0.398825  0.971811  1
  B  B32  1  0.500000  0.101435  0.472198  1
  B  B33  1  0.500000  0.898565  0.527802  1
  Os  Os34  1  0.000000  0.638085  0.320859  1
  Os  Os35  1  0.000000  0.361915  0.679141  1
