# generated using pymatgen
data_Y3(TmSn2)2
_symmetry_space_group_name_H-M   'P 1'
_cell_length_a   8.00745400
_cell_length_b   8.15032100
_cell_length_c   15.43068800
_cell_angle_alpha   90.00000000
_cell_angle_beta   90.00000000
_cell_angle_gamma   90.00000000
_symmetry_Int_Tables_number   1
_chemical_formula_structural   Y3(TmSn2)2
_chemical_formula_sum   'Y12 Tm8 Sn16'
_cell_volume   1007.05793637
_cell_formula_units_Z   4
loop_
 _symmetry_equiv_pos_site_id
 _symmetry_equiv_pos_as_xyz
  1  'x, y, z'
loop_
 _atom_site_type_symbol
 _atom_site_label
 _atom_site_symmetry_multiplicity
 _atom_site_fract_x
 _atom_site_fract_y
 _atom_site_fract_z
 _atom_site_occupancy
  Y  Y0  1  0.632582  0.163865  0.122163  1
  Y  Y1  1  0.132582  0.336135  0.377837  1
  Y  Y2  1  0.367418  0.836135  0.622163  1
  Y  Y3  1  0.867418  0.663865  0.877837  1
  Y  Y4  1  0.522684  0.320576  0.901987  1
  Y  Y5  1  0.022684  0.179424  0.598013  1
  Y  Y6  1  0.477316  0.679424  0.401987  1
  Y  Y7  1  0.977316  0.820576  0.098013  1
  Y  Y8  1  0.477298  0.679299  0.097793  1
  Y  Y9  1  0.977298  0.820701  0.402207  1
  Y  Y10  1  0.522702  0.320701  0.597793  1
  Y  Y11  1  0.022702  0.179299  0.902207  1
  Tm  Tm12  1  0.367214  0.836208  0.877818  1
  Tm  Tm13  1  0.867214  0.663792  0.622182  1
  Tm  Tm14  1  0.632786  0.163792  0.377818  1
  Tm  Tm15  1  0.132786  0.336208  0.122182  1
  Tm  Tm16  1  0.198299  0.503338  0.750073  1
  Tm  Tm17  1  0.698299  0.996662  0.749927  1
  Tm  Tm18  1  0.801701  0.496662  0.250073  1
  Tm  Tm19  1  0.301701  0.003338  0.249927  1
  Sn  Sn20  1  0.291825  0.035169  0.041773  1
  Sn  Sn21  1  0.791825  0.464831  0.458227  1
  Sn  Sn22  1  0.708175  0.964831  0.541773  1
  Sn  Sn23  1  0.208175  0.535169  0.958227  1
  Sn  Sn24  1  0.706375  0.965214  0.957535  1
  Sn  Sn25  1  0.206375  0.534786  0.542465  1
  Sn  Sn26  1  0.293625  0.034786  0.457535  1
  Sn  Sn27  1  0.793625  0.465214  0.042465  1
  Sn  Sn28  1  0.564309  0.620665  0.750097  1
  Sn  Sn29  1  0.064309  0.879335  0.749903  1
  Sn  Sn30  1  0.435691  0.379335  0.250097  1
  Sn  Sn31  1  0.935691  0.120665  0.249903  1
  Sn  Sn32  1  0.331025  0.147529  0.750368  1
  Sn  Sn33  1  0.831025  0.352471  0.749632  1
  Sn  Sn34  1  0.668975  0.852471  0.250368  1
  Sn  Sn35  1  0.168975  0.647529  0.249632  1
