# generated using pymatgen
data_TbErZn5Sn
_symmetry_space_group_name_H-M   'P 1'
_cell_length_a   8.35774717
_cell_length_b   8.35774842
_cell_length_c   8.98336700
_cell_angle_alpha   90.00000000
_cell_angle_beta   90.00000000
_cell_angle_gamma   149.78415871
_symmetry_Int_Tables_number   1
_chemical_formula_structural   TbErZn5Sn
_chemical_formula_sum   'Tb2 Er2 Zn10 Sn2'
_cell_volume   315.79781170
_cell_formula_units_Z   2
loop_
 _symmetry_equiv_pos_site_id
 _symmetry_equiv_pos_as_xyz
  1  'x, y, z'
loop_
 _atom_site_type_symbol
 _atom_site_label
 _atom_site_symmetry_multiplicity
 _atom_site_fract_x
 _atom_site_fract_y
 _atom_site_fract_z
 _atom_site_occupancy
  Tb  Tb0  1  0.000000  0.000000  0.500000  1
  Tb  Tb1  1  0.000000  0.000000  0.000000  1
  Er  Er2  1  0.203378  0.796622  0.250000  1
  Er  Er3  1  0.796622  0.203378  0.750000  1
  Zn  Zn4  1  0.813075  0.186925  0.390725  1
  Zn  Zn5  1  0.186925  0.813075  0.609275  1
  Zn  Zn6  1  0.813075  0.186925  0.109275  1
  Zn  Zn7  1  0.186925  0.813075  0.890725  1
  Zn  Zn8  1  0.656767  0.343233  0.481508  1
  Zn  Zn9  1  0.343233  0.656767  0.518492  1
  Zn  Zn10  1  0.656767  0.343233  0.018492  1
  Zn  Zn11  1  0.343233  0.656767  0.981508  1
  Zn  Zn12  1  0.392536  0.607464  0.250000  1
  Zn  Zn13  1  0.607464  0.392536  0.750000  1
  Sn  Sn14  1  0.554447  0.445553  0.250000  1
  Sn  Sn15  1  0.445553  0.554447  0.750000  1
