# generated using pymatgen
data_Dy2Y5ErC10
_symmetry_space_group_name_H-M   'P 1'
_cell_length_a   3.67707900
_cell_length_b   6.58783039
_cell_length_c   11.93682141
_cell_angle_alpha   89.85460978
_cell_angle_beta   90.00000000
_cell_angle_gamma   90.00000000
_symmetry_Int_Tables_number   1
_chemical_formula_structural   Dy2Y5ErC10
_chemical_formula_sum   'Dy2 Y5 Er1 C10'
_cell_volume   289.15630613
_cell_formula_units_Z   1
loop_
 _symmetry_equiv_pos_site_id
 _symmetry_equiv_pos_as_xyz
  1  'x, y, z'
loop_
 _atom_site_type_symbol
 _atom_site_label
 _atom_site_symmetry_multiplicity
 _atom_site_fract_x
 _atom_site_fract_y
 _atom_site_fract_z
 _atom_site_occupancy
  Dy  Dy0  1  0.500000  0.107609  0.804501  1
  Dy  Dy1  1  0.500000  0.895642  0.196999  1
  Y  Y2  1  0.500000  0.391384  0.303134  1
  Y  Y3  1  0.500000  0.606864  0.696632  1
  Y  Y4  1  0.000000  0.750402  0.957144  1
  Y  Y5  1  0.000000  0.261690  0.542138  1
  Y  Y6  1  0.000000  0.750629  0.455359  1
  Er  Er7  1  0.000000  0.236820  0.042254  1
  C  C8  1  0.500000  0.993397  0.001821  1
  C  C9  1  0.500000  0.510718  0.500048  1
  C  C10  1  0.000000  0.135969  0.234473  1
  C  C11  1  0.000000  0.857520  0.763240  1
  C  C12  1  0.000000  0.363383  0.736573  1
  C  C13  1  0.000000  0.644045  0.259806  1
  C  C14  1  0.000000  0.113229  0.345910  1
  C  C15  1  0.000000  0.918938  0.656910  1
  C  C16  1  0.000000  0.388667  0.847460  1
  C  C17  1  0.000000  0.573094  0.155597  1
