# generated using pymatgen
data_Sc2Ge3AsRh8
_symmetry_space_group_name_H-M   'P 1'
_cell_length_a   4.14826800
_cell_length_b   9.12347300
_cell_length_c   11.32677000
_cell_angle_alpha   90.00000000
_cell_angle_beta   90.00000000
_cell_angle_gamma   90.00000000
_symmetry_Int_Tables_number   1
_chemical_formula_structural   Sc2Ge3AsRh8
_chemical_formula_sum   'Sc4 Ge6 As2 Rh16'
_cell_volume   428.67985915
_cell_formula_units_Z   2
loop_
 _symmetry_equiv_pos_site_id
 _symmetry_equiv_pos_as_xyz
  1  'x, y, z'
loop_
 _atom_site_type_symbol
 _atom_site_label
 _atom_site_symmetry_multiplicity
 _atom_site_fract_x
 _atom_site_fract_y
 _atom_site_fract_z
 _atom_site_occupancy
  Sc  Sc0  1  0.250000  0.142042  0.823418  1
  Sc  Sc1  1  0.250000  0.357958  0.323418  1
  Sc  Sc2  1  0.750000  0.853586  0.175741  1
  Sc  Sc3  1  0.750000  0.646414  0.675741  1
  Ge  Ge4  1  0.750000  0.585653  0.360036  1
  Ge  Ge5  1  0.750000  0.914347  0.860036  1
  Ge  Ge6  1  0.250000  0.620268  0.058874  1
  Ge  Ge7  1  0.250000  0.879732  0.558874  1
  Ge  Ge8  1  0.750000  0.380865  0.941937  1
  Ge  Ge9  1  0.750000  0.119135  0.441937  1
  As  As10  1  0.250000  0.415416  0.639294  1
  As  As11  1  0.250000  0.084584  0.139294  1
  Rh  Rh12  1  0.250000  0.613786  0.500505  1
  Rh  Rh13  1  0.250000  0.886214  0.000505  1
  Rh  Rh14  1  0.750000  0.384132  0.500005  1
  Rh  Rh15  1  0.750000  0.115868  0.000005  1
  Rh  Rh16  1  0.250000  0.703279  0.265651  1
  Rh  Rh17  1  0.250000  0.796721  0.765651  1
  Rh  Rh18  1  0.750000  0.295372  0.736644  1
  Rh  Rh19  1  0.750000  0.204628  0.236644  1
  Rh  Rh20  1  0.250000  0.173569  0.562365  1
  Rh  Rh21  1  0.250000  0.326431  0.062365  1
  Rh  Rh22  1  0.750000  0.829652  0.437582  1
  Rh  Rh23  1  0.750000  0.670348  0.937582  1
  Rh  Rh24  1  0.250000  0.007471  0.341523  1
  Rh  Rh25  1  0.250000  0.492529  0.841523  1
  Rh  Rh26  1  0.750000  0.994628  0.656422  1
  Rh  Rh27  1  0.750000  0.505372  0.156422  1
