# generated using pymatgen
data_NaScB14
_symmetry_space_group_name_H-M   'P 1'
_cell_length_a   7.38405961
_cell_length_b   7.38405981
_cell_length_c   7.38405960
_cell_angle_alpha   131.92357526
_cell_angle_beta   112.49713649
_cell_angle_gamma   87.08949311
_symmetry_Int_Tables_number   1
_chemical_formula_structural   NaScB14
_chemical_formula_sum   'Na2 Sc2 B28'
_cell_volume   264.18256692
_cell_formula_units_Z   2
loop_
 _symmetry_equiv_pos_site_id
 _symmetry_equiv_pos_as_xyz
  1  'x, y, z'
loop_
 _atom_site_type_symbol
 _atom_site_label
 _atom_site_symmetry_multiplicity
 _atom_site_fract_x
 _atom_site_fract_y
 _atom_site_fract_z
 _atom_site_occupancy
  Na  Na0  1  0.097364  0.750000  0.347364  1
  Na  Na1  1  0.902636  0.250000  0.652636  1
  Sc  Sc2  1  0.500000  0.500000  0.500000  1
  Sc  Sc3  1  0.500000  0.000000  0.000000  1
  B  B4  1  0.897462  0.217913  0.992623  1
  B  B5  1  0.467446  0.178929  0.798840  1
  B  B6  1  0.880089  0.168607  0.201160  1
  B  B7  1  0.725292  0.404839  0.007377  1
  B  B8  1  0.590778  0.419544  0.171234  1
  B  B9  1  0.750969  0.365744  0.385224  1
  B  B10  1  0.308473  0.334528  0.973945  1
  B  B11  1  0.725292  0.717913  0.320452  1
  B  B12  1  0.880089  0.678929  0.711482  1
  B  B13  1  0.467446  0.668607  0.288518  1
  B  B14  1  0.102538  0.095161  0.320452  1
  B  B15  1  0.897462  0.904839  0.679548  1
  B  B16  1  0.532554  0.331393  0.711482  1
  B  B17  1  0.119911  0.321071  0.288518  1
  B  B18  1  0.274708  0.282087  0.679548  1
  B  B19  1  0.748309  0.919544  0.828766  1
  B  B20  1  0.480520  0.865744  0.614776  1
  B  B21  1  0.860583  0.834528  0.026055  1
  B  B22  1  0.691527  0.665472  0.026055  1
  B  B23  1  0.249031  0.634256  0.614776  1
  B  B24  1  0.409222  0.580456  0.828766  1
  B  B25  1  0.274708  0.595161  0.992623  1
  B  B26  1  0.119911  0.831393  0.798840  1
  B  B27  1  0.532554  0.821071  0.201160  1
  B  B28  1  0.102538  0.782087  0.007377  1
  B  B29  1  0.139417  0.165472  0.973945  1
  B  B30  1  0.519480  0.134256  0.385224  1
  B  B31  1  0.251691  0.080456  0.171234  1
