# generated using pymatgen
data_CuB4Ir3Pd3Pt
_symmetry_space_group_name_H-M   'P 1'
_cell_length_a   6.72283522
_cell_length_b   6.13825715
_cell_length_c   5.53345826
_cell_angle_alpha   70.84435204
_cell_angle_beta   58.56887429
_cell_angle_gamma   50.49682492
_symmetry_Int_Tables_number   1
_chemical_formula_structural   CuB4Ir3Pd3Pt
_chemical_formula_sum   'Cu1 B4 Ir3 Pd3 Pt1'
_cell_volume   150.33469959
_cell_formula_units_Z   1
loop_
 _symmetry_equiv_pos_site_id
 _symmetry_equiv_pos_as_xyz
  1  'x, y, z'
loop_
 _atom_site_type_symbol
 _atom_site_label
 _atom_site_symmetry_multiplicity
 _atom_site_fract_x
 _atom_site_fract_y
 _atom_site_fract_z
 _atom_site_occupancy
  Cu  Cu0  1  0.882641  0.384384  0.791555  1
  B  B1  1  0.050322  0.986424  0.554231  1
  B  B2  1  0.672571  0.862467  0.206378  1
  B  B3  1  0.417826  0.562408  0.973428  1
  B  B4  1  0.275722  0.187808  0.851319  1
  Ir  Ir5  1  0.387468  0.850264  0.145864  1
  Ir  Ir6  1  0.619514  0.153825  0.851773  1
  Ir  Ir7  1  0.381812  0.877017  0.639930  1
  Pd  Pd8  1  0.939132  0.779979  0.393748  1
  Pd  Pd9  1  0.460916  0.303815  0.369100  1
  Pd  Pd10  1  0.862985  0.371574  0.305723  1
  Pt  Pt11  1  0.099490  0.629635  0.866549  1
