# generated using pymatgen
data_Zr5Fe9Co4(P2Ru)6
_symmetry_space_group_name_H-M   'P 1'
_cell_length_a   11.97535700
_cell_length_b   11.97535742
_cell_length_c   3.70339700
_cell_angle_alpha   90.00000000
_cell_angle_beta   90.00000000
_cell_angle_gamma   120.00000713
_symmetry_Int_Tables_number   1
_chemical_formula_structural   Zr5Fe9Co4(P2Ru)6
_chemical_formula_sum   'Zr5 Fe9 Co4 P12 Ru6'
_cell_volume   459.94703589
_cell_formula_units_Z   1
loop_
 _symmetry_equiv_pos_site_id
 _symmetry_equiv_pos_as_xyz
  1  'x, y, z'
loop_
 _atom_site_type_symbol
 _atom_site_label
 _atom_site_symmetry_multiplicity
 _atom_site_fract_x
 _atom_site_fract_y
 _atom_site_fract_z
 _atom_site_occupancy
  Zr  Zr0  1  0.333333  0.666667  0.500000  1
  Zr  Zr1  1  0.666667  0.333333  0.500000  1
  Zr  Zr2  1  0.815478  0.998982  0.000000  1
  Zr  Zr3  1  0.001018  0.816498  0.000000  1
  Zr  Zr4  1  0.183502  0.184522  0.000000  1
  Fe  Fe5  1  0.630398  0.803263  0.500000  1
  Fe  Fe6  1  0.196737  0.827134  0.500000  1
  Fe  Fe7  1  0.172866  0.369602  0.500000  1
  Fe  Fe8  1  0.376213  0.183996  0.500000  1
  Fe  Fe9  1  0.807784  0.623787  0.500000  1
  Fe  Fe10  1  0.816004  0.192216  0.500000  1
  Fe  Fe11  1  0.281364  0.005531  0.000000  1
  Fe  Fe12  1  0.994469  0.275832  0.000000  1
  Fe  Fe13  1  0.724168  0.718636  0.000000  1
  Co  Co14  1  0.491485  0.359206  0.000000  1
  Co  Co15  1  0.867721  0.508515  0.000000  1
  Co  Co16  1  0.640794  0.132279  0.000000  1
  Co  Co17  1  0.000000  0.000000  0.500000  1
  P  P18  1  0.179990  0.003755  0.500000  1
  P  P19  1  0.996245  0.176235  0.500000  1
  P  P20  1  0.823765  0.820010  0.500000  1
  P  P21  1  0.528805  0.690250  0.000000  1
  P  P22  1  0.309750  0.838555  0.000000  1
  P  P23  1  0.161445  0.471195  0.000000  1
  P  P24  1  0.477925  0.169406  0.000000  1
  P  P25  1  0.691481  0.522075  0.000000  1
  P  P26  1  0.830594  0.308519  0.000000  1
  P  P27  1  0.641051  0.001075  0.500000  1
  P  P28  1  0.998925  0.639975  0.500000  1
  P  P29  1  0.360025  0.358949  0.500000  1
  Ru  Ru30  1  0.448930  0.010051  0.500000  1
  Ru  Ru31  1  0.989949  0.438878  0.500000  1
  Ru  Ru32  1  0.561122  0.551070  0.500000  1
  Ru  Ru33  1  0.515919  0.875288  0.000000  1
  Ru  Ru34  1  0.124712  0.640630  0.000000  1
  Ru  Ru35  1  0.359370  0.484081  0.000000  1
