# generated using pymatgen
data_MnGaBiO5
_symmetry_space_group_name_H-M   'P 1'
_cell_length_a   5.83302400
_cell_length_b   7.56696800
_cell_length_c   8.67737800
_cell_angle_alpha   90.00000000
_cell_angle_beta   90.00000000
_cell_angle_gamma   90.00000000
_symmetry_Int_Tables_number   1
_chemical_formula_structural   MnGaBiO5
_chemical_formula_sum   'Mn4 Ga4 Bi4 O20'
_cell_volume   383.00476502
_cell_formula_units_Z   4
loop_
 _symmetry_equiv_pos_site_id
 _symmetry_equiv_pos_as_xyz
  1  'x, y, z'
loop_
 _atom_site_type_symbol
 _atom_site_label
 _atom_site_symmetry_multiplicity
 _atom_site_fract_x
 _atom_site_fract_y
 _atom_site_fract_z
 _atom_site_occupancy
  Mn  Mn0  1  0.245321  0.000000  0.500000  1
  Mn  Mn1  1  0.754679  0.000000  0.500000  1
  Mn  Mn2  1  0.754679  0.500000  0.000000  1
  Mn  Mn3  1  0.245321  0.500000  0.000000  1
  Ga  Ga4  1  0.000000  0.112711  0.145645  1
  Ga  Ga5  1  0.000000  0.887289  0.854355  1
  Ga  Ga6  1  0.000000  0.387289  0.645645  1
  Ga  Ga7  1  0.000000  0.612711  0.354355  1
  Bi  Bi8  1  0.500000  0.357270  0.334574  1
  Bi  Bi9  1  0.500000  0.642730  0.665426  1
  Bi  Bi10  1  0.500000  0.142730  0.834574  1
  Bi  Bi11  1  0.500000  0.857270  0.165426  1
  O  O12  1  0.000000  0.351342  0.071924  1
  O  O13  1  0.000000  0.648658  0.928076  1
  O  O14  1  0.000000  0.148658  0.571924  1
  O  O15  1  0.000000  0.851342  0.428076  1
  O  O16  1  0.218165  0.000000  0.000000  1
  O  O17  1  0.781835  0.000000  0.000000  1
  O  O18  1  0.781835  0.500000  0.500000  1
  O  O19  1  0.218165  0.500000  0.500000  1
  O  O20  1  0.249618  0.107991  0.297237  1
  O  O21  1  0.750382  0.892009  0.702763  1
  O  O22  1  0.249618  0.892009  0.702763  1
  O  O23  1  0.750382  0.392009  0.797237  1
  O  O24  1  0.750382  0.107991  0.297237  1
  O  O25  1  0.249618  0.607991  0.202763  1
  O  O26  1  0.750382  0.607991  0.202763  1
  O  O27  1  0.249618  0.392009  0.797237  1
  O  O28  1  0.500000  0.344761  0.053764  1
  O  O29  1  0.500000  0.655239  0.946236  1
  O  O30  1  0.500000  0.155239  0.553764  1
  O  O31  1  0.500000  0.844761  0.446236  1
