# generated using pymatgen
data_ThMnAl10Co
_symmetry_space_group_name_H-M   'P 1'
_cell_length_a   6.81158201
_cell_length_b   6.81296011
_cell_length_c   9.05396410
_cell_angle_alpha   90.45430971
_cell_angle_beta   90.45459576
_cell_angle_gamma   97.69504349
_symmetry_Int_Tables_number   1
_chemical_formula_structural   ThMnAl10Co
_chemical_formula_sum   'Th2 Mn2 Al20 Co2'
_cell_volume   416.35369746
_cell_formula_units_Z   2
loop_
 _symmetry_equiv_pos_site_id
 _symmetry_equiv_pos_as_xyz
  1  'x, y, z'
loop_
 _atom_site_type_symbol
 _atom_site_label
 _atom_site_symmetry_multiplicity
 _atom_site_fract_x
 _atom_site_fract_y
 _atom_site_fract_z
 _atom_site_occupancy
  Th  Th0  1  0.874463  0.125531  0.749999  1
  Th  Th1  1  0.125537  0.874469  0.250001  1
  Mn  Mn2  1  0.000000  0.500000  0.000000  1
  Mn  Mn3  1  0.500000  0.000000  0.500000  1
  Al  Al4  1  0.519479  0.777443  0.747740  1
  Al  Al5  1  0.480521  0.222557  0.252260  1
  Al  Al6  1  0.590862  0.865494  0.249867  1
  Al  Al7  1  0.771915  0.771101  0.999859  1
  Al  Al8  1  0.161232  0.839638  0.599715  1
  Al  Al9  1  0.228085  0.228899  0.000141  1
  Al  Al10  1  0.134549  0.409120  0.250123  1
  Al  Al11  1  0.624454  0.377486  0.950832  1
  Al  Al12  1  0.839555  0.161159  0.099718  1
  Al  Al13  1  0.377541  0.624516  0.450838  1
  Al  Al14  1  0.160445  0.838841  0.900282  1
  Al  Al15  1  0.222597  0.480510  0.752264  1
  Al  Al16  1  0.375546  0.622514  0.049168  1
  Al  Al17  1  0.838768  0.160362  0.400285  1
  Al  Al18  1  0.622459  0.375484  0.549162  1
  Al  Al19  1  0.409138  0.134506  0.750133  1
  Al  Al20  1  0.777403  0.519490  0.247736  1
  Al  Al21  1  0.771037  0.771993  0.499850  1
  Al  Al22  1  0.228963  0.228007  0.500150  1
  Al  Al23  1  0.865451  0.590880  0.749877  1
  Co  Co24  1  0.000000  0.500000  0.500000  1
  Co  Co25  1  0.500000  0.000000  0.000000  1
