# generated using pymatgen
data_Hf(Re6W)4
_symmetry_space_group_name_H-M   'P 1'
_cell_length_a   8.38285864
_cell_length_b   8.38285801
_cell_length_c   8.38285900
_cell_angle_alpha   109.47122061
_cell_angle_beta   109.47121908
_cell_angle_gamma   109.47122030
_symmetry_Int_Tables_number   1
_chemical_formula_structural   Hf(Re6W)4
_chemical_formula_sum   'Hf1 Re24 W4'
_cell_volume   453.47623677
_cell_formula_units_Z   1
loop_
 _symmetry_equiv_pos_site_id
 _symmetry_equiv_pos_as_xyz
  1  'x, y, z'
loop_
 _atom_site_type_symbol
 _atom_site_label
 _atom_site_symmetry_multiplicity
 _atom_site_fract_x
 _atom_site_fract_y
 _atom_site_fract_z
 _atom_site_occupancy
  Hf  Hf0  1  0.000000  0.000000  0.000000  1
  Re  Re1  1  0.598850  0.000000  0.314883  1
  Re  Re2  1  0.000000  0.598850  0.314883  1
  Re  Re3  1  0.000000  0.314883  0.598850  1
  Re  Re4  1  0.401150  0.716033  0.401150  1
  Re  Re5  1  0.716033  0.401150  0.401150  1
  Re  Re6  1  0.314883  0.598850  0.000000  1
  Re  Re7  1  0.598850  0.314883  0.000000  1
  Re  Re8  1  0.685117  0.685117  0.283967  1
  Re  Re9  1  0.401150  0.401150  0.716033  1
  Re  Re10  1  0.623556  0.000000  0.805107  1
  Re  Re11  1  0.000000  0.623556  0.805107  1
  Re  Re12  1  0.805107  0.000000  0.623556  1
  Re  Re13  1  0.818448  0.194893  0.194893  1
  Re  Re14  1  0.194893  0.818448  0.194893  1
  Re  Re15  1  0.000000  0.805107  0.623556  1
  Re  Re16  1  0.376446  0.181551  0.376446  1
  Re  Re17  1  0.181551  0.376446  0.376446  1
  Re  Re18  1  0.805107  0.623556  0.000000  1
  Re  Re19  1  0.623556  0.805107  0.000000  1
  Re  Re20  1  0.194893  0.194893  0.818448  1
  Re  Re21  1  0.376446  0.376446  0.181551  1
  Re  Re22  1  0.314883  0.000000  0.598850  1
  Re  Re23  1  0.283967  0.685117  0.685117  1
  Re  Re24  1  0.685117  0.283967  0.685117  1
  W  W25  1  0.000000  0.366505  0.000000  1
  W  W26  1  0.366505  0.000000  0.000000  1
  W  W27  1  0.000000  0.000000  0.366505  1
  W  W28  1  0.633495  0.633495  0.633495  1
