# generated using pymatgen
data_Ti9Nb3Sn9Sb
_symmetry_space_group_name_H-M   'P 1'
_cell_length_a   9.32457700
_cell_length_b   9.38839500
_cell_length_c   5.70885011
_cell_angle_alpha   90.60877411
_cell_angle_beta   89.99993898
_cell_angle_gamma   119.77545531
_symmetry_Int_Tables_number   1
_chemical_formula_structural   Ti9Nb3Sn9Sb
_chemical_formula_sum   'Ti9 Nb3 Sn9 Sb1'
_cell_volume   433.75595431
_cell_formula_units_Z   1
loop_
 _symmetry_equiv_pos_site_id
 _symmetry_equiv_pos_as_xyz
  1  'x, y, z'
loop_
 _atom_site_type_symbol
 _atom_site_label
 _atom_site_symmetry_multiplicity
 _atom_site_fract_x
 _atom_site_fract_y
 _atom_site_fract_z
 _atom_site_occupancy
  Ti  Ti0  1  0.840630  0.681260  0.759364  1
  Ti  Ti1  1  0.157419  0.843311  0.250179  1
  Ti  Ti2  1  0.685892  0.843311  0.250180  1
  Ti  Ti3  1  0.309864  0.158759  0.749819  1
  Ti  Ti4  1  0.848895  0.158758  0.749819  1
  Ti  Ti5  1  0.156558  0.313115  0.243340  1
  Ti  Ti6  1  0.002451  0.500704  0.499699  1
  Ti  Ti7  1  0.500341  0.000681  0.000285  1
  Ti  Ti8  1  0.498254  0.500705  0.499699  1
  Nb  Nb9  1  0.499730  0.999459  0.497921  1
  Nb  Nb10  1  0.498741  0.500797  0.999626  1
  Nb  Nb11  1  0.002056  0.500797  0.999625  1
  Sn  Sn12  1  0.797009  0.204987  0.249951  1
  Sn  Sn13  1  0.407979  0.204988  0.249951  1
  Sn  Sn14  1  0.596236  0.799846  0.750876  1
  Sn  Sn15  1  0.203611  0.799846  0.750876  1
  Sn  Sn16  1  0.794709  0.589420  0.260416  1
  Sn  Sn17  1  0.665716  0.331432  0.751397  1
  Sn  Sn18  1  0.334732  0.669461  0.247395  1
  Sn  Sn19  1  0.997351  0.994704  0.499151  1
  Sn  Sn20  1  0.997941  0.995883  0.000552  1
  Sb  Sb21  1  0.203888  0.407776  0.739882  1
