# generated using pymatgen
data_Hf2Zr2Si4IrRh3
_symmetry_space_group_name_H-M   'P 1'
_cell_length_a   3.95811000
_cell_length_b   6.55919697
_cell_length_c   7.46275225
_cell_angle_alpha   90.09904837
_cell_angle_beta   90.00000000
_cell_angle_gamma   90.00000000
_symmetry_Int_Tables_number   1
_chemical_formula_structural   Hf2Zr2Si4IrRh3
_chemical_formula_sum   'Hf2 Zr2 Si4 Ir1 Rh3'
_cell_volume   193.74785706
_cell_formula_units_Z   1
loop_
 _symmetry_equiv_pos_site_id
 _symmetry_equiv_pos_as_xyz
  1  'x, y, z'
loop_
 _atom_site_type_symbol
 _atom_site_label
 _atom_site_symmetry_multiplicity
 _atom_site_fract_x
 _atom_site_fract_y
 _atom_site_fract_z
 _atom_site_occupancy
  Hf  Hf0  1  0.250000  0.521123  0.184002  1
  Hf  Hf1  1  0.250000  0.018506  0.316195  1
  Zr  Zr2  1  0.750000  0.480624  0.817055  1
  Zr  Zr3  1  0.750000  0.981065  0.682662  1
  Si  Si4  1  0.250000  0.776085  0.881887  1
  Si  Si5  1  0.750000  0.223914  0.119598  1
  Si  Si6  1  0.250000  0.274860  0.616718  1
  Si  Si7  1  0.750000  0.724335  0.381911  1
  Ir  Ir8  1  0.750000  0.847930  0.068080  1
  Rh  Rh9  1  0.250000  0.150941  0.940426  1
  Rh  Rh10  1  0.750000  0.350643  0.431008  1
  Rh  Rh11  1  0.250000  0.649973  0.560458  1
