# generated using pymatgen
data_LaNd4TmTa2O14
_symmetry_space_group_name_H-M   'P 1'
_cell_length_a   6.65710583
_cell_length_b   6.62678215
_cell_length_c   7.70875061
_cell_angle_alpha   89.97980408
_cell_angle_beta   90.07405131
_cell_angle_gamma   108.87548041
_symmetry_Int_Tables_number   1
_chemical_formula_structural   LaNd4TmTa2O14
_chemical_formula_sum   'La1 Nd4 Tm1 Ta2 O14'
_cell_volume   321.78492692
_cell_formula_units_Z   1
loop_
 _symmetry_equiv_pos_site_id
 _symmetry_equiv_pos_as_xyz
  1  'x, y, z'
loop_
 _atom_site_type_symbol
 _atom_site_label
 _atom_site_symmetry_multiplicity
 _atom_site_fract_x
 _atom_site_fract_y
 _atom_site_fract_z
 _atom_site_occupancy
  La  La0  1  0.517857  0.513453  0.497986  1
  Nd  Nd1  1  0.536546  0.528767  0.001384  1
  Nd  Nd2  1  0.006175  0.463614  0.751298  1
  Nd  Nd3  1  0.533330  0.003057  0.749731  1
  Nd  Nd4  1  0.461707  0.002494  0.248271  1
  Tm  Tm5  1  0.002856  0.528429  0.250842  1
  Ta  Ta6  1  0.999484  0.999724  0.497235  1
  Ta  Ta7  1  0.001383  0.002291  0.002777  1
  O  O8  1  0.945310  0.058053  0.749929  1
  O  O9  1  0.059566  0.936123  0.249884  1
  O  O10  1  0.349397  0.633850  0.246042  1
  O  O11  1  0.642567  0.369312  0.751800  1
  O  O12  1  0.371799  0.631592  0.753339  1
  O  O13  1  0.648109  0.377873  0.248541  1
  O  O14  1  0.309259  0.072111  0.968763  1
  O  O15  1  0.680456  0.922052  0.471444  1
  O  O16  1  0.311493  0.073633  0.529834  1
  O  O17  1  0.678200  0.917754  0.026586  1
  O  O18  1  0.042851  0.304478  0.457187  1
  O  O19  1  0.931453  0.679592  0.979140  1
  O  O20  1  0.937151  0.681851  0.522712  1
  O  O21  1  0.033055  0.299895  0.045273  1
