# generated using pymatgen
data_YbGdURu3
_symmetry_space_group_name_H-M   'P 1'
_cell_length_a   5.06408815
_cell_length_b   5.06408851
_cell_length_c   5.06408800
_cell_angle_alpha   68.76664604
_cell_angle_beta   68.76664448
_cell_angle_gamma   68.76664828
_symmetry_Int_Tables_number   1
_chemical_formula_structural   YbGdURu3
_chemical_formula_sum   'Yb1 Gd1 U1 Ru3'
_cell_volume   108.77306443
_cell_formula_units_Z   1
loop_
 _symmetry_equiv_pos_site_id
 _symmetry_equiv_pos_as_xyz
  1  'x, y, z'
loop_
 _atom_site_type_symbol
 _atom_site_label
 _atom_site_symmetry_multiplicity
 _atom_site_fract_x
 _atom_site_fract_y
 _atom_site_fract_z
 _atom_site_occupancy
  Yb  Yb0  1  0.749312  0.749312  0.749312  1
  Gd  Gd1  1  0.505482  0.505482  0.505482  1
  U  U2  1  0.124302  0.124302  0.124302  1
  Ru  Ru3  1  0.123078  0.123078  0.624748  1
  Ru  Ru4  1  0.123078  0.624748  0.123078  1
  Ru  Ru5  1  0.624748  0.123078  0.123078  1
