# generated using pymatgen
data_Tb3Hf(Al3Rh)6
_symmetry_space_group_name_H-M   'P 1'
_cell_length_a   7.53976667
_cell_length_b   7.52843300
_cell_length_c   9.42171700
_cell_angle_alpha   90.00000000
_cell_angle_beta   90.00000000
_cell_angle_gamma   119.50217125
_symmetry_Int_Tables_number   1
_chemical_formula_structural   Tb3Hf(Al3Rh)6
_chemical_formula_sum   'Tb3 Hf1 Al18 Rh6'
_cell_volume   465.45748155
_cell_formula_units_Z   1
loop_
 _symmetry_equiv_pos_site_id
 _symmetry_equiv_pos_as_xyz
  1  'x, y, z'
loop_
 _atom_site_type_symbol
 _atom_site_label
 _atom_site_symmetry_multiplicity
 _atom_site_fract_x
 _atom_site_fract_y
 _atom_site_fract_z
 _atom_site_occupancy
  Tb  Tb0  1  0.006087  0.327878  0.750000  1
  Tb  Tb1  1  0.672081  0.995349  0.250000  1
  Tb  Tb2  1  0.328703  0.006196  0.750000  1
  Hf  Hf3  1  0.996132  0.672399  0.250000  1
  Al  Al4  1  0.125004  0.121906  0.250000  1
  Al  Al5  1  0.871269  0.870222  0.750000  1
  Al  Al6  1  0.000249  0.339212  0.080344  1
  Al  Al7  1  0.999487  0.664791  0.928842  1
  Al  Al8  1  0.999487  0.664791  0.571158  1
  Al  Al9  1  0.331782  0.997171  0.419692  1
  Al  Al10  1  0.000249  0.339212  0.419656  1
  Al  Al11  1  0.664529  0.998492  0.575169  1
  Al  Al12  1  0.664529  0.998492  0.924831  1
  Al  Al13  1  0.331782  0.997171  0.080308  1
  Al  Al14  1  0.333481  0.333397  0.547941  1
  Al  Al15  1  0.669478  0.666765  0.444564  1
  Al  Al16  1  0.669478  0.666765  0.055436  1
  Al  Al17  1  0.333481  0.333397  0.952059  1
  Al  Al18  1  0.335650  0.551075  0.250000  1
  Al  Al19  1  0.660831  0.451206  0.750000  1
  Al  Al20  1  0.556966  0.345684  0.250000  1
  Al  Al21  1  0.449964  0.659314  0.750000  1
  Rh  Rh22  1  0.672866  0.328657  0.001562  1
  Rh  Rh23  1  0.327363  0.672265  0.001925  1
  Rh  Rh24  1  0.327363  0.672265  0.498075  1
  Rh  Rh25  1  0.672866  0.328657  0.498438  1
  Rh  Rh26  1  0.999421  0.998636  0.001898  1
  Rh  Rh27  1  0.999421  0.998636  0.498102  1
