# generated using pymatgen
data_Tl2In3Bi(TeO6)3
_symmetry_space_group_name_H-M   'P 1'
_cell_length_a   9.17570600
_cell_length_b   9.18450641
_cell_length_c   5.07854887
_cell_angle_alpha   89.80187538
_cell_angle_beta   90.00000000
_cell_angle_gamma   119.96831591
_symmetry_Int_Tables_number   1
_chemical_formula_structural   Tl2In3Bi(TeO6)3
_chemical_formula_sum   'Tl2 In3 Bi1 Te3 O18'
_cell_volume   370.76667109
_cell_formula_units_Z   1
loop_
 _symmetry_equiv_pos_site_id
 _symmetry_equiv_pos_as_xyz
  1  'x, y, z'
loop_
 _atom_site_type_symbol
 _atom_site_label
 _atom_site_symmetry_multiplicity
 _atom_site_fract_x
 _atom_site_fract_y
 _atom_site_fract_z
 _atom_site_occupancy
  Tl  Tl0  1  0.000684  0.627129  0.001516  1
  Tl  Tl1  1  0.373555  0.372871  0.998484  1
  In  In2  1  0.291480  0.000000  0.500000  1
  In  In3  1  0.999589  0.290390  0.498079  1
  In  In4  1  0.709198  0.709610  0.501921  1
  Bi  Bi5  1  0.626171  0.000000  0.000000  1
  Te  Te6  1  0.003980  0.000000  0.000000  1
  Te  Te7  1  0.329181  0.662706  0.508658  1
  Te  Te8  1  0.666476  0.337294  0.491342  1
  O  O9  1  0.090362  0.885686  0.782477  1
  O  O10  1  0.114800  0.201622  0.780376  1
  O  O11  1  0.801163  0.912746  0.782382  1
  O  O12  1  0.204675  0.114314  0.217523  1
  O  O13  1  0.913179  0.798378  0.219624  1
  O  O14  1  0.888416  0.087254  0.217618  1
  O  O15  1  0.463394  0.598323  0.733186  1
  O  O16  1  0.397820  0.863828  0.718871  1
  O  O17  1  0.127105  0.531973  0.723209  1
  O  O18  1  0.865070  0.401677  0.266814  1
  O  O19  1  0.533991  0.136172  0.281129  1
  O  O20  1  0.595131  0.468027  0.276791  1
  O  O21  1  0.227392  0.763820  0.285374  1
  O  O22  1  0.234737  0.458736  0.294117  1
  O  O23  1  0.537602  0.772324  0.300301  1
  O  O24  1  0.463572  0.236180  0.714626  1
  O  O25  1  0.776001  0.541264  0.705883  1
  O  O26  1  0.765278  0.227676  0.699699  1
