# generated using pymatgen
data_Yb3Pr(TmS2)8
_symmetry_space_group_name_H-M   'P 1'
_cell_length_a   3.82785400
_cell_length_b   12.75163811
_cell_length_c   12.97408300
_cell_angle_alpha   89.99242445
_cell_angle_beta   90.00000000
_cell_angle_gamma   90.00000000
_symmetry_Int_Tables_number   1
_chemical_formula_structural   Yb3Pr(TmS2)8
_chemical_formula_sum   'Yb3 Pr1 Tm8 S16'
_cell_volume   633.28326555
_cell_formula_units_Z   1
loop_
 _symmetry_equiv_pos_site_id
 _symmetry_equiv_pos_as_xyz
  1  'x, y, z'
loop_
 _atom_site_type_symbol
 _atom_site_label
 _atom_site_symmetry_multiplicity
 _atom_site_fract_x
 _atom_site_fract_y
 _atom_site_fract_z
 _atom_site_occupancy
  Yb  Yb0  1  0.250000  0.868216  0.916239  1
  Yb  Yb1  1  0.750000  0.633921  0.414939  1
  Yb  Yb2  1  0.750000  0.130376  0.082915  1
  Pr  Pr3  1  0.250000  0.368526  0.586180  1
  Tm  Tm4  1  0.250000  0.106048  0.416616  1
  Tm  Tm5  1  0.250000  0.608975  0.083038  1
  Tm  Tm6  1  0.750000  0.892250  0.583448  1
  Tm  Tm7  1  0.750000  0.393123  0.919581  1
  Tm  Tm8  1  0.250000  0.143893  0.800117  1
  Tm  Tm9  1  0.250000  0.648894  0.702628  1
  Tm  Tm10  1  0.750000  0.853592  0.201529  1
  Tm  Tm11  1  0.750000  0.352774  0.295748  1
  S  S12  1  0.250000  0.216486  0.236790  1
  S  S13  1  0.250000  0.715542  0.263223  1
  S  S14  1  0.750000  0.784733  0.764129  1
  S  S15  1  0.750000  0.282439  0.737989  1
  S  S16  1  0.250000  0.257018  0.974586  1
  S  S17  1  0.250000  0.756510  0.524850  1
  S  S18  1  0.750000  0.742950  0.024878  1
  S  S19  1  0.750000  0.241566  0.472754  1
  S  S20  1  0.250000  0.470761  0.383240  1
  S  S21  1  0.250000  0.970197  0.115907  1
  S  S22  1  0.750000  0.533247  0.616120  1
  S  S23  1  0.750000  0.028966  0.883348  1
  S  S24  1  0.250000  0.035728  0.617853  1
  S  S25  1  0.250000  0.534365  0.880934  1
  S  S26  1  0.750000  0.963566  0.382009  1
  S  S27  1  0.750000  0.465339  0.118411  1
