# generated using pymatgen
data_SmYTh6(ReC2)4
_symmetry_space_group_name_H-M   'P 1'
_cell_length_a   5.33839700
_cell_length_b   6.68702927
_cell_length_c   10.05065284
_cell_angle_alpha   90.05051837
_cell_angle_beta   90.00000000
_cell_angle_gamma   90.00000000
_symmetry_Int_Tables_number   1
_chemical_formula_structural   SmYTh6(ReC2)4
_chemical_formula_sum   'Sm1 Y1 Th6 Re4 C8'
_cell_volume   358.78823630
_cell_formula_units_Z   1
loop_
 _symmetry_equiv_pos_site_id
 _symmetry_equiv_pos_as_xyz
  1  'x, y, z'
loop_
 _atom_site_type_symbol
 _atom_site_label
 _atom_site_symmetry_multiplicity
 _atom_site_fract_x
 _atom_site_fract_y
 _atom_site_fract_z
 _atom_site_occupancy
  Sm  Sm0  1  0.250000  0.683679  0.550005  1
  Y  Y1  1  0.750000  0.320080  0.447971  1
  Th  Th2  1  0.750000  0.473881  0.776030  1
  Th  Th3  1  0.250000  0.027024  0.284102  1
  Th  Th4  1  0.750000  0.973516  0.716029  1
  Th  Th5  1  0.250000  0.525424  0.223222  1
  Th  Th6  1  0.750000  0.810151  0.048603  1
  Th  Th7  1  0.250000  0.190321  0.951644  1
  Re  Re8  1  0.750000  0.770818  0.363528  1
  Re  Re9  1  0.250000  0.726262  0.861420  1
  Re  Re10  1  0.250000  0.228764  0.635970  1
  Re  Re11  1  0.750000  0.273416  0.139404  1
  C  C12  1  0.250000  0.964039  0.741684  1
  C  C13  1  0.750000  0.532437  0.244751  1
  C  C14  1  0.250000  0.466412  0.756079  1
  C  C15  1  0.750000  0.037228  0.260230  1
  C  C16  1  0.250000  0.323447  0.449296  1
  C  C17  1  0.750000  0.164973  0.947470  1
  C  C18  1  0.250000  0.834700  0.052809  1
  C  C19  1  0.750000  0.673427  0.549752  1
