# generated using pymatgen
data_Li4TbIn3O8
_symmetry_space_group_name_H-M   'P 1'
_cell_length_a   3.29752800
_cell_length_b   5.26425862
_cell_length_c   10.92175773
_cell_angle_alpha   90.64212371
_cell_angle_beta   90.00000000
_cell_angle_gamma   90.00000000
_symmetry_Int_Tables_number   1
_chemical_formula_structural   Li4TbIn3O8
_chemical_formula_sum   'Li4 Tb1 In3 O8'
_cell_volume   189.57932527
_cell_formula_units_Z   1
loop_
 _symmetry_equiv_pos_site_id
 _symmetry_equiv_pos_as_xyz
  1  'x, y, z'
loop_
 _atom_site_type_symbol
 _atom_site_label
 _atom_site_symmetry_multiplicity
 _atom_site_fract_x
 _atom_site_fract_y
 _atom_site_fract_z
 _atom_site_occupancy
  Li  Li0  1  0.250000  0.106934  0.563148  1
  Li  Li1  1  0.750000  0.901646  0.425685  1
  Li  Li2  1  0.750000  0.597104  0.935043  1
  Li  Li3  1  0.250000  0.402612  0.078706  1
  Tb  Tb4  1  0.250000  0.052619  0.858664  1
  In  In5  1  0.250000  0.453270  0.359920  1
  In  In6  1  0.750000  0.551386  0.635510  1
  In  In7  1  0.750000  0.949776  0.141898  1
  O  O8  1  0.250000  0.320749  0.703368  1
  O  O9  1  0.750000  0.676539  0.288417  1
  O  O10  1  0.750000  0.803072  0.790560  1
  O  O11  1  0.250000  0.174362  0.214525  1
  O  O12  1  0.250000  0.757458  0.030521  1
  O  O13  1  0.750000  0.244624  0.978937  1
  O  O14  1  0.750000  0.262223  0.470698  1
  O  O15  1  0.250000  0.745626  0.524401  1
