# generated using pymatgen
data_Ac2Dy(InPt)3
_symmetry_space_group_name_H-M   'P 1'
_cell_length_a   7.89179537
_cell_length_b   7.85643500
_cell_length_c   4.17379000
_cell_angle_alpha   90.00000000
_cell_angle_beta   90.00000000
_cell_angle_gamma   119.85189658
_symmetry_Int_Tables_number   1
_chemical_formula_structural   Ac2Dy(InPt)3
_chemical_formula_sum   'Ac2 Dy1 In3 Pt3'
_cell_volume   224.44439600
_cell_formula_units_Z   1
loop_
 _symmetry_equiv_pos_site_id
 _symmetry_equiv_pos_as_xyz
  1  'x, y, z'
loop_
 _atom_site_type_symbol
 _atom_site_label
 _atom_site_symmetry_multiplicity
 _atom_site_fract_x
 _atom_site_fract_y
 _atom_site_fract_z
 _atom_site_occupancy
  Ac  Ac0  1  0.588188  0.999810  0.500000  1
  Ac  Ac1  1  0.411812  0.411622  0.500000  1
  Dy  Dy2  1  0.000000  0.593144  0.500000  1
  In  In3  1  0.762980  0.751464  0.000000  1
  In  In4  1  0.000000  0.255004  0.000000  1
  In  In5  1  0.237020  0.988484  0.000000  1
  Pt  Pt6  1  0.315737  0.662249  0.000000  1
  Pt  Pt7  1  0.684263  0.346511  0.000000  1
  Pt  Pt8  1  0.000000  0.991713  0.500000  1
