# generated using pymatgen
data_InRuBr18
_symmetry_space_group_name_H-M   'P 1'
_cell_length_a   9.19069780
_cell_length_b   9.25725795
_cell_length_c   9.09976966
_cell_angle_alpha   87.78171329
_cell_angle_beta   87.76621660
_cell_angle_gamma   88.65461720
_symmetry_Int_Tables_number   1
_chemical_formula_structural   InRuBr18
_chemical_formula_sum   'In1 Ru1 Br18'
_cell_volume   772.85918318
_cell_formula_units_Z   1
loop_
 _symmetry_equiv_pos_site_id
 _symmetry_equiv_pos_as_xyz
  1  'x, y, z'
loop_
 _atom_site_type_symbol
 _atom_site_label
 _atom_site_symmetry_multiplicity
 _atom_site_fract_x
 _atom_site_fract_y
 _atom_site_fract_z
 _atom_site_occupancy
  In  In0  1  0.000000  0.000000  0.000000  1
  Ru  Ru1  1  0.500000  0.500000  0.500000  1
  Br  Br2  1  0.771977  0.485096  0.502659  1
  Br  Br3  1  0.499697  0.770170  0.466257  1
  Br  Br4  1  0.480336  0.512761  0.774039  1
  Br  Br5  1  0.228023  0.514904  0.497341  1
  Br  Br6  1  0.500303  0.229830  0.533743  1
  Br  Br7  1  0.519664  0.487239  0.225961  1
  Br  Br8  1  0.884275  0.379622  0.738388  1
  Br  Br9  1  0.740295  0.885100  0.378720  1
  Br  Br10  1  0.379893  0.747599  0.882251  1
  Br  Br11  1  0.115725  0.620378  0.261612  1
  Br  Br12  1  0.259705  0.114900  0.621280  1
  Br  Br13  1  0.620107  0.252401  0.117749  1
  Br  Br14  1  0.029498  0.969836  0.701801  1
  Br  Br15  1  0.705762  0.027041  0.972699  1
  Br  Br16  1  0.970218  0.706847  0.034482  1
  Br  Br17  1  0.970502  0.030164  0.298199  1
  Br  Br18  1  0.294238  0.972959  0.027301  1
  Br  Br19  1  0.029782  0.293153  0.965518  1
