# generated using pymatgen
data_Nd4CuNiPt2
_symmetry_space_group_name_H-M   'P 1'
_cell_length_a   4.49900000
_cell_length_b   5.71587578
_cell_length_c   7.38997813
_cell_angle_alpha   89.66555843
_cell_angle_beta   90.00000000
_cell_angle_gamma   90.00000000
_symmetry_Int_Tables_number   1
_chemical_formula_structural   Nd4CuNiPt2
_chemical_formula_sum   'Nd4 Cu1 Ni1 Pt2'
_cell_volume   190.03540904
_cell_formula_units_Z   1
loop_
 _symmetry_equiv_pos_site_id
 _symmetry_equiv_pos_as_xyz
  1  'x, y, z'
loop_
 _atom_site_type_symbol
 _atom_site_label
 _atom_site_symmetry_multiplicity
 _atom_site_fract_x
 _atom_site_fract_y
 _atom_site_fract_z
 _atom_site_occupancy
  Nd  Nd0  1  0.000000  0.630980  0.325053  1
  Nd  Nd1  1  0.000000  0.871324  0.812900  1
  Nd  Nd2  1  0.500000  0.363458  0.676961  1
  Nd  Nd3  1  0.500000  0.136005  0.186231  1
  Cu  Cu4  1  0.500000  0.629641  0.037664  1
  Ni  Ni5  1  0.000000  0.135008  0.459048  1
  Pt  Pt6  1  0.000000  0.372078  0.962215  1
  Pt  Pt7  1  0.500000  0.861506  0.539927  1
