# generated using pymatgen
data_DyHo3(Fe2O7)2
_symmetry_space_group_name_H-M   'P 1'
_cell_length_a   7.14126549
_cell_length_b   7.14029865
_cell_length_c   7.14339100
_cell_angle_alpha   59.99742299
_cell_angle_beta   59.98547594
_cell_angle_gamma   59.99807383
_symmetry_Int_Tables_number   1
_chemical_formula_structural   DyHo3(Fe2O7)2
_chemical_formula_sum   'Dy1 Ho3 Fe4 O14'
_cell_volume   257.52447405
_cell_formula_units_Z   1
loop_
 _symmetry_equiv_pos_site_id
 _symmetry_equiv_pos_as_xyz
  1  'x, y, z'
loop_
 _atom_site_type_symbol
 _atom_site_label
 _atom_site_symmetry_multiplicity
 _atom_site_fract_x
 _atom_site_fract_y
 _atom_site_fract_z
 _atom_site_occupancy
  Dy  Dy0  1  0.500005  0.500003  0.999999  1
  Ho  Ho1  1  0.500006  0.000001  0.499996  1
  Ho  Ho2  1  0.000000  0.499987  0.500006  1
  Ho  Ho3  1  0.499989  0.500011  0.499999  1
  Fe  Fe4  1  0.000005  0.500000  0.000000  1
  Fe  Fe5  1  0.499999  0.999995  0.999996  1
  Fe  Fe6  1  0.000003  0.000001  0.500001  1
  Fe  Fe7  1  0.999991  0.000005  0.000005  1
  O  O8  1  0.625605  0.625601  0.623147  1
  O  O9  1  0.374397  0.374401  0.376852  1
  O  O10  1  0.333370  0.917406  0.915807  1
  O  O11  1  0.083713  0.666412  0.666092  1
  O  O12  1  0.917347  0.333481  0.915716  1
  O  O13  1  0.916339  0.916308  0.333823  1
  O  O14  1  0.333401  0.333369  0.915855  1
  O  O15  1  0.333672  0.916250  0.333961  1
  O  O16  1  0.916268  0.333589  0.333908  1
  O  O17  1  0.666607  0.666619  0.084158  1
  O  O18  1  0.083673  0.083678  0.666186  1
  O  O19  1  0.666615  0.082600  0.084188  1
  O  O20  1  0.666335  0.083759  0.666034  1
  O  O21  1  0.082661  0.666528  0.084276  1
