# generated using pymatgen
data_Ho5Er5Os3Ru
_symmetry_space_group_name_H-M   'P 1'
_cell_length_a   6.31617555
_cell_length_b   7.32505172
_cell_length_c   8.38171106
_cell_angle_alpha   96.87635387
_cell_angle_beta   112.23243356
_cell_angle_gamma   90.02588067
_symmetry_Int_Tables_number   1
_chemical_formula_structural   Ho5Er5Os3Ru
_chemical_formula_sum   'Ho5 Er5 Os3 Ru1'
_cell_volume   355.93716519
_cell_formula_units_Z   1
loop_
 _symmetry_equiv_pos_site_id
 _symmetry_equiv_pos_as_xyz
  1  'x, y, z'
loop_
 _atom_site_type_symbol
 _atom_site_label
 _atom_site_symmetry_multiplicity
 _atom_site_fract_x
 _atom_site_fract_y
 _atom_site_fract_z
 _atom_site_occupancy
  Ho  Ho0  1  0.794272  0.583713  0.816478  1
  Ho  Ho1  1  0.975494  0.916388  0.183019  1
  Ho  Ho2  1  0.207995  0.416759  0.186347  1
  Ho  Ho3  1  0.024379  0.084953  0.817489  1
  Ho  Ho4  1  0.203939  0.683450  0.564933  1
  Er  Er5  1  0.640424  0.817126  0.435912  1
  Er  Er6  1  0.794315  0.315916  0.434206  1
  Er  Er7  1  0.360677  0.182007  0.563639  1
  Er  Er8  1  0.421230  0.749777  0.000125  1
  Er  Er9  1  0.579724  0.250219  0.000526  1
  Os  Os10  1  0.603601  0.922490  0.780499  1
  Os  Os11  1  0.821523  0.577715  0.219740  1
  Os  Os12  1  0.396330  0.077612  0.218652  1
  Ru  Ru13  1  0.176098  0.421874  0.778434  1
