# generated using pymatgen
data_Er8Sc3Si16W9
_symmetry_space_group_name_H-M   'P 1'
_cell_length_a   6.94229828
_cell_length_b   6.94229917
_cell_length_c   12.81976031
_cell_angle_alpha   89.98508886
_cell_angle_beta   90.01491428
_cell_angle_gamma   89.92661460
_symmetry_Int_Tables_number   1
_chemical_formula_structural   Er8Sc3Si16W9
_chemical_formula_sum   'Er8 Sc3 Si16 W9'
_cell_volume   617.85435798
_cell_formula_units_Z   1
loop_
 _symmetry_equiv_pos_site_id
 _symmetry_equiv_pos_as_xyz
  1  'x, y, z'
loop_
 _atom_site_type_symbol
 _atom_site_label
 _atom_site_symmetry_multiplicity
 _atom_site_fract_x
 _atom_site_fract_y
 _atom_site_fract_z
 _atom_site_occupancy
  Er  Er0  1  0.337097  0.003321  0.468543  1
  Er  Er1  1  0.496335  0.838689  0.720110  1
  Er  Er2  1  0.500045  0.162595  0.216199  1
  Er  Er3  1  0.838689  0.496335  0.279890  1
  Er  Er4  1  0.162595  0.500045  0.783801  1
  Er  Er5  1  0.658916  0.001005  0.969524  1
  Er  Er6  1  0.003321  0.337097  0.531457  1
  Er  Er7  1  0.001005  0.658916  0.030476  1
  Sc  Sc8  1  0.169541  0.831100  0.248121  1
  Sc  Sc9  1  0.831100  0.169541  0.751879  1
  Sc  Sc10  1  0.667491  0.667491  0.500000  1
  Si  Si11  1  0.204432  0.127929  0.682377  1
  Si  Si12  1  0.374290  0.700937  0.932350  1
  Si  Si13  1  0.627779  0.293503  0.431038  1
  Si  Si14  1  0.700937  0.374290  0.067650  1
  Si  Si15  1  0.293503  0.627779  0.568962  1
  Si  Si16  1  0.795014  0.872686  0.181753  1
  Si  Si17  1  0.127929  0.204432  0.317623  1
  Si  Si18  1  0.872686  0.795014  0.818247  1
  Si  Si19  1  0.289590  0.966342  0.059894  1
  Si  Si20  1  0.540974  0.790538  0.310817  1
  Si  Si21  1  0.456521  0.211800  0.815369  1
  Si  Si22  1  0.790538  0.540974  0.689183  1
  Si  Si23  1  0.211800  0.456521  0.184631  1
  Si  Si24  1  0.707526  0.041796  0.561635  1
  Si  Si25  1  0.966342  0.289590  0.940106  1
  Si  Si26  1  0.041796  0.707526  0.438365  1
  W  W27  1  0.333960  0.333960  0.000000  1
  W  W28  1  0.160902  0.001973  0.873157  1
  W  W29  1  0.496363  0.664481  0.121731  1
  W  W30  1  0.500587  0.338963  0.623840  1
  W  W31  1  0.664481  0.496363  0.878269  1
  W  W32  1  0.338963  0.500587  0.376160  1
  W  W33  1  0.839803  0.995179  0.373872  1
  W  W34  1  0.001973  0.160902  0.126843  1
  W  W35  1  0.995179  0.839803  0.626128  1
