# generated using pymatgen
data_K2YbB18
_symmetry_space_group_name_H-M   'P 1'
_cell_length_a   4.19524000
_cell_length_b   4.19524000
_cell_length_c   12.55372800
_cell_angle_alpha   90.00000000
_cell_angle_beta   90.00000000
_cell_angle_gamma   90.00000000
_symmetry_Int_Tables_number   1
_chemical_formula_structural   K2YbB18
_chemical_formula_sum   'K2 Yb1 B18'
_cell_volume   220.94609810
_cell_formula_units_Z   1
loop_
 _symmetry_equiv_pos_site_id
 _symmetry_equiv_pos_as_xyz
  1  'x, y, z'
loop_
 _atom_site_type_symbol
 _atom_site_label
 _atom_site_symmetry_multiplicity
 _atom_site_fract_x
 _atom_site_fract_y
 _atom_site_fract_z
 _atom_site_occupancy
  K  K0  1  0.000000  0.000000  0.331447  1
  K  K1  1  0.000000  0.000000  0.668553  1
  Yb  Yb2  1  0.000000  0.000000  0.000000  1
  B  B3  1  0.200363  0.500000  0.162848  1
  B  B4  1  0.198792  0.500000  0.500000  1
  B  B5  1  0.200363  0.500000  0.837152  1
  B  B6  1  0.500000  0.500000  0.264262  1
  B  B7  1  0.500000  0.500000  0.601100  1
  B  B8  1  0.500000  0.500000  0.934909  1
  B  B9  1  0.500000  0.200363  0.162848  1
  B  B10  1  0.500000  0.198792  0.500000  1
  B  B11  1  0.500000  0.200363  0.837152  1
  B  B12  1  0.500000  0.500000  0.065091  1
  B  B13  1  0.500000  0.500000  0.398900  1
  B  B14  1  0.500000  0.500000  0.735738  1
  B  B15  1  0.500000  0.799637  0.162848  1
  B  B16  1  0.500000  0.801208  0.500000  1
  B  B17  1  0.500000  0.799637  0.837152  1
  B  B18  1  0.799637  0.500000  0.162848  1
  B  B19  1  0.801208  0.500000  0.500000  1
  B  B20  1  0.799637  0.500000  0.837152  1
