# generated using pymatgen
data_KZn(In4Rh)2
_symmetry_space_group_name_H-M   'P 1'
_cell_length_a   9.01200681
_cell_length_b   9.01200602
_cell_length_c   4.11183500
_cell_angle_alpha   90.00000000
_cell_angle_beta   90.00000000
_cell_angle_gamma   119.38494822
_symmetry_Int_Tables_number   1
_chemical_formula_structural   KZn(In4Rh)2
_chemical_formula_sum   'K1 Zn1 In8 Rh2'
_cell_volume   290.98304348
_cell_formula_units_Z   1
loop_
 _symmetry_equiv_pos_site_id
 _symmetry_equiv_pos_as_xyz
  1  'x, y, z'
loop_
 _atom_site_type_symbol
 _atom_site_label
 _atom_site_symmetry_multiplicity
 _atom_site_fract_x
 _atom_site_fract_y
 _atom_site_fract_z
 _atom_site_occupancy
  K  K0  1  0.000000  0.000000  0.000000  1
  Zn  Zn1  1  0.500000  0.499999  0.000000  1
  In  In2  1  0.500000  0.000000  0.000000  1
  In  In3  1  0.000000  0.499999  0.000000  1
  In  In4  1  0.413668  0.215761  0.499999  1
  In  In5  1  0.794726  0.205274  0.499999  1
  In  In6  1  0.215761  0.413668  0.499999  1
  In  In7  1  0.784239  0.586332  0.499999  1
  In  In8  1  0.205274  0.794726  0.499999  1
  In  In9  1  0.586332  0.784239  0.499999  1
  Rh  Rh10  1  0.663706  0.336293  0.000000  1
  Rh  Rh11  1  0.336293  0.663707  0.000000  1
