# generated using pymatgen
data_Ca2Pr2Os6O19
_symmetry_space_group_name_H-M   'P 1'
_cell_length_a   7.87500580
_cell_length_b   7.94336982
_cell_length_c   7.94337101
_cell_angle_alpha   109.76421492
_cell_angle_beta   109.48582059
_cell_angle_gamma   109.51308175
_symmetry_Int_Tables_number   1
_chemical_formula_structural   Ca2Pr2Os6O19
_chemical_formula_sum   'Ca2 Pr2 Os6 O19'
_cell_volume   380.84569372
_cell_formula_units_Z   1
loop_
 _symmetry_equiv_pos_site_id
 _symmetry_equiv_pos_as_xyz
  1  'x, y, z'
loop_
 _atom_site_type_symbol
 _atom_site_label
 _atom_site_symmetry_multiplicity
 _atom_site_fract_x
 _atom_site_fract_y
 _atom_site_fract_z
 _atom_site_occupancy
  Ca  Ca0  1  0.998563  0.000242  0.289650  1
  Ca  Ca1  1  0.001437  0.291087  0.001679  1
  Pr  Pr2  1  0.695330  0.697229  0.695927  1
  Pr  Pr3  1  0.304670  0.000597  0.001899  1
  Os  Os4  1  0.361069  0.499206  0.864263  1
  Os  Os5  1  0.863957  0.361100  0.499267  1
  Os  Os6  1  0.500000  0.138966  0.638966  1
  Os  Os7  1  0.136043  0.635309  0.497143  1
  Os  Os8  1  0.500000  0.864729  0.364729  1
  Os  Os9  1  0.638931  0.503194  0.138137  1
  O  O10  1  0.322497  0.998854  0.326432  1
  O  O11  1  0.325500  0.324944  0.000781  1
  O  O12  1  0.000000  0.673629  0.673629  1
  O  O13  1  0.674500  0.675281  0.999444  1
  O  O14  1  0.000000  0.324815  0.324815  1
  O  O15  1  0.677503  0.003935  0.676357  1
  O  O16  1  0.000000  0.986936  0.986936  1
  O  O17  1  0.344509  0.284583  0.634463  1
  O  O18  1  0.059872  0.350323  0.717504  1
  O  O19  1  0.709789  0.368647  0.648140  1
  O  O20  1  0.370663  0.656708  0.719117  1
  O  O21  1  0.290211  0.938352  0.658858  1
  O  O22  1  0.629337  0.348453  0.286044  1
  O  O23  1  0.289492  0.631406  0.350525  1
  O  O24  1  0.710508  0.061033  0.341913  1
  O  O25  1  0.940128  0.657631  0.290450  1
  O  O26  1  0.654109  0.716243  0.370720  1
  O  O27  1  0.655491  0.289954  0.940076  1
  O  O28  1  0.345891  0.716612  0.062134  1
