# generated using pymatgen
data_Ho16MgCd(InIr2)2
_symmetry_space_group_name_H-M   'P 1'
_cell_length_a   9.63176261
_cell_length_b   9.63708981
_cell_length_c   9.63708967
_cell_angle_alpha   59.70661747
_cell_angle_beta   59.86908264
_cell_angle_gamma   59.86908219
_symmetry_Int_Tables_number   1
_chemical_formula_structural   Ho16MgCd(InIr2)2
_chemical_formula_sum   'Ho16 Mg1 Cd1 In2 Ir4'
_cell_volume   629.87150622
_cell_formula_units_Z   1
loop_
 _symmetry_equiv_pos_site_id
 _symmetry_equiv_pos_as_xyz
  1  'x, y, z'
loop_
 _atom_site_type_symbol
 _atom_site_label
 _atom_site_symmetry_multiplicity
 _atom_site_fract_x
 _atom_site_fract_y
 _atom_site_fract_z
 _atom_site_occupancy
  Ho  Ho0  1  0.599274  0.598797  0.598797  1
  Ho  Ho1  1  0.598936  0.599171  0.203796  1
  Ho  Ho2  1  0.598936  0.203796  0.599171  1
  Ho  Ho3  1  0.203506  0.598934  0.598934  1
  Ho  Ho4  1  0.057385  0.441824  0.441824  1
  Ho  Ho5  1  0.436288  0.062244  0.062244  1
  Ho  Ho6  1  0.440981  0.058849  0.440614  1
  Ho  Ho7  1  0.060148  0.438253  0.060815  1
  Ho  Ho8  1  0.440981  0.440614  0.058849  1
  Ho  Ho9  1  0.060148  0.060815  0.438253  1
  Ho  Ho10  1  0.189785  0.812338  0.812338  1
  Ho  Ho11  1  0.811087  0.189067  0.189067  1
  Ho  Ho12  1  0.812886  0.188834  0.811815  1
  Ho  Ho13  1  0.190933  0.810567  0.187393  1
  Ho  Ho14  1  0.812886  0.811815  0.188834  1
  Ho  Ho15  1  0.190933  0.187393  0.810567  1
  Mg  Mg16  1  0.827250  0.827802  0.827802  1
  Cd  Cd17  1  0.503749  0.832272  0.832272  1
  In  In18  1  0.831748  0.832713  0.502384  1
  In  In19  1  0.831748  0.502384  0.832713  1
  Ir  Ir20  1  0.391875  0.391803  0.391803  1
  Ir  Ir21  1  0.391552  0.392157  0.825697  1
  Ir  Ir22  1  0.391552  0.825697  0.392157  1
  Ir  Ir23  1  0.825430  0.391860  0.391860  1
