# generated using pymatgen
data_La8Pr6IrPt5
_symmetry_space_group_name_H-M   'P 1'
_cell_length_a   6.56725076
_cell_length_b   10.30076502
_cell_length_c   10.30076409
_cell_angle_alpha   119.95625554
_cell_angle_beta   89.82737969
_cell_angle_gamma   90.17261436
_symmetry_Int_Tables_number   1
_chemical_formula_structural   La8Pr6IrPt5
_chemical_formula_sum   'La8 Pr6 Ir1 Pt5'
_cell_volume   603.72865646
_cell_formula_units_Z   1
loop_
 _symmetry_equiv_pos_site_id
 _symmetry_equiv_pos_as_xyz
  1  'x, y, z'
loop_
 _atom_site_type_symbol
 _atom_site_label
 _atom_site_symmetry_multiplicity
 _atom_site_fract_x
 _atom_site_fract_y
 _atom_site_fract_z
 _atom_site_occupancy
  La  La0  1  0.459079  0.333258  0.666742  1
  La  La1  1  0.965393  0.668581  0.331419  1
  La  La2  1  0.242584  0.128081  0.871919  1
  La  La3  1  0.242023  0.746900  0.878210  1
  La  La4  1  0.242023  0.121790  0.253100  1
  La  La5  1  0.748188  0.871855  0.128145  1
  La  La6  1  0.743128  0.255720  0.127448  1
  La  La7  1  0.743128  0.872552  0.744280  1
  Pr  Pr8  1  0.443814  0.536985  0.463015  1
  Pr  Pr9  1  0.441251  0.922271  0.458412  1
  Pr  Pr10  1  0.441251  0.541588  0.077729  1
  Pr  Pr11  1  0.943852  0.463258  0.536742  1
  Pr  Pr12  1  0.942748  0.074736  0.536280  1
  Pr  Pr13  1  0.942748  0.463720  0.925264  1
  Ir  Ir14  1  0.189187  0.811333  0.188667  1
  Pt  Pt15  1  0.191065  0.375925  0.188997  1
  Pt  Pt16  1  0.191065  0.811003  0.624075  1
  Pt  Pt17  1  0.691589  0.188655  0.811345  1
  Pt  Pt18  1  0.690941  0.622579  0.810791  1
  Pt  Pt19  1  0.690941  0.189209  0.377421  1
