# generated using pymatgen
data_YbEr3Al18ZnIr5
_symmetry_space_group_name_H-M   'P 1'
_cell_length_a   7.57343519
_cell_length_b   7.57742230
_cell_length_c   9.45126420
_cell_angle_alpha   89.99628183
_cell_angle_beta   90.01290571
_cell_angle_gamma   119.51666450
_symmetry_Int_Tables_number   1
_chemical_formula_structural   YbEr3Al18ZnIr5
_chemical_formula_sum   'Yb1 Er3 Al18 Zn1 Ir5'
_cell_volume   471.98650654
_cell_formula_units_Z   1
loop_
 _symmetry_equiv_pos_site_id
 _symmetry_equiv_pos_as_xyz
  1  'x, y, z'
loop_
 _atom_site_type_symbol
 _atom_site_label
 _atom_site_symmetry_multiplicity
 _atom_site_fract_x
 _atom_site_fract_y
 _atom_site_fract_z
 _atom_site_occupancy
  Yb  Yb0  1  0.325515  0.004413  0.749551  1
  Er  Er1  1  0.997374  0.675154  0.250170  1
  Er  Er2  1  0.003747  0.325452  0.749629  1
  Er  Er3  1  0.673749  0.995826  0.250165  1
  Al  Al4  1  0.134046  0.133598  0.255484  1
  Al  Al5  1  0.863391  0.865368  0.743970  1
  Al  Al6  1  0.001617  0.343648  0.080035  1
  Al  Al7  1  0.998888  0.655760  0.920238  1
  Al  Al8  1  0.001508  0.665444  0.573446  1
  Al  Al9  1  0.335586  0.999942  0.428597  1
  Al  Al10  1  0.999590  0.335464  0.426790  1
  Al  Al11  1  0.663694  0.000540  0.572613  1
  Al  Al12  1  0.655154  0.998531  0.920424  1
  Al  Al13  1  0.343696  0.002247  0.078739  1
  Al  Al14  1  0.332370  0.332020  0.552193  1
  Al  Al15  1  0.667338  0.666947  0.448174  1
  Al  Al16  1  0.659029  0.658951  0.059099  1
  Al  Al17  1  0.342232  0.342223  0.941124  1
  Al  Al18  1  0.339239  0.550129  0.251166  1
  Al  Al19  1  0.662150  0.449746  0.748808  1
  Al  Al20  1  0.550904  0.338954  0.251424  1
  Al  Al21  1  0.447799  0.658103  0.748714  1
  Zn  Zn22  1  0.999751  0.999963  0.000220  1
  Ir  Ir23  1  0.672811  0.328979  0.001338  1
  Ir  Ir24  1  0.328836  0.672072  0.001530  1
  Ir  Ir25  1  0.328574  0.671063  0.498376  1
  Ir  Ir26  1  0.673033  0.329505  0.499102  1
  Ir  Ir27  1  0.998378  0.999955  0.498880  1
