# generated using pymatgen
data_SmLu19HgBi11
_symmetry_space_group_name_H-M   'P 1'
_cell_length_a   8.10619945
_cell_length_b   9.38957000
_cell_length_c   11.79014500
_cell_angle_alpha   90.00000000
_cell_angle_beta   89.69026538
_cell_angle_gamma   90.00000000
_symmetry_Int_Tables_number   1
_chemical_formula_structural   SmLu19HgBi11
_chemical_formula_sum   'Sm1 Lu19 Hg1 Bi11'
_cell_volume   897.37876689
_cell_formula_units_Z   1
loop_
 _symmetry_equiv_pos_site_id
 _symmetry_equiv_pos_as_xyz
  1  'x, y, z'
loop_
 _atom_site_type_symbol
 _atom_site_label
 _atom_site_symmetry_multiplicity
 _atom_site_fract_x
 _atom_site_fract_y
 _atom_site_fract_z
 _atom_site_occupancy
  Sm  Sm0  1  0.313684  0.750000  0.281712  1
  Lu  Lu1  1  0.033147  0.250000  0.508821  1
  Lu  Lu2  1  0.980802  0.750000  0.491262  1
  Lu  Lu3  1  0.477360  0.750000  0.009900  1
  Lu  Lu4  1  0.524079  0.250000  0.989544  1
  Lu  Lu5  1  0.351571  0.250000  0.289581  1
  Lu  Lu6  1  0.651156  0.750000  0.719757  1
  Lu  Lu7  1  0.149739  0.750000  0.782030  1
  Lu  Lu8  1  0.851268  0.250000  0.215029  1
  Lu  Lu9  1  0.194931  0.250000  0.780000  1
  Lu  Lu10  1  0.808268  0.750000  0.215995  1
  Lu  Lu11  1  0.679618  0.250000  0.711389  1
  Lu  Lu12  1  0.192505  0.067475  0.060272  1
  Lu  Lu13  1  0.807410  0.932698  0.940773  1
  Lu  Lu14  1  0.308303  0.945577  0.559941  1
  Lu  Lu15  1  0.807410  0.567302  0.940773  1
  Lu  Lu16  1  0.686014  0.071338  0.443862  1
  Lu  Lu17  1  0.192505  0.432525  0.060272  1
  Lu  Lu18  1  0.686014  0.428662  0.443862  1
  Lu  Lu19  1  0.308303  0.554423  0.559941  1
  Hg  Hg20  1  0.403444  0.250000  0.540538  1
  Bi  Bi21  1  0.600585  0.750000  0.461253  1
  Bi  Bi22  1  0.095549  0.750000  0.041921  1
  Bi  Bi23  1  0.903681  0.250000  0.952888  1
  Bi  Bi24  1  0.055769  0.003962  0.322970  1
  Bi  Bi25  1  0.937772  0.998271  0.676855  1
  Bi  Bi26  1  0.437141  0.996199  0.825659  1
  Bi  Bi27  1  0.937772  0.501729  0.676855  1
  Bi  Bi28  1  0.565646  0.006109  0.173860  1
  Bi  Bi29  1  0.055769  0.496038  0.322970  1
  Bi  Bi30  1  0.565646  0.493891  0.173860  1
  Bi  Bi31  1  0.437141  0.503801  0.825659  1
