# generated using pymatgen
data_La8Y12AgSn15
_symmetry_space_group_name_H-M   'P 1'
_cell_length_a   8.09698800
_cell_length_b   8.37264636
_cell_length_c   15.70133000
_cell_angle_alpha   90.00000000
_cell_angle_beta   90.00000000
_cell_angle_gamma   90.19067272
_symmetry_Int_Tables_number   1
_chemical_formula_structural   La8Y12AgSn15
_chemical_formula_sum   'La8 Y12 Ag1 Sn15'
_cell_volume   1064.43777962
_cell_formula_units_Z   1
loop_
 _symmetry_equiv_pos_site_id
 _symmetry_equiv_pos_as_xyz
  1  'x, y, z'
loop_
 _atom_site_type_symbol
 _atom_site_label
 _atom_site_symmetry_multiplicity
 _atom_site_fract_x
 _atom_site_fract_y
 _atom_site_fract_z
 _atom_site_occupancy
  La  La0  1  0.509143  0.312493  0.908887  1
  La  La1  1  0.010472  0.180301  0.597216  1
  La  La2  1  0.489923  0.679225  0.403597  1
  La  La3  1  0.987312  0.821866  0.096795  1
  La  La4  1  0.489923  0.679225  0.096403  1
  La  La5  1  0.987312  0.821866  0.403205  1
  La  La6  1  0.509143  0.312493  0.591113  1
  La  La7  1  0.010472  0.180301  0.902784  1
  Y  Y8  1  0.355001  0.837248  0.876829  1
  Y  Y9  1  0.850666  0.663694  0.623808  1
  Y  Y10  1  0.646550  0.162594  0.376595  1
  Y  Y11  1  0.147194  0.336668  0.124297  1
  Y  Y12  1  0.646550  0.162594  0.123405  1
  Y  Y13  1  0.147194  0.336668  0.375703  1
  Y  Y14  1  0.355001  0.837248  0.623171  1
  Y  Y15  1  0.850666  0.663694  0.876192  1
  Y  Y16  1  0.195768  0.507396  0.750000  1
  Y  Y17  1  0.687714  0.999492  0.750000  1
  Y  Y18  1  0.811851  0.499367  0.250000  1
  Y  Y19  1  0.310933  0.999871  0.250000  1
  Ag  Ag20  1  0.556279  0.623553  0.750000  1
  Sn  Sn21  1  0.305517  0.040935  0.042100  1
  Sn  Sn22  1  0.812807  0.458307  0.458766  1
  Sn  Sn23  1  0.693692  0.958555  0.542904  1
  Sn  Sn24  1  0.192930  0.539425  0.955964  1
  Sn  Sn25  1  0.693692  0.958555  0.957096  1
  Sn  Sn26  1  0.192930  0.539425  0.544036  1
  Sn  Sn27  1  0.305517  0.040935  0.457900  1
  Sn  Sn28  1  0.812807  0.458307  0.041234  1
  Sn  Sn29  1  0.053488  0.878165  0.750000  1
  Sn  Sn30  1  0.449613  0.374821  0.250000  1
  Sn  Sn31  1  0.947311  0.124573  0.250000  1
  Sn  Sn32  1  0.316605  0.142403  0.750000  1
  Sn  Sn33  1  0.806294  0.366754  0.750000  1
  Sn  Sn34  1  0.680193  0.858505  0.250000  1
  Sn  Sn35  1  0.181538  0.642474  0.250000  1
