# generated using pymatgen
data_Rb2Cu(TeO4)3
_symmetry_space_group_name_H-M   'P 1'
_cell_length_a   7.16237439
_cell_length_b   7.16237463
_cell_length_c   7.16237536
_cell_angle_alpha   61.23206337
_cell_angle_beta   61.23206278
_cell_angle_gamma   61.23205851
_symmetry_Int_Tables_number   1
_chemical_formula_structural   Rb2Cu(TeO4)3
_chemical_formula_sum   'Rb2 Cu1 Te3 O12'
_cell_volume   267.00901216
_cell_formula_units_Z   1
loop_
 _symmetry_equiv_pos_site_id
 _symmetry_equiv_pos_as_xyz
  1  'x, y, z'
loop_
 _atom_site_type_symbol
 _atom_site_label
 _atom_site_symmetry_multiplicity
 _atom_site_fract_x
 _atom_site_fract_y
 _atom_site_fract_z
 _atom_site_occupancy
  Rb  Rb0  1  0.372072  0.372072  0.372072  1
  Rb  Rb1  1  0.627928  0.627928  0.627928  1
  Cu  Cu2  1  0.000000  0.000000  0.000000  1
  Te  Te3  1  0.500000  0.000000  0.000000  1
  Te  Te4  1  0.000000  0.000000  0.500000  1
  Te  Te5  1  0.000000  0.500000  0.000000  1
  O  O6  1  0.930971  0.326848  0.326848  1
  O  O7  1  0.322628  0.928179  0.928179  1
  O  O8  1  0.326848  0.326848  0.930971  1
  O  O9  1  0.928179  0.928179  0.322628  1
  O  O10  1  0.928179  0.322628  0.928179  1
  O  O11  1  0.326848  0.930971  0.326848  1
  O  O12  1  0.069029  0.673152  0.673152  1
  O  O13  1  0.677372  0.071821  0.071821  1
  O  O14  1  0.673152  0.673152  0.069029  1
  O  O15  1  0.071821  0.071821  0.677372  1
  O  O16  1  0.071821  0.677372  0.071821  1
  O  O17  1  0.673152  0.069029  0.673152  1
