# generated using pymatgen
data_Hf3AlGa2Pd3
_symmetry_space_group_name_H-M   'P 1'
_cell_length_a   7.19713785
_cell_length_b   7.24402863
_cell_length_c   6.98288132
_cell_angle_alpha   89.99999814
_cell_angle_beta   90.25256630
_cell_angle_gamma   120.21575196
_symmetry_Int_Tables_number   1
_chemical_formula_structural   Hf3AlGa2Pd3
_chemical_formula_sum   'Hf6 Al2 Ga4 Pd6'
_cell_volume   314.59464634
_cell_formula_units_Z   2
loop_
 _symmetry_equiv_pos_site_id
 _symmetry_equiv_pos_as_xyz
  1  'x, y, z'
loop_
 _atom_site_type_symbol
 _atom_site_label
 _atom_site_symmetry_multiplicity
 _atom_site_fract_x
 _atom_site_fract_y
 _atom_site_fract_z
 _atom_site_occupancy
  Hf  Hf0  1  0.611912  0.590590  0.250302  1
  Hf  Hf1  1  0.019586  0.410796  0.749960  1
  Hf  Hf2  1  0.408796  0.019799  0.249769  1
  Hf  Hf3  1  0.980414  0.391210  0.250040  1
  Hf  Hf4  1  0.388088  0.978678  0.749698  1
  Hf  Hf5  1  0.591204  0.611002  0.750231  1
  Al  Al6  1  0.249119  0.254032  0.499770  1
  Al  Al7  1  0.750881  0.004913  0.500230  1
  Ga  Ga8  1  0.000000  0.739015  0.500000  1
  Ga  Ga9  1  0.725336  0.001783  0.999894  1
  Ga  Ga10  1  0.274664  0.276447  0.000106  1
  Ga  Ga11  1  0.000000  0.725026  0.000000  1
  Pd  Pd12  1  0.339605  0.667994  0.471552  1
  Pd  Pd13  1  0.999911  0.999953  0.763391  1
  Pd  Pd14  1  0.000089  0.000042  0.236609  1
  Pd  Pd15  1  0.333516  0.666924  0.031256  1
  Pd  Pd16  1  0.660395  0.328388  0.528448  1
  Pd  Pd17  1  0.666484  0.333407  0.968744  1
