# generated using pymatgen
data_Sc5Ta3(Ni4P3)4
_symmetry_space_group_name_H-M   'P 1'
_cell_length_a   12.09981900
_cell_length_b   12.09981820
_cell_length_c   3.63928700
_cell_angle_alpha   90.00000000
_cell_angle_beta   90.00000000
_cell_angle_gamma   119.99999945
_symmetry_Int_Tables_number   1
_chemical_formula_structural   Sc5Ta3(Ni4P3)4
_chemical_formula_sum   'Sc5 Ta3 Ni16 P12'
_cell_volume   461.42875921
_cell_formula_units_Z   1
loop_
 _symmetry_equiv_pos_site_id
 _symmetry_equiv_pos_as_xyz
  1  'x, y, z'
loop_
 _atom_site_type_symbol
 _atom_site_label
 _atom_site_symmetry_multiplicity
 _atom_site_fract_x
 _atom_site_fract_y
 _atom_site_fract_z
 _atom_site_occupancy
  Sc  Sc0  1  0.818907  0.000000  0.500000  1
  Sc  Sc1  1  0.000000  0.818907  0.500000  1
  Sc  Sc2  1  0.181093  0.181093  0.500000  1
  Sc  Sc3  1  0.333333  0.666667  0.000000  1
  Sc  Sc4  1  0.666667  0.333333  0.000000  1
  Ta  Ta5  1  0.444257  0.000000  0.000000  1
  Ta  Ta6  1  0.000000  0.444257  0.000000  1
  Ta  Ta7  1  0.555743  0.555743  0.000000  1
  Ni  Ni8  1  0.276733  0.000000  0.500000  1
  Ni  Ni9  1  0.000000  0.276733  0.500000  1
  Ni  Ni10  1  0.723267  0.723267  0.500000  1
  Ni  Ni11  1  0.628082  0.808788  0.000000  1
  Ni  Ni12  1  0.191212  0.819294  0.000000  1
  Ni  Ni13  1  0.180706  0.371918  0.000000  1
  Ni  Ni14  1  0.371918  0.180706  0.000000  1
  Ni  Ni15  1  0.808788  0.628082  0.000000  1
  Ni  Ni16  1  0.819294  0.191212  0.000000  1
  Ni  Ni17  1  0.517603  0.873063  0.500000  1
  Ni  Ni18  1  0.126937  0.644539  0.500000  1
  Ni  Ni19  1  0.355461  0.482397  0.500000  1
  Ni  Ni20  1  0.482397  0.355461  0.500000  1
  Ni  Ni21  1  0.873063  0.517603  0.500000  1
  Ni  Ni22  1  0.644539  0.126937  0.500000  1
  Ni  Ni23  1  0.000000  0.000000  0.000000  1
  P  P24  1  0.174527  0.000000  0.000000  1
  P  P25  1  0.000000  0.174527  0.000000  1
  P  P26  1  0.825473  0.825473  0.000000  1
  P  P27  1  0.516810  0.686182  0.500000  1
  P  P28  1  0.313818  0.830628  0.500000  1
  P  P29  1  0.169372  0.483190  0.500000  1
  P  P30  1  0.483190  0.169372  0.500000  1
  P  P31  1  0.686182  0.516810  0.500000  1
  P  P32  1  0.830628  0.313818  0.500000  1
  P  P33  1  0.646036  0.000000  0.000000  1
  P  P34  1  0.000000  0.646036  0.000000  1
  P  P35  1  0.353964  0.353964  0.000000  1
