# generated using pymatgen
data_Nd7PaGaPd24
_symmetry_space_group_name_H-M   'P 1'
_cell_length_a   8.48920023
_cell_length_b   8.48920023
_cell_length_c   8.48920023
_cell_angle_alpha   90.14313292
_cell_angle_beta   90.14313292
_cell_angle_gamma   89.85686708
_symmetry_Int_Tables_number   1
_chemical_formula_structural   Nd7PaGaPd24
_chemical_formula_sum   'Nd7 Pa1 Ga1 Pd24'
_cell_volume   611.78140493
_cell_formula_units_Z   1
loop_
 _symmetry_equiv_pos_site_id
 _symmetry_equiv_pos_as_xyz
  1  'x, y, z'
loop_
 _atom_site_type_symbol
 _atom_site_label
 _atom_site_symmetry_multiplicity
 _atom_site_fract_x
 _atom_site_fract_y
 _atom_site_fract_z
 _atom_site_occupancy
  Nd  Nd0  1  0.251529  0.747932  0.252068  1
  Nd  Nd1  1  0.747932  0.251529  0.252068  1
  Nd  Nd2  1  0.747932  0.747932  0.748471  1
  Nd  Nd3  1  0.748106  0.748106  0.251894  1
  Nd  Nd4  1  0.750382  0.251624  0.748376  1
  Nd  Nd5  1  0.251624  0.750382  0.748376  1
  Nd  Nd6  1  0.251624  0.251624  0.249618  1
  Pa  Pa7  1  0.252293  0.252293  0.747707  1
  Ga  Ga8  1  0.998653  0.998653  0.001347  1
  Pd  Pd9  1  0.495779  0.495779  0.746631  1
  Pd  Pd10  1  0.495779  0.253369  0.504221  1
  Pd  Pd11  1  0.253369  0.495779  0.504221  1
  Pd  Pd12  1  0.499188  0.499188  0.252765  1
  Pd  Pd13  1  0.499188  0.747235  0.500812  1
  Pd  Pd14  1  0.747235  0.499188  0.500812  1
  Pd  Pd15  1  0.003715  0.003715  0.708448  1
  Pd  Pd16  1  0.003715  0.291552  0.996285  1
  Pd  Pd17  1  0.291552  0.003715  0.996285  1
  Pd  Pd18  1  0.000183  0.000183  0.294264  1
  Pd  Pd19  1  0.000183  0.705736  0.999817  1
  Pd  Pd20  1  0.705736  0.000183  0.999817  1
  Pd  Pd21  1  0.006750  0.496308  0.739644  1
  Pd  Pd22  1  0.496308  0.260356  0.993250  1
  Pd  Pd23  1  0.260356  0.006750  0.503692  1
  Pd  Pd24  1  0.006750  0.260356  0.503692  1
  Pd  Pd25  1  0.496308  0.006750  0.739644  1
  Pd  Pd26  1  0.260356  0.496308  0.993250  1
  Pd  Pd27  1  0.000183  0.498782  0.260228  1
  Pd  Pd28  1  0.498782  0.739772  0.999817  1
  Pd  Pd29  1  0.000183  0.739772  0.501218  1
  Pd  Pd30  1  0.498782  0.000183  0.260228  1
  Pd  Pd31  1  0.739772  0.000183  0.501218  1
  Pd  Pd32  1  0.739772  0.498782  0.999817  1
