# generated using pymatgen
data_PrNd3Cd2Si3Ge
_symmetry_space_group_name_H-M   'P 1'
_cell_length_a   7.42217797
_cell_length_b   7.42217930
_cell_length_c   4.37425700
_cell_angle_alpha   90.00000000
_cell_angle_beta   90.00000000
_cell_angle_gamma   90.03804190
_symmetry_Int_Tables_number   1
_chemical_formula_structural   PrNd3Cd2Si3Ge
_chemical_formula_sum   'Pr1 Nd3 Cd2 Si3 Ge1'
_cell_volume   240.97223466
_cell_formula_units_Z   1
loop_
 _symmetry_equiv_pos_site_id
 _symmetry_equiv_pos_as_xyz
  1  'x, y, z'
loop_
 _atom_site_type_symbol
 _atom_site_label
 _atom_site_symmetry_multiplicity
 _atom_site_fract_x
 _atom_site_fract_y
 _atom_site_fract_z
 _atom_site_occupancy
  Pr  Pr0  1  0.681814  0.179700  0.500000  1
  Nd  Nd1  1  0.320203  0.818036  0.500000  1
  Nd  Nd2  1  0.178217  0.321945  0.500000  1
  Nd  Nd3  1  0.820908  0.679232  0.500000  1
  Cd  Cd4  1  0.501066  0.503198  0.000000  1
  Cd  Cd5  1  0.997647  0.998506  0.000000  1
  Si  Si6  1  0.114529  0.614688  0.000000  1
  Si  Si7  1  0.886169  0.386335  0.000000  1
  Si  Si8  1  0.617090  0.881834  0.000000  1
  Ge  Ge9  1  0.382357  0.116525  0.000000  1
