# generated using pymatgen
data_YbSm4Tm3(B6Ru)4
_symmetry_space_group_name_H-M   'P 1'
_cell_length_a   3.68152000
_cell_length_b   9.14983700
_cell_length_c   11.56028700
_cell_angle_alpha   89.99833451
_cell_angle_beta   90.00000000
_cell_angle_gamma   90.00000000
_symmetry_Int_Tables_number   1
_chemical_formula_structural   YbSm4Tm3(B6Ru)4
_chemical_formula_sum   'Yb1 Sm4 Tm3 B24 Ru4'
_cell_volume   389.41182707
_cell_formula_units_Z   1
loop_
 _symmetry_equiv_pos_site_id
 _symmetry_equiv_pos_as_xyz
  1  'x, y, z'
loop_
 _atom_site_type_symbol
 _atom_site_label
 _atom_site_symmetry_multiplicity
 _atom_site_fract_x
 _atom_site_fract_y
 _atom_site_fract_z
 _atom_site_occupancy
  Yb  Yb0  1  0.000000  0.943503  0.370910  1
  Sm  Sm1  1  0.000000  0.322114  0.413538  1
  Sm  Sm2  1  0.000000  0.677946  0.584113  1
  Sm  Sm3  1  0.000000  0.823231  0.087300  1
  Sm  Sm4  1  0.000000  0.177308  0.915286  1
  Tm  Tm5  1  0.000000  0.055888  0.627550  1
  Tm  Tm6  1  0.000000  0.443764  0.128565  1
  Tm  Tm7  1  0.000000  0.556384  0.871688  1
  B  B8  1  0.500000  0.555376  0.430966  1
  B  B9  1  0.500000  0.444228  0.568752  1
  B  B10  1  0.500000  0.055516  0.069118  1
  B  B11  1  0.500000  0.944568  0.931323  1
  B  B12  1  0.500000  0.749733  0.417496  1
  B  B13  1  0.500000  0.249665  0.581747  1
  B  B14  1  0.500000  0.250102  0.082058  1
  B  B15  1  0.500000  0.749989  0.918139  1
  B  B16  1  0.500000  0.790922  0.266720  1
  B  B17  1  0.500000  0.208638  0.733573  1
  B  B18  1  0.500000  0.290737  0.233444  1
  B  B19  1  0.500000  0.708999  0.766232  1
  B  B20  1  0.500000  0.630532  0.185317  1
  B  B21  1  0.500000  0.369532  0.815271  1
  B  B22  1  0.500000  0.130197  0.314822  1
  B  B23  1  0.500000  0.869377  0.684281  1
  B  B24  1  0.500000  0.985029  0.213737  1
  B  B25  1  0.500000  0.015452  0.786129  1
  B  B26  1  0.500000  0.484251  0.286431  1
  B  B27  1  0.500000  0.515608  0.713707  1
  B  B28  1  0.500000  0.603104  0.028085  1
  B  B29  1  0.500000  0.397054  0.971794  1
  B  B30  1  0.500000  0.103009  0.472660  1
  B  B31  1  0.500000  0.897650  0.528777  1
  Ru  Ru32  1  0.000000  0.638694  0.319232  1
  Ru  Ru33  1  0.000000  0.360852  0.681167  1
  Ru  Ru34  1  0.000000  0.140071  0.179938  1
  Ru  Ru35  1  0.000000  0.860977  0.820136  1
