# generated using pymatgen
data_Be3B3W10
_symmetry_space_group_name_H-M   'P 1'
_cell_length_a   6.97253703
_cell_length_b   6.97844235
_cell_length_c   6.01372264
_cell_angle_alpha   64.41434010
_cell_angle_beta   64.51585685
_cell_angle_gamma   51.06981265
_symmetry_Int_Tables_number   1
_chemical_formula_structural   Be3B3W10
_chemical_formula_sum   'Be3 B3 W10'
_cell_volume   199.97200867
_cell_formula_units_Z   1
loop_
 _symmetry_equiv_pos_site_id
 _symmetry_equiv_pos_as_xyz
  1  'x, y, z'
loop_
 _atom_site_type_symbol
 _atom_site_label
 _atom_site_symmetry_multiplicity
 _atom_site_fract_x
 _atom_site_fract_y
 _atom_site_fract_z
 _atom_site_occupancy
  Be  Be0  1  0.620111  0.379889  0.620111  1
  Be  Be1  1  0.248843  0.251157  0.248843  1
  Be  Be2  1  0.748843  0.751157  0.748843  1
  B  B3  1  0.877053  0.122947  0.123812  1
  B  B4  1  0.123812  0.876188  0.877053  1
  B  B5  1  0.379100  0.620900  0.379100  1
  W  W6  1  0.520944  0.188110  0.477024  1
  W  W7  1  0.186078  0.522976  0.811890  1
  W  W8  1  0.021772  0.689596  0.310404  1
  W  W9  1  0.691292  0.018867  0.981133  1
  W  W10  1  0.477024  0.813922  0.520944  1
  W  W11  1  0.811890  0.479056  0.186078  1
  W  W12  1  0.981133  0.308708  0.691292  1
  W  W13  1  0.310404  0.978228  0.021772  1
  W  W14  1  0.499428  0.500572  0.002274  1
  W  W15  1  0.002274  0.997726  0.499428  1
