# generated using pymatgen
data_Pr2C2S
_symmetry_space_group_name_H-M   'P 1'
_cell_length_a   7.25901103
_cell_length_b   7.25901072
_cell_length_c   7.00476417
_cell_angle_alpha   77.86536720
_cell_angle_beta   77.86536911
_cell_angle_gamma   33.70973907
_symmetry_Int_Tables_number   1
_chemical_formula_structural   Pr2C2S
_chemical_formula_sum   'Pr4 C4 S2'
_cell_volume   199.84493269
_cell_formula_units_Z   2
loop_
 _symmetry_equiv_pos_site_id
 _symmetry_equiv_pos_as_xyz
  1  'x, y, z'
loop_
 _atom_site_type_symbol
 _atom_site_label
 _atom_site_symmetry_multiplicity
 _atom_site_fract_x
 _atom_site_fract_y
 _atom_site_fract_z
 _atom_site_occupancy
  Pr  Pr0  1  0.562912  0.166335  0.139904  1
  Pr  Pr1  1  0.166335  0.562912  0.639904  1
  Pr  Pr2  1  0.437088  0.833665  0.860096  1
  Pr  Pr3  1  0.833665  0.437088  0.360096  1
  C  C4  1  0.360732  0.089948  0.469472  1
  C  C5  1  0.910052  0.639268  0.030528  1
  C  C6  1  0.639268  0.910052  0.530528  1
  C  C7  1  0.089948  0.360732  0.969472  1
  S  S8  1  0.790043  0.209957  0.750000  1
  S  S9  1  0.209957  0.790043  0.250000  1
