# generated using pymatgen
data_Sc2AlFe3
_symmetry_space_group_name_H-M   'P 1'
_cell_length_a   5.02547706
_cell_length_b   5.02636958
_cell_length_c   8.12571500
_cell_angle_alpha   90.00000000
_cell_angle_beta   90.00000000
_cell_angle_gamma   59.99411727
_symmetry_Int_Tables_number   1
_chemical_formula_structural   Sc2AlFe3
_chemical_formula_sum   'Sc4 Al2 Fe6'
_cell_volume   177.74532361
_cell_formula_units_Z   2
loop_
 _symmetry_equiv_pos_site_id
 _symmetry_equiv_pos_as_xyz
  1  'x, y, z'
loop_
 _atom_site_type_symbol
 _atom_site_label
 _atom_site_symmetry_multiplicity
 _atom_site_fract_x
 _atom_site_fract_y
 _atom_site_fract_z
 _atom_site_occupancy
  Sc  Sc0  1  0.333312  0.333344  0.564773  1
  Sc  Sc1  1  0.666688  0.666656  0.435227  1
  Sc  Sc2  1  0.666688  0.666656  0.064773  1
  Sc  Sc3  1  0.333312  0.333344  0.935227  1
  Al  Al4  1  0.000000  0.000000  0.500000  1
  Al  Al5  1  0.000000  0.000000  0.000000  1
  Fe  Fe6  1  0.826676  0.346700  0.750000  1
  Fe  Fe7  1  0.346688  0.826656  0.750000  1
  Fe  Fe8  1  0.826676  0.826624  0.750000  1
  Fe  Fe9  1  0.173324  0.653300  0.250000  1
  Fe  Fe10  1  0.653312  0.173344  0.250000  1
  Fe  Fe11  1  0.173324  0.173376  0.250000  1
