# generated using pymatgen
data_Ba3DyErS6
_symmetry_space_group_name_H-M   'P 1'
_cell_length_a   8.51926751
_cell_length_b   8.51926673
_cell_length_c   8.51926700
_cell_angle_alpha   92.79113731
_cell_angle_beta   92.79113032
_cell_angle_gamma   92.79113864
_symmetry_Int_Tables_number   1
_chemical_formula_structural   Ba3DyErS6
_chemical_formula_sum   'Ba6 Dy2 Er2 S12'
_cell_volume   616.03580212
_cell_formula_units_Z   2
loop_
 _symmetry_equiv_pos_site_id
 _symmetry_equiv_pos_as_xyz
  1  'x, y, z'
loop_
 _atom_site_type_symbol
 _atom_site_label
 _atom_site_symmetry_multiplicity
 _atom_site_fract_x
 _atom_site_fract_y
 _atom_site_fract_z
 _atom_site_occupancy
  Ba  Ba0  1  0.371541  0.750000  0.128459  1
  Ba  Ba1  1  0.128459  0.371541  0.750000  1
  Ba  Ba2  1  0.750000  0.128459  0.371541  1
  Ba  Ba3  1  0.628459  0.250000  0.871541  1
  Ba  Ba4  1  0.871541  0.628459  0.250000  1
  Ba  Ba5  1  0.250000  0.871541  0.628459  1
  Dy  Dy6  1  0.250000  0.250000  0.250000  1
  Dy  Dy7  1  0.750000  0.750000  0.750000  1
  Er  Er8  1  0.500000  0.500000  0.500000  1
  Er  Er9  1  0.000000  0.000000  0.000000  1
  S  S10  1  0.537068  0.406341  0.198488  1
  S  S11  1  0.198488  0.537068  0.406341  1
  S  S12  1  0.406341  0.198488  0.537068  1
  S  S13  1  0.962932  0.301512  0.093659  1
  S  S14  1  0.093659  0.962932  0.301512  1
  S  S15  1  0.301512  0.093659  0.962932  1
  S  S16  1  0.462932  0.593659  0.801512  1
  S  S17  1  0.801512  0.462932  0.593659  1
  S  S18  1  0.593659  0.801512  0.462932  1
  S  S19  1  0.037068  0.698488  0.906341  1
  S  S20  1  0.698488  0.906341  0.037068  1
  S  S21  1  0.906341  0.037068  0.698488  1
