# generated using pymatgen
data_P4RhSeO14
_symmetry_space_group_name_H-M   'P 1'
_cell_length_a   4.85019106
_cell_length_b   6.93812020
_cell_length_c   8.21201460
_cell_angle_alpha   91.90190730
_cell_angle_beta   92.42420859
_cell_angle_gamma   106.68638170
_symmetry_Int_Tables_number   1
_chemical_formula_structural   P4RhSeO14
_chemical_formula_sum   'P4 Rh1 Se1 O14'
_cell_volume   264.17379629
_cell_formula_units_Z   1
loop_
 _symmetry_equiv_pos_site_id
 _symmetry_equiv_pos_as_xyz
  1  'x, y, z'
loop_
 _atom_site_type_symbol
 _atom_site_label
 _atom_site_symmetry_multiplicity
 _atom_site_fract_x
 _atom_site_fract_y
 _atom_site_fract_z
 _atom_site_occupancy
  P  P0  1  0.529261  0.142563  0.762440  1
  P  P1  1  0.114648  0.745709  0.688799  1
  P  P2  1  0.885352  0.254291  0.311201  1
  P  P3  1  0.470739  0.857437  0.237560  1
  Rh  Rh4  1  0.500000  0.500000  0.500000  1
  Se  Se5  1  0.000000  0.000000  0.000000  1
  O  O6  1  0.373930  0.177452  0.915777  1
  O  O7  1  0.029142  0.750734  0.867408  1
  O  O8  1  0.792566  0.066853  0.801823  1
  O  O9  1  0.299608  0.599046  0.677809  1
  O  O10  1  0.632627  0.326072  0.660825  1
  O  O11  1  0.308221  0.967326  0.647038  1
  O  O12  1  0.864551  0.713717  0.559192  1
  O  O13  1  0.135449  0.286283  0.440808  1
  O  O14  1  0.691779  0.032674  0.352962  1
  O  O15  1  0.367373  0.673928  0.339175  1
  O  O16  1  0.700392  0.400954  0.322191  1
  O  O17  1  0.207434  0.933147  0.198177  1
  O  O18  1  0.970858  0.249266  0.132592  1
  O  O19  1  0.626070  0.822548  0.084223  1
