# generated using pymatgen
data_Y3HoErCoSb2
_symmetry_space_group_name_H-M   'P 1'
_cell_length_a   7.88958300
_cell_length_b   8.73626600
_cell_length_c   12.24661200
_cell_angle_alpha   90.00000000
_cell_angle_beta   90.00000000
_cell_angle_gamma   90.00000000
_symmetry_Int_Tables_number   1
_chemical_formula_structural   Y3HoErCoSb2
_chemical_formula_sum   'Y12 Ho4 Er4 Co4 Sb8'
_cell_volume   844.10380295
_cell_formula_units_Z   4
loop_
 _symmetry_equiv_pos_site_id
 _symmetry_equiv_pos_as_xyz
  1  'x, y, z'
loop_
 _atom_site_type_symbol
 _atom_site_label
 _atom_site_symmetry_multiplicity
 _atom_site_fract_x
 _atom_site_fract_y
 _atom_site_fract_z
 _atom_site_occupancy
  Y  Y0  1  0.154865  0.749915  0.203638  1
  Y  Y1  1  0.654865  0.250085  0.296362  1
  Y  Y2  1  0.845135  0.249915  0.796362  1
  Y  Y3  1  0.345135  0.750085  0.703638  1
  Y  Y4  1  0.456989  0.750052  0.998308  1
  Y  Y5  1  0.956989  0.249948  0.501692  1
  Y  Y6  1  0.543011  0.250052  0.001692  1
  Y  Y7  1  0.043011  0.749948  0.498308  1
  Y  Y8  1  0.626082  0.750056  0.306805  1
  Y  Y9  1  0.126082  0.249944  0.193195  1
  Y  Y10  1  0.373918  0.250056  0.693195  1
  Y  Y11  1  0.873918  0.749944  0.806805  1
  Ho  Ho12  1  0.823319  0.966575  0.065423  1
  Ho  Ho13  1  0.323319  0.033425  0.434577  1
  Ho  Ho14  1  0.176681  0.466575  0.934577  1
  Ho  Ho15  1  0.676681  0.533425  0.565423  1
  Er  Er16  1  0.176102  0.033360  0.934612  1
  Er  Er17  1  0.676102  0.966640  0.565388  1
  Er  Er18  1  0.823898  0.533360  0.065388  1
  Er  Er19  1  0.323898  0.466640  0.434612  1
  Co  Co20  1  0.439215  0.750073  0.491467  1
  Co  Co21  1  0.939215  0.249927  0.008533  1
  Co  Co22  1  0.560785  0.250073  0.508533  1
  Co  Co23  1  0.060785  0.749927  0.991467  1
  Sb  Sb24  1  0.930806  0.992761  0.326753  1
  Sb  Sb25  1  0.430806  0.007239  0.173247  1
  Sb  Sb26  1  0.069194  0.492761  0.673247  1
  Sb  Sb27  1  0.569194  0.507239  0.826753  1
  Sb  Sb28  1  0.069062  0.007215  0.673298  1
  Sb  Sb29  1  0.569062  0.992785  0.826702  1
  Sb  Sb30  1  0.930938  0.507215  0.326702  1
  Sb  Sb31  1  0.430938  0.492785  0.173298  1
