# generated using pymatgen
data_Tb2HoPaNiB14
_symmetry_space_group_name_H-M   'P 1'
_cell_length_a   7.23347002
_cell_length_b   7.23524235
_cell_length_c   7.52738600
_cell_angle_alpha   90.00000000
_cell_angle_beta   90.00000000
_cell_angle_gamma   90.01327109
_symmetry_Int_Tables_number   1
_chemical_formula_structural   Tb2HoPaNiB14
_chemical_formula_sum   'Tb4 Ho2 Pa2 Ni2 B28'
_cell_volume   393.95257561
_cell_formula_units_Z   2
loop_
 _symmetry_equiv_pos_site_id
 _symmetry_equiv_pos_as_xyz
  1  'x, y, z'
loop_
 _atom_site_type_symbol
 _atom_site_label
 _atom_site_symmetry_multiplicity
 _atom_site_fract_x
 _atom_site_fract_y
 _atom_site_fract_z
 _atom_site_occupancy
  Tb  Tb0  1  0.693570  0.167906  0.500000  1
  Tb  Tb1  1  0.307179  0.833811  0.500000  1
  Tb  Tb2  1  0.833489  0.693015  0.500000  1
  Tb  Tb3  1  0.167069  0.306725  0.500000  1
  Ho  Ho4  1  0.334052  0.807435  0.000000  1
  Ho  Ho5  1  0.807967  0.665595  0.000000  1
  Pa  Pa6  1  0.194128  0.328923  0.000000  1
  Pa  Pa7  1  0.670889  0.193755  0.000000  1
  Ni  Ni8  1  0.999134  0.997607  0.000000  1
  Ni  Ni9  1  0.499332  0.501667  0.500000  1
  B  B10  1  0.173439  0.039087  0.230911  1
  B  B11  1  0.960633  0.172287  0.232205  1
  B  B12  1  0.040153  0.824191  0.230233  1
  B  B13  1  0.674607  0.461657  0.267009  1
  B  B14  1  0.325546  0.541238  0.267517  1
  B  B15  1  0.824985  0.959795  0.231550  1
  B  B16  1  0.539989  0.675541  0.269295  1
  B  B17  1  0.460147  0.327036  0.266081  1
  B  B18  1  0.824985  0.959795  0.768450  1
  B  B19  1  0.040153  0.824191  0.769767  1
  B  B20  1  0.960633  0.172287  0.767795  1
  B  B21  1  0.325546  0.541238  0.732483  1
  B  B22  1  0.674607  0.461657  0.732991  1
  B  B23  1  0.173439  0.039087  0.769089  1
  B  B24  1  0.460147  0.327036  0.733919  1
  B  B25  1  0.539989  0.675541  0.730705  1
  B  B26  1  0.089010  0.588717  0.243801  1
  B  B27  1  0.409795  0.090886  0.241150  1
  B  B28  1  0.588245  0.912056  0.245316  1
  B  B29  1  0.909954  0.409842  0.242178  1
  B  B30  1  0.909954  0.409842  0.757822  1
  B  B31  1  0.588245  0.912056  0.754684  1
  B  B32  1  0.409795  0.090886  0.758850  1
  B  B33  1  0.089010  0.588717  0.756199  1
  B  B34  1  0.000216  0.997117  0.390115  1
  B  B35  1  0.499876  0.502332  0.110197  1
  B  B36  1  0.000216  0.997117  0.609885  1
  B  B37  1  0.499876  0.502332  0.889803  1
