# generated using pymatgen
data_MgMnZnB2Rh5
_symmetry_space_group_name_H-M   'P 1'
_cell_length_a   9.38925700
_cell_length_b   9.39110900
_cell_length_c   2.93389600
_cell_angle_alpha   90.00000000
_cell_angle_beta   90.00000000
_cell_angle_gamma   90.00000000
_symmetry_Int_Tables_number   1
_chemical_formula_structural   MgMnZnB2Rh5
_chemical_formula_sum   'Mg2 Mn2 Zn2 B4 Rh10'
_cell_volume   258.69785212
_cell_formula_units_Z   2
loop_
 _symmetry_equiv_pos_site_id
 _symmetry_equiv_pos_as_xyz
  1  'x, y, z'
loop_
 _atom_site_type_symbol
 _atom_site_label
 _atom_site_symmetry_multiplicity
 _atom_site_fract_x
 _atom_site_fract_y
 _atom_site_fract_z
 _atom_site_occupancy
  Mg  Mg0  1  0.824221  0.323893  0.000000  1
  Mg  Mg1  1  0.324221  0.176107  0.000000  1
  Mn  Mn2  1  0.677654  0.823042  0.000000  1
  Mn  Mn3  1  0.177654  0.676958  0.000000  1
  Zn  Zn4  1  0.000818  0.001959  0.000000  1
  Zn  Zn5  1  0.500818  0.498041  0.000000  1
  B  B6  1  0.626012  0.125694  0.000000  1
  B  B7  1  0.126012  0.374306  0.000000  1
  B  B8  1  0.872131  0.628644  0.000000  1
  B  B9  1  0.372131  0.871356  0.000000  1
  Rh  Rh10  1  0.071672  0.217848  0.500000  1
  Rh  Rh11  1  0.214499  0.923375  0.500000  1
  Rh  Rh12  1  0.782024  0.064669  0.500000  1
  Rh  Rh13  1  0.929722  0.785516  0.500000  1
  Rh  Rh14  1  0.429722  0.714484  0.500000  1
  Rh  Rh15  1  0.571672  0.282152  0.500000  1
  Rh  Rh16  1  0.714499  0.576625  0.500000  1
  Rh  Rh17  1  0.282024  0.435331  0.500000  1
  Rh  Rh18  1  0.501247  0.995986  0.500000  1
  Rh  Rh19  1  0.001247  0.504014  0.500000  1
