# generated using pymatgen
data_Ta3Ni19B6Ru
_symmetry_space_group_name_H-M   'P 1'
_cell_length_a   7.51688133
_cell_length_b   7.51688136
_cell_length_c   7.51384531
_cell_angle_alpha   59.98662722
_cell_angle_beta   59.98663026
_cell_angle_gamma   60.00000326
_symmetry_Int_Tables_number   1
_chemical_formula_structural   Ta3Ni19B6Ru
_chemical_formula_sum   'Ta3 Ni19 B6 Ru1'
_cell_volume   300.14758233
_cell_formula_units_Z   1
loop_
 _symmetry_equiv_pos_site_id
 _symmetry_equiv_pos_as_xyz
  1  'x, y, z'
loop_
 _atom_site_type_symbol
 _atom_site_label
 _atom_site_symmetry_multiplicity
 _atom_site_fract_x
 _atom_site_fract_y
 _atom_site_fract_z
 _atom_site_occupancy
  Ta  Ta0  1  0.999594  0.999594  0.001218  1
  Ta  Ta1  1  0.752149  0.752149  0.743554  1
  Ta  Ta2  1  0.250338  0.250338  0.248986  1
  Ni  Ni3  1  0.614617  0.157069  0.613698  1
  Ni  Ni4  1  0.157069  0.614617  0.613698  1
  Ni  Ni5  1  0.614617  0.614617  0.613698  1
  Ni  Ni6  1  0.384771  0.384771  0.845686  1
  Ni  Ni7  1  0.379215  0.853695  0.387875  1
  Ni  Ni8  1  0.853695  0.379215  0.387875  1
  Ni  Ni9  1  0.379215  0.379215  0.387875  1
  Ni  Ni10  1  0.999547  0.999547  0.344217  1
  Ni  Ni11  1  0.656688  0.999547  0.344217  1
  Ni  Ni12  1  0.999547  0.656688  0.344217  1
  Ni  Ni13  1  0.656404  0.339293  0.999762  1
  Ni  Ni14  1  0.004541  0.339293  0.999762  1
  Ni  Ni15  1  0.999425  0.342919  0.658232  1
  Ni  Ni16  1  0.339293  0.656404  0.999762  1
  Ni  Ni17  1  0.342919  0.999425  0.658232  1
  Ni  Ni18  1  0.339293  0.004541  0.999762  1
  Ni  Ni19  1  0.999425  0.999425  0.658232  1
  Ni  Ni20  1  0.004541  0.656404  0.999762  1
  Ni  Ni21  1  0.656404  0.004541  0.999762  1
  B  B22  1  0.733390  0.733390  0.269871  1
  B  B23  1  0.263350  0.733390  0.269871  1
  B  B24  1  0.733390  0.263350  0.269871  1
  B  B25  1  0.268241  0.268241  0.731066  1
  B  B26  1  0.732452  0.268241  0.731066  1
  B  B27  1  0.268241  0.732452  0.731066  1
  Ru  Ru28  1  0.617631  0.617631  0.147107  1
