# generated using pymatgen
data_V5FeSi2
_symmetry_space_group_name_H-M   'P 1'
_cell_length_a   4.63560600
_cell_length_b   4.63560600
_cell_length_c   4.64570000
_cell_angle_alpha   90.00000000
_cell_angle_beta   90.00000000
_cell_angle_gamma   90.00000000
_symmetry_Int_Tables_number   1
_chemical_formula_structural   V5FeSi2
_chemical_formula_sum   'V5 Fe1 Si2'
_cell_volume   99.83071787
_cell_formula_units_Z   1
loop_
 _symmetry_equiv_pos_site_id
 _symmetry_equiv_pos_as_xyz
  1  'x, y, z'
loop_
 _atom_site_type_symbol
 _atom_site_label
 _atom_site_symmetry_multiplicity
 _atom_site_fract_x
 _atom_site_fract_y
 _atom_site_fract_z
 _atom_site_occupancy
  V  V0  1  0.500000  0.249835  0.001139  1
  V  V1  1  0.749835  0.000000  0.498861  1
  V  V2  1  0.000000  0.500000  0.250000  1
  V  V3  1  0.500000  0.750165  0.001139  1
  V  V4  1  0.250165  0.000000  0.498861  1
  Fe  Fe5  1  0.000000  0.500000  0.750000  1
  Si  Si6  1  0.500000  0.500000  0.498644  1
  Si  Si7  1  0.000000  0.000000  0.001356  1
