# generated using pymatgen
data_Sr9Ca(Si2Bi)2
_symmetry_space_group_name_H-M   'P 1'
_cell_length_a   9.87711689
_cell_length_b   9.87711728
_cell_length_c   9.87711733
_cell_angle_alpha   130.76886693
_cell_angle_beta   130.76886532
_cell_angle_gamma   72.18056138
_symmetry_Int_Tables_number   1
_chemical_formula_structural   Sr9Ca(Si2Bi)2
_chemical_formula_sum   'Sr9 Ca1 Si4 Bi2'
_cell_volume   540.37873668
_cell_formula_units_Z   1
loop_
 _symmetry_equiv_pos_site_id
 _symmetry_equiv_pos_as_xyz
  1  'x, y, z'
loop_
 _atom_site_type_symbol
 _atom_site_label
 _atom_site_symmetry_multiplicity
 _atom_site_fract_x
 _atom_site_fract_y
 _atom_site_fract_z
 _atom_site_occupancy
  Sr  Sr0  1  0.533126  0.036873  0.844066  1
  Sr  Sr1  1  0.192808  0.689060  0.155934  1
  Sr  Sr2  1  0.036873  0.192808  0.503748  1
  Sr  Sr3  1  0.689060  0.533126  0.496252  1
  Sr  Sr4  1  0.466874  0.963127  0.155934  1
  Sr  Sr5  1  0.807192  0.310940  0.844066  1
  Sr  Sr6  1  0.963127  0.807192  0.496252  1
  Sr  Sr7  1  0.310940  0.466874  0.503748  1
  Sr  Sr8  1  0.000000  0.000000  0.000000  1
  Ca  Ca9  1  0.500000  0.500000  0.000000  1
  Si  Si10  1  0.886318  0.390866  0.277184  1
  Si  Si11  1  0.113682  0.609134  0.722816  1
  Si  Si12  1  0.390866  0.113682  0.504547  1
  Si  Si13  1  0.609134  0.886318  0.495453  1
  Bi  Bi14  1  0.248719  0.248719  0.000000  1
  Bi  Bi15  1  0.751281  0.751281  0.000000  1
