# generated using pymatgen
data_Np4UO10
_symmetry_space_group_name_H-M   'P 1'
_cell_length_a   6.64461106
_cell_length_b   6.64461074
_cell_length_c   6.64461100
_cell_angle_alpha   99.61696288
_cell_angle_beta   99.61695367
_cell_angle_gamma   131.74978982
_symmetry_Int_Tables_number   1
_chemical_formula_structural   Np4UO10
_chemical_formula_sum   'Np4 U1 O10'
_cell_volume   199.75102657
_cell_formula_units_Z   1
loop_
 _symmetry_equiv_pos_site_id
 _symmetry_equiv_pos_as_xyz
  1  'x, y, z'
loop_
 _atom_site_type_symbol
 _atom_site_label
 _atom_site_symmetry_multiplicity
 _atom_site_fract_x
 _atom_site_fract_y
 _atom_site_fract_z
 _atom_site_occupancy
  Np  Np0  1  0.400557  0.199867  0.600423  1
  Np  Np1  1  0.800133  0.400557  0.200690  1
  Np  Np2  1  0.199867  0.599443  0.799310  1
  Np  Np3  1  0.599443  0.800133  0.399577  1
  U  U4  1  0.000000  0.000000  0.000000  1
  O  O5  1  0.750000  0.250000  0.500000  1
  O  O6  1  0.147057  0.443321  0.097141  1
  O  O7  1  0.556679  0.653821  0.703736  1
  O  O8  1  0.950084  0.852943  0.296264  1
  O  O9  1  0.346179  0.049916  0.902859  1
  O  O10  1  0.852943  0.556679  0.902859  1
  O  O11  1  0.250000  0.750000  0.500000  1
  O  O12  1  0.653821  0.950084  0.097141  1
  O  O13  1  0.049916  0.147057  0.703736  1
  O  O14  1  0.443321  0.346179  0.296264  1
