# generated using pymatgen
data_Y2ErTm13(Ga3Co)2
_symmetry_space_group_name_H-M   'P 1'
_cell_length_a   9.89114100
_cell_length_b   9.89209516
_cell_length_c   6.85775100
_cell_angle_alpha   89.99848566
_cell_angle_beta   89.99998585
_cell_angle_gamma   119.99678765
_symmetry_Int_Tables_number   1
_chemical_formula_structural   Y2ErTm13(Ga3Co)2
_chemical_formula_sum   'Y2 Er1 Tm13 Ga6 Co2'
_cell_volume   581.11365335
_cell_formula_units_Z   1
loop_
 _symmetry_equiv_pos_site_id
 _symmetry_equiv_pos_as_xyz
  1  'x, y, z'
loop_
 _atom_site_type_symbol
 _atom_site_label
 _atom_site_symmetry_multiplicity
 _atom_site_fract_x
 _atom_site_fract_y
 _atom_site_fract_z
 _atom_site_occupancy
  Y  Y0  1  0.000015  0.000030  0.270086  1
  Y  Y1  1  0.999997  0.999991  0.770062  1
  Er  Er2  1  0.536013  0.072027  0.792954  1
  Tm  Tm3  1  0.173717  0.826074  0.991039  1
  Tm  Tm4  1  0.826282  0.173861  0.490832  1
  Tm  Tm5  1  0.173840  0.347679  0.990953  1
  Tm  Tm6  1  0.652358  0.826073  0.991038  1
  Tm  Tm7  1  0.347580  0.173862  0.490831  1
  Tm  Tm8  1  0.826151  0.652303  0.490949  1
  Tm  Tm9  1  0.333281  0.666563  0.672440  1
  Tm  Tm10  1  0.666726  0.333453  0.172569  1
  Tm  Tm11  1  0.463918  0.536078  0.292986  1
  Tm  Tm12  1  0.536074  0.463989  0.793009  1
  Tm  Tm13  1  0.463883  0.927766  0.292970  1
  Tm  Tm14  1  0.072161  0.536079  0.292985  1
  Tm  Tm15  1  0.927915  0.463989  0.793010  1
  Ga  Ga16  1  0.163760  0.836223  0.540190  1
  Ga  Ga17  1  0.836323  0.163790  0.040311  1
  Ga  Ga18  1  0.163765  0.327530  0.540247  1
  Ga  Ga19  1  0.672458  0.836222  0.540189  1
  Ga  Ga20  1  0.327468  0.163790  0.040312  1
  Ga  Ga21  1  0.836227  0.672453  0.040213  1
  Co  Co22  1  0.333329  0.666659  0.058023  1
  Co  Co23  1  0.666758  0.333514  0.557922  1
