# generated using pymatgen
data_Rb6Tm3LuBr18
_symmetry_space_group_name_H-M   'P 1'
_cell_length_a   10.27217031
_cell_length_b   10.27214938
_cell_length_c   10.27228686
_cell_angle_alpha   83.01642214
_cell_angle_beta   83.01631442
_cell_angle_gamma   83.01670350
_symmetry_Int_Tables_number   1
_chemical_formula_structural   Rb6Tm3LuBr18
_chemical_formula_sum   'Rb6 Tm3 Lu1 Br18'
_cell_volume   1061.58762410
_cell_formula_units_Z   1
loop_
 _symmetry_equiv_pos_site_id
 _symmetry_equiv_pos_as_xyz
  1  'x, y, z'
loop_
 _atom_site_type_symbol
 _atom_site_label
 _atom_site_symmetry_multiplicity
 _atom_site_fract_x
 _atom_site_fract_y
 _atom_site_fract_z
 _atom_site_occupancy
  Rb  Rb0  1  0.588107  0.911856  0.250088  1
  Rb  Rb1  1  0.250091  0.588105  0.911862  1
  Rb  Rb2  1  0.911856  0.250083  0.588105  1
  Rb  Rb3  1  0.749988  0.411909  0.088019  1
  Rb  Rb4  1  0.088017  0.749980  0.411924  1
  Rb  Rb5  1  0.411920  0.088028  0.749985  1
  Tm  Tm6  1  0.846663  0.846655  0.846660  1
  Tm  Tm7  1  0.346905  0.346904  0.346910  1
  Tm  Tm8  1  0.153107  0.153111  0.153108  1
  Lu  Lu9  1  0.653731  0.653733  0.653726  1
  Br  Br10  1  0.092902  0.407055  0.250016  1
  Br  Br11  1  0.250015  0.092909  0.407050  1
  Br  Br12  1  0.407047  0.250020  0.092900  1
  Br  Br13  1  0.749421  0.905631  0.593030  1
  Br  Br14  1  0.593029  0.749422  0.905631  1
  Br  Br15  1  0.905632  0.593026  0.749421  1
  Br  Br16  1  0.233804  0.415886  0.581687  1
  Br  Br17  1  0.581684  0.233809  0.415888  1
  Br  Br18  1  0.415883  0.581688  0.233804  1
  Br  Br19  1  0.081658  0.915804  0.733798  1
  Br  Br20  1  0.733800  0.081649  0.915801  1
  Br  Br21  1  0.915804  0.733799  0.081658  1
  Br  Br22  1  0.765131  0.584643  0.420574  1
  Br  Br23  1  0.420577  0.765132  0.584645  1
  Br  Br24  1  0.584655  0.420586  0.765115  1
  Br  Br25  1  0.918313  0.084087  0.266181  1
  Br  Br26  1  0.266175  0.918312  0.084098  1
  Br  Br27  1  0.084084  0.266179  0.918315  1
