# generated using pymatgen
data_BaMg(Al2Pt)2
_symmetry_space_group_name_H-M   'P 1'
_cell_length_a   6.95754311
_cell_length_b   6.95754377
_cell_length_c   6.95754446
_cell_angle_alpha   144.78226162
_cell_angle_beta   115.46789451
_cell_angle_gamma   75.70161391
_symmetry_Int_Tables_number   1
_chemical_formula_structural   BaMg(Al2Pt)2
_chemical_formula_sum   'Ba1 Mg1 Al4 Pt2'
_cell_volume   171.79557583
_cell_formula_units_Z   1
loop_
 _symmetry_equiv_pos_site_id
 _symmetry_equiv_pos_as_xyz
  1  'x, y, z'
loop_
 _atom_site_type_symbol
 _atom_site_label
 _atom_site_symmetry_multiplicity
 _atom_site_fract_x
 _atom_site_fract_y
 _atom_site_fract_z
 _atom_site_occupancy
  Ba  Ba0  1  0.000000  0.000000  0.000000  1
  Mg  Mg1  1  0.500000  0.000000  0.500000  1
  Al  Al2  1  0.509339  0.324325  0.185014  1
  Al  Al3  1  0.860689  0.675675  0.185014  1
  Al  Al4  1  0.139312  0.324326  0.814987  1
  Al  Al5  1  0.490661  0.675675  0.814987  1
  Pt  Pt6  1  0.733849  0.233849  0.500000  1
  Pt  Pt7  1  0.266151  0.766151  0.500000  1
