# generated using pymatgen
data_ErBeTlF6
_symmetry_space_group_name_H-M   'P 1'
_cell_length_a   5.83241500
_cell_length_b   6.53229263
_cell_length_c   7.22998400
_cell_angle_alpha   66.15413029
_cell_angle_beta   90.00000000
_cell_angle_gamma   90.00000000
_symmetry_Int_Tables_number   1
_chemical_formula_structural   ErBeTlF6
_chemical_formula_sum   'Er2 Be2 Tl2 F12'
_cell_volume   251.94156492
_cell_formula_units_Z   2
loop_
 _symmetry_equiv_pos_site_id
 _symmetry_equiv_pos_as_xyz
  1  'x, y, z'
loop_
 _atom_site_type_symbol
 _atom_site_label
 _atom_site_symmetry_multiplicity
 _atom_site_fract_x
 _atom_site_fract_y
 _atom_site_fract_z
 _atom_site_occupancy
  Er  Er0  1  0.250000  0.391430  0.181673  1
  Er  Er1  1  0.750000  0.608570  0.818327  1
  Be  Be2  1  0.250000  0.767106  0.463900  1
  Be  Be3  1  0.750000  0.232894  0.536100  1
  Tl  Tl4  1  0.250000  0.079979  0.789701  1
  Tl  Tl5  1  0.750000  0.920021  0.210299  1
  F  F6  1  0.465638  0.754835  0.597327  1
  F  F7  1  0.534362  0.245165  0.402673  1
  F  F8  1  0.965638  0.245165  0.402673  1
  F  F9  1  0.034362  0.754835  0.597327  1
  F  F10  1  0.250000  0.574603  0.390987  1
  F  F11  1  0.750000  0.425397  0.609013  1
  F  F12  1  0.499317  0.674842  0.028781  1
  F  F13  1  0.500683  0.325158  0.971219  1
  F  F14  1  0.999317  0.325158  0.971219  1
  F  F15  1  0.000683  0.674842  0.028781  1
  F  F16  1  0.250000  0.998618  0.274049  1
  F  F17  1  0.750000  0.001382  0.725951  1
