# generated using pymatgen
data_Rb2HoTm(Bi2Se5)2
_symmetry_space_group_name_H-M   'P 1'
_cell_length_a   4.15906200
_cell_length_b   12.37960207
_cell_length_c   22.36602813
_cell_angle_alpha   90.01243305
_cell_angle_beta   90.00000000
_cell_angle_gamma   90.00000000
_symmetry_Int_Tables_number   1
_chemical_formula_structural   Rb2HoTm(Bi2Se5)2
_chemical_formula_sum   'Rb4 Ho2 Tm2 Bi8 Se20'
_cell_volume   1151.57157447
_cell_formula_units_Z   2
loop_
 _symmetry_equiv_pos_site_id
 _symmetry_equiv_pos_as_xyz
  1  'x, y, z'
loop_
 _atom_site_type_symbol
 _atom_site_label
 _atom_site_symmetry_multiplicity
 _atom_site_fract_x
 _atom_site_fract_y
 _atom_site_fract_z
 _atom_site_occupancy
  Rb  Rb0  1  0.250000  0.489331  0.210298  1
  Rb  Rb1  1  0.750000  0.510669  0.789702  1
  Rb  Rb2  1  0.750000  0.989343  0.289771  1
  Rb  Rb3  1  0.250000  0.010657  0.710229  1
  Ho  Ho4  1  0.250000  0.364434  0.023941  1
  Ho  Ho5  1  0.750000  0.635566  0.976059  1
  Tm  Tm6  1  0.750000  0.864671  0.476176  1
  Tm  Tm7  1  0.250000  0.135329  0.523824  1
  Bi  Bi8  1  0.250000  0.801804  0.126415  1
  Bi  Bi9  1  0.750000  0.198196  0.873585  1
  Bi  Bi10  1  0.750000  0.301726  0.373630  1
  Bi  Bi11  1  0.250000  0.698274  0.626370  1
  Bi  Bi12  1  0.250000  0.596613  0.423705  1
  Bi  Bi13  1  0.750000  0.403387  0.576295  1
  Bi  Bi14  1  0.750000  0.096414  0.076369  1
  Bi  Bi15  1  0.250000  0.903586  0.923631  1
  Se  Se16  1  0.250000  0.813805  0.391645  1
  Se  Se17  1  0.750000  0.186195  0.608355  1
  Se  Se18  1  0.750000  0.313361  0.109099  1
  Se  Se19  1  0.250000  0.686639  0.890901  1
  Se  Se20  1  0.250000  0.246733  0.294990  1
  Se  Se21  1  0.750000  0.753267  0.705010  1
  Se  Se22  1  0.750000  0.746764  0.205019  1
  Se  Se23  1  0.250000  0.253236  0.794981  1
  Se  Se24  1  0.250000  0.352944  0.481302  1
  Se  Se25  1  0.750000  0.647056  0.518698  1
  Se  Se26  1  0.750000  0.854104  0.018969  1
  Se  Se27  1  0.250000  0.145896  0.981031  1
  Se  Se28  1  0.250000  0.026846  0.159341  1
  Se  Se29  1  0.750000  0.973154  0.840659  1
  Se  Se30  1  0.750000  0.526800  0.340664  1
  Se  Se31  1  0.250000  0.473200  0.659336  1
  Se  Se32  1  0.250000  0.583236  0.059336  1
  Se  Se33  1  0.750000  0.416764  0.940664  1
  Se  Se34  1  0.750000  0.082865  0.441521  1
  Se  Se35  1  0.250000  0.917135  0.558479  1
