# generated using pymatgen
data_Cs2KGaTe3
_symmetry_space_group_name_H-M   'P 1'
_cell_length_a   14.62511700
_cell_length_b   9.11302817
_cell_length_c   11.96586021
_cell_angle_alpha   53.31159206
_cell_angle_beta   90.00000000
_cell_angle_gamma   90.00000000
_symmetry_Int_Tables_number   1
_chemical_formula_structural   Cs2KGaTe3
_chemical_formula_sum   'Cs8 K4 Ga4 Te12'
_cell_volume   1278.86389432
_cell_formula_units_Z   4
loop_
 _symmetry_equiv_pos_site_id
 _symmetry_equiv_pos_as_xyz
  1  'x, y, z'
loop_
 _atom_site_type_symbol
 _atom_site_label
 _atom_site_symmetry_multiplicity
 _atom_site_fract_x
 _atom_site_fract_y
 _atom_site_fract_z
 _atom_site_occupancy
  Cs  Cs0  1  0.908976  0.337869  0.396929  1
  Cs  Cs1  1  0.408976  0.662131  0.103071  1
  Cs  Cs2  1  0.091024  0.662131  0.603071  1
  Cs  Cs3  1  0.591024  0.337869  0.896929  1
  Cs  Cs4  1  0.191259  0.132177  0.584741  1
  Cs  Cs5  1  0.691259  0.867823  0.915259  1
  Cs  Cs6  1  0.808741  0.867823  0.415259  1
  Cs  Cs7  1  0.308741  0.132177  0.084741  1
  K  K8  1  0.611987  0.355515  0.479014  1
  K  K9  1  0.111987  0.644485  0.020986  1
  K  K10  1  0.388013  0.644485  0.520986  1
  K  K11  1  0.888013  0.355515  0.979014  1
  Ga  Ga12  1  0.936904  0.059194  0.843154  1
  Ga  Ga13  1  0.436904  0.940806  0.656846  1
  Ga  Ga14  1  0.063096  0.940806  0.156846  1
  Ga  Ga15  1  0.563096  0.059194  0.343154  1
  Te  Te16  1  0.395036  0.148182  0.379204  1
  Te  Te17  1  0.895036  0.851818  0.120796  1
  Te  Te18  1  0.604964  0.851818  0.620796  1
  Te  Te19  1  0.104964  0.148182  0.879204  1
  Te  Te20  1  0.676723  0.340481  0.201239  1
  Te  Te21  1  0.176723  0.659519  0.298761  1
  Te  Te22  1  0.323277  0.659519  0.798761  1
  Te  Te23  1  0.823277  0.340481  0.701239  1
  Te  Te24  1  0.556129  0.855157  0.254484  1
  Te  Te25  1  0.056129  0.144843  0.245516  1
  Te  Te26  1  0.443871  0.144843  0.745516  1
  Te  Te27  1  0.943871  0.855157  0.754484  1
