# generated using pymatgen
data_LiEu15HoIn3Pt4
_symmetry_space_group_name_H-M   'P 1'
_cell_length_a   10.31745395
_cell_length_b   10.31745367
_cell_length_c   10.31745300
_cell_angle_alpha   58.90096433
_cell_angle_beta   58.90096527
_cell_angle_gamma   58.90097364
_symmetry_Int_Tables_number   1
_chemical_formula_structural   LiEu15HoIn3Pt4
_chemical_formula_sum   'Li1 Eu15 Ho1 In3 Pt4'
_cell_volume   757.12888915
_cell_formula_units_Z   1
loop_
 _symmetry_equiv_pos_site_id
 _symmetry_equiv_pos_as_xyz
  1  'x, y, z'
loop_
 _atom_site_type_symbol
 _atom_site_label
 _atom_site_symmetry_multiplicity
 _atom_site_fract_x
 _atom_site_fract_y
 _atom_site_fract_z
 _atom_site_occupancy
  Li  Li0  1  0.816879  0.816879  0.816879  1
  Eu  Eu1  1  0.189231  0.189231  0.808590  1
  Eu  Eu2  1  0.596685  0.596685  0.211458  1
  Eu  Eu3  1  0.447738  0.053236  0.447738  1
  Eu  Eu4  1  0.447738  0.447738  0.053236  1
  Eu  Eu5  1  0.804688  0.196808  0.804688  1
  Eu  Eu6  1  0.189231  0.808590  0.189231  1
  Eu  Eu7  1  0.440249  0.057566  0.057566  1
  Eu  Eu8  1  0.196808  0.804688  0.804688  1
  Eu  Eu9  1  0.057566  0.440249  0.057566  1
  Eu  Eu10  1  0.804688  0.804688  0.196808  1
  Eu  Eu11  1  0.211458  0.596685  0.596685  1
  Eu  Eu12  1  0.053236  0.447738  0.447738  1
  Eu  Eu13  1  0.057566  0.057566  0.440249  1
  Eu  Eu14  1  0.808590  0.189231  0.189231  1
  Eu  Eu15  1  0.596685  0.211458  0.596685  1
  Ho  Ho16  1  0.596489  0.596489  0.596489  1
  In  In17  1  0.827487  0.827487  0.514030  1
  In  In18  1  0.514030  0.827487  0.827487  1
  In  In19  1  0.827487  0.514030  0.827487  1
  Pt  Pt20  1  0.400740  0.822709  0.400740  1
  Pt  Pt21  1  0.391282  0.391282  0.391282  1
  Pt  Pt22  1  0.822709  0.400740  0.400740  1
  Pt  Pt23  1  0.400740  0.400740  0.822709  1
