# generated using pymatgen
data_Hf6Ti(NbGa2)3
_symmetry_space_group_name_H-M   'P 1'
_cell_length_a   7.93636700
_cell_length_b   7.93636687
_cell_length_c   5.43741000
_cell_angle_alpha   90.00000000
_cell_angle_beta   90.00000000
_cell_angle_gamma   120.00000470
_symmetry_Int_Tables_number   1
_chemical_formula_structural   Hf6Ti(NbGa2)3
_chemical_formula_sum   'Hf6 Ti1 Nb3 Ga6'
_cell_volume   296.59660186
_cell_formula_units_Z   1
loop_
 _symmetry_equiv_pos_site_id
 _symmetry_equiv_pos_as_xyz
  1  'x, y, z'
loop_
 _atom_site_type_symbol
 _atom_site_label
 _atom_site_symmetry_multiplicity
 _atom_site_fract_x
 _atom_site_fract_y
 _atom_site_fract_z
 _atom_site_occupancy
  Hf  Hf0  1  0.754149  0.755065  0.251143  1
  Hf  Hf1  1  0.754149  0.999084  0.748857  1
  Hf  Hf2  1  0.000916  0.245851  0.251143  1
  Hf  Hf3  1  0.244935  0.245851  0.748857  1
  Hf  Hf4  1  0.244935  0.999084  0.251143  1
  Hf  Hf5  1  0.000916  0.755065  0.748857  1
  Ti  Ti6  1  0.666667  0.333333  0.000000  1
  Nb  Nb7  1  0.666667  0.333333  0.500000  1
  Nb  Nb8  1  0.333333  0.666667  0.500000  1
  Nb  Nb9  1  0.333333  0.666667  0.000000  1
  Ga  Ga10  1  0.604402  0.001698  0.248647  1
  Ga  Ga11  1  0.604402  0.602703  0.751353  1
  Ga  Ga12  1  0.998302  0.395598  0.751353  1
  Ga  Ga13  1  0.998302  0.602703  0.248647  1
  Ga  Ga14  1  0.397297  0.395598  0.248647  1
  Ga  Ga15  1  0.397297  0.001698  0.751353  1
