# generated using pymatgen
data_YTh3(NiB4)4
_symmetry_space_group_name_H-M   'P 1'
_cell_length_a   6.92333299
_cell_length_b   6.92333284
_cell_length_c   6.92333299
_cell_angle_alpha   112.80291302
_cell_angle_beta   112.80291387
_cell_angle_gamma   102.99553886
_symmetry_Int_Tables_number   1
_chemical_formula_structural   YTh3(NiB4)4
_chemical_formula_sum   'Y1 Th3 Ni4 B16'
_cell_volume   253.05112396
_cell_formula_units_Z   1
loop_
 _symmetry_equiv_pos_site_id
 _symmetry_equiv_pos_as_xyz
  1  'x, y, z'
loop_
 _atom_site_type_symbol
 _atom_site_label
 _atom_site_symmetry_multiplicity
 _atom_site_fract_x
 _atom_site_fract_y
 _atom_site_fract_z
 _atom_site_occupancy
  Y  Y0  1  0.250000  0.750000  0.500000  1
  Th  Th1  1  0.796658  0.796658  0.000000  1
  Th  Th2  1  0.203342  0.203342  0.000000  1
  Th  Th3  1  0.750000  0.250000  0.500000  1
  Ni  Ni4  1  0.272550  0.500972  0.771579  1
  Ni  Ni5  1  0.729393  0.500972  0.228421  1
  Ni  Ni6  1  0.499028  0.727450  0.228421  1
  Ni  Ni7  1  0.499028  0.270607  0.771579  1
  B  B8  1  0.274552  0.111797  0.385754  1
  B  B9  1  0.726043  0.888797  0.614246  1
  B  B10  1  0.274552  0.888797  0.162754  1
  B  B11  1  0.726043  0.111797  0.837246  1
  B  B12  1  0.111203  0.725448  0.837246  1
  B  B13  1  0.888203  0.273957  0.162754  1
  B  B14  1  0.111203  0.273957  0.385754  1
  B  B15  1  0.888203  0.725448  0.614246  1
  B  B16  1  0.114081  0.112669  0.532373  1
  B  B17  1  0.580296  0.581708  0.467627  1
  B  B18  1  0.114081  0.581708  0.001412  1
  B  B19  1  0.580296  0.112669  0.998588  1
  B  B20  1  0.887331  0.885919  0.467627  1
  B  B21  1  0.418292  0.419704  0.532373  1
  B  B22  1  0.887331  0.419704  0.001412  1
  B  B23  1  0.418292  0.885919  0.998588  1
