# generated using pymatgen
data_Sm5Ho3(SiBr6)2
_symmetry_space_group_name_H-M   'P 1'
_cell_length_a   4.10858000
_cell_length_b   13.39981339
_cell_length_c   14.19435748
_cell_angle_alpha   89.59556403
_cell_angle_beta   90.00000000
_cell_angle_gamma   90.00000000
_symmetry_Int_Tables_number   1
_chemical_formula_structural   Sm5Ho3(SiBr6)2
_chemical_formula_sum   'Sm5 Ho3 Si2 Br12'
_cell_volume   781.43960225
_cell_formula_units_Z   1
loop_
 _symmetry_equiv_pos_site_id
 _symmetry_equiv_pos_as_xyz
  1  'x, y, z'
loop_
 _atom_site_type_symbol
 _atom_site_label
 _atom_site_symmetry_multiplicity
 _atom_site_fract_x
 _atom_site_fract_y
 _atom_site_fract_z
 _atom_site_occupancy
  Sm  Sm0  1  0.500000  0.618862  0.159691  1
  Sm  Sm1  1  0.500000  0.380817  0.839804  1
  Sm  Sm2  1  0.000000  0.882427  0.422120  1
  Sm  Sm3  1  0.000000  0.620759  0.919413  1
  Sm  Sm4  1  0.000000  0.379232  0.080406  1
  Ho  Ho5  1  0.500000  0.117700  0.342603  1
  Ho  Ho6  1  0.500000  0.883213  0.657993  1
  Ho  Ho7  1  0.000000  0.116711  0.577190  1
  Si  Si8  1  0.500000  0.002020  0.501337  1
  Si  Si9  1  0.500000  0.499851  0.999637  1
  Br  Br10  1  0.500000  0.239507  0.167846  1
  Br  Br11  1  0.500000  0.761273  0.832634  1
  Br  Br12  1  0.500000  0.744199  0.339091  1
  Br  Br13  1  0.500000  0.250196  0.658509  1
  Br  Br14  1  0.000000  0.250787  0.410925  1
  Br  Br15  1  0.000000  0.748497  0.593784  1
  Br  Br16  1  0.000000  0.758388  0.087804  1
  Br  Br17  1  0.000000  0.241538  0.911972  1
  Br  Br18  1  0.000000  0.007875  0.244983  1
  Br  Br19  1  0.000000  0.996739  0.752593  1
  Br  Br20  1  0.000000  0.500078  0.259379  1
  Br  Br21  1  0.000000  0.499330  0.740283  1
