# generated using pymatgen
data_Pr2Nd3Bi3Br
_symmetry_space_group_name_H-M   'P 1'
_cell_length_a   9.67389400
_cell_length_b   9.67572227
_cell_length_c   6.76632500
_cell_angle_alpha   90.00000000
_cell_angle_beta   90.00000000
_cell_angle_gamma   119.99374962
_symmetry_Int_Tables_number   1
_chemical_formula_structural   Pr2Nd3Bi3Br
_chemical_formula_sum   'Pr4 Nd6 Bi6 Br2'
_cell_volume   548.52389838
_cell_formula_units_Z   2
loop_
 _symmetry_equiv_pos_site_id
 _symmetry_equiv_pos_as_xyz
  1  'x, y, z'
loop_
 _atom_site_type_symbol
 _atom_site_label
 _atom_site_symmetry_multiplicity
 _atom_site_fract_x
 _atom_site_fract_y
 _atom_site_fract_z
 _atom_site_occupancy
  Pr  Pr0  1  0.999837  0.273691  0.750000  1
  Pr  Pr1  1  0.000163  0.726309  0.250000  1
  Pr  Pr2  1  0.726145  0.726309  0.750000  1
  Pr  Pr3  1  0.273855  0.273691  0.250000  1
  Nd  Nd4  1  0.273755  0.000000  0.750000  1
  Nd  Nd5  1  0.726245  0.000000  0.250000  1
  Nd  Nd6  1  0.333452  0.666906  0.500000  1
  Nd  Nd7  1  0.666548  0.333094  0.500000  1
  Nd  Nd8  1  0.666548  0.333094  0.000000  1
  Nd  Nd9  1  0.333452  0.666906  0.000000  1
  Bi  Bi10  1  0.614598  0.000000  0.750000  1
  Bi  Bi11  1  0.385402  0.000000  0.250000  1
  Bi  Bi12  1  0.000546  0.615765  0.750000  1
  Bi  Bi13  1  0.999454  0.384235  0.250000  1
  Bi  Bi14  1  0.384781  0.384235  0.750000  1
  Bi  Bi15  1  0.615219  0.615765  0.250000  1
  Br  Br16  1  0.000000  0.000000  0.500000  1
  Br  Br17  1  0.000000  0.000000  0.000000  1
