# generated using pymatgen
data_YbPa4O10
_symmetry_space_group_name_H-M   'P 1'
_cell_length_a   6.63498835
_cell_length_b   6.63498610
_cell_length_c   6.63506502
_cell_angle_alpha   99.60003086
_cell_angle_beta   99.60131246
_cell_angle_gamma   131.79275391
_symmetry_Int_Tables_number   1
_chemical_formula_structural   YbPa4O10
_chemical_formula_sum   'Yb1 Pa4 O10'
_cell_volume   198.78703371
_cell_formula_units_Z   1
loop_
 _symmetry_equiv_pos_site_id
 _symmetry_equiv_pos_as_xyz
  1  'x, y, z'
loop_
 _atom_site_type_symbol
 _atom_site_label
 _atom_site_symmetry_multiplicity
 _atom_site_fract_x
 _atom_site_fract_y
 _atom_site_fract_z
 _atom_site_occupancy
  Yb  Yb0  1  0.000000  0.000000  0.000000  1
  Pa  Pa1  1  0.602327  0.203049  0.805381  1
  Pa  Pa2  1  0.397673  0.796951  0.194619  1
  Pa  Pa3  1  0.796951  0.602338  0.399288  1
  Pa  Pa4  1  0.203049  0.397662  0.600712  1
  O  O5  1  0.950408  0.642990  0.105703  1
  O  O6  1  0.462712  0.155295  0.105703  1
  O  O7  1  0.537288  0.844705  0.894297  1
  O  O8  1  0.749986  0.249985  0.500000  1
  O  O9  1  0.250014  0.750015  0.500000  1
  O  O10  1  0.155322  0.049604  0.692599  1
  O  O11  1  0.642995  0.537278  0.692599  1
  O  O12  1  0.049592  0.357010  0.894297  1
  O  O13  1  0.357005  0.462722  0.307401  1
  O  O14  1  0.844678  0.950396  0.307401  1
