# generated using pymatgen
data_KBa3NbO6
_symmetry_space_group_name_H-M   'P 1'
_cell_length_a   7.34853193
_cell_length_b   7.34853215
_cell_length_c   7.34853160
_cell_angle_alpha   89.38908434
_cell_angle_beta   89.38907755
_cell_angle_gamma   89.38907911
_symmetry_Int_Tables_number   1
_chemical_formula_structural   KBa3NbO6
_chemical_formula_sum   'K2 Ba6 Nb2 O12'
_cell_volume   396.76029523
_cell_formula_units_Z   2
loop_
 _symmetry_equiv_pos_site_id
 _symmetry_equiv_pos_as_xyz
  1  'x, y, z'
loop_
 _atom_site_type_symbol
 _atom_site_label
 _atom_site_symmetry_multiplicity
 _atom_site_fract_x
 _atom_site_fract_y
 _atom_site_fract_z
 _atom_site_occupancy
  K  K0  1  0.250000  0.250000  0.250000  1
  K  K1  1  0.750000  0.750000  0.750000  1
  Ba  Ba2  1  0.896126  0.250000  0.603874  1
  Ba  Ba3  1  0.603874  0.896126  0.250000  1
  Ba  Ba4  1  0.750000  0.396126  0.103874  1
  Ba  Ba5  1  0.103874  0.750000  0.396126  1
  Ba  Ba6  1  0.396126  0.103874  0.750000  1
  Ba  Ba7  1  0.250000  0.603874  0.896126  1
  Nb  Nb8  1  0.000000  0.000000  0.000000  1
  Nb  Nb9  1  0.500000  0.500000  0.500000  1
  O  O10  1  0.560680  0.235818  0.430214  1
  O  O11  1  0.430214  0.560680  0.235818  1
  O  O12  1  0.235818  0.430214  0.560680  1
  O  O13  1  0.939320  0.069786  0.264182  1
  O  O14  1  0.264182  0.939320  0.069786  1
  O  O15  1  0.069786  0.264182  0.939320  1
  O  O16  1  0.439320  0.764182  0.569786  1
  O  O17  1  0.569786  0.439320  0.764182  1
  O  O18  1  0.764182  0.569786  0.439320  1
  O  O19  1  0.060680  0.930214  0.735818  1
  O  O20  1  0.930214  0.735818  0.060680  1
  O  O21  1  0.735818  0.060680  0.930214  1
