# generated using pymatgen
data_Er12GaFe4Sn
_symmetry_space_group_name_H-M   'P 1'
_cell_length_a   8.30317917
_cell_length_b   8.30316287
_cell_length_c   8.30317886
_cell_angle_alpha   111.20854769
_cell_angle_beta   110.35325796
_cell_angle_gamma   106.88370955
_symmetry_Int_Tables_number   1
_chemical_formula_structural   Er12GaFe4Sn
_chemical_formula_sum   'Er12 Ga1 Fe4 Sn1'
_cell_volume   439.97061545
_cell_formula_units_Z   1
loop_
 _symmetry_equiv_pos_site_id
 _symmetry_equiv_pos_as_xyz
  1  'x, y, z'
loop_
 _atom_site_type_symbol
 _atom_site_label
 _atom_site_symmetry_multiplicity
 _atom_site_fract_x
 _atom_site_fract_y
 _atom_site_fract_z
 _atom_site_occupancy
  Er  Er0  1  0.313036  0.613318  0.300281  1
  Er  Er1  1  0.686964  0.386683  0.699719  1
  Er  Er2  1  0.313043  0.012769  0.699727  1
  Er  Er3  1  0.686957  0.987231  0.300273  1
  Er  Er4  1  0.434270  0.225784  0.208507  1
  Er  Er5  1  0.565730  0.774216  0.791493  1
  Er  Er6  1  0.017278  0.225784  0.791514  1
  Er  Er7  1  0.982722  0.774216  0.208486  1
  Er  Er8  1  0.185625  0.285676  0.471307  1
  Er  Er9  1  0.814375  0.714324  0.528693  1
  Er  Er10  1  0.185631  0.714324  0.899949  1
  Er  Er11  1  0.814369  0.285676  0.100051  1
  Ga  Ga12  1  0.000000  0.000000  0.000000  1
  Fe  Fe13  1  0.108777  0.608778  0.500001  1
  Fe  Fe14  1  0.891224  0.391223  0.499999  1
  Fe  Fe15  1  0.384284  0.000000  0.384284  1
  Fe  Fe16  1  0.615716  0.000000  0.615716  1
  Sn  Sn17  1  0.500000  0.500000  0.000000  1
