# generated using pymatgen
data_LiAl11(CoIr)6
_symmetry_space_group_name_H-M   'P 1'
_cell_length_a   4.14950600
_cell_length_b   5.88218000
_cell_length_c   12.45351700
_cell_angle_alpha   90.00000000
_cell_angle_beta   89.99999540
_cell_angle_gamma   90.00000000
_symmetry_Int_Tables_number   1
_chemical_formula_structural   LiAl11(CoIr)6
_chemical_formula_sum   'Li1 Al11 Co6 Ir6'
_cell_volume   303.96720141
_cell_formula_units_Z   1
loop_
 _symmetry_equiv_pos_site_id
 _symmetry_equiv_pos_as_xyz
  1  'x, y, z'
loop_
 _atom_site_type_symbol
 _atom_site_label
 _atom_site_symmetry_multiplicity
 _atom_site_fract_x
 _atom_site_fract_y
 _atom_site_fract_z
 _atom_site_occupancy
  Li  Li0  1  0.500000  0.250072  0.000000  1
  Al  Al1  1  0.500000  0.752141  0.000000  1
  Al  Al2  1  0.999991  0.250148  0.161874  1
  Al  Al3  1  0.999985  0.749774  0.165158  1
  Al  Al4  1  0.499991  0.250073  0.332079  1
  Al  Al5  1  0.499987  0.749058  0.331489  1
  Al  Al6  1  0.000000  0.249666  0.500000  1
  Al  Al7  1  0.000000  0.750437  0.500000  1
  Al  Al8  1  0.500009  0.250073  0.667921  1
  Al  Al9  1  0.500013  0.749058  0.668511  1
  Al  Al10  1  0.000009  0.250148  0.838127  1
  Al  Al11  1  0.000015  0.749774  0.834843  1
  Co  Co12  1  0.000000  0.501913  0.000000  1
  Co  Co13  1  0.499991  0.000201  0.168852  1
  Co  Co14  1  0.999991  0.499148  0.334411  1
  Co  Co15  1  0.500000  0.999623  0.500000  1
  Co  Co16  1  0.000009  0.499148  0.665589  1
  Co  Co17  1  0.500009  0.000201  0.831148  1
  Ir  Ir18  1  0.000000  0.997223  0.000000  1
  Ir  Ir19  1  0.499988  0.500692  0.167848  1
  Ir  Ir20  1  0.999990  0.000261  0.333651  1
  Ir  Ir21  1  0.500000  0.500218  0.500000  1
  Ir  Ir22  1  0.000010  0.000261  0.666349  1
  Ir  Ir23  1  0.500012  0.500692  0.832152  1
