# generated using pymatgen
data_Pu3Pa(B4W)4
_symmetry_space_group_name_H-M   'P 1'
_cell_length_a   3.64913800
_cell_length_b   6.03643897
_cell_length_c   11.68336902
_cell_angle_alpha   89.91638546
_cell_angle_beta   90.00000000
_cell_angle_gamma   90.00000000
_symmetry_Int_Tables_number   1
_chemical_formula_structural   Pu3Pa(B4W)4
_chemical_formula_sum   'Pu3 Pa1 B16 W4'
_cell_volume   257.35862838
_cell_formula_units_Z   1
loop_
 _symmetry_equiv_pos_site_id
 _symmetry_equiv_pos_as_xyz
  1  'x, y, z'
loop_
 _atom_site_type_symbol
 _atom_site_label
 _atom_site_symmetry_multiplicity
 _atom_site_fract_x
 _atom_site_fract_y
 _atom_site_fract_z
 _atom_site_occupancy
  Pu  Pu0  1  0.000000  0.374388  0.650746  1
  Pu  Pu1  1  0.000000  0.124958  0.150229  1
  Pu  Pu2  1  0.000000  0.874569  0.849353  1
  Pa  Pa3  1  0.000000  0.624977  0.348970  1
  B  B4  1  0.500000  0.787112  0.187023  1
  B  B5  1  0.500000  0.212150  0.813314  1
  B  B6  1  0.500000  0.289936  0.313242  1
  B  B7  1  0.500000  0.712863  0.687521  1
  B  B8  1  0.500000  0.866137  0.031983  1
  B  B9  1  0.500000  0.133763  0.967912  1
  B  B10  1  0.500000  0.366983  0.467506  1
  B  B11  1  0.500000  0.634105  0.531694  1
  B  B12  1  0.500000  0.886033  0.453360  1
  B  B13  1  0.500000  0.116067  0.547667  1
  B  B14  1  0.500000  0.384185  0.046699  1
  B  B15  1  0.500000  0.615481  0.952620  1
  B  B16  1  0.500000  0.971232  0.307677  1
  B  B17  1  0.500000  0.025637  0.692922  1
  B  B18  1  0.500000  0.475010  0.192877  1
  B  B19  1  0.500000  0.525278  0.807090  1
  W  W20  1  0.000000  0.631867  0.086680  1
  W  W21  1  0.000000  0.367672  0.913035  1
  W  W22  1  0.000000  0.132816  0.412756  1
  W  W23  1  0.000000  0.866779  0.587124  1
