# generated using pymatgen
data_Li3TmU2O8
_symmetry_space_group_name_H-M   'P 1'
_cell_length_a   5.20671200
_cell_length_b   6.25667362
_cell_length_c   11.05039668
_cell_angle_alpha   86.75835434
_cell_angle_beta   90.00000000
_cell_angle_gamma   90.00000000
_symmetry_Int_Tables_number   1
_chemical_formula_structural   Li3TmU2O8
_chemical_formula_sum   'Li6 Tm2 U4 O16'
_cell_volume   359.40942802
_cell_formula_units_Z   2
loop_
 _symmetry_equiv_pos_site_id
 _symmetry_equiv_pos_as_xyz
  1  'x, y, z'
loop_
 _atom_site_type_symbol
 _atom_site_label
 _atom_site_symmetry_multiplicity
 _atom_site_fract_x
 _atom_site_fract_y
 _atom_site_fract_z
 _atom_site_occupancy
  Li  Li0  1  0.542994  0.727555  0.918470  1
  Li  Li1  1  0.042994  0.272445  0.581530  1
  Li  Li2  1  0.457006  0.272445  0.081530  1
  Li  Li3  1  0.957006  0.727555  0.418470  1
  Li  Li4  1  0.500000  0.500000  0.500000  1
  Li  Li5  1  0.000000  0.500000  0.000000  1
  Tm  Tm6  1  0.500000  0.000000  0.500000  1
  Tm  Tm7  1  0.000000  0.000000  0.000000  1
  U  U8  1  0.990798  0.743124  0.733638  1
  U  U9  1  0.490798  0.256876  0.766362  1
  U  U10  1  0.009202  0.256876  0.266362  1
  U  U11  1  0.509202  0.743124  0.233638  1
  O  O12  1  0.179446  0.741952  0.900333  1
  O  O13  1  0.221188  0.243035  0.424610  1
  O  O14  1  0.278812  0.243035  0.924610  1
  O  O15  1  0.721188  0.756965  0.075390  1
  O  O16  1  0.250211  0.015904  0.166682  1
  O  O17  1  0.750211  0.984096  0.333318  1
  O  O18  1  0.734086  0.511073  0.830659  1
  O  O19  1  0.234086  0.488927  0.669341  1
  O  O20  1  0.749789  0.984096  0.833318  1
  O  O21  1  0.249789  0.015904  0.666682  1
  O  O22  1  0.265914  0.488927  0.169341  1
  O  O23  1  0.765914  0.511073  0.330659  1
  O  O24  1  0.820554  0.258048  0.099667  1
  O  O25  1  0.320554  0.741952  0.400333  1
  O  O26  1  0.778812  0.756965  0.575390  1
  O  O27  1  0.679446  0.258048  0.599667  1
