# generated using pymatgen
data_Y7Er13Pt16
_symmetry_space_group_name_H-M   'P 1'
_cell_length_a   7.46057998
_cell_length_b   7.53858340
_cell_length_c   14.69282791
_cell_angle_alpha   90.02478448
_cell_angle_beta   90.07926672
_cell_angle_gamma   89.97216703
_symmetry_Int_Tables_number   1
_chemical_formula_structural   Y7Er13Pt16
_chemical_formula_sum   'Y7 Er13 Pt16'
_cell_volume   826.35606470
_cell_formula_units_Z   1
loop_
 _symmetry_equiv_pos_site_id
 _symmetry_equiv_pos_as_xyz
  1  'x, y, z'
loop_
 _atom_site_type_symbol
 _atom_site_label
 _atom_site_symmetry_multiplicity
 _atom_site_fract_x
 _atom_site_fract_y
 _atom_site_fract_z
 _atom_site_occupancy
  Y  Y0  1  0.498834  0.679510  0.093130  1
  Y  Y1  1  0.501330  0.320508  0.592887  1
  Y  Y2  1  0.001213  0.179535  0.906957  1
  Y  Y3  1  0.000831  0.178726  0.592675  1
  Y  Y4  1  0.501323  0.320619  0.906966  1
  Y  Y5  1  0.498832  0.679679  0.407161  1
  Y  Y6  1  0.998818  0.820320  0.092857  1
  Er  Er7  1  0.681144  0.988975  0.250170  1
  Er  Er8  1  0.181141  0.511225  0.250202  1
  Er  Er9  1  0.818989  0.488883  0.749985  1
  Er  Er10  1  0.318917  0.011069  0.750096  1
  Er  Er11  1  0.655855  0.832302  0.622328  1
  Er  Er12  1  0.155892  0.667819  0.877688  1
  Er  Er13  1  0.844156  0.332064  0.377623  1
  Er  Er14  1  0.343961  0.167903  0.122381  1
  Er  Er15  1  0.343659  0.167586  0.377782  1
  Er  Er16  1  0.844112  0.332067  0.122437  1
  Er  Er17  1  0.155442  0.668230  0.622163  1
  Er  Er18  1  0.655936  0.832098  0.877800  1
  Er  Er19  1  0.997802  0.819418  0.406861  1
  Pt  Pt20  1  0.817265  0.642319  0.251003  1
  Pt  Pt21  1  0.315767  0.858353  0.250474  1
  Pt  Pt22  1  0.683789  0.141738  0.749719  1
  Pt  Pt23  1  0.183858  0.358466  0.749709  1
  Pt  Pt24  1  0.547234  0.385301  0.250208  1
  Pt  Pt25  1  0.046771  0.114277  0.250505  1
  Pt  Pt26  1  0.953080  0.885061  0.749866  1
  Pt  Pt27  1  0.453067  0.615036  0.749815  1
  Pt  Pt28  1  0.817719  0.533989  0.541311  1
  Pt  Pt29  1  0.317530  0.966709  0.958244  1
  Pt  Pt30  1  0.684147  0.032062  0.457943  1
  Pt  Pt31  1  0.182342  0.466902  0.041877  1
  Pt  Pt32  1  0.181990  0.468183  0.457784  1
  Pt  Pt33  1  0.682474  0.033351  0.041830  1
  Pt  Pt34  1  0.317242  0.966437  0.541310  1
  Pt  Pt35  1  0.817540  0.533279  0.958253  1
