# generated using pymatgen
data_Cs2Ta3NbBr22
_symmetry_space_group_name_H-M   'P 1'
_cell_length_a   7.76345534
_cell_length_b   7.82753525
_cell_length_c   19.18545213
_cell_angle_alpha   79.05517973
_cell_angle_beta   78.86955286
_cell_angle_gamma   88.65280890
_symmetry_Int_Tables_number   1
_chemical_formula_structural   Cs2Ta3NbBr22
_chemical_formula_sum   'Cs2 Ta3 Nb1 Br22'
_cell_volume   1123.03320288
_cell_formula_units_Z   1
loop_
 _symmetry_equiv_pos_site_id
 _symmetry_equiv_pos_as_xyz
  1  'x, y, z'
loop_
 _atom_site_type_symbol
 _atom_site_label
 _atom_site_symmetry_multiplicity
 _atom_site_fract_x
 _atom_site_fract_y
 _atom_site_fract_z
 _atom_site_occupancy
  Cs  Cs0  1  0.747901  0.748958  0.502538  1
  Cs  Cs1  1  0.252490  0.251349  0.496825  1
  Ta  Ta2  1  0.324952  0.821307  0.339139  1
  Ta  Ta3  1  0.675238  0.178774  0.660819  1
  Ta  Ta4  1  0.834688  0.333234  0.085382  1
  Nb  Nb5  1  0.167638  0.669386  0.913410  1
  Br  Br6  1  0.255753  0.766518  0.483823  1
  Br  Br7  1  0.744229  0.233365  0.516356  1
  Br  Br8  1  0.565389  0.029382  0.344140  1
  Br  Br9  1  0.434575  0.970595  0.656038  1
  Br  Br10  1  0.539542  0.571721  0.350218  1
  Br  Br11  1  0.460507  0.428219  0.650001  1
  Br  Br12  1  0.385780  0.865241  0.206924  1
  Br  Br13  1  0.614202  0.134578  0.793220  1
  Br  Br14  1  0.077296  0.604612  0.351096  1
  Br  Br15  1  0.922813  0.395221  0.649099  1
  Br  Br16  1  0.106550  0.066095  0.341677  1
  Br  Br17  1  0.893384  0.933754  0.658562  1
  Br  Br18  1  0.897866  0.041401  0.145759  1
  Br  Br19  1  0.099866  0.961163  0.854121  1
  Br  Br20  1  0.537692  0.381007  0.147991  1
  Br  Br21  1  0.464694  0.617585  0.851593  1
  Br  Br22  1  0.726308  0.222149  0.988109  1
  Br  Br23  1  0.273262  0.777177  0.012446  1
  Br  Br24  1  0.972738  0.476339  0.166563  1
  Br  Br25  1  0.026524  0.522470  0.833352  1
  Br  Br26  1  0.161034  0.344067  0.999993  1
  Br  Br27  1  0.837091  0.654333  0.000806  1
