# generated using pymatgen
data_DyY3(Ga8Pd3)3
_symmetry_space_group_name_H-M   'P 1'
_cell_length_a   7.52481307
_cell_length_b   7.59481210
_cell_length_c   13.40122300
_cell_angle_alpha   84.76746664
_cell_angle_beta   79.53719385
_cell_angle_gamma   60.21316110
_symmetry_Int_Tables_number   1
_chemical_formula_structural   DyY3(Ga8Pd3)3
_chemical_formula_sum   'Dy1 Y3 Ga24 Pd9'
_cell_volume   653.63401935
_cell_formula_units_Z   1
loop_
 _symmetry_equiv_pos_site_id
 _symmetry_equiv_pos_as_xyz
  1  'x, y, z'
loop_
 _atom_site_type_symbol
 _atom_site_label
 _atom_site_symmetry_multiplicity
 _atom_site_fract_x
 _atom_site_fract_y
 _atom_site_fract_z
 _atom_site_occupancy
  Dy  Dy0  1  0.268060  0.502604  0.188581  1
  Y  Y1  1  0.393636  0.168795  0.811357  1
  Y  Y2  1  0.606275  0.831231  0.188736  1
  Y  Y3  1  0.731963  0.497308  0.811521  1
  Ga  Ga4  1  0.686457  0.833693  0.939984  1
  Ga  Ga5  1  0.313581  0.166608  0.060484  1
  Ga  Ga6  1  0.144679  0.834542  0.558758  1
  Ga  Ga7  1  0.855455  0.165412  0.441080  1
  Ga  Ga8  1  0.478390  0.167027  0.556305  1
  Ga  Ga9  1  0.521692  0.832953  0.443510  1
  Ga  Ga10  1  0.221058  0.165057  0.324550  1
  Ga  Ga11  1  0.779148  0.835065  0.675073  1
  Ga  Ga12  1  0.436689  0.504116  0.673872  1
  Ga  Ga13  1  0.563163  0.496036  0.325762  1
  Ga  Ga14  1  0.106921  0.162576  0.673344  1
  Ga  Ga15  1  0.893376  0.837121  0.326255  1
  Ga  Ga16  1  0.355499  0.499451  0.940832  1
  Ga  Ga17  1  0.643683  0.500799  0.059869  1
  Ga  Ga18  1  0.019017  0.167794  0.945406  1
  Ga  Ga19  1  0.981042  0.831760  0.055156  1
  Ga  Ga20  1  0.187269  0.499852  0.442616  1
  Ga  Ga21  1  0.812887  0.500209  0.557103  1
  Ga  Ga22  1  0.734231  0.164624  0.182113  1
  Ga  Ga23  1  0.265335  0.835950  0.817895  1
  Ga  Ga24  1  0.061228  0.630673  0.816922  1
  Ga  Ga25  1  0.939451  0.369042  0.183097  1
  Ga  Ga26  1  0.856769  0.039483  0.816751  1
  Ga  Ga27  1  0.143051  0.960015  0.183246  1
  Pd  Pd28  1  0.116861  0.496717  0.638789  1
  Pd  Pd29  1  0.883243  0.503188  0.361063  1
  Pd  Pd30  1  0.659971  0.169706  0.999051  1
  Pd  Pd31  1  0.340074  0.830441  0.001045  1
  Pd  Pd32  1  0.542155  0.166862  0.360295  1
  Pd  Pd33  1  0.457937  0.833165  0.639591  1
  Pd  Pd34  1  0.779098  0.171624  0.637903  1
  Pd  Pd35  1  0.220865  0.828472  0.361992  1
  Pd  Pd36  1  0.999792  0.500031  0.000091  1
