# generated using pymatgen
data_Sc6TiAl12V3Os7
_symmetry_space_group_name_H-M   'P 1'
_cell_length_a   8.77028063
_cell_length_b   8.77028118
_cell_length_c   8.77336327
_cell_angle_alpha   60.01162319
_cell_angle_beta   60.01162073
_cell_angle_gamma   60.00000368
_symmetry_Int_Tables_number   1
_chemical_formula_structural   Sc6TiAl12V3Os7
_chemical_formula_sum   'Sc6 Ti1 Al12 V3 Os7'
_cell_volume   477.25930247
_cell_formula_units_Z   1
loop_
 _symmetry_equiv_pos_site_id
 _symmetry_equiv_pos_as_xyz
  1  'x, y, z'
loop_
 _atom_site_type_symbol
 _atom_site_label
 _atom_site_symmetry_multiplicity
 _atom_site_fract_x
 _atom_site_fract_y
 _atom_site_fract_z
 _atom_site_occupancy
  Sc  Sc0  1  0.713339  0.713339  0.285626  1
  Sc  Sc1  1  0.287697  0.713339  0.285626  1
  Sc  Sc2  1  0.713339  0.287697  0.285626  1
  Sc  Sc3  1  0.285222  0.285222  0.714715  1
  Sc  Sc4  1  0.714842  0.285222  0.714715  1
  Sc  Sc5  1  0.285222  0.714842  0.714715  1
  Ti  Ti6  1  0.880296  0.880296  0.359113  1
  Al  Al7  1  0.120793  0.120793  0.637621  1
  Al  Al8  1  0.119787  0.640192  0.120236  1
  Al  Al9  1  0.640192  0.119787  0.120236  1
  Al  Al10  1  0.119787  0.119787  0.120236  1
  Al  Al11  1  0.665155  0.665155  0.004534  1
  Al  Al12  1  0.664763  0.005157  0.665318  1
  Al  Al13  1  0.005157  0.664763  0.665318  1
  Al  Al14  1  0.664763  0.664763  0.665318  1
  Al  Al15  1  0.336002  0.336002  0.991993  1
  Al  Al16  1  0.335644  0.993247  0.335465  1
  Al  Al17  1  0.993247  0.335644  0.335465  1
  Al  Al18  1  0.335644  0.335644  0.335465  1
  V  V19  1  0.878905  0.362148  0.880042  1
  V  V20  1  0.362148  0.878905  0.880042  1
  V  V21  1  0.878905  0.878905  0.880042  1
  Os  Os22  1  0.002692  0.002692  0.991924  1
  Os  Os23  1  0.997363  0.997363  0.506425  1
  Os  Os24  1  0.498850  0.997363  0.506425  1
  Os  Os25  1  0.997363  0.498850  0.506425  1
  Os  Os26  1  0.503132  0.503132  0.997113  1
  Os  Os27  1  0.996623  0.503132  0.997113  1
  Os  Os28  1  0.503132  0.996623  0.997113  1
