# generated using pymatgen
data_Mg3(GaNi2)2
_symmetry_space_group_name_H-M   'P 1'
_cell_length_a   4.99952041
_cell_length_b   4.99952055
_cell_length_c   11.68879241
_cell_angle_alpha   88.89611523
_cell_angle_beta   88.89611562
_cell_angle_gamma   60.71391407
_symmetry_Int_Tables_number   1
_chemical_formula_structural   Mg3(GaNi2)2
_chemical_formula_sum   'Mg6 Ga4 Ni8'
_cell_volume   254.75823678
_cell_formula_units_Z   2
loop_
 _symmetry_equiv_pos_site_id
 _symmetry_equiv_pos_as_xyz
  1  'x, y, z'
loop_
 _atom_site_type_symbol
 _atom_site_label
 _atom_site_symmetry_multiplicity
 _atom_site_fract_x
 _atom_site_fract_y
 _atom_site_fract_z
 _atom_site_occupancy
  Mg  Mg0  1  0.165663  0.165663  0.540547  1
  Mg  Mg1  1  0.830918  0.830918  0.218976  1
  Mg  Mg2  1  0.494491  0.494491  0.870429  1
  Mg  Mg3  1  0.834337  0.834337  0.459453  1
  Mg  Mg4  1  0.505509  0.505509  0.129571  1
  Mg  Mg5  1  0.169082  0.169082  0.781024  1
  Ga  Ga6  1  0.179670  0.179670  0.173592  1
  Ga  Ga7  1  0.820330  0.820330  0.826408  1
  Ga  Ga8  1  0.500000  0.500000  0.500000  1
  Ga  Ga9  1  0.000000  0.000000  0.000000  1
  Ni  Ni10  1  0.664209  0.664209  0.662466  1
  Ni  Ni11  1  0.335791  0.335791  0.337534  1
  Ni  Ni12  1  0.000000  0.500000  0.000000  1
  Ni  Ni13  1  0.666815  0.166157  0.665188  1
  Ni  Ni14  1  0.333185  0.833843  0.334812  1
  Ni  Ni15  1  0.833843  0.333185  0.334812  1
  Ni  Ni16  1  0.500000  0.000000  0.000000  1
  Ni  Ni17  1  0.166157  0.666815  0.665188  1
