# generated using pymatgen
data_Eu2Dy3Sn4
_symmetry_space_group_name_H-M   'P 1'
_cell_length_a   8.13563200
_cell_length_b   8.32433300
_cell_length_c   15.71344200
_cell_angle_alpha   90.00000000
_cell_angle_beta   90.00000000
_cell_angle_gamma   90.00000000
_symmetry_Int_Tables_number   1
_chemical_formula_structural   Eu2Dy3Sn4
_chemical_formula_sum   'Eu8 Dy12 Sn16'
_cell_volume   1064.17258806
_cell_formula_units_Z   4
loop_
 _symmetry_equiv_pos_site_id
 _symmetry_equiv_pos_as_xyz
  1  'x, y, z'
loop_
 _atom_site_type_symbol
 _atom_site_label
 _atom_site_symmetry_multiplicity
 _atom_site_fract_x
 _atom_site_fract_y
 _atom_site_fract_z
 _atom_site_occupancy
  Eu  Eu0  1  0.504415  0.323829  0.906543  1
  Eu  Eu1  1  0.004415  0.176171  0.593457  1
  Eu  Eu2  1  0.495585  0.676171  0.406543  1
  Eu  Eu3  1  0.995585  0.823829  0.093457  1
  Eu  Eu4  1  0.495585  0.676171  0.093457  1
  Eu  Eu5  1  0.995585  0.823829  0.406543  1
  Eu  Eu6  1  0.504415  0.323829  0.593457  1
  Eu  Eu7  1  0.004415  0.176171  0.906543  1
  Dy  Dy8  1  0.339254  0.834780  0.875999  1
  Dy  Dy9  1  0.839254  0.665220  0.624001  1
  Dy  Dy10  1  0.660746  0.165220  0.375999  1
  Dy  Dy11  1  0.160746  0.334780  0.124001  1
  Dy  Dy12  1  0.660746  0.165220  0.124001  1
  Dy  Dy13  1  0.160746  0.334780  0.375999  1
  Dy  Dy14  1  0.339254  0.834780  0.624001  1
  Dy  Dy15  1  0.839254  0.665220  0.875999  1
  Dy  Dy16  1  0.177572  0.494439  0.750000  1
  Dy  Dy17  1  0.677572  0.005561  0.750000  1
  Dy  Dy18  1  0.822428  0.505561  0.250000  1
  Dy  Dy19  1  0.322428  0.994439  0.250000  1
  Sn  Sn20  1  0.328730  0.039824  0.042034  1
  Sn  Sn21  1  0.828730  0.460176  0.457966  1
  Sn  Sn22  1  0.671270  0.960176  0.542034  1
  Sn  Sn23  1  0.171270  0.539824  0.957966  1
  Sn  Sn24  1  0.671270  0.960176  0.957966  1
  Sn  Sn25  1  0.171270  0.539824  0.542034  1
  Sn  Sn26  1  0.328730  0.039824  0.457966  1
  Sn  Sn27  1  0.828730  0.460176  0.042034  1
  Sn  Sn28  1  0.540201  0.622309  0.750000  1
  Sn  Sn29  1  0.040201  0.877691  0.750000  1
  Sn  Sn30  1  0.459799  0.377691  0.250000  1
  Sn  Sn31  1  0.959799  0.122309  0.250000  1
  Sn  Sn32  1  0.307586  0.135747  0.750000  1
  Sn  Sn33  1  0.807586  0.364253  0.750000  1
  Sn  Sn34  1  0.692414  0.864253  0.250000  1
  Sn  Sn35  1  0.192414  0.635747  0.250000  1
