# generated using pymatgen
data_ErLu2(ThIr6)3
_symmetry_space_group_name_H-M   'P 1'
_cell_length_a   5.33478827
_cell_length_b   5.33478891
_cell_length_c   17.87619950
_cell_angle_alpha   98.58143794
_cell_angle_beta   98.58143791
_cell_angle_gamma   60.00000127
_symmetry_Int_Tables_number   1
_chemical_formula_structural   ErLu2(ThIr6)3
_chemical_formula_sum   'Er1 Lu2 Th3 Ir18'
_cell_volume   434.00648717
_cell_formula_units_Z   1
loop_
 _symmetry_equiv_pos_site_id
 _symmetry_equiv_pos_as_xyz
  1  'x, y, z'
loop_
 _atom_site_type_symbol
 _atom_site_label
 _atom_site_symmetry_multiplicity
 _atom_site_fract_x
 _atom_site_fract_y
 _atom_site_fract_z
 _atom_site_occupancy
  Er  Er0  1  0.429024  0.429024  0.287073  1
  Lu  Lu1  1  0.931573  0.931573  0.794719  1
  Lu  Lu2  1  0.070397  0.070397  0.211190  1
  Th  Th3  1  0.570169  0.570169  0.710505  1
  Th  Th4  1  0.000844  0.000844  0.002531  1
  Th  Th5  1  0.498256  0.498256  0.494767  1
  Ir  Ir6  1  0.457387  0.958336  0.374058  1
  Ir  Ir7  1  0.959501  0.458788  0.877077  1
  Ir  Ir8  1  0.958336  0.958336  0.374058  1
  Ir  Ir9  1  0.458788  0.458788  0.877077  1
  Ir  Ir10  1  0.958336  0.457387  0.374058  1
  Ir  Ir11  1  0.458788  0.959501  0.877077  1
  Ir  Ir12  1  0.042191  0.541751  0.125693  1
  Ir  Ir13  1  0.540887  0.040826  0.622540  1
  Ir  Ir14  1  0.541751  0.541751  0.125693  1
  Ir  Ir15  1  0.040826  0.040826  0.622540  1
  Ir  Ir16  1  0.541751  0.042191  0.125693  1
  Ir  Ir17  1  0.040826  0.540887  0.622540  1
  Ir  Ir18  1  0.333952  0.333952  0.001857  1
  Ir  Ir19  1  0.833029  0.833029  0.499088  1
  Ir  Ir20  1  0.166213  0.166213  0.498639  1
  Ir  Ir21  1  0.666851  0.666851  0.000550  1
  Ir  Ir22  1  0.749992  0.749992  0.249976  1
  Ir  Ir23  1  0.250335  0.250335  0.751005  1
