# generated using pymatgen
data_RbCdWF7
_symmetry_space_group_name_H-M   'P 1'
_cell_length_a   6.59336402
_cell_length_b   6.59336513
_cell_length_c   8.64083000
_cell_angle_alpha   90.00000000
_cell_angle_beta   90.00000000
_cell_angle_gamma   117.02950235
_symmetry_Int_Tables_number   1
_chemical_formula_structural   RbCdWF7
_chemical_formula_sum   'Rb2 Cd2 W2 F14'
_cell_volume   334.60814720
_cell_formula_units_Z   2
loop_
 _symmetry_equiv_pos_site_id
 _symmetry_equiv_pos_as_xyz
  1  'x, y, z'
loop_
 _atom_site_type_symbol
 _atom_site_label
 _atom_site_symmetry_multiplicity
 _atom_site_fract_x
 _atom_site_fract_y
 _atom_site_fract_z
 _atom_site_occupancy
  Rb  Rb0  1  0.000000  0.000000  0.000000  1
  Rb  Rb1  1  0.000000  0.000000  0.500000  1
  Cd  Cd2  1  0.309263  0.690737  0.750000  1
  Cd  Cd3  1  0.690737  0.309263  0.250000  1
  W  W4  1  0.694027  0.305973  0.750000  1
  W  W5  1  0.305973  0.694027  0.250000  1
  F  F6  1  0.350784  0.066903  0.750000  1
  F  F7  1  0.649216  0.933097  0.250000  1
  F  F8  1  0.933097  0.649216  0.750000  1
  F  F9  1  0.066903  0.350784  0.250000  1
  F  F10  1  0.512590  0.487410  0.750000  1
  F  F11  1  0.487410  0.512590  0.250000  1
  F  F12  1  0.701859  0.298141  0.989145  1
  F  F13  1  0.298141  0.701859  0.010855  1
  F  F14  1  0.298141  0.701859  0.489145  1
  F  F15  1  0.701859  0.298141  0.510855  1
  F  F16  1  0.672954  0.979390  0.750000  1
  F  F17  1  0.327046  0.020610  0.250000  1
  F  F18  1  0.020610  0.327046  0.750000  1
  F  F19  1  0.979390  0.672954  0.250000  1
