# generated using pymatgen
data_CaYb(GePd2)2
_symmetry_space_group_name_H-M   'P 1'
_cell_length_a   5.60267794
_cell_length_b   7.12460900
_cell_length_c   7.51449640
_cell_angle_alpha   90.00000000
_cell_angle_beta   90.03833913
_cell_angle_gamma   90.00000000
_symmetry_Int_Tables_number   1
_chemical_formula_structural   CaYb(GePd2)2
_chemical_formula_sum   'Ca2 Yb2 Ge4 Pd8'
_cell_volume   299.95525674
_cell_formula_units_Z   2
loop_
 _symmetry_equiv_pos_site_id
 _symmetry_equiv_pos_as_xyz
  1  'x, y, z'
loop_
 _atom_site_type_symbol
 _atom_site_label
 _atom_site_symmetry_multiplicity
 _atom_site_fract_x
 _atom_site_fract_y
 _atom_site_fract_z
 _atom_site_occupancy
  Ca  Ca0  1  0.131600  0.750000  0.525417  1
  Ca  Ca1  1  0.868400  0.250000  0.474583  1
  Yb  Yb2  1  0.637139  0.250000  0.974422  1
  Yb  Yb3  1  0.362861  0.750000  0.025578  1
  Ge  Ge4  1  0.865872  0.750000  0.878329  1
  Ge  Ge5  1  0.134128  0.250000  0.121671  1
  Ge  Ge6  1  0.369801  0.250000  0.624190  1
  Ge  Ge7  1  0.630199  0.750000  0.375810  1
  Pd  Pd8  1  0.597191  0.553802  0.675211  1
  Pd  Pd9  1  0.402809  0.446198  0.324789  1
  Pd  Pd10  1  0.101302  0.447365  0.829756  1
  Pd  Pd11  1  0.402809  0.053802  0.324789  1
  Pd  Pd12  1  0.898698  0.552635  0.170244  1
  Pd  Pd13  1  0.597191  0.946198  0.675211  1
  Pd  Pd14  1  0.898698  0.947365  0.170244  1
  Pd  Pd15  1  0.101302  0.052635  0.829756  1
