# generated using pymatgen
data_Mg4ZnB4Ir3Rh5
_symmetry_space_group_name_H-M   'P 1'
_cell_length_a   9.60960942
_cell_length_b   9.58768815
_cell_length_c   2.93578200
_cell_angle_alpha   90.00000000
_cell_angle_beta   90.00000000
_cell_angle_gamma   126.61723841
_symmetry_Int_Tables_number   1
_chemical_formula_structural   Mg4ZnB4Ir3Rh5
_chemical_formula_sum   'Mg4 Zn1 B4 Ir3 Rh5'
_cell_volume   217.10168103
_cell_formula_units_Z   1
loop_
 _symmetry_equiv_pos_site_id
 _symmetry_equiv_pos_as_xyz
  1  'x, y, z'
loop_
 _atom_site_type_symbol
 _atom_site_label
 _atom_site_symmetry_multiplicity
 _atom_site_fract_x
 _atom_site_fract_y
 _atom_site_fract_z
 _atom_site_occupancy
  Mg  Mg0  1  0.201308  0.794864  0.500000  1
  Mg  Mg1  1  0.798692  0.205136  0.500000  1
  Mg  Mg2  1  0.345779  0.345713  0.500000  1
  Mg  Mg3  1  0.654221  0.654287  0.500000  1
  Zn  Zn4  1  0.000000  0.000000  0.500000  1
  B  B5  1  0.462550  0.152328  0.500000  1
  B  B6  1  0.153477  0.463161  0.500000  1
  B  B7  1  0.537450  0.847672  0.500000  1
  B  B8  1  0.846523  0.536839  0.500000  1
  Ir  Ir9  1  0.631729  0.368711  0.000000  1
  Ir  Ir10  1  0.368271  0.631289  0.000000  1
  Ir  Ir11  1  0.500000  0.000000  0.000000  1
  Rh  Rh12  1  0.922441  0.734041  0.000000  1
  Rh  Rh13  1  0.077559  0.265959  0.000000  1
  Rh  Rh14  1  0.265336  0.076936  0.000000  1
  Rh  Rh15  1  0.734664  0.923064  0.000000  1
  Rh  Rh16  1  0.000000  0.500000  0.000000  1
