# generated using pymatgen
data_DyEr5Al24(CoRu3)2
_symmetry_space_group_name_H-M   'P 1'
_cell_length_a   8.73792100
_cell_length_b   8.73632163
_cell_length_c   9.50762300
_cell_angle_alpha   90.00000000
_cell_angle_beta   90.00000000
_cell_angle_gamma   120.00605235
_symmetry_Int_Tables_number   1
_chemical_formula_structural   DyEr5Al24(CoRu3)2
_chemical_formula_sum   'Dy1 Er5 Al24 Co2 Ru6'
_cell_volume   628.51091275
_cell_formula_units_Z   1
loop_
 _symmetry_equiv_pos_site_id
 _symmetry_equiv_pos_as_xyz
  1  'x, y, z'
loop_
 _atom_site_type_symbol
 _atom_site_label
 _atom_site_symmetry_multiplicity
 _atom_site_fract_x
 _atom_site_fract_y
 _atom_site_fract_z
 _atom_site_occupancy
  Dy  Dy0  1  0.193964  0.387929  0.250000  1
  Er  Er1  1  0.805903  0.611806  0.750000  1
  Er  Er2  1  0.611894  0.806063  0.250000  1
  Er  Er3  1  0.388210  0.194059  0.750000  1
  Er  Er4  1  0.194168  0.806063  0.250000  1
  Er  Er5  1  0.805850  0.194059  0.750000  1
  Al  Al6  1  0.333389  0.666780  0.016669  1
  Al  Al7  1  0.666660  0.333319  0.983267  1
  Al  Al8  1  0.666660  0.333319  0.516733  1
  Al  Al9  1  0.333389  0.666780  0.483331  1
  Al  Al10  1  0.159637  0.319274  0.576961  1
  Al  Al11  1  0.840349  0.680698  0.423133  1
  Al  Al12  1  0.680702  0.840343  0.576876  1
  Al  Al13  1  0.840349  0.680698  0.076867  1
  Al  Al14  1  0.319333  0.159578  0.423173  1
  Al  Al15  1  0.159637  0.319274  0.923039  1
  Al  Al16  1  0.159641  0.840343  0.576876  1
  Al  Al17  1  0.319333  0.159578  0.076827  1
  Al  Al18  1  0.840244  0.159578  0.423173  1
  Al  Al19  1  0.680702  0.840343  0.923124  1
  Al  Al20  1  0.840244  0.159578  0.076827  1
  Al  Al21  1  0.159641  0.840343  0.923124  1
  Al  Al22  1  0.561125  0.122250  0.250000  1
  Al  Al23  1  0.438863  0.877725  0.750000  1
  Al  Al24  1  0.877570  0.438889  0.250000  1
  Al  Al25  1  0.122260  0.561125  0.750000  1
  Al  Al26  1  0.561318  0.438889  0.250000  1
  Al  Al27  1  0.438866  0.561125  0.750000  1
  Al  Al28  1  0.999916  0.999833  0.250000  1
  Al  Al29  1  0.999999  0.999997  0.750000  1
  Co  Co30  1  0.000006  0.000012  0.000013  1
  Co  Co31  1  0.000006  0.000012  0.499987  1
  Ru  Ru32  1  0.500026  0.000053  0.999970  1
  Ru  Ru33  1  0.999912  0.500059  0.999900  1
  Ru  Ru34  1  0.500026  0.000053  0.500030  1
  Ru  Ru35  1  0.500147  0.500059  0.999900  1
  Ru  Ru36  1  0.999912  0.500059  0.500100  1
  Ru  Ru37  1  0.500147  0.500059  0.500100  1
