# generated using pymatgen
data_La13CeIr6
_symmetry_space_group_name_H-M   'P 1'
_cell_length_a   6.52268001
_cell_length_b   10.20182598
_cell_length_c   10.20182505
_cell_angle_alpha   119.98558721
_cell_angle_beta   89.99523344
_cell_angle_gamma   90.00477762
_symmetry_Int_Tables_number   1
_chemical_formula_structural   La13CeIr6
_chemical_formula_sum   'La13 Ce1 Ir6'
_cell_volume   587.99758453
_cell_formula_units_Z   1
loop_
 _symmetry_equiv_pos_site_id
 _symmetry_equiv_pos_as_xyz
  1  'x, y, z'
loop_
 _atom_site_type_symbol
 _atom_site_label
 _atom_site_symmetry_multiplicity
 _atom_site_fract_x
 _atom_site_fract_y
 _atom_site_fract_z
 _atom_site_occupancy
  La  La0  1  0.975044  0.666686  0.333314  1
  La  La1  1  0.249337  0.126063  0.873937  1
  La  La2  1  0.249372  0.747796  0.873938  1
  La  La3  1  0.249372  0.126062  0.252204  1
  La  La4  1  0.748145  0.874486  0.125514  1
  La  La5  1  0.748213  0.251111  0.125566  1
  La  La6  1  0.748213  0.874434  0.748889  1
  La  La7  1  0.437357  0.537462  0.462538  1
  La  La8  1  0.437113  0.925180  0.462636  1
  La  La9  1  0.437113  0.537364  0.074820  1
  La  La10  1  0.940322  0.460271  0.539729  1
  La  La11  1  0.940039  0.079448  0.539696  1
  La  La12  1  0.940039  0.460304  0.920552  1
  Ce  Ce13  1  0.486994  0.333291  0.666709  1
  Ir  Ir14  1  0.189864  0.811862  0.188138  1
  Ir  Ir15  1  0.189731  0.376227  0.188106  1
  Ir  Ir16  1  0.189731  0.811894  0.623773  1
  Ir  Ir17  1  0.681940  0.191789  0.808211  1
  Ir  Ir18  1  0.682028  0.616394  0.808125  1
  Ir  Ir19  1  0.682028  0.191875  0.383606  1
