# generated using pymatgen
data_BaCa2(AgSn)3
_symmetry_space_group_name_H-M   'P 1'
_cell_length_a   4.89427600
_cell_length_b   4.89427606
_cell_length_c   11.95153500
_cell_angle_alpha   90.00000000
_cell_angle_beta   90.00000000
_cell_angle_gamma   119.99998605
_symmetry_Int_Tables_number   1
_chemical_formula_structural   BaCa2(AgSn)3
_chemical_formula_sum   'Ba1 Ca2 Ag3 Sn3'
_cell_volume   247.93126671
_cell_formula_units_Z   1
loop_
 _symmetry_equiv_pos_site_id
 _symmetry_equiv_pos_as_xyz
  1  'x, y, z'
loop_
 _atom_site_type_symbol
 _atom_site_label
 _atom_site_symmetry_multiplicity
 _atom_site_fract_x
 _atom_site_fract_y
 _atom_site_fract_z
 _atom_site_occupancy
  Ba  Ba0  1  0.000000  0.000000  0.828616  1
  Ca  Ca1  1  0.000000  0.000000  0.485220  1
  Ca  Ca2  1  0.000000  0.000000  0.176496  1
  Ag  Ag3  1  0.666667  0.333333  0.029376  1
  Ag  Ag4  1  0.333333  0.666667  0.633760  1
  Ag  Ag5  1  0.333333  0.666667  0.303523  1
  Sn  Sn6  1  0.666667  0.333333  0.618258  1
  Sn  Sn7  1  0.666667  0.333333  0.351606  1
  Sn  Sn8  1  0.333333  0.666667  0.029143  1
