# generated using pymatgen
data_Tb8Hf3Zr9Si15As
_symmetry_space_group_name_H-M   'P 1'
_cell_length_a   7.33382983
_cell_length_b   7.34106283
_cell_length_c   13.49608547
_cell_angle_alpha   89.68349381
_cell_angle_beta   89.98261664
_cell_angle_gamma   89.92657155
_symmetry_Int_Tables_number   1
_chemical_formula_structural   Tb8Hf3Zr9Si15As
_chemical_formula_sum   'Tb8 Hf3 Zr9 Si15 As1'
_cell_volume   726.59195885
_cell_formula_units_Z   1
loop_
 _symmetry_equiv_pos_site_id
 _symmetry_equiv_pos_as_xyz
  1  'x, y, z'
loop_
 _atom_site_type_symbol
 _atom_site_label
 _atom_site_symmetry_multiplicity
 _atom_site_fract_x
 _atom_site_fract_y
 _atom_site_fract_z
 _atom_site_occupancy
  Tb  Tb0  1  0.996620  0.345757  0.214456  1
  Tb  Tb1  1  0.004065  0.655643  0.714313  1
  Tb  Tb2  1  0.152258  0.500206  0.465855  1
  Tb  Tb3  1  0.506461  0.843613  0.034827  1
  Tb  Tb4  1  0.845618  0.502576  0.964161  1
  Tb  Tb5  1  0.496482  0.153658  0.536161  1
  Tb  Tb6  1  0.346158  0.996530  0.785850  1
  Tb  Tb7  1  0.653104  0.003985  0.285016  1
  Hf  Hf8  1  0.652267  0.507827  0.376622  1
  Hf  Hf9  1  0.995200  0.148988  0.625102  1
  Hf  Hf10  1  0.001617  0.848999  0.124403  1
  Zr  Zr11  1  0.174767  0.175196  0.000108  1
  Zr  Zr12  1  0.825612  0.826434  0.499800  1
  Zr  Zr13  1  0.324688  0.677403  0.249943  1
  Zr  Zr14  1  0.675034  0.324813  0.749735  1
  Zr  Zr15  1  0.148056  0.996059  0.373182  1
  Zr  Zr16  1  0.852456  0.003528  0.875094  1
  Zr  Zr17  1  0.503613  0.648511  0.624743  1
  Zr  Zr18  1  0.352140  0.495926  0.875087  1
  Zr  Zr19  1  0.494511  0.348901  0.126013  1
  Si  Si20  1  0.638392  0.706680  0.816119  1
  Si  Si21  1  0.204480  0.864521  0.566316  1
  Si  Si22  1  0.137808  0.793425  0.933689  1
  Si  Si23  1  0.794506  0.137315  0.067316  1
  Si  Si24  1  0.861216  0.207134  0.433402  1
  Si  Si25  1  0.292378  0.360639  0.682706  1
  Si  Si26  1  0.705778  0.637133  0.184337  1
  Si  Si27  1  0.292978  0.038643  0.180388  1
  Si  Si28  1  0.706077  0.950287  0.686516  1
  Si  Si29  1  0.450718  0.795304  0.436470  1
  Si  Si30  1  0.203436  0.550443  0.063621  1
  Si  Si31  1  0.550809  0.204294  0.937240  1
  Si  Si32  1  0.795257  0.449129  0.563412  1
  Si  Si33  1  0.050802  0.294979  0.812016  1
  Si  Si34  1  0.949380  0.704629  0.313083  1
  As  As35  1  0.365258  0.300895  0.322894  1
