# generated using pymatgen
data_Hf9TaReNiW2
_symmetry_space_group_name_H-M   'P 1'
_cell_length_a   8.72162855
_cell_length_b   8.71007506
_cell_length_c   8.51274000
_cell_angle_alpha   90.00000000
_cell_angle_beta   90.00000000
_cell_angle_gamma   119.95619230
_symmetry_Int_Tables_number   1
_chemical_formula_structural   Hf9TaReNiW2
_chemical_formula_sum   'Hf18 Ta2 Re2 Ni2 W4'
_cell_volume   560.28762269
_cell_formula_units_Z   2
loop_
 _symmetry_equiv_pos_site_id
 _symmetry_equiv_pos_as_xyz
  1  'x, y, z'
loop_
 _atom_site_type_symbol
 _atom_site_label
 _atom_site_symmetry_multiplicity
 _atom_site_fract_x
 _atom_site_fract_y
 _atom_site_fract_z
 _atom_site_occupancy
  Hf  Hf0  1  0.200801  0.799627  0.441197  1
  Hf  Hf1  1  0.200801  0.401176  0.441197  1
  Hf  Hf2  1  0.599337  0.799669  0.440851  1
  Hf  Hf3  1  0.799993  0.200399  0.558037  1
  Hf  Hf4  1  0.799993  0.599592  0.558037  1
  Hf  Hf5  1  0.401219  0.200608  0.558140  1
  Hf  Hf6  1  0.799993  0.200399  0.941963  1
  Hf  Hf7  1  0.799993  0.599592  0.941963  1
  Hf  Hf8  1  0.401219  0.200608  0.941860  1
  Hf  Hf9  1  0.200801  0.799627  0.058803  1
  Hf  Hf10  1  0.200801  0.401176  0.058803  1
  Hf  Hf11  1  0.599337  0.799669  0.059149  1
  Hf  Hf12  1  0.542995  0.457525  0.250000  1
  Hf  Hf13  1  0.542995  0.085469  0.250000  1
  Hf  Hf14  1  0.914240  0.457120  0.250000  1
  Hf  Hf15  1  0.457163  0.542729  0.750000  1
  Hf  Hf16  1  0.457163  0.914435  0.750000  1
  Hf  Hf17  1  0.085100  0.542551  0.750000  1
  Ta  Ta18  1  0.998634  0.999317  0.497637  1
  Ta  Ta19  1  0.998634  0.999317  0.002363  1
  Re  Re20  1  0.885728  0.114230  0.250000  1
  Re  Re21  1  0.885728  0.771498  0.250000  1
  Ni  Ni22  1  0.333895  0.666948  0.250000  1
  Ni  Ni23  1  0.666833  0.333416  0.750000  1
  W  W24  1  0.228422  0.114211  0.250000  1
  W  W25  1  0.112959  0.885538  0.750000  1
  W  W26  1  0.112959  0.227420  0.750000  1
  W  W27  1  0.772268  0.886134  0.750000  1
