# generated using pymatgen
data_Cs6Dy3TmBr18
_symmetry_space_group_name_H-M   'P 1'
_cell_length_a   10.47837425
_cell_length_b   10.47837482
_cell_length_c   10.47837400
_cell_angle_alpha   83.15804601
_cell_angle_beta   83.15804551
_cell_angle_gamma   83.15803823
_symmetry_Int_Tables_number   1
_chemical_formula_structural   Cs6Dy3TmBr18
_chemical_formula_sum   'Cs6 Dy3 Tm1 Br18'
_cell_volume   1127.71490447
_cell_formula_units_Z   1
loop_
 _symmetry_equiv_pos_site_id
 _symmetry_equiv_pos_as_xyz
  1  'x, y, z'
loop_
 _atom_site_type_symbol
 _atom_site_label
 _atom_site_symmetry_multiplicity
 _atom_site_fract_x
 _atom_site_fract_y
 _atom_site_fract_z
 _atom_site_occupancy
  Cs  Cs0  1  0.589513  0.910317  0.250439  1
  Cs  Cs1  1  0.250439  0.589513  0.910317  1
  Cs  Cs2  1  0.910317  0.250439  0.589513  1
  Cs  Cs3  1  0.749913  0.410607  0.089238  1
  Cs  Cs4  1  0.089238  0.749913  0.410607  1
  Cs  Cs5  1  0.410607  0.089238  0.749913  1
  Dy  Dy6  1  0.846594  0.846594  0.846594  1
  Dy  Dy7  1  0.346996  0.346996  0.346996  1
  Dy  Dy8  1  0.153057  0.153057  0.153057  1
  Tm  Tm9  1  0.654112  0.654112  0.654112  1
  Br  Br10  1  0.094456  0.405440  0.250091  1
  Br  Br11  1  0.250091  0.094456  0.405440  1
  Br  Br12  1  0.405440  0.250091  0.094456  1
  Br  Br13  1  0.748905  0.903070  0.594653  1
  Br  Br14  1  0.594653  0.748905  0.903070  1
  Br  Br15  1  0.903070  0.594653  0.748905  1
  Br  Br16  1  0.233805  0.415333  0.580096  1
  Br  Br17  1  0.580096  0.233805  0.415333  1
  Br  Br18  1  0.415333  0.580096  0.233805  1
  Br  Br19  1  0.079898  0.915045  0.733763  1
  Br  Br20  1  0.733763  0.079898  0.915045  1
  Br  Br21  1  0.915045  0.733763  0.079898  1
  Br  Br22  1  0.764090  0.586002  0.423836  1
  Br  Br23  1  0.423836  0.764090  0.586002  1
  Br  Br24  1  0.586002  0.423836  0.764090  1
  Br  Br25  1  0.919925  0.084635  0.266171  1
  Br  Br26  1  0.266171  0.919925  0.084635  1
  Br  Br27  1  0.084635  0.266171  0.919925  1
