# generated using pymatgen
data_TbZn3HgRh
_symmetry_space_group_name_H-M   'P 1'
_cell_length_a   5.30948975
_cell_length_b   5.30948977
_cell_length_c   5.21115400
_cell_angle_alpha   59.37379629
_cell_angle_beta   59.37380872
_cell_angle_gamma   60.00000623
_symmetry_Int_Tables_number   1
_chemical_formula_structural   TbZn3HgRh
_chemical_formula_sum   'Tb1 Zn3 Hg1 Rh1'
_cell_volume   102.88413483
_cell_formula_units_Z   1
loop_
 _symmetry_equiv_pos_site_id
 _symmetry_equiv_pos_as_xyz
  1  'x, y, z'
loop_
 _atom_site_type_symbol
 _atom_site_label
 _atom_site_symmetry_multiplicity
 _atom_site_fract_x
 _atom_site_fract_y
 _atom_site_fract_z
 _atom_site_occupancy
  Tb  Tb0  1  0.998060  0.998060  0.005817  1
  Zn  Zn1  1  0.622722  0.128973  0.625583  1
  Zn  Zn2  1  0.128973  0.622722  0.625583  1
  Zn  Zn3  1  0.622722  0.622722  0.625583  1
  Hg  Hg4  1  0.251039  0.251039  0.246884  1
  Rh  Rh5  1  0.626483  0.626483  0.120551  1
