# generated using pymatgen
data_Dy2Ho8Si5As
_symmetry_space_group_name_H-M   'P 1'
_cell_length_a   8.41112108
_cell_length_b   8.42513376
_cell_length_c   6.29623300
_cell_angle_alpha   90.00000000
_cell_angle_beta   90.00000000
_cell_angle_gamma   119.92904251
_symmetry_Int_Tables_number   1
_chemical_formula_structural   Dy2Ho8Si5As
_chemical_formula_sum   'Dy2 Ho8 Si5 As1'
_cell_volume   386.68043230
_cell_formula_units_Z   1
loop_
 _symmetry_equiv_pos_site_id
 _symmetry_equiv_pos_as_xyz
  1  'x, y, z'
loop_
 _atom_site_type_symbol
 _atom_site_label
 _atom_site_symmetry_multiplicity
 _atom_site_fract_x
 _atom_site_fract_y
 _atom_site_fract_z
 _atom_site_occupancy
  Dy  Dy0  1  0.996597  0.753949  0.750000  1
  Dy  Dy1  1  0.758592  0.000018  0.750000  1
  Ho  Ho2  1  0.000220  0.243729  0.250000  1
  Ho  Ho3  1  0.756433  0.756242  0.250000  1
  Ho  Ho4  1  0.242685  0.246078  0.750000  1
  Ho  Ho5  1  0.242735  0.000033  0.250000  1
  Ho  Ho6  1  0.332989  0.663933  0.498849  1
  Ho  Ho7  1  0.669014  0.336039  0.001154  1
  Ho  Ho8  1  0.669014  0.336039  0.498846  1
  Ho  Ho9  1  0.332989  0.663933  0.001151  1
  Si  Si10  1  0.394079  0.393090  0.250000  1
  Si  Si11  1  0.000991  0.606931  0.250000  1
  Si  Si12  1  0.999889  0.394025  0.750000  1
  Si  Si13  1  0.605657  0.605856  0.750000  1
  Si  Si14  1  0.606910  0.000004  0.250000  1
  As  As15  1  0.391203  0.000101  0.750000  1
