# generated using pymatgen
data_Ca21TlGa9Sn5
_symmetry_space_group_name_H-M   'P 1'
_cell_length_a   11.47404153
_cell_length_b   11.47182539
_cell_length_c   11.47404200
_cell_angle_alpha   60.00639379
_cell_angle_beta   59.98721458
_cell_angle_gamma   60.00639653
_symmetry_Int_Tables_number   1
_chemical_formula_structural   Ca21TlGa9Sn5
_chemical_formula_sum   'Ca21 Tl1 Ga9 Sn5'
_cell_volume   1067.94863941
_cell_formula_units_Z   1
loop_
 _symmetry_equiv_pos_site_id
 _symmetry_equiv_pos_as_xyz
  1  'x, y, z'
loop_
 _atom_site_type_symbol
 _atom_site_label
 _atom_site_symmetry_multiplicity
 _atom_site_fract_x
 _atom_site_fract_y
 _atom_site_fract_z
 _atom_site_occupancy
  Ca  Ca0  1  0.001642  0.998358  0.001642  1
  Ca  Ca1  1  0.131084  0.130567  0.131084  1
  Ca  Ca2  1  0.392734  0.868916  0.869433  1
  Ca  Ca3  1  0.867992  0.392177  0.867992  1
  Ca  Ca4  1  0.869433  0.868916  0.392734  1
  Ca  Ca5  1  0.131084  0.607266  0.131084  1
  Ca  Ca6  1  0.128161  0.132008  0.607823  1
  Ca  Ca7  1  0.607823  0.132008  0.128161  1
  Ca  Ca8  1  0.867992  0.871839  0.867992  1
  Ca  Ca9  1  0.499871  0.824352  0.499871  1
  Ca  Ca10  1  0.824712  0.498869  0.501131  1
  Ca  Ca11  1  0.501327  0.825644  0.174356  1
  Ca  Ca12  1  0.175648  0.500129  0.824094  1
  Ca  Ca13  1  0.824094  0.500129  0.175648  1
  Ca  Ca14  1  0.501131  0.498869  0.824712  1
  Ca  Ca15  1  0.174356  0.825644  0.501327  1
  Ca  Ca16  1  0.501131  0.175288  0.824712  1
  Ca  Ca17  1  0.501327  0.498673  0.174356  1
  Ca  Ca18  1  0.824712  0.175288  0.501131  1
  Ca  Ca19  1  0.174356  0.498673  0.501327  1
  Ca  Ca20  1  0.499871  0.175906  0.499871  1
  Tl  Tl21  1  0.503744  0.496256  0.503744  1
  Ga  Ga22  1  0.780724  0.219276  0.780724  1
  Ga  Ga23  1  0.309347  0.308604  0.309346  1
  Ga  Ga24  1  0.927297  0.690654  0.691396  1
  Ga  Ga25  1  0.691221  0.927781  0.691221  1
  Ga  Ga26  1  0.691396  0.690654  0.927297  1
  Ga  Ga27  1  0.309346  0.072703  0.309346  1
  Ga  Ga28  1  0.310224  0.308779  0.072219  1
  Ga  Ga29  1  0.072219  0.308779  0.310224  1
  Ga  Ga30  1  0.691221  0.689776  0.691220  1
  Sn  Sn31  1  0.216630  0.783370  0.216630  1
  Sn  Sn32  1  0.212080  0.787920  0.785993  1
  Sn  Sn33  1  0.785993  0.214007  0.212080  1
  Sn  Sn34  1  0.785993  0.787920  0.212080  1
  Sn  Sn35  1  0.212080  0.214007  0.785993  1
