# generated using pymatgen
data_Ho3Lu5B24OsW3
_symmetry_space_group_name_H-M   'P 1'
_cell_length_a   3.57347500
_cell_length_b   9.19744923
_cell_length_c   11.59373302
_cell_angle_alpha   89.92210465
_cell_angle_beta   90.00000000
_cell_angle_gamma   90.00000000
_symmetry_Int_Tables_number   1
_chemical_formula_structural   Ho3Lu5B24OsW3
_chemical_formula_sum   'Ho3 Lu5 B24 Os1 W3'
_cell_volume   381.04918839
_cell_formula_units_Z   1
loop_
 _symmetry_equiv_pos_site_id
 _symmetry_equiv_pos_as_xyz
  1  'x, y, z'
loop_
 _atom_site_type_symbol
 _atom_site_label
 _atom_site_symmetry_multiplicity
 _atom_site_fract_x
 _atom_site_fract_y
 _atom_site_fract_z
 _atom_site_occupancy
  Ho  Ho0  1  0.000000  0.320554  0.413365  1
  Ho  Ho1  1  0.000000  0.678859  0.586148  1
  Ho  Ho2  1  0.000000  0.820876  0.085364  1
  Lu  Lu3  1  0.000000  0.178561  0.913508  1
  Lu  Lu4  1  0.000000  0.944230  0.372983  1
  Lu  Lu5  1  0.000000  0.054581  0.629752  1
  Lu  Lu6  1  0.000000  0.445290  0.126400  1
  Lu  Lu7  1  0.000000  0.558337  0.871492  1
  B  B8  1  0.500000  0.551198  0.434786  1
  B  B9  1  0.500000  0.447759  0.565998  1
  B  B10  1  0.500000  0.051039  0.062756  1
  B  B11  1  0.500000  0.945607  0.931726  1
  B  B12  1  0.500000  0.752780  0.421949  1
  B  B13  1  0.500000  0.246629  0.579485  1
  B  B14  1  0.500000  0.253564  0.076551  1
  B  B15  1  0.500000  0.750827  0.917813  1
  B  B16  1  0.500000  0.795789  0.264745  1
  B  B17  1  0.500000  0.203161  0.738187  1
  B  B18  1  0.500000  0.295121  0.235034  1
  B  B19  1  0.500000  0.709034  0.765855  1
  B  B20  1  0.500000  0.631039  0.182312  1
  B  B21  1  0.500000  0.369285  0.818924  1
  B  B22  1  0.500000  0.129795  0.316664  1
  B  B23  1  0.500000  0.869804  0.686212  1
  B  B24  1  0.500000  0.978220  0.213027  1
  B  B25  1  0.500000  0.017014  0.788203  1
  B  B26  1  0.500000  0.478306  0.285940  1
  B  B27  1  0.500000  0.522554  0.713696  1
  B  B28  1  0.500000  0.601653  0.026551  1
  B  B29  1  0.500000  0.400954  0.971642  1
  B  B30  1  0.500000  0.099127  0.473160  1
  B  B31  1  0.500000  0.899571  0.529525  1
  Os  Os32  1  0.000000  0.861315  0.820477  1
  W  W33  1  0.000000  0.639234  0.320124  1
  W  W34  1  0.000000  0.359655  0.681705  1
  W  W35  1  0.000000  0.138677  0.177941  1
