# generated using pymatgen
data_Pr4AgIrAu2
_symmetry_space_group_name_H-M   'P 1'
_cell_length_a   4.74968000
_cell_length_b   5.92467074
_cell_length_c   7.52590529
_cell_angle_alpha   88.74533207
_cell_angle_beta   90.00000000
_cell_angle_gamma   90.00000000
_symmetry_Int_Tables_number   1
_chemical_formula_structural   Pr4AgIrAu2
_chemical_formula_sum   'Pr4 Ag1 Ir1 Au2'
_cell_volume   211.73038309
_cell_formula_units_Z   1
loop_
 _symmetry_equiv_pos_site_id
 _symmetry_equiv_pos_as_xyz
  1  'x, y, z'
loop_
 _atom_site_type_symbol
 _atom_site_label
 _atom_site_symmetry_multiplicity
 _atom_site_fract_x
 _atom_site_fract_y
 _atom_site_fract_z
 _atom_site_occupancy
  Pr  Pr0  1  0.250000  0.361951  0.675367  1
  Pr  Pr1  1  0.250000  0.135000  0.195460  1
  Pr  Pr2  1  0.750000  0.653218  0.333646  1
  Pr  Pr3  1  0.750000  0.858900  0.795864  1
  Ag  Ag4  1  0.250000  0.642528  0.037812  1
  Ir  Ir5  1  0.250000  0.833925  0.540794  1
  Au  Au6  1  0.750000  0.156543  0.455848  1
  Au  Au7  1  0.750000  0.357935  0.965209  1
