# generated using pymatgen
data_Sc8Ta2TiSi16Mo9
_symmetry_space_group_name_H-M   'P 1'
_cell_length_a   6.59200001
_cell_length_b   6.82059255
_cell_length_c   12.76785000
_cell_angle_alpha   90.00000000
_cell_angle_beta   90.00000000
_cell_angle_gamma   89.84248242
_symmetry_Int_Tables_number   1
_chemical_formula_structural   Sc8Ta2TiSi16Mo9
_chemical_formula_sum   'Sc8 Ta2 Ti1 Si16 Mo9'
_cell_volume   574.05755430
_cell_formula_units_Z   1
loop_
 _symmetry_equiv_pos_site_id
 _symmetry_equiv_pos_as_xyz
  1  'x, y, z'
loop_
 _atom_site_type_symbol
 _atom_site_label
 _atom_site_symmetry_multiplicity
 _atom_site_fract_x
 _atom_site_fract_y
 _atom_site_fract_z
 _atom_site_occupancy
  Sc  Sc0  1  0.495611  0.327197  0.093342  1
  Sc  Sc1  1  0.998185  0.170365  0.406604  1
  Sc  Sc2  1  0.501691  0.672257  0.594258  1
  Sc  Sc3  1  0.001333  0.826847  0.905685  1
  Sc  Sc4  1  0.501691  0.672257  0.905742  1
  Sc  Sc5  1  0.001333  0.826847  0.594315  1
  Sc  Sc6  1  0.495611  0.327197  0.406658  1
  Sc  Sc7  1  0.998185  0.170365  0.093396  1
  Ta  Ta8  1  0.160088  0.494680  0.750000  1
  Ta  Ta9  1  0.339887  0.998541  0.250000  1
  Ti  Ti10  1  0.659337  0.006500  0.750000  1
  Si  Si11  1  0.667194  0.037828  0.542205  1
  Si  Si12  1  0.166667  0.461096  0.959235  1
  Si  Si13  1  0.334040  0.962413  0.041878  1
  Si  Si14  1  0.832598  0.537018  0.454988  1
  Si  Si15  1  0.334040  0.962413  0.458122  1
  Si  Si16  1  0.832598  0.537018  0.045012  1
  Si  Si17  1  0.667194  0.037828  0.957795  1
  Si  Si18  1  0.166667  0.461096  0.540765  1
  Si  Si19  1  0.536717  0.380376  0.750000  1
  Si  Si20  1  0.032659  0.116901  0.750000  1
  Si  Si21  1  0.470020  0.617783  0.250000  1
  Si  Si22  1  0.963645  0.877262  0.250000  1
  Si  Si23  1  0.792339  0.640449  0.750000  1
  Si  Si24  1  0.296274  0.863051  0.750000  1
  Si  Si25  1  0.199093  0.363501  0.250000  1
  Si  Si26  1  0.706216  0.143980  0.250000  1
  Mo  Mo27  1  0.832150  0.334108  0.622803  1
  Mo  Mo28  1  0.332671  0.167022  0.875774  1
  Mo  Mo29  1  0.170748  0.666452  0.124246  1
  Mo  Mo30  1  0.670727  0.836917  0.375141  1
  Mo  Mo31  1  0.170748  0.666452  0.375754  1
  Mo  Mo32  1  0.670727  0.836917  0.124859  1
  Mo  Mo33  1  0.832150  0.334108  0.877197  1
  Mo  Mo34  1  0.332671  0.167022  0.624226  1
  Mo  Mo35  1  0.836493  0.497942  0.250000  1
