# generated using pymatgen
data_Pr19Nd(Ga2Sn)4
_symmetry_space_group_name_H-M   'P 1'
_cell_length_a   8.10172000
_cell_length_b   8.10172000
_cell_length_c   14.80589400
_cell_angle_alpha   90.00000000
_cell_angle_beta   90.00000000
_cell_angle_gamma   90.00000000
_symmetry_Int_Tables_number   1
_chemical_formula_structural   Pr19Nd(Ga2Sn)4
_chemical_formula_sum   'Pr19 Nd1 Ga8 Sn4'
_cell_volume   971.82730057
_cell_formula_units_Z   1
loop_
 _symmetry_equiv_pos_site_id
 _symmetry_equiv_pos_as_xyz
  1  'x, y, z'
loop_
 _atom_site_type_symbol
 _atom_site_label
 _atom_site_symmetry_multiplicity
 _atom_site_fract_x
 _atom_site_fract_y
 _atom_site_fract_z
 _atom_site_occupancy
  Pr  Pr0  1  0.821887  0.839203  0.607113  1
  Pr  Pr1  1  0.178206  0.839461  0.106999  1
  Pr  Pr2  1  0.160507  0.821828  0.392977  1
  Pr  Pr3  1  0.839493  0.178172  0.392977  1
  Pr  Pr4  1  0.678172  0.660507  0.392977  1
  Pr  Pr5  1  0.660797  0.321887  0.607113  1
  Pr  Pr6  1  0.339203  0.678113  0.607113  1
  Pr  Pr7  1  0.000000  0.500000  0.224993  1
  Pr  Pr8  1  0.660539  0.678206  0.106999  1
  Pr  Pr9  1  0.678303  0.339517  0.892861  1
  Pr  Pr10  1  0.839517  0.821697  0.892861  1
  Pr  Pr11  1  0.321828  0.339493  0.392977  1
  Pr  Pr12  1  0.178113  0.160797  0.607113  1
  Pr  Pr13  1  0.821794  0.160539  0.106999  1
  Pr  Pr14  1  0.321697  0.660483  0.892861  1
  Pr  Pr15  1  0.339461  0.321794  0.106999  1
  Pr  Pr16  1  0.500000  0.000000  0.274971  1
  Pr  Pr17  1  0.160483  0.178303  0.892861  1
  Pr  Pr18  1  0.500000  0.000000  0.774914  1
  Nd  Nd19  1  0.000000  0.500000  0.725380  1
  Ga  Ga20  1  0.622153  0.377882  0.250030  1
  Ga  Ga21  1  0.121890  0.876952  0.749838  1
  Ga  Ga22  1  0.376952  0.378110  0.749838  1
  Ga  Ga23  1  0.377847  0.622118  0.250030  1
  Ga  Ga24  1  0.877882  0.877847  0.250030  1
  Ga  Ga25  1  0.623048  0.621890  0.749838  1
  Ga  Ga26  1  0.878110  0.123048  0.749838  1
  Ga  Ga27  1  0.122118  0.122153  0.250030  1
  Sn  Sn28  1  0.000000  0.500000  0.504511  1
  Sn  Sn29  1  0.500000  0.000000  0.496160  1
  Sn  Sn30  1  0.500000  0.000000  0.996120  1
  Sn  Sn31  1  0.000000  0.500000  0.003674  1
