# generated using pymatgen
data_Hf7Ta2Ti(Si3C)2
_symmetry_space_group_name_H-M   'P 1'
_cell_length_a   7.78997800
_cell_length_b   7.78997950
_cell_length_c   5.43394400
_cell_angle_alpha   90.00000000
_cell_angle_beta   90.00000000
_cell_angle_gamma   120.00000211
_symmetry_Int_Tables_number   1
_chemical_formula_structural   Hf7Ta2Ti(Si3C)2
_chemical_formula_sum   'Hf7 Ta2 Ti1 Si6 C2'
_cell_volume   285.57377792
_cell_formula_units_Z   1
loop_
 _symmetry_equiv_pos_site_id
 _symmetry_equiv_pos_as_xyz
  1  'x, y, z'
loop_
 _atom_site_type_symbol
 _atom_site_label
 _atom_site_symmetry_multiplicity
 _atom_site_fract_x
 _atom_site_fract_y
 _atom_site_fract_z
 _atom_site_occupancy
  Hf  Hf0  1  0.333333  0.666667  0.000000  1
  Hf  Hf1  1  0.237874  0.001069  0.249680  1
  Hf  Hf2  1  0.763194  0.001069  0.750320  1
  Hf  Hf3  1  0.998931  0.236806  0.249680  1
  Hf  Hf4  1  0.998931  0.762126  0.750320  1
  Hf  Hf5  1  0.763194  0.762126  0.249680  1
  Hf  Hf6  1  0.237874  0.236806  0.750320  1
  Ta  Ta7  1  0.666667  0.333333  0.000000  1
  Ta  Ta8  1  0.666667  0.333333  0.500000  1
  Ti  Ti9  1  0.333333  0.666667  0.500000  1
  Si  Si10  1  0.593710  0.000642  0.256496  1
  Si  Si11  1  0.406933  0.000642  0.743504  1
  Si  Si12  1  0.999358  0.593067  0.256496  1
  Si  Si13  1  0.999358  0.406290  0.743504  1
  Si  Si14  1  0.406933  0.406290  0.256496  1
  Si  Si15  1  0.593710  0.593067  0.743504  1
  C  C16  1  0.000000  0.000000  0.000000  1
  C  C17  1  0.000000  0.000000  0.500000  1
