# generated using pymatgen
data_Pr10Sn3Bi3PBr
_symmetry_space_group_name_H-M   'P 1'
_cell_length_a   9.61743388
_cell_length_b   9.57961330
_cell_length_c   6.94161796
_cell_angle_alpha   89.98747819
_cell_angle_beta   89.85513812
_cell_angle_gamma   120.26971644
_symmetry_Int_Tables_number   1
_chemical_formula_structural   Pr10Sn3Bi3PBr
_chemical_formula_sum   'Pr10 Sn3 Bi3 P1 Br1'
_cell_volume   552.34409948
_cell_formula_units_Z   1
loop_
 _symmetry_equiv_pos_site_id
 _symmetry_equiv_pos_as_xyz
  1  'x, y, z'
loop_
 _atom_site_type_symbol
 _atom_site_label
 _atom_site_symmetry_multiplicity
 _atom_site_fract_x
 _atom_site_fract_y
 _atom_site_fract_z
 _atom_site_occupancy
  Pr  Pr0  1  0.251144  0.995461  0.733759  1
  Pr  Pr1  1  0.745714  0.999494  0.266941  1
  Pr  Pr2  1  0.996297  0.251111  0.733380  1
  Pr  Pr3  1  0.003537  0.750908  0.267231  1
  Pr  Pr4  1  0.751172  0.750023  0.733230  1
  Pr  Pr5  1  0.252379  0.248412  0.267461  1
  Pr  Pr6  1  0.333653  0.672464  0.501281  1
  Pr  Pr7  1  0.666157  0.328765  0.501333  1
  Pr  Pr8  1  0.666158  0.327810  0.998445  1
  Pr  Pr9  1  0.333691  0.674228  0.998557  1
  Sn  Sn10  1  0.606735  0.999587  0.749831  1
  Sn  Sn11  1  0.393898  0.000599  0.249987  1
  Sn  Sn12  1  0.999002  0.606302  0.749924  1
  Bi  Bi13  1  0.000808  0.393131  0.248498  1
  Bi  Bi14  1  0.391882  0.392387  0.751489  1
  Bi  Bi15  1  0.607680  0.607135  0.248597  1
  P  P16  1  0.000005  0.001122  0.499857  1
  Br  Br17  1  0.000088  0.001061  0.000199  1
