# generated using pymatgen
data_SrErSiGe3N7
_symmetry_space_group_name_H-M   'P 1'
_cell_length_a   6.25570700
_cell_length_b   6.25570609
_cell_length_c   10.08882300
_cell_angle_alpha   90.00000000
_cell_angle_beta   90.00000000
_cell_angle_gamma   119.99998893
_symmetry_Int_Tables_number   1
_chemical_formula_structural   SrErSiGe3N7
_chemical_formula_sum   'Sr2 Er2 Si2 Ge6 N14'
_cell_volume   341.91953858
_cell_formula_units_Z   2
loop_
 _symmetry_equiv_pos_site_id
 _symmetry_equiv_pos_as_xyz
  1  'x, y, z'
loop_
 _atom_site_type_symbol
 _atom_site_label
 _atom_site_symmetry_multiplicity
 _atom_site_fract_x
 _atom_site_fract_y
 _atom_site_fract_z
 _atom_site_occupancy
  Sr  Sr0  1  0.666667  0.333333  0.581426  1
  Sr  Sr1  1  0.333333  0.666667  0.081426  1
  Er  Er2  1  0.666667  0.333333  0.952779  1
  Er  Er3  1  0.333333  0.666667  0.452779  1
  Si  Si4  1  0.000000  0.000000  0.026865  1
  Si  Si5  1  0.000000  0.000000  0.526865  1
  Ge  Ge6  1  0.171771  0.343543  0.760830  1
  Ge  Ge7  1  0.828229  0.171771  0.260830  1
  Ge  Ge8  1  0.343543  0.171771  0.260830  1
  Ge  Ge9  1  0.656457  0.828229  0.760830  1
  Ge  Ge10  1  0.171771  0.828229  0.760830  1
  Ge  Ge11  1  0.828229  0.656457  0.260830  1
  N  N12  1  0.000000  0.000000  0.842199  1
  N  N13  1  0.000000  0.000000  0.342199  1
  N  N14  1  0.848265  0.696530  0.079006  1
  N  N15  1  0.151735  0.848265  0.579006  1
  N  N16  1  0.696530  0.848265  0.579006  1
  N  N17  1  0.303470  0.151735  0.079006  1
  N  N18  1  0.848265  0.151735  0.079006  1
  N  N19  1  0.151735  0.303470  0.579006  1
  N  N20  1  0.496066  0.503934  0.816681  1
  N  N21  1  0.992134  0.496066  0.316681  1
  N  N22  1  0.503934  0.007866  0.316681  1
  N  N23  1  0.496066  0.992134  0.816681  1
  N  N24  1  0.503934  0.496066  0.316681  1
  N  N25  1  0.007866  0.503934  0.816681  1
