# generated using pymatgen
data_La2Th2Al4Ru3Rh
_symmetry_space_group_name_H-M   'P 1'
_cell_length_a   4.22131300
_cell_length_b   7.19483304
_cell_length_c   16.38220452
_cell_angle_alpha   90.98218754
_cell_angle_beta   90.00000000
_cell_angle_gamma   90.00000000
_symmetry_Int_Tables_number   1
_chemical_formula_structural   La2Th2Al4Ru3Rh
_chemical_formula_sum   'La4 Th4 Al8 Ru6 Rh2'
_cell_volume   497.48135040
_cell_formula_units_Z   2
loop_
 _symmetry_equiv_pos_site_id
 _symmetry_equiv_pos_as_xyz
  1  'x, y, z'
loop_
 _atom_site_type_symbol
 _atom_site_label
 _atom_site_symmetry_multiplicity
 _atom_site_fract_x
 _atom_site_fract_y
 _atom_site_fract_z
 _atom_site_occupancy
  La  La0  1  0.250000  0.654669  0.563476  1
  La  La1  1  0.750000  0.345331  0.436524  1
  La  La2  1  0.750000  0.838422  0.060201  1
  La  La3  1  0.250000  0.161578  0.939799  1
  Th  Th4  1  0.250000  0.526977  0.782353  1
  Th  Th5  1  0.750000  0.473023  0.217647  1
  Th  Th6  1  0.750000  0.974514  0.279216  1
  Th  Th7  1  0.250000  0.025486  0.720784  1
  Al  Al8  1  0.250000  0.648155  0.349625  1
  Al  Al9  1  0.750000  0.351845  0.650375  1
  Al  Al10  1  0.750000  0.850905  0.851479  1
  Al  Al11  1  0.250000  0.149095  0.148521  1
  Al  Al12  1  0.250000  0.504392  0.063024  1
  Al  Al13  1  0.750000  0.495608  0.936976  1
  Al  Al14  1  0.750000  0.997797  0.560887  1
  Al  Al15  1  0.250000  0.002203  0.439113  1
  Ru  Ru16  1  0.250000  0.763167  0.191548  1
  Ru  Ru17  1  0.750000  0.236833  0.808452  1
  Ru  Ru18  1  0.750000  0.753395  0.688741  1
  Ru  Ru19  1  0.250000  0.246605  0.311259  1
  Ru  Ru20  1  0.250000  0.720080  0.929165  1
  Ru  Ru21  1  0.750000  0.279920  0.070835  1
  Rh  Rh22  1  0.750000  0.777277  0.427672  1
  Rh  Rh23  1  0.250000  0.222723  0.572328  1
