# generated using pymatgen
data_Cs2UOF5
_symmetry_space_group_name_H-M   'P 1'
_cell_length_a   8.38705108
_cell_length_b   8.38705065
_cell_length_c   7.80314200
_cell_angle_alpha   90.00000000
_cell_angle_beta   90.00000000
_cell_angle_gamma   133.21425679
_symmetry_Int_Tables_number   1
_chemical_formula_structural   Cs2UOF5
_chemical_formula_sum   'Cs4 U2 O2 F10'
_cell_volume   400.03261105
_cell_formula_units_Z   2
loop_
 _symmetry_equiv_pos_site_id
 _symmetry_equiv_pos_as_xyz
  1  'x, y, z'
loop_
 _atom_site_type_symbol
 _atom_site_label
 _atom_site_symmetry_multiplicity
 _atom_site_fract_x
 _atom_site_fract_y
 _atom_site_fract_z
 _atom_site_occupancy
  Cs  Cs0  1  0.552286  0.447714  0.750000  1
  Cs  Cs1  1  0.447714  0.552286  0.250000  1
  Cs  Cs2  1  0.226216  0.773784  0.750000  1
  Cs  Cs3  1  0.773784  0.226216  0.250000  1
  U  U4  1  0.891031  0.108969  0.750000  1
  U  U5  1  0.108969  0.891031  0.250000  1
  O  O6  1  0.012839  0.987161  0.750000  1
  O  O7  1  0.987161  0.012839  0.250000  1
  F  F8  1  0.751930  0.248070  0.750000  1
  F  F9  1  0.248070  0.751930  0.250000  1
  F  F10  1  0.638241  0.880884  0.558669  1
  F  F11  1  0.880884  0.638241  0.441331  1
  F  F12  1  0.638241  0.880884  0.941331  1
  F  F13  1  0.880884  0.638241  0.058669  1
  F  F14  1  0.361759  0.119116  0.441331  1
  F  F15  1  0.119116  0.361759  0.558669  1
  F  F16  1  0.361759  0.119116  0.058669  1
  F  F17  1  0.119116  0.361759  0.941331  1
