# generated using pymatgen
data_Sm9Lu3Ta8(WN4)12
_symmetry_space_group_name_H-M   'P 1'
_cell_length_a   11.20838620
_cell_length_b   11.20383973
_cell_length_c   11.20838700
_cell_angle_alpha   109.46300193
_cell_angle_beta   109.47943655
_cell_angle_gamma   109.46300774
_symmetry_Int_Tables_number   1
_chemical_formula_structural   Sm9Lu3Ta8(WN4)12
_chemical_formula_sum   'Sm9 Lu3 Ta8 W12 N48'
_cell_volume   1083.61552590
_cell_formula_units_Z   1
loop_
 _symmetry_equiv_pos_site_id
 _symmetry_equiv_pos_as_xyz
  1  'x, y, z'
loop_
 _atom_site_type_symbol
 _atom_site_label
 _atom_site_symmetry_multiplicity
 _atom_site_fract_x
 _atom_site_fract_y
 _atom_site_fract_z
 _atom_site_occupancy
  Sm  Sm0  1  0.874964  0.624964  0.249928  1
  Sm  Sm1  1  0.747005  0.123503  0.373503  1
  Sm  Sm2  1  0.126497  0.250000  0.373503  1
  Sm  Sm3  1  0.874964  0.750000  0.625036  1
  Sm  Sm4  1  0.250072  0.875036  0.625036  1
  Sm  Sm5  1  0.126497  0.376497  0.752995  1
  Sm  Sm6  1  0.624288  0.874288  0.748577  1
  Sm  Sm7  1  0.624288  0.250000  0.875712  1
  Sm  Sm8  1  0.751423  0.625712  0.875712  1
  Lu  Lu9  1  0.373472  0.750000  0.126528  1
  Lu  Lu10  1  0.253055  0.376528  0.126528  1
  Lu  Lu11  1  0.373472  0.123472  0.246945  1
  Ta  Ta12  1  0.995831  0.995566  0.995081  1
  Ta  Ta13  1  0.499251  0.999515  0.995081  1
  Ta  Ta14  1  0.995831  0.500267  0.000750  1
  Ta  Ta15  1  0.504919  0.500485  0.000750  1
  Ta  Ta16  1  0.000000  0.993721  0.500001  1
  Ta  Ta17  1  0.499250  0.999734  0.504169  1
  Ta  Ta18  1  0.000000  0.506279  0.500000  1
  Ta  Ta19  1  0.504920  0.504435  0.504170  1
  W  W20  1  0.877394  0.250219  0.126386  1
  W  W21  1  0.748994  0.876168  0.126387  1
  W  W22  1  0.620291  0.371368  0.250438  1
  W  W23  1  0.130146  0.879070  0.250438  1
  W  W24  1  0.249562  0.620930  0.369853  1
  W  W25  1  0.620291  0.748923  0.369853  1
  W  W26  1  0.373613  0.249781  0.622606  1
  W  W27  1  0.748994  0.372826  0.622606  1
  W  W28  1  0.877394  0.127174  0.751006  1
  W  W29  1  0.373613  0.623832  0.751006  1
  W  W30  1  0.249562  0.128631  0.879709  1
  W  W31  1  0.130147  0.751077  0.879709  1
  N  N32  1  0.206803  0.124055  0.026616  1
  N  N33  1  0.319813  0.902560  0.026615  1
  N  N34  1  0.885649  0.403006  0.086503  1
  N  N35  1  0.700854  0.683496  0.086503  1
  N  N36  1  0.613726  0.413788  0.099389  1
  N  N37  1  0.985664  0.685599  0.099389  1
  N  N38  1  0.021398  0.204178  0.117096  1
  N  N39  1  0.595699  0.912918  0.117095  1
  N  N40  1  0.206802  0.582747  0.180187  1
  N  N41  1  0.473385  0.597440  0.180187  1
  N  N42  1  0.578451  0.179787  0.202986  1
  N  N43  1  0.124535  0.023200  0.202987  1
  N  N44  1  0.473385  0.375945  0.293198  1
  N  N45  1  0.319813  0.917253  0.293198  1
  N  N46  1  0.900255  0.018600  0.316744  1
  N  N47  1  0.916488  0.298144  0.316744  1
  N  N48  1  0.297014  0.476801  0.375465  1
  N  N49  1  0.578451  0.898665  0.375465  1
  N  N50  1  0.814700  0.515586  0.401539  1
  N  N51  1  0.086840  0.885955  0.401539  1
  N  N52  1  0.098461  0.614045  0.413159  1
  N  N53  1  0.814699  0.799115  0.413159  1
  N  N54  1  0.595700  0.182781  0.478603  1
  N  N55  1  0.382904  0.295823  0.478603  1
  N  N56  1  0.613725  0.699937  0.514335  1
  N  N57  1  0.400611  0.814401  0.514336  1
  N  N58  1  0.183256  0.201856  0.583512  1
  N  N59  1  0.900256  0.381655  0.583512  1
  N  N60  1  0.916487  0.118344  0.599744  1
  N  N61  1  0.183256  0.481400  0.599745  1
  N  N62  1  0.413496  0.096994  0.614351  1
  N  N63  1  0.700854  0.517356  0.614350  1
  N  N64  1  0.086840  0.700885  0.685300  1
  N  N65  1  0.098461  0.984414  0.685300  1
  N  N66  1  0.683189  0.084983  0.698817  1
  N  N67  1  0.515627  0.613834  0.698817  1
  N  N68  1  0.413496  0.816503  0.799146  1
  N  N69  1  0.885650  0.982644  0.799147  1
  N  N70  1  0.515628  0.401794  0.816811  1
  N  N71  1  0.801183  0.415016  0.816810  1
  N  N72  1  0.400611  0.086211  0.886274  1
  N  N73  1  0.985665  0.800064  0.886275  1
  N  N74  1  0.021397  0.317219  0.904300  1
  N  N75  1  0.382904  0.587081  0.904301  1
  N  N76  1  0.297014  0.320213  0.921549  1
  N  N77  1  0.124534  0.601335  0.921548  1
  N  N78  1  0.683189  0.098206  0.984372  1
  N  N79  1  0.801184  0.886166  0.984373  1
