# generated using pymatgen
data_Tb2B8PtRh
_symmetry_space_group_name_H-M   'P 1'
_cell_length_a   7.03833673
_cell_length_b   7.03833578
_cell_length_c   7.03833678
_cell_angle_alpha   111.55847577
_cell_angle_beta   111.82147472
_cell_angle_gamma   105.11953419
_symmetry_Int_Tables_number   1
_chemical_formula_structural   Tb2B8PtRh
_chemical_formula_sum   'Tb4 B16 Pt2 Rh2'
_cell_volume   267.25229334
_cell_formula_units_Z   2
loop_
 _symmetry_equiv_pos_site_id
 _symmetry_equiv_pos_as_xyz
  1  'x, y, z'
loop_
 _atom_site_type_symbol
 _atom_site_label
 _atom_site_symmetry_multiplicity
 _atom_site_fract_x
 _atom_site_fract_y
 _atom_site_fract_z
 _atom_site_occupancy
  Tb  Tb0  1  0.212453  0.212453  0.000000  1
  Tb  Tb1  1  0.787547  0.787547  0.000000  1
  Tb  Tb2  1  0.756406  0.256406  0.500000  1
  Tb  Tb3  1  0.243594  0.743594  0.500000  1
  B  B4  1  0.107832  0.267119  0.374950  1
  B  B5  1  0.892168  0.732881  0.625050  1
  B  B6  1  0.892168  0.267119  0.159288  1
  B  B7  1  0.107832  0.732881  0.840712  1
  B  B8  1  0.736824  0.892974  0.629799  1
  B  B9  1  0.263176  0.107026  0.370201  1
  B  B10  1  0.736824  0.107026  0.843850  1
  B  B11  1  0.263176  0.892974  0.156150  1
  B  B12  1  0.411875  0.414014  0.521617  1
  B  B13  1  0.892397  0.890259  0.478383  1
  B  B14  1  0.588125  0.109741  0.002139  1
  B  B15  1  0.107603  0.585986  0.997861  1
  B  B16  1  0.588125  0.585986  0.478383  1
  B  B17  1  0.107603  0.109741  0.521617  1
  B  B18  1  0.892397  0.414014  0.002139  1
  B  B19  1  0.411875  0.890259  0.997861  1
  Pt  Pt20  1  0.500000  0.256545  0.756545  1
  Pt  Pt21  1  0.500000  0.743455  0.243455  1
  Rh  Rh22  1  0.738775  0.500000  0.238775  1
  Rh  Rh23  1  0.261225  0.500000  0.761225  1
