# generated using pymatgen
data_Ta4Si2B4Ru9Rh
_symmetry_space_group_name_H-M   'P 1'
_cell_length_a   2.96112500
_cell_length_b   9.25701486
_cell_length_c   9.28980712
_cell_angle_alpha   89.92144808
_cell_angle_beta   90.00000000
_cell_angle_gamma   90.00000000
_symmetry_Int_Tables_number   1
_chemical_formula_structural   Ta4Si2B4Ru9Rh
_chemical_formula_sum   'Ta4 Si2 B4 Ru9 Rh1'
_cell_volume   254.64431834
_cell_formula_units_Z   1
loop_
 _symmetry_equiv_pos_site_id
 _symmetry_equiv_pos_as_xyz
  1  'x, y, z'
loop_
 _atom_site_type_symbol
 _atom_site_label
 _atom_site_symmetry_multiplicity
 _atom_site_fract_x
 _atom_site_fract_y
 _atom_site_fract_z
 _atom_site_occupancy
  Ta  Ta0  1  0.000000  0.826333  0.181405  1
  Ta  Ta1  1  0.000000  0.323388  0.323304  1
  Ta  Ta2  1  0.000000  0.676667  0.672402  1
  Ta  Ta3  1  0.000000  0.177008  0.823535  1
  Si  Si4  1  0.000000  0.495511  0.000761  1
  Si  Si5  1  0.000000  0.000337  0.500035  1
  B  B6  1  0.000000  0.123998  0.126489  1
  B  B7  1  0.000000  0.625043  0.374787  1
  B  B8  1  0.000000  0.374689  0.624868  1
  B  B9  1  0.000000  0.879084  0.873361  1
  Ru  Ru10  1  0.500001  0.997876  0.000872  1
  Ru  Ru11  1  0.500001  0.287297  0.067337  1
  Ru  Ru12  1  0.500001  0.569394  0.209510  1
  Ru  Ru13  1  0.500001  0.068384  0.289131  1
  Ru  Ru14  1  0.500001  0.788907  0.432736  1
  Ru  Ru15  1  0.500001  0.499315  0.498628  1
  Ru  Ru16  1  0.500001  0.210964  0.568651  1
  Ru  Ru17  1  0.500001  0.930385  0.711903  1
  Ru  Ru18  1  0.500001  0.434733  0.788793  1
  Rh  Rh19  1  0.500001  0.710692  0.931499  1
