# generated using pymatgen
data_Tm20ZnBi8Sb3
_symmetry_space_group_name_H-M   'P 1'
_cell_length_a   8.06912610
_cell_length_b   9.33669200
_cell_length_c   11.82760200
_cell_angle_alpha   90.00000000
_cell_angle_beta   89.68586664
_cell_angle_gamma   90.00000000
_symmetry_Int_Tables_number   1
_chemical_formula_structural   Tm20ZnBi8Sb3
_chemical_formula_sum   'Tm20 Zn1 Bi8 Sb3'
_cell_volume   891.06566525
_cell_formula_units_Z   1
loop_
 _symmetry_equiv_pos_site_id
 _symmetry_equiv_pos_as_xyz
  1  'x, y, z'
loop_
 _atom_site_type_symbol
 _atom_site_label
 _atom_site_symmetry_multiplicity
 _atom_site_fract_x
 _atom_site_fract_y
 _atom_site_fract_z
 _atom_site_occupancy
  Tm  Tm0  1  0.036089  0.250000  0.508757  1
  Tm  Tm1  1  0.976462  0.750000  0.489612  1
  Tm  Tm2  1  0.472325  0.750000  0.010580  1
  Tm  Tm3  1  0.528476  0.250000  0.989107  1
  Tm  Tm4  1  0.356252  0.250000  0.294766  1
  Tm  Tm5  1  0.647567  0.750000  0.713289  1
  Tm  Tm6  1  0.149726  0.750000  0.785576  1
  Tm  Tm7  1  0.852526  0.250000  0.213083  1
  Tm  Tm8  1  0.186993  0.250000  0.781424  1
  Tm  Tm9  1  0.812930  0.750000  0.216781  1
  Tm  Tm10  1  0.315932  0.750000  0.282046  1
  Tm  Tm11  1  0.675230  0.250000  0.711786  1
  Tm  Tm12  1  0.189847  0.064255  0.059815  1
  Tm  Tm13  1  0.810092  0.935943  0.941579  1
  Tm  Tm14  1  0.311444  0.950182  0.557939  1
  Tm  Tm15  1  0.810092  0.564057  0.941579  1
  Tm  Tm16  1  0.683266  0.068390  0.445492  1
  Tm  Tm17  1  0.189847  0.435745  0.059815  1
  Tm  Tm18  1  0.683266  0.431610  0.445492  1
  Tm  Tm19  1  0.311444  0.549818  0.557939  1
  Zn  Zn20  1  0.408003  0.250000  0.539838  1
  Bi  Bi21  1  0.062744  0.002526  0.323814  1
  Bi  Bi22  1  0.935644  0.997369  0.675809  1
  Bi  Bi23  1  0.435860  0.997305  0.824699  1
  Bi  Bi24  1  0.935644  0.502631  0.675809  1
  Bi  Bi25  1  0.564296  0.003682  0.174447  1
  Bi  Bi26  1  0.062744  0.497474  0.323814  1
  Bi  Bi27  1  0.564296  0.496318  0.174447  1
  Bi  Bi28  1  0.435860  0.502695  0.824699  1
  Sb  Sb29  1  0.594026  0.750000  0.457840  1
  Sb  Sb30  1  0.093888  0.750000  0.041721  1
  Sb  Sb31  1  0.907190  0.250000  0.956609  1
