# generated using pymatgen
data_Nb4IrPdRhSe12
_symmetry_space_group_name_H-M   'P 1'
_cell_length_a   7.52088449
_cell_length_b   7.52088336
_cell_length_c   19.61098077
_cell_angle_alpha   70.03187235
_cell_angle_beta   70.03187545
_cell_angle_gamma   26.88235025
_symmetry_Int_Tables_number   1
_chemical_formula_structural   Nb4IrPdRhSe12
_chemical_formula_sum   'Nb4 Ir1 Pd1 Rh1 Se12'
_cell_volume   469.63372776
_cell_formula_units_Z   1
loop_
 _symmetry_equiv_pos_site_id
 _symmetry_equiv_pos_as_xyz
  1  'x, y, z'
loop_
 _atom_site_type_symbol
 _atom_site_label
 _atom_site_symmetry_multiplicity
 _atom_site_fract_x
 _atom_site_fract_y
 _atom_site_fract_z
 _atom_site_occupancy
  Nb  Nb0  1  0.745325  0.745325  0.592470  1
  Nb  Nb1  1  0.254781  0.254781  0.407189  1
  Nb  Nb2  1  0.621098  0.621098  0.849764  1
  Nb  Nb3  1  0.378977  0.378977  0.150254  1
  Ir  Ir4  1  0.772778  0.772778  0.282601  1
  Pd  Pd5  1  0.000001  0.000001  0.999969  1
  Rh  Rh6  1  0.227549  0.227549  0.717663  1
  Se  Se7  1  0.860217  0.860217  0.450943  1
  Se  Se8  1  0.022589  0.022589  0.118955  1
  Se  Se9  1  0.802427  0.802427  0.770665  1
  Se  Se10  1  0.397464  0.397464  0.282107  1
  Se  Se11  1  0.176786  0.176786  0.928005  1
  Se  Se12  1  0.603114  0.603114  0.717932  1
  Se  Se13  1  0.139807  0.139807  0.548983  1
  Se  Se14  1  0.823158  0.823158  0.071877  1
  Se  Se15  1  0.371331  0.371331  0.601375  1
  Se  Se16  1  0.977700  0.977700  0.880898  1
  Se  Se17  1  0.196704  0.196704  0.229882  1
  Se  Se18  1  0.628193  0.628193  0.398468  1
