# generated using pymatgen
data_Be15Nb6Co4(CuNi)2
_symmetry_space_group_name_H-M   'P 1'
_cell_length_a   7.58124083
_cell_length_b   7.58497174
_cell_length_c   7.58497091
_cell_angle_alpha   60.19373204
_cell_angle_beta   60.03410395
_cell_angle_gamma   60.03409987
_symmetry_Int_Tables_number   1
_chemical_formula_structural   Be15Nb6Co4(CuNi)2
_chemical_formula_sum   'Be15 Nb6 Co4 Cu2 Ni2'
_cell_volume   309.02195413
_cell_formula_units_Z   1
loop_
 _symmetry_equiv_pos_site_id
 _symmetry_equiv_pos_as_xyz
  1  'x, y, z'
loop_
 _atom_site_type_symbol
 _atom_site_label
 _atom_site_symmetry_multiplicity
 _atom_site_fract_x
 _atom_site_fract_y
 _atom_site_fract_z
 _atom_site_occupancy
  Be  Be0  1  0.322932  0.325282  0.325282  1
  Be  Be1  1  0.677068  0.674718  0.674718  1
  Be  Be2  1  0.328524  0.329167  0.019140  1
  Be  Be3  1  0.328524  0.019140  0.329167  1
  Be  Be4  1  0.671476  0.670833  0.980860  1
  Be  Be5  1  0.671476  0.980860  0.670833  1
  Be  Be6  1  0.023918  0.327909  0.327909  1
  Be  Be7  1  0.976082  0.672091  0.672091  1
  Be  Be8  1  0.500000  0.000000  0.000000  1
  Be  Be9  1  0.000000  0.500000  0.500000  1
  Be  Be10  1  0.000000  0.500000  0.000000  1
  Be  Be11  1  0.500000  0.000000  0.500000  1
  Be  Be12  1  0.000000  0.000000  0.500000  1
  Be  Be13  1  0.500000  0.500000  0.000000  1
  Be  Be14  1  0.000000  0.000000  0.000000  1
  Nb  Nb15  1  0.699923  0.296341  0.296341  1
  Nb  Nb16  1  0.300077  0.703659  0.703659  1
  Nb  Nb17  1  0.291973  0.695516  0.301049  1
  Nb  Nb18  1  0.708027  0.304484  0.698951  1
  Nb  Nb19  1  0.291973  0.301049  0.695516  1
  Nb  Nb20  1  0.708027  0.698951  0.304484  1
  Co  Co21  1  0.123276  0.121306  0.632759  1
  Co  Co22  1  0.123276  0.632759  0.121306  1
  Co  Co23  1  0.876724  0.878694  0.367241  1
  Co  Co24  1  0.876724  0.367241  0.878694  1
  Cu  Cu25  1  0.123635  0.122053  0.122053  1
  Cu  Cu26  1  0.876365  0.877947  0.877947  1
  Ni  Ni27  1  0.631486  0.122533  0.122533  1
  Ni  Ni28  1  0.368514  0.877467  0.877467  1
