# generated using pymatgen
data_LiLa4Fe2CoO12
_symmetry_space_group_name_H-M   'P 1'
_cell_length_a   5.52717181
_cell_length_b   5.55006249
_cell_length_c   7.85223981
_cell_angle_alpha   90.09807057
_cell_angle_beta   89.75182359
_cell_angle_gamma   89.81618910
_symmetry_Int_Tables_number   1
_chemical_formula_structural   LiLa4Fe2CoO12
_chemical_formula_sum   'Li1 La4 Fe2 Co1 O12'
_cell_volume   240.87262000
_cell_formula_units_Z   1
loop_
 _symmetry_equiv_pos_site_id
 _symmetry_equiv_pos_as_xyz
  1  'x, y, z'
loop_
 _atom_site_type_symbol
 _atom_site_label
 _atom_site_symmetry_multiplicity
 _atom_site_fract_x
 _atom_site_fract_y
 _atom_site_fract_z
 _atom_site_occupancy
  Li  Li0  1  0.500000  0.000000  0.500000  1
  La  La1  1  0.001512  0.965209  0.737942  1
  La  La2  1  0.512180  0.539899  0.263193  1
  La  La3  1  0.487820  0.460101  0.736807  1
  La  La4  1  0.998488  0.034791  0.262058  1
  Fe  Fe5  1  0.000000  0.500000  0.000000  1
  Fe  Fe6  1  0.500000  0.000000  0.000000  1
  Co  Co7  1  0.000000  0.500000  0.500000  1
  O  O8  1  0.734141  0.295181  0.464803  1
  O  O9  1  0.202929  0.230256  0.535945  1
  O  O10  1  0.787701  0.782187  0.041540  1
  O  O11  1  0.279279  0.711411  0.956394  1
  O  O12  1  0.265859  0.704819  0.535197  1
  O  O13  1  0.797071  0.769744  0.464055  1
  O  O14  1  0.212299  0.217813  0.958460  1
  O  O15  1  0.720721  0.288589  0.043606  1
  O  O16  1  0.078445  0.486074  0.255341  1
  O  O17  1  0.568872  0.014202  0.761554  1
  O  O18  1  0.431128  0.985798  0.238446  1
  O  O19  1  0.921555  0.513926  0.744659  1
