# generated using pymatgen
data_Y4Er3Lu13Bi12
_symmetry_space_group_name_H-M   'P 1'
_cell_length_a   8.16226438
_cell_length_b   9.39943400
_cell_length_c   11.87750600
_cell_angle_alpha   90.00000000
_cell_angle_beta   90.05215559
_cell_angle_gamma   90.00000000
_symmetry_Int_Tables_number   1
_chemical_formula_structural   Y4Er3Lu13Bi12
_chemical_formula_sum   'Y4 Er3 Lu13 Bi12'
_cell_volume   911.24978544
_cell_formula_units_Z   1
loop_
 _symmetry_equiv_pos_site_id
 _symmetry_equiv_pos_as_xyz
  1  'x, y, z'
loop_
 _atom_site_type_symbol
 _atom_site_label
 _atom_site_symmetry_multiplicity
 _atom_site_fract_x
 _atom_site_fract_y
 _atom_site_fract_z
 _atom_site_occupancy
  Y  Y0  1  0.313983  0.250000  0.217599  1
  Y  Y1  1  0.814337  0.250000  0.282574  1
  Y  Y2  1  0.685752  0.750000  0.782205  1
  Y  Y3  1  0.186162  0.750000  0.717452  1
  Er  Er4  1  0.352755  0.750000  0.217920  1
  Er  Er5  1  0.853119  0.750000  0.281938  1
  Er  Er6  1  0.646795  0.250000  0.781912  1
  Lu  Lu7  1  0.147346  0.250000  0.718463  1
  Lu  Lu8  1  0.691715  0.567231  0.059564  1
  Lu  Lu9  1  0.191483  0.932794  0.440511  1
  Lu  Lu10  1  0.308308  0.067442  0.939893  1
  Lu  Lu11  1  0.808443  0.432875  0.559655  1
  Lu  Lu12  1  0.308308  0.432558  0.939893  1
  Lu  Lu13  1  0.808443  0.067125  0.559655  1
  Lu  Lu14  1  0.691715  0.932769  0.059564  1
  Lu  Lu15  1  0.191483  0.567206  0.440511  1
  Lu  Lu16  1  0.477356  0.250000  0.489553  1
  Lu  Lu17  1  0.977664  0.250000  0.010109  1
  Lu  Lu18  1  0.522328  0.750000  0.510687  1
  Lu  Lu19  1  0.022870  0.750000  0.989402  1
  Bi  Bi20  1  0.402539  0.750000  0.958328  1
  Bi  Bi21  1  0.902300  0.750000  0.541464  1
  Bi  Bi22  1  0.597572  0.250000  0.041718  1
  Bi  Bi23  1  0.097855  0.250000  0.459839  1
  Bi  Bi24  1  0.565780  0.995300  0.326879  1
  Bi  Bi25  1  0.065880  0.504822  0.173166  1
  Bi  Bi26  1  0.433581  0.495017  0.673184  1
  Bi  Bi27  1  0.934441  0.005374  0.826567  1
  Bi  Bi28  1  0.433581  0.004983  0.673184  1
  Bi  Bi29  1  0.934441  0.494626  0.826567  1
  Bi  Bi30  1  0.565780  0.504700  0.326879  1
  Bi  Bi31  1  0.065880  0.995178  0.173166  1
