# generated using pymatgen
data_La3DyTmTl3Br
_symmetry_space_group_name_H-M   'P 1'
_cell_length_a   9.59227300
_cell_length_b   9.59227267
_cell_length_c   6.86710500
_cell_angle_alpha   90.00000000
_cell_angle_beta   90.00000000
_cell_angle_gamma   119.99999771
_symmetry_Int_Tables_number   1
_chemical_formula_structural   La3DyTmTl3Br
_chemical_formula_sum   'La6 Dy2 Tm2 Tl6 Br2'
_cell_volume   547.20162124
_cell_formula_units_Z   2
loop_
 _symmetry_equiv_pos_site_id
 _symmetry_equiv_pos_as_xyz
  1  'x, y, z'
loop_
 _atom_site_type_symbol
 _atom_site_label
 _atom_site_symmetry_multiplicity
 _atom_site_fract_x
 _atom_site_fract_y
 _atom_site_fract_z
 _atom_site_occupancy
  La  La0  1  0.731628  0.731628  0.251004  1
  La  La1  1  0.000000  0.731628  0.748996  1
  La  La2  1  0.731628  0.000000  0.748996  1
  La  La3  1  0.268372  0.268372  0.748996  1
  La  La4  1  0.000000  0.268372  0.251004  1
  La  La5  1  0.268372  0.000000  0.251004  1
  Dy  Dy6  1  0.333333  0.666667  0.000000  1
  Dy  Dy7  1  0.666667  0.333333  0.000000  1
  Tm  Tm8  1  0.333333  0.666667  0.500000  1
  Tm  Tm9  1  0.666667  0.333333  0.500000  1
  Tl  Tl10  1  0.393597  0.000000  0.749496  1
  Tl  Tl11  1  0.000000  0.606403  0.250504  1
  Tl  Tl12  1  0.606403  0.000000  0.250504  1
  Tl  Tl13  1  0.000000  0.393597  0.749496  1
  Tl  Tl14  1  0.393597  0.393597  0.250504  1
  Tl  Tl15  1  0.606403  0.606403  0.749496  1
  Br  Br16  1  0.000000  0.000000  0.500000  1
  Br  Br17  1  0.000000  0.000000  0.000000  1
