# generated using pymatgen
data_K4AsP3Pt4
_symmetry_space_group_name_H-M   'P 1'
_cell_length_a   6.59543215
_cell_length_b   6.59543215
_cell_length_c   6.59543215
_cell_angle_alpha   90.32483795
_cell_angle_beta   90.32483795
_cell_angle_gamma   90.32483795
_symmetry_Int_Tables_number   1
_chemical_formula_structural   K4AsP3Pt4
_chemical_formula_sum   'K4 As1 P3 Pt4'
_cell_volume   286.88560125
_cell_formula_units_Z   1
loop_
 _symmetry_equiv_pos_site_id
 _symmetry_equiv_pos_as_xyz
  1  'x, y, z'
loop_
 _atom_site_type_symbol
 _atom_site_label
 _atom_site_symmetry_multiplicity
 _atom_site_fract_x
 _atom_site_fract_y
 _atom_site_fract_z
 _atom_site_occupancy
  K  K0  1  0.874263  0.874263  0.874263  1
  K  K1  1  0.627053  0.124575  0.373375  1
  K  K2  1  0.124575  0.373375  0.627053  1
  K  K3  1  0.373375  0.627053  0.124575  1
  As  As4  1  0.592934  0.592934  0.592934  1
  P  P5  1  0.906735  0.399084  0.097778  1
  P  P6  1  0.399084  0.097778  0.906735  1
  P  P7  1  0.097778  0.906735  0.399084  1
  Pt  Pt8  1  0.148085  0.148085  0.148085  1
  Pt  Pt9  1  0.341275  0.865919  0.648924  1
  Pt  Pt10  1  0.865919  0.648924  0.341275  1
  Pt  Pt11  1  0.648924  0.341275  0.865919  1
