# generated using pymatgen
data_UMn5(ZnRh2)6
_symmetry_space_group_name_H-M   'P 1'
_cell_length_a   4.30017001
_cell_length_b   6.28118100
_cell_length_c   12.83037104
_cell_angle_alpha   90.00000000
_cell_angle_beta   90.00951260
_cell_angle_gamma   90.00000000
_symmetry_Int_Tables_number   1
_chemical_formula_structural   UMn5(ZnRh2)6
_chemical_formula_sum   'U1 Mn5 Zn6 Rh12'
_cell_volume   346.55019285
_cell_formula_units_Z   1
loop_
 _symmetry_equiv_pos_site_id
 _symmetry_equiv_pos_as_xyz
  1  'x, y, z'
loop_
 _atom_site_type_symbol
 _atom_site_label
 _atom_site_symmetry_multiplicity
 _atom_site_fract_x
 _atom_site_fract_y
 _atom_site_fract_z
 _atom_site_occupancy
  U  U0  1  0.000000  0.500001  0.000000  1
  Mn  Mn1  1  0.499473  0.000000  0.174163  1
  Mn  Mn2  1  0.000360  0.500001  0.335720  1
  Mn  Mn3  1  0.499999  0.000000  0.500000  1
  Mn  Mn4  1  0.999640  0.500001  0.664280  1
  Mn  Mn5  1  0.500527  0.000000  0.825838  1
  Zn  Zn6  1  0.000000  0.000000  0.000000  1
  Zn  Zn7  1  0.499971  0.500001  0.176642  1
  Zn  Zn8  1  0.999875  0.000000  0.338255  1
  Zn  Zn9  1  0.499999  0.500001  0.500000  1
  Zn  Zn10  1  0.000123  0.000000  0.661745  1
  Zn  Zn11  1  0.500029  0.500001  0.823358  1
  Rh  Rh12  1  0.499999  0.238117  0.000000  1
  Rh  Rh13  1  0.499999  0.761882  0.000000  1
  Rh  Rh14  1  0.999896  0.248288  0.167803  1
  Rh  Rh15  1  0.999896  0.751712  0.167803  1
  Rh  Rh16  1  0.499923  0.248545  0.336438  1
  Rh  Rh17  1  0.499923  0.751454  0.336438  1
  Rh  Rh18  1  0.000000  0.253336  0.500000  1
  Rh  Rh19  1  0.000000  0.746664  0.500000  1
  Rh  Rh20  1  0.500077  0.248545  0.663562  1
  Rh  Rh21  1  0.500077  0.751454  0.663562  1
  Rh  Rh22  1  0.000104  0.248288  0.832196  1
  Rh  Rh23  1  0.000104  0.751712  0.832196  1
