# generated using pymatgen
data_Tm3Lu7Tl3Ni
_symmetry_space_group_name_H-M   'P 1'
_cell_length_a   9.47831800
_cell_length_b   9.47831822
_cell_length_c   9.46389200
_cell_angle_alpha   90.00000000
_cell_angle_beta   90.00000000
_cell_angle_gamma   119.99999227
_symmetry_Int_Tables_number   1
_chemical_formula_structural   Tm3Lu7Tl3Ni
_chemical_formula_sum   'Tm6 Lu14 Tl6 Ni2'
_cell_volume   736.31390428
_cell_formula_units_Z   2
loop_
 _symmetry_equiv_pos_site_id
 _symmetry_equiv_pos_as_xyz
  1  'x, y, z'
loop_
 _atom_site_type_symbol
 _atom_site_label
 _atom_site_symmetry_multiplicity
 _atom_site_fract_x
 _atom_site_fract_y
 _atom_site_fract_z
 _atom_site_occupancy
  Tm  Tm0  1  0.542385  0.457615  0.250000  1
  Tm  Tm1  1  0.542385  0.084770  0.250000  1
  Tm  Tm2  1  0.915230  0.457615  0.250000  1
  Tm  Tm3  1  0.457615  0.542385  0.750000  1
  Tm  Tm4  1  0.457615  0.915230  0.750000  1
  Tm  Tm5  1  0.084770  0.542385  0.750000  1
  Lu  Lu6  1  0.000000  0.000000  0.500000  1
  Lu  Lu7  1  0.000000  0.000000  0.000000  1
  Lu  Lu8  1  0.211715  0.788285  0.437658  1
  Lu  Lu9  1  0.211715  0.423428  0.437658  1
  Lu  Lu10  1  0.576572  0.788285  0.437658  1
  Lu  Lu11  1  0.788285  0.211715  0.562342  1
  Lu  Lu12  1  0.788285  0.576572  0.562342  1
  Lu  Lu13  1  0.423428  0.211715  0.562342  1
  Lu  Lu14  1  0.788285  0.211715  0.937658  1
  Lu  Lu15  1  0.788285  0.576572  0.937658  1
  Lu  Lu16  1  0.423428  0.211715  0.937658  1
  Lu  Lu17  1  0.211715  0.788285  0.062342  1
  Lu  Lu18  1  0.211715  0.423428  0.062342  1
  Lu  Lu19  1  0.576572  0.788285  0.062342  1
  Tl  Tl20  1  0.882601  0.117399  0.250000  1
  Tl  Tl21  1  0.882601  0.765201  0.250000  1
  Tl  Tl22  1  0.234799  0.117399  0.250000  1
  Tl  Tl23  1  0.117399  0.882601  0.750000  1
  Tl  Tl24  1  0.117399  0.234799  0.750000  1
  Tl  Tl25  1  0.765201  0.882601  0.750000  1
  Ni  Ni26  1  0.333333  0.666667  0.250000  1
  Ni  Ni27  1  0.666667  0.333333  0.750000  1
