# generated using pymatgen
data_Tm4Lu6InPb5
_symmetry_space_group_name_H-M   'P 1'
_cell_length_a   6.52607103
_cell_length_b   8.87018399
_cell_length_c   8.89779384
_cell_angle_alpha   119.90079813
_cell_angle_beta   90.00303461
_cell_angle_gamma   89.99142442
_symmetry_Int_Tables_number   1
_chemical_formula_structural   Tm4Lu6InPb5
_chemical_formula_sum   'Tm4 Lu6 In1 Pb5'
_cell_volume   446.50944912
_cell_formula_units_Z   1
loop_
 _symmetry_equiv_pos_site_id
 _symmetry_equiv_pos_as_xyz
  1  'x, y, z'
loop_
 _atom_site_type_symbol
 _atom_site_label
 _atom_site_symmetry_multiplicity
 _atom_site_fract_x
 _atom_site_fract_y
 _atom_site_fract_z
 _atom_site_occupancy
  Tm  Tm0  1  0.750125  0.235430  0.000083  1
  Tm  Tm1  1  0.250072  0.766400  0.999963  1
  Tm  Tm2  1  0.250027  0.236578  0.235501  1
  Tm  Tm3  1  0.250039  0.000975  0.764435  1
  Lu  Lu4  1  0.749979  0.761934  0.768285  1
  Lu  Lu5  1  0.749981  0.993579  0.231718  1
  Lu  Lu6  1  0.502143  0.337198  0.670779  1
  Lu  Lu7  1  0.502139  0.666400  0.329251  1
  Lu  Lu8  1  0.997823  0.666060  0.328818  1
  Lu  Lu9  1  0.997835  0.337230  0.671197  1
  In  In10  1  0.749750  0.601749  0.999968  1
  Pb  Pb11  1  0.750143  0.392548  0.394367  1
  Pb  Pb12  1  0.750012  0.998297  0.605764  1
  Pb  Pb13  1  0.250508  0.397766  0.999961  1
  Pb  Pb14  1  0.249695  0.605417  0.602994  1
  Pb  Pb15  1  0.249728  0.002442  0.396915  1
