# generated using pymatgen
data_BaTm2(CoH6)2
_symmetry_space_group_name_H-M   'P 1'
_cell_length_a   4.75599100
_cell_length_b   4.75599246
_cell_length_c   8.25627900
_cell_angle_alpha   90.00000000
_cell_angle_beta   90.00000000
_cell_angle_gamma   119.99998289
_symmetry_Int_Tables_number   1
_chemical_formula_structural   BaTm2(CoH6)2
_chemical_formula_sum   'Ba1 Tm2 Co2 H12'
_cell_volume   161.73248089
_cell_formula_units_Z   1
loop_
 _symmetry_equiv_pos_site_id
 _symmetry_equiv_pos_as_xyz
  1  'x, y, z'
loop_
 _atom_site_type_symbol
 _atom_site_label
 _atom_site_symmetry_multiplicity
 _atom_site_fract_x
 _atom_site_fract_y
 _atom_site_fract_z
 _atom_site_occupancy
  Ba  Ba0  1  0.000000  0.000000  0.000000  1
  Tm  Tm1  1  0.666667  0.333333  0.368315  1
  Tm  Tm2  1  0.333333  0.666667  0.631685  1
  Co  Co3  1  0.666667  0.333333  0.716551  1
  Co  Co4  1  0.333333  0.666667  0.283449  1
  H  H5  1  0.174011  0.825989  0.390635  1
  H  H6  1  0.651978  0.825989  0.390635  1
  H  H7  1  0.174011  0.348022  0.390635  1
  H  H8  1  0.825989  0.174011  0.609365  1
  H  H9  1  0.348022  0.174011  0.609365  1
  H  H10  1  0.825989  0.651978  0.609365  1
  H  H11  1  0.511309  0.022619  0.830998  1
  H  H12  1  0.511309  0.488691  0.830998  1
  H  H13  1  0.977381  0.488691  0.830998  1
  H  H14  1  0.488691  0.977381  0.169002  1
  H  H15  1  0.488691  0.511309  0.169002  1
  H  H16  1  0.022619  0.511309  0.169002  1
