# generated using pymatgen
data_Ti3Cr2Si3Rh
_symmetry_space_group_name_H-M   'P 1'
_cell_length_a   6.62524887
_cell_length_b   6.62524823
_cell_length_c   3.27887900
_cell_angle_alpha   90.00000000
_cell_angle_beta   90.00000000
_cell_angle_gamma   119.91930461
_symmetry_Int_Tables_number   1
_chemical_formula_structural   Ti3Cr2Si3Rh
_chemical_formula_sum   'Ti3 Cr2 Si3 Rh1'
_cell_volume   124.74206860
_cell_formula_units_Z   1
loop_
 _symmetry_equiv_pos_site_id
 _symmetry_equiv_pos_as_xyz
  1  'x, y, z'
loop_
 _atom_site_type_symbol
 _atom_site_label
 _atom_site_symmetry_multiplicity
 _atom_site_fract_x
 _atom_site_fract_y
 _atom_site_fract_z
 _atom_site_occupancy
  Ti  Ti0  1  0.389593  0.389593  0.500000  1
  Ti  Ti1  1  0.590916  0.011292  0.500000  1
  Ti  Ti2  1  0.011292  0.590916  0.500000  1
  Cr  Cr3  1  0.258561  0.999977  0.000000  1
  Cr  Cr4  1  0.999977  0.258561  0.000000  1
  Si  Si5  1  0.667384  0.336906  0.000000  1
  Si  Si6  1  0.336906  0.667384  0.000000  1
  Si  Si7  1  0.001051  0.001051  0.500000  1
  Rh  Rh8  1  0.744322  0.744322  0.000000  1
