# generated using pymatgen
data_Ta6Be15Co8
_symmetry_space_group_name_H-M   'P 1'
_cell_length_a   7.55871515
_cell_length_b   7.55590581
_cell_length_c   7.55822113
_cell_angle_alpha   60.01111844
_cell_angle_beta   60.00870597
_cell_angle_gamma   60.02084489
_symmetry_Int_Tables_number   1
_chemical_formula_structural   Ta6Be15Co8
_chemical_formula_sum   'Ta6 Be15 Co8'
_cell_volume   305.33216095
_cell_formula_units_Z   1
loop_
 _symmetry_equiv_pos_site_id
 _symmetry_equiv_pos_as_xyz
  1  'x, y, z'
loop_
 _atom_site_type_symbol
 _atom_site_label
 _atom_site_symmetry_multiplicity
 _atom_site_fract_x
 _atom_site_fract_y
 _atom_site_fract_z
 _atom_site_occupancy
  Ta  Ta0  1  0.710641  0.289581  0.289633  1
  Ta  Ta1  1  0.289359  0.710419  0.710367  1
  Ta  Ta2  1  0.289276  0.710436  0.289839  1
  Ta  Ta3  1  0.710724  0.289564  0.710161  1
  Ta  Ta4  1  0.289380  0.289889  0.710327  1
  Ta  Ta5  1  0.710620  0.710111  0.289673  1
  Be  Be6  1  0.326317  0.325577  0.325742  1
  Be  Be7  1  0.673683  0.674423  0.674258  1
  Be  Be8  1  0.326367  0.325637  0.022316  1
  Be  Be9  1  0.326315  0.022321  0.325722  1
  Be  Be10  1  0.673633  0.674363  0.977684  1
  Be  Be11  1  0.673685  0.977679  0.674278  1
  Be  Be12  1  0.024192  0.325180  0.325328  1
  Be  Be13  1  0.975808  0.674820  0.674672  1
  Be  Be14  1  0.500000  0.000000  0.000000  1
  Be  Be15  1  0.000000  0.500000  0.500000  1
  Be  Be16  1  0.000000  0.500000  0.000000  1
  Be  Be17  1  0.500000  0.000000  0.500000  1
  Be  Be18  1  0.000000  0.000000  0.500000  1
  Be  Be19  1  0.500000  0.500000  0.000000  1
  Be  Be20  1  0.000000  0.000000  0.000000  1
  Co  Co21  1  0.123278  0.123111  0.123115  1
  Co  Co22  1  0.876722  0.876889  0.876885  1
  Co  Co23  1  0.123319  0.123110  0.630463  1
  Co  Co24  1  0.123259  0.630469  0.123151  1
  Co  Co25  1  0.876681  0.876890  0.369537  1
  Co  Co26  1  0.876741  0.369531  0.876849  1
  Co  Co27  1  0.630923  0.122997  0.123094  1
  Co  Co28  1  0.369077  0.877003  0.876906  1
