# generated using pymatgen
data_Pr2Ga5Pd2Ru
_symmetry_space_group_name_H-M   'P 1'
_cell_length_a   8.79167264
_cell_length_b   8.80799184
_cell_length_c   8.80799176
_cell_angle_alpha   141.45370958
_cell_angle_beta   108.21182476
_cell_angle_gamma   84.59291672
_symmetry_Int_Tables_number   1
_chemical_formula_structural   Pr2Ga5Pd2Ru
_chemical_formula_sum   'Pr4 Ga10 Pd4 Ru2'
_cell_volume   390.52157180
_cell_formula_units_Z   2
loop_
 _symmetry_equiv_pos_site_id
 _symmetry_equiv_pos_as_xyz
  1  'x, y, z'
loop_
 _atom_site_type_symbol
 _atom_site_label
 _atom_site_symmetry_multiplicity
 _atom_site_fract_x
 _atom_site_fract_y
 _atom_site_fract_z
 _atom_site_occupancy
  Pr  Pr0  1  0.861279  0.635682  0.225597  1
  Pr  Pr1  1  0.138721  0.364318  0.774403  1
  Pr  Pr2  1  0.416029  0.139492  0.276538  1
  Pr  Pr3  1  0.583971  0.860508  0.723462  1
  Ga  Ga4  1  0.500000  0.739787  0.239787  1
  Ga  Ga5  1  0.500000  0.260213  0.760213  1
  Ga  Ga6  1  0.210240  0.959845  0.755550  1
  Ga  Ga7  1  0.789760  0.545310  0.749605  1
  Ga  Ga8  1  0.789760  0.040155  0.244450  1
  Ga  Ga9  1  0.210240  0.454690  0.250395  1
  Ga  Ga10  1  0.076899  0.908000  0.168897  1
  Ga  Ga11  1  0.923101  0.092000  0.831103  1
  Ga  Ga12  1  0.729492  0.405732  0.323761  1
  Ga  Ga13  1  0.270508  0.594268  0.676239  1
  Pd  Pd14  1  0.000000  0.748793  0.748793  1
  Pd  Pd15  1  0.000000  0.251207  0.251207  1
  Pd  Pd16  1  0.258867  0.853043  0.405825  1
  Pd  Pd17  1  0.741133  0.146957  0.594175  1
  Ru  Ru18  1  0.443247  0.351983  0.091266  1
  Ru  Ru19  1  0.556753  0.648017  0.908734  1
