# generated using pymatgen
data_Sm2Fe10Ni2P7
_symmetry_space_group_name_H-M   'P 1'
_cell_length_a   9.06745107
_cell_length_b   9.05192075
_cell_length_c   3.65554200
_cell_angle_alpha   90.00000000
_cell_angle_beta   90.00000000
_cell_angle_gamma   120.17293766
_symmetry_Int_Tables_number   1
_chemical_formula_structural   Sm2Fe10Ni2P7
_chemical_formula_sum   'Sm2 Fe10 Ni2 P7'
_cell_volume   259.38742396
_cell_formula_units_Z   1
loop_
 _symmetry_equiv_pos_site_id
 _symmetry_equiv_pos_as_xyz
  1  'x, y, z'
loop_
 _atom_site_type_symbol
 _atom_site_label
 _atom_site_symmetry_multiplicity
 _atom_site_fract_x
 _atom_site_fract_y
 _atom_site_fract_z
 _atom_site_occupancy
  Sm  Sm0  1  0.333883  0.666571  0.000000  1
  Sm  Sm1  1  0.667636  0.334807  0.500000  1
  Fe  Fe2  1  0.940988  0.572567  0.000000  1
  Fe  Fe3  1  0.150728  0.879022  0.000000  1
  Fe  Fe4  1  0.117771  0.270842  0.000000  1
  Fe  Fe5  1  0.728204  0.847161  0.000000  1
  Fe  Fe6  1  0.384338  0.951671  0.500000  1
  Fe  Fe7  1  0.048606  0.433896  0.500000  1
  Fe  Fe8  1  0.566762  0.613234  0.500000  1
  Fe  Fe9  1  0.218675  0.120640  0.500000  1
  Fe  Fe10  1  0.877688  0.098709  0.500000  1
  Fe  Fe11  1  0.902510  0.782727  0.500000  1
  Ni  Ni12  1  0.430087  0.368387  0.000000  1
  Ni  Ni13  1  0.631738  0.060631  0.000000  1
  P  P14  1  0.403725  0.103865  0.000000  1
  P  P15  1  0.897095  0.304106  0.000000  1
  P  P16  1  0.705883  0.597937  0.000000  1
  P  P17  1  0.109298  0.711335  0.500000  1
  P  P18  1  0.284012  0.398777  0.500000  1
  P  P19  1  0.600827  0.883799  0.500000  1
  P  P20  1  0.999544  0.999318  0.000000  1
