# generated using pymatgen
data_Zr2TaNb3(B2Ru5)2
_symmetry_space_group_name_H-M   'P 1'
_cell_length_a   9.49679228
_cell_length_b   9.49782264
_cell_length_c   3.06472200
_cell_angle_alpha   90.00000000
_cell_angle_beta   90.00000000
_cell_angle_gamma   90.06219369
_symmetry_Int_Tables_number   1
_chemical_formula_structural   Zr2TaNb3(B2Ru5)2
_chemical_formula_sum   'Zr2 Ta1 Nb3 B4 Ru10'
_cell_volume   276.43423336
_cell_formula_units_Z   1
loop_
 _symmetry_equiv_pos_site_id
 _symmetry_equiv_pos_as_xyz
  1  'x, y, z'
loop_
 _atom_site_type_symbol
 _atom_site_label
 _atom_site_symmetry_multiplicity
 _atom_site_fract_x
 _atom_site_fract_y
 _atom_site_fract_z
 _atom_site_occupancy
  Zr  Zr0  1  0.823463  0.676821  0.000000  1
  Zr  Zr1  1  0.176537  0.323179  0.000000  1
  Ta  Ta2  1  0.000000  0.000000  0.000000  1
  Nb  Nb3  1  0.323292  0.823496  0.000000  1
  Nb  Nb4  1  0.676708  0.176504  0.000000  1
  Nb  Nb5  1  0.500000  0.500000  0.000000  1
  B  B6  1  0.620607  0.879353  0.000000  1
  B  B7  1  0.379393  0.120647  0.000000  1
  B  B8  1  0.121593  0.621524  0.000000  1
  B  B9  1  0.878407  0.378476  0.000000  1
  Ru  Ru10  1  0.567394  0.720373  0.500000  1
  Ru  Ru11  1  0.432606  0.279627  0.500000  1
  Ru  Ru12  1  0.074012  0.783019  0.500000  1
  Ru  Ru13  1  0.925988  0.216981  0.500000  1
  Ru  Ru14  1  0.282680  0.574253  0.500000  1
  Ru  Ru15  1  0.717320  0.425747  0.500000  1
  Ru  Ru16  1  0.219899  0.067263  0.500000  1
  Ru  Ru17  1  0.780101  0.932737  0.500000  1
  Ru  Ru18  1  0.500000  0.000000  0.500000  1
  Ru  Ru19  1  0.000000  0.500000  0.500000  1
