# generated using pymatgen
data_Na2Mn(PO3)4
_symmetry_space_group_name_H-M   'P 1'
_cell_length_a   8.71116065
_cell_length_b   8.71116060
_cell_length_c   7.74482193
_cell_angle_alpha   85.46638469
_cell_angle_beta   85.46638629
_cell_angle_gamma   112.88155469
_symmetry_Int_Tables_number   1
_chemical_formula_structural   Na2Mn(PO3)4
_chemical_formula_sum   'Na4 Mn2 P8 O24'
_cell_volume   535.90005894
_cell_formula_units_Z   2
loop_
 _symmetry_equiv_pos_site_id
 _symmetry_equiv_pos_as_xyz
  1  'x, y, z'
loop_
 _atom_site_type_symbol
 _atom_site_label
 _atom_site_symmetry_multiplicity
 _atom_site_fract_x
 _atom_site_fract_y
 _atom_site_fract_z
 _atom_site_occupancy
  Na  Na0  1  0.186699  0.468030  0.703718  1
  Na  Na1  1  0.813301  0.531970  0.296282  1
  Na  Na2  1  0.468030  0.186699  0.203718  1
  Na  Na3  1  0.531970  0.813301  0.796282  1
  Mn  Mn4  1  0.135530  0.864470  0.250000  1
  Mn  Mn5  1  0.864470  0.135530  0.750000  1
  P  P6  1  0.205867  0.060883  0.831289  1
  P  P7  1  0.939117  0.794133  0.668711  1
  P  P8  1  0.060883  0.205867  0.331289  1
  P  P9  1  0.233155  0.553332  0.129813  1
  P  P10  1  0.553332  0.233155  0.629813  1
  P  P11  1  0.446668  0.766845  0.370187  1
  P  P12  1  0.794133  0.939117  0.168711  1
  P  P13  1  0.766845  0.446668  0.870187  1
  O  O14  1  0.903082  0.841060  0.156779  1
  O  O15  1  0.112867  0.887133  0.750000  1
  O  O16  1  0.277575  0.021686  0.991338  1
  O  O17  1  0.385854  0.614146  0.250000  1
  O  O18  1  0.899689  0.385388  0.808887  1
  O  O19  1  0.978314  0.722425  0.508661  1
  O  O20  1  0.841060  0.903082  0.656779  1
  O  O21  1  0.158940  0.096918  0.343221  1
  O  O22  1  0.353112  0.163934  0.675206  1
  O  O23  1  0.614612  0.100311  0.691113  1
  O  O24  1  0.592457  0.306789  0.443095  1
  O  O25  1  0.100311  0.614612  0.191113  1
  O  O26  1  0.693211  0.407543  0.056905  1
  O  O27  1  0.306789  0.592457  0.943095  1
  O  O28  1  0.887133  0.112867  0.250000  1
  O  O29  1  0.163934  0.353112  0.175206  1
  O  O30  1  0.646888  0.836066  0.324794  1
  O  O31  1  0.722425  0.978314  0.008661  1
  O  O32  1  0.385388  0.899689  0.308887  1
  O  O33  1  0.836066  0.646888  0.824794  1
  O  O34  1  0.407543  0.693211  0.556905  1
  O  O35  1  0.096918  0.158940  0.843221  1
  O  O36  1  0.614146  0.385854  0.750000  1
  O  O37  1  0.021686  0.277575  0.491339  1
