# generated using pymatgen
data_Yb8Ga3
_symmetry_space_group_name_H-M   'P 1'
_cell_length_a   9.25203221
_cell_length_b   9.22086575
_cell_length_c   9.32712896
_cell_angle_alpha   98.88292050
_cell_angle_beta   101.30956326
_cell_angle_gamma   119.65525935
_symmetry_Int_Tables_number   1
_chemical_formula_structural   Yb8Ga3
_chemical_formula_sum   'Yb16 Ga6'
_cell_volume   647.87066705
_cell_formula_units_Z   2
loop_
 _symmetry_equiv_pos_site_id
 _symmetry_equiv_pos_as_xyz
  1  'x, y, z'
loop_
 _atom_site_type_symbol
 _atom_site_label
 _atom_site_symmetry_multiplicity
 _atom_site_fract_x
 _atom_site_fract_y
 _atom_site_fract_z
 _atom_site_occupancy
  Yb  Yb0  1  0.081571  0.731944  0.105820  1
  Yb  Yb1  1  0.328155  0.379027  0.111545  1
  Yb  Yb2  1  0.703761  0.996478  0.111902  1
  Yb  Yb3  1  0.542776  0.209267  0.294119  1
  Yb  Yb4  1  0.771733  0.650864  0.295859  1
  Yb  Yb5  1  0.038804  0.440644  0.331963  1
  Yb  Yb6  1  0.468360  0.799130  0.351058  1
  Yb  Yb7  1  0.121899  0.098608  0.352412  1
  Yb  Yb8  1  0.878101  0.901392  0.647588  1
  Yb  Yb9  1  0.531640  0.200871  0.648943  1
  Yb  Yb10  1  0.961195  0.559356  0.668037  1
  Yb  Yb11  1  0.228267  0.349135  0.704141  1
  Yb  Yb12  1  0.457224  0.790732  0.705881  1
  Yb  Yb13  1  0.296239  0.003522  0.888098  1
  Yb  Yb14  1  0.671845  0.620972  0.888455  1
  Yb  Yb15  1  0.918429  0.268056  0.894180  1
  Ga  Ga16  1  0.000000  0.000000  0.000000  1
  Ga  Ga17  1  0.675756  0.337834  0.023552  1
  Ga  Ga18  1  0.827051  0.163851  0.499828  1
  Ga  Ga19  1  0.500000  0.500000  0.500000  1
  Ga  Ga20  1  0.172949  0.836150  0.500172  1
  Ga  Ga21  1  0.324244  0.662165  0.976448  1
