# generated using pymatgen
data_Cs4YbBr6
_symmetry_space_group_name_H-M   'P 1'
_cell_length_a   9.91999887
_cell_length_b   9.91999849
_cell_length_c   9.91999825
_cell_angle_alpha   88.97421207
_cell_angle_beta   88.97421340
_cell_angle_gamma   88.97420729
_symmetry_Int_Tables_number   1
_chemical_formula_structural   Cs4YbBr6
_chemical_formula_sum   'Cs8 Yb2 Br12'
_cell_volume   975.72724603
_cell_formula_units_Z   2
loop_
 _symmetry_equiv_pos_site_id
 _symmetry_equiv_pos_as_xyz
  1  'x, y, z'
loop_
 _atom_site_type_symbol
 _atom_site_label
 _atom_site_symmetry_multiplicity
 _atom_site_fract_x
 _atom_site_fract_y
 _atom_site_fract_z
 _atom_site_occupancy
  Cs  Cs0  1  0.250000  0.250000  0.250000  1
  Cs  Cs1  1  0.750000  0.750000  0.750000  1
  Cs  Cs2  1  0.250000  0.624415  0.875585  1
  Cs  Cs3  1  0.875585  0.250000  0.624415  1
  Cs  Cs4  1  0.624415  0.875585  0.250000  1
  Cs  Cs5  1  0.750000  0.375585  0.124415  1
  Cs  Cs6  1  0.124415  0.750000  0.375585  1
  Cs  Cs7  1  0.375585  0.124415  0.750000  1
  Yb  Yb8  1  0.000000  0.000000  0.000000  1
  Yb  Yb9  1  0.500000  0.500000  0.500000  1
  Br  Br10  1  0.559799  0.219830  0.430533  1
  Br  Br11  1  0.430533  0.559799  0.219830  1
  Br  Br12  1  0.219830  0.430533  0.559799  1
  Br  Br13  1  0.940201  0.069467  0.280170  1
  Br  Br14  1  0.280170  0.940201  0.069467  1
  Br  Br15  1  0.069467  0.280170  0.940201  1
  Br  Br16  1  0.440201  0.780170  0.569467  1
  Br  Br17  1  0.569467  0.440201  0.780170  1
  Br  Br18  1  0.780170  0.569467  0.440201  1
  Br  Br19  1  0.059799  0.930533  0.719830  1
  Br  Br20  1  0.930533  0.719830  0.059799  1
  Br  Br21  1  0.719830  0.059799  0.930533  1
