# generated using pymatgen
data_Gd10Sn3HgRu6
_symmetry_space_group_name_H-M   'P 1'
_cell_length_a   8.59261069
_cell_length_b   8.59260834
_cell_length_c   8.59115900
_cell_angle_alpha   109.46780619
_cell_angle_beta   109.46780066
_cell_angle_gamma   109.47463926
_symmetry_Int_Tables_number   1
_chemical_formula_structural   Gd10Sn3HgRu6
_chemical_formula_sum   'Gd10 Sn3 Hg1 Ru6'
_cell_volume   488.31304163
_cell_formula_units_Z   1
loop_
 _symmetry_equiv_pos_site_id
 _symmetry_equiv_pos_as_xyz
  1  'x, y, z'
loop_
 _atom_site_type_symbol
 _atom_site_label
 _atom_site_symmetry_multiplicity
 _atom_site_fract_x
 _atom_site_fract_y
 _atom_site_fract_z
 _atom_site_occupancy
  Gd  Gd0  1  0.789514  0.000859  0.001097  1
  Gd  Gd1  1  0.246677  0.315027  0.060877  1
  Gd  Gd2  1  0.711347  0.710488  0.211584  1
  Gd  Gd3  1  0.184973  0.931650  0.245848  1
  Gd  Gd4  1  0.000000  0.500001  0.295373  1
  Gd  Gd5  1  0.747101  0.179890  0.434424  1
  Gd  Gd6  1  0.499142  0.788655  0.500238  1
  Gd  Gd7  1  0.932789  0.752899  0.687323  1
  Gd  Gd8  1  0.320110  0.567211  0.754534  1
  Gd  Gd9  1  0.568350  0.253323  0.814199  1
  Sn  Sn10  1  0.406778  0.002718  0.998520  1
  Sn  Sn11  1  0.497282  0.404060  0.495803  1
  Sn  Sn12  1  0.095940  0.093222  0.591742  1
  Hg  Hg13  1  0.000000  0.500000  0.913616  1
  Ru  Ru14  1  0.397763  0.760978  0.140311  1
  Ru  Ru15  1  0.633234  0.383185  0.249682  1
  Ru  Ru16  1  0.116815  0.250050  0.366497  1
  Ru  Ru17  1  0.249950  0.866766  0.616449  1
  Ru  Ru18  1  0.863214  0.102237  0.742548  1
  Ru  Ru19  1  0.739022  0.636785  0.879334  1
