# generated using pymatgen
data_Tb3Dy5(PBr6)2
_symmetry_space_group_name_H-M   'P 1'
_cell_length_a   4.01049200
_cell_length_b   13.14777401
_cell_length_c   13.86246801
_cell_angle_alpha   90.00436971
_cell_angle_beta   90.00000000
_cell_angle_gamma   90.00000000
_symmetry_Int_Tables_number   1
_chemical_formula_structural   Tb3Dy5(PBr6)2
_chemical_formula_sum   'Tb3 Dy5 P2 Br12'
_cell_volume   730.95466250
_cell_formula_units_Z   1
loop_
 _symmetry_equiv_pos_site_id
 _symmetry_equiv_pos_as_xyz
  1  'x, y, z'
loop_
 _atom_site_type_symbol
 _atom_site_label
 _atom_site_symmetry_multiplicity
 _atom_site_fract_x
 _atom_site_fract_y
 _atom_site_fract_z
 _atom_site_occupancy
  Tb  Tb0  1  0.000000  0.884960  0.423600  1
  Tb  Tb1  1  0.000000  0.615309  0.923416  1
  Tb  Tb2  1  0.000000  0.384688  0.076579  1
  Dy  Dy3  1  0.500000  0.117090  0.343075  1
  Dy  Dy4  1  0.500000  0.882901  0.656918  1
  Dy  Dy5  1  0.500000  0.617224  0.157092  1
  Dy  Dy6  1  0.500000  0.382792  0.842937  1
  Dy  Dy7  1  0.000000  0.114821  0.576241  1
  P  P8  1  0.500000  0.000555  0.500359  1
  P  P9  1  0.500000  0.500005  0.000004  1
  Br  Br10  1  0.500000  0.242805  0.162965  1
  Br  Br11  1  0.500000  0.757208  0.837044  1
  Br  Br12  1  0.500000  0.742848  0.337084  1
  Br  Br13  1  0.500000  0.256715  0.662640  1
  Br  Br14  1  0.000000  0.256404  0.412340  1
  Br  Br15  1  0.000000  0.743432  0.587980  1
  Br  Br16  1  0.000000  0.756568  0.087978  1
  Br  Br17  1  0.000000  0.243428  0.912016  1
  Br  Br18  1  0.000000  0.000777  0.242261  1
  Br  Br19  1  0.000000  0.999485  0.757475  1
  Br  Br20  1  0.000000  0.500776  0.257748  1
  Br  Br21  1  0.000000  0.499209  0.742247  1
