# generated using pymatgen
data_ZrScBe4Ru5
_symmetry_space_group_name_H-M   'P 1'
_cell_length_a   3.21587300
_cell_length_b   8.66897729
_cell_length_c   10.16376004
_cell_angle_alpha   90.17301681
_cell_angle_beta   90.00000000
_cell_angle_gamma   90.00000000
_symmetry_Int_Tables_number   1
_chemical_formula_structural   ZrScBe4Ru5
_chemical_formula_sum   'Zr2 Sc2 Be8 Ru10'
_cell_volume   283.34736470
_cell_formula_units_Z   2
loop_
 _symmetry_equiv_pos_site_id
 _symmetry_equiv_pos_as_xyz
  1  'x, y, z'
loop_
 _atom_site_type_symbol
 _atom_site_label
 _atom_site_symmetry_multiplicity
 _atom_site_fract_x
 _atom_site_fract_y
 _atom_site_fract_z
 _atom_site_occupancy
  Zr  Zr0  1  0.500000  0.838617  0.181707  1
  Zr  Zr1  1  0.500000  0.161383  0.818293  1
  Sc  Sc2  1  0.500000  0.661654  0.682950  1
  Sc  Sc3  1  0.500000  0.338346  0.317050  1
  Be  Be4  1  0.500000  0.964567  0.594174  1
  Be  Be5  1  0.500000  0.035433  0.405826  1
  Be  Be6  1  0.500000  0.842322  0.903339  1
  Be  Be7  1  0.500000  0.157678  0.096661  1
  Be  Be8  1  0.500000  0.659124  0.406664  1
  Be  Be9  1  0.500000  0.340876  0.593336  1
  Be  Be10  1  0.500000  0.466608  0.904646  1
  Be  Be11  1  0.500000  0.533392  0.095354  1
  Ru  Ru12  1  0.000000  0.659287  0.956518  1
  Ru  Ru13  1  0.000000  0.340713  0.043482  1
  Ru  Ru14  1  0.000000  0.842291  0.453399  1
  Ru  Ru15  1  0.000000  0.157709  0.546601  1
  Ru  Ru16  1  0.000000  0.000000  0.000000  1
  Ru  Ru17  1  0.000000  0.405177  0.754401  1
  Ru  Ru18  1  0.000000  0.594823  0.245599  1
  Ru  Ru19  1  0.000000  0.500000  0.500000  1
  Ru  Ru20  1  0.000000  0.906135  0.742282  1
  Ru  Ru21  1  0.000000  0.093865  0.257718  1
