# generated using pymatgen
data_TmRu(SeO3)4
_symmetry_space_group_name_H-M   'P 1'
_cell_length_a   8.38394100
_cell_length_b   8.76294605
_cell_length_c   8.46163072
_cell_angle_alpha   91.55274151
_cell_angle_beta   90.00000000
_cell_angle_gamma   90.00000000
_symmetry_Int_Tables_number   1
_chemical_formula_structural   TmRu(SeO3)4
_chemical_formula_sum   'Tm2 Ru2 Se8 O24'
_cell_volume   621.43100778
_cell_formula_units_Z   2
loop_
 _symmetry_equiv_pos_site_id
 _symmetry_equiv_pos_as_xyz
  1  'x, y, z'
loop_
 _atom_site_type_symbol
 _atom_site_label
 _atom_site_symmetry_multiplicity
 _atom_site_fract_x
 _atom_site_fract_y
 _atom_site_fract_z
 _atom_site_occupancy
  Tm  Tm0  1  0.000000  0.500000  0.000000  1
  Tm  Tm1  1  0.500000  0.500000  0.500000  1
  Ru  Ru2  1  0.000000  0.000000  0.500000  1
  Ru  Ru3  1  0.500000  0.000000  0.000000  1
  Se  Se4  1  0.344485  0.695686  0.167570  1
  Se  Se5  1  0.844485  0.304314  0.332430  1
  Se  Se6  1  0.698169  0.846471  0.690126  1
  Se  Se7  1  0.198169  0.153529  0.809874  1
  Se  Se8  1  0.655515  0.304314  0.832430  1
  Se  Se9  1  0.155515  0.695686  0.667570  1
  Se  Se10  1  0.301831  0.153529  0.309874  1
  Se  Se11  1  0.801831  0.846471  0.190126  1
  O  O12  1  0.246699  0.574128  0.042999  1
  O  O13  1  0.746699  0.425872  0.457001  1
  O  O14  1  0.768841  0.980920  0.551872  1
  O  O15  1  0.268841  0.019080  0.948128  1
  O  O16  1  0.550996  0.972644  0.771498  1
  O  O17  1  0.478594  0.582564  0.256839  1
  O  O18  1  0.978594  0.417436  0.243161  1
  O  O19  1  0.050996  0.027356  0.728502  1
  O  O20  1  0.979379  0.219903  0.475134  1
  O  O21  1  0.583429  0.734846  0.573697  1
  O  O22  1  0.479379  0.780097  0.024866  1
  O  O23  1  0.083429  0.265154  0.926303  1
  O  O24  1  0.753301  0.425872  0.957001  1
  O  O25  1  0.253301  0.574128  0.542999  1
  O  O26  1  0.231159  0.019080  0.448128  1
  O  O27  1  0.731159  0.980920  0.051872  1
  O  O28  1  0.449004  0.027356  0.228502  1
  O  O29  1  0.521406  0.417436  0.743161  1
  O  O30  1  0.021406  0.582564  0.756839  1
  O  O31  1  0.949004  0.972644  0.271498  1
  O  O32  1  0.020621  0.780097  0.524866  1
  O  O33  1  0.416571  0.265154  0.426303  1
  O  O34  1  0.520621  0.219903  0.975134  1
  O  O35  1  0.916571  0.734846  0.073697  1
