# generated using pymatgen
data_Sm5W2C7
_symmetry_space_group_name_H-M   'P 1'
_cell_length_a   8.63717426
_cell_length_b   8.63717389
_cell_length_c   3.50058500
_cell_angle_alpha   90.00000000
_cell_angle_beta   90.00000000
_cell_angle_gamma   124.10640628
_symmetry_Int_Tables_number   1
_chemical_formula_structural   Sm5W2C7
_chemical_formula_sum   'Sm5 W2 C7'
_cell_volume   216.22856866
_cell_formula_units_Z   1
loop_
 _symmetry_equiv_pos_site_id
 _symmetry_equiv_pos_as_xyz
  1  'x, y, z'
loop_
 _atom_site_type_symbol
 _atom_site_label
 _atom_site_symmetry_multiplicity
 _atom_site_fract_x
 _atom_site_fract_y
 _atom_site_fract_z
 _atom_site_occupancy
  Sm  Sm0  1  0.500000  0.500000  0.000000  1
  Sm  Sm1  1  0.069539  0.327200  0.500000  1
  Sm  Sm2  1  0.930461  0.672800  0.500000  1
  Sm  Sm3  1  0.672800  0.930461  0.500000  1
  Sm  Sm4  1  0.327200  0.069539  0.500000  1
  W  W5  1  0.712220  0.287780  0.000000  1
  W  W6  1  0.287780  0.712220  0.000000  1
  C  C7  1  0.629597  0.370403  0.500000  1
  C  C8  1  0.370403  0.629597  0.500000  1
  C  C9  1  0.000000  0.000000  0.000000  1
  C  C10  1  0.167409  0.167409  0.000000  1
  C  C11  1  0.832591  0.832591  0.000000  1
  C  C12  1  0.000000  0.500000  0.000000  1
  C  C13  1  0.500000  0.000000  0.000000  1
