# generated using pymatgen
data_Dy3YCdIr
_symmetry_space_group_name_H-M   'P 1'
_cell_length_a   9.64171377
_cell_length_b   9.63887497
_cell_length_c   9.63887442
_cell_angle_alpha   60.01948293
_cell_angle_beta   59.99025758
_cell_angle_gamma   59.99025707
_symmetry_Int_Tables_number   1
_chemical_formula_structural   Dy3YCdIr
_chemical_formula_sum   'Dy12 Y4 Cd4 Ir4'
_cell_volume   633.42007402
_cell_formula_units_Z   4
loop_
 _symmetry_equiv_pos_site_id
 _symmetry_equiv_pos_as_xyz
  1  'x, y, z'
loop_
 _atom_site_type_symbol
 _atom_site_label
 _atom_site_symmetry_multiplicity
 _atom_site_fract_x
 _atom_site_fract_y
 _atom_site_fract_z
 _atom_site_occupancy
  Dy  Dy0  1  0.348529  0.348721  0.348721  1
  Dy  Dy1  1  0.348721  0.348529  0.954028  1
  Dy  Dy2  1  0.348721  0.954028  0.348529  1
  Dy  Dy3  1  0.954028  0.348721  0.348721  1
  Dy  Dy4  1  0.810242  0.189758  0.189758  1
  Dy  Dy5  1  0.189758  0.810242  0.810242  1
  Dy  Dy6  1  0.189746  0.810254  0.189746  1
  Dy  Dy7  1  0.810254  0.189746  0.810254  1
  Dy  Dy8  1  0.189746  0.189746  0.810254  1
  Dy  Dy9  1  0.810254  0.810254  0.189746  1
  Dy  Dy10  1  0.938963  0.561037  0.561037  1
  Dy  Dy11  1  0.561037  0.938963  0.938963  1
  Y  Y12  1  0.561827  0.938173  0.561827  1
  Y  Y13  1  0.938173  0.561827  0.938173  1
  Y  Y14  1  0.561827  0.561827  0.938173  1
  Y  Y15  1  0.938173  0.938173  0.561827  1
  Cd  Cd16  1  0.581092  0.581141  0.581141  1
  Cd  Cd17  1  0.581141  0.581092  0.256627  1
  Cd  Cd18  1  0.581141  0.256627  0.581092  1
  Cd  Cd19  1  0.256627  0.581141  0.581141  1
  Ir  Ir20  1  0.141871  0.141539  0.141539  1
  Ir  Ir21  1  0.141539  0.141871  0.575051  1
  Ir  Ir22  1  0.141539  0.575051  0.141871  1
  Ir  Ir23  1  0.575051  0.141539  0.141539  1
