# generated using pymatgen
data_SBrF34
_symmetry_space_group_name_H-M   'P 1'
_cell_length_a   8.66812945
_cell_length_b   8.54805362
_cell_length_c   10.13828451
_cell_angle_alpha   79.65613870
_cell_angle_beta   86.71962853
_cell_angle_gamma   66.27279139
_symmetry_Int_Tables_number   1
_chemical_formula_structural   SBrF34
_chemical_formula_sum   'S1 Br1 F34'
_cell_volume   676.43382572
_cell_formula_units_Z   1
loop_
 _symmetry_equiv_pos_site_id
 _symmetry_equiv_pos_as_xyz
  1  'x, y, z'
loop_
 _atom_site_type_symbol
 _atom_site_label
 _atom_site_symmetry_multiplicity
 _atom_site_fract_x
 _atom_site_fract_y
 _atom_site_fract_z
 _atom_site_occupancy
  S  S0  1  0.863086  0.248109  0.760187  1
  Br  Br1  1  0.135605  0.749659  0.240560  1
  F  F2  1  0.621051  0.201063  0.477620  1
  F  F3  1  0.385075  0.791482  0.529061  1
  F  F4  1  0.828921  0.700551  0.714216  1
  F  F5  1  0.167993  0.295967  0.285933  1
  F  F6  1  0.093278  0.746978  0.862718  1
  F  F7  1  0.904700  0.251536  0.132942  1
  F  F8  1  0.558413  0.144996  0.375895  1
  F  F9  1  0.442136  0.859460  0.626034  1
  F  F10  1  0.673250  0.318154  0.705866  1
  F  F11  1  0.351151  0.670613  0.304055  1
  F  F12  1  0.917774  0.094218  0.675531  1
  F  F13  1  0.070009  0.923688  0.338006  1
  F  F14  1  0.904271  0.367411  0.635511  1
  F  F15  1  0.088346  0.614338  0.382320  1
  F  F16  1  0.858841  0.817265  0.607178  1
  F  F17  1  0.153570  0.175793  0.397907  1
  F  F18  1  0.808658  0.402419  0.844884  1
  F  F19  1  0.198871  0.573417  0.143927  1
  F  F20  1  0.215249  0.688067  0.762937  1
  F  F21  1  0.783393  0.315700  0.231945  1
  F  F22  1  0.921770  0.828044  0.174796  1
  F  F23  1  0.052128  0.178302  0.815500  1
  F  F24  1  0.820990  0.128593  0.884773  1
  F  F25  1  0.184582  0.887226  0.100038  1
  F  F26  1  0.500939  0.587414  0.984235  1
  F  F27  1  0.507195  0.415544  0.007349  1
  F  F28  1  0.448304  0.092448  0.865504  1
  F  F29  1  0.548595  0.918099  0.133721  1
  F  F30  1  0.286113  0.263051  0.603838  1
  F  F31  1  0.709242  0.736666  0.398098  1
  F  F32  1  0.258191  0.400751  0.675959  1
  F  F33  1  0.738494  0.599632  0.324994  1
  F  F34  1  0.560333  0.929232  0.833405  1
  F  F35  1  0.439485  0.084113  0.162556  1
