# generated using pymatgen
data_DyHoGa7Ni2Ag
_symmetry_space_group_name_H-M   'P 1'
_cell_length_a   4.12869094
_cell_length_b   6.48500882
_cell_length_c   8.03003086
_cell_angle_alpha   90.68112418
_cell_angle_beta   104.89675276
_cell_angle_gamma   90.00000388
_symmetry_Int_Tables_number   1
_chemical_formula_structural   DyHoGa7Ni2Ag
_chemical_formula_sum   'Dy1 Ho1 Ga7 Ni2 Ag1'
_cell_volume   207.75908243
_cell_formula_units_Z   1
loop_
 _symmetry_equiv_pos_site_id
 _symmetry_equiv_pos_as_xyz
  1  'x, y, z'
loop_
 _atom_site_type_symbol
 _atom_site_label
 _atom_site_symmetry_multiplicity
 _atom_site_fract_x
 _atom_site_fract_y
 _atom_site_fract_z
 _atom_site_occupancy
  Dy  Dy0  1  0.623188  0.238418  0.246374  1
  Ho  Ho1  1  0.376781  0.761550  0.753564  1
  Ga  Ga2  1  0.999906  0.999867  0.999813  1
  Ga  Ga3  1  0.568084  0.740700  0.136169  1
  Ga  Ga4  1  0.431772  0.259321  0.863544  1
  Ga  Ga5  1  0.184341  0.544295  0.368681  1
  Ga  Ga6  1  0.815773  0.455912  0.631546  1
  Ga  Ga7  1  0.185978  0.946805  0.371955  1
  Ga  Ga8  1  0.814177  0.052936  0.628354  1
  Ni  Ni9  1  0.720990  0.750494  0.441981  1
  Ni  Ni10  1  0.279115  0.249483  0.558228  1
  Ag  Ag11  1  0.999895  0.500219  0.999790  1
