# generated using pymatgen
data_KEr2CoH12Ir
_symmetry_space_group_name_H-M   'P 1'
_cell_length_a   4.93852600
_cell_length_b   4.93852652
_cell_length_c   8.44528600
_cell_angle_alpha   90.00000000
_cell_angle_beta   90.00000000
_cell_angle_gamma   120.00000989
_symmetry_Int_Tables_number   1
_chemical_formula_structural   KEr2CoH12Ir
_chemical_formula_sum   'K1 Er2 Co1 H12 Ir1'
_cell_volume   178.37734071
_cell_formula_units_Z   1
loop_
 _symmetry_equiv_pos_site_id
 _symmetry_equiv_pos_as_xyz
  1  'x, y, z'
loop_
 _atom_site_type_symbol
 _atom_site_label
 _atom_site_symmetry_multiplicity
 _atom_site_fract_x
 _atom_site_fract_y
 _atom_site_fract_z
 _atom_site_occupancy
  K  K0  1  0.000000  0.000000  0.989239  1
  Er  Er1  1  0.666667  0.333333  0.376550  1
  Er  Er2  1  0.333333  0.666667  0.646898  1
  Co  Co3  1  0.666667  0.333333  0.713061  1
  H  H4  1  0.165367  0.834633  0.392672  1
  H  H5  1  0.669266  0.834633  0.392672  1
  H  H6  1  0.165367  0.330734  0.392672  1
  H  H7  1  0.822478  0.177522  0.611778  1
  H  H8  1  0.355045  0.177522  0.611778  1
  H  H9  1  0.822478  0.644955  0.611778  1
  H  H10  1  0.519891  0.039782  0.826892  1
  H  H11  1  0.519891  0.480109  0.826892  1
  H  H12  1  0.960218  0.480109  0.826892  1
  H  H13  1  0.488605  0.977209  0.164770  1
  H  H14  1  0.488605  0.511395  0.164770  1
  H  H15  1  0.022791  0.511395  0.164770  1
  Ir  Ir16  1  0.333333  0.666667  0.285915  1
