# generated using pymatgen
data_Na2Sc3P12Ir10Ru9
_symmetry_space_group_name_H-M   'P 1'
_cell_length_a   12.54564615
_cell_length_b   12.54564667
_cell_length_c   3.93069500
_cell_angle_alpha   90.00000000
_cell_angle_beta   90.00000000
_cell_angle_gamma   119.93284121
_symmetry_Int_Tables_number   1
_chemical_formula_structural   Na2Sc3P12Ir10Ru9
_chemical_formula_sum   'Na2 Sc3 P12 Ir10 Ru9'
_cell_volume   536.14167869
_cell_formula_units_Z   1
loop_
 _symmetry_equiv_pos_site_id
 _symmetry_equiv_pos_as_xyz
  1  'x, y, z'
loop_
 _atom_site_type_symbol
 _atom_site_label
 _atom_site_symmetry_multiplicity
 _atom_site_fract_x
 _atom_site_fract_y
 _atom_site_fract_z
 _atom_site_occupancy
  Na  Na0  1  0.815786  0.999597  0.500000  1
  Na  Na1  1  0.999597  0.815786  0.500000  1
  Sc  Sc2  1  0.332479  0.665598  0.000000  1
  Sc  Sc3  1  0.665598  0.332479  0.000000  1
  Sc  Sc4  1  0.181151  0.181151  0.500000  1
  P  P5  1  0.182113  0.001141  0.000000  1
  P  P6  1  0.001141  0.182113  0.000000  1
  P  P7  1  0.817922  0.817922  0.000000  1
  P  P8  1  0.173686  0.480927  0.500000  1
  P  P9  1  0.519674  0.694216  0.500000  1
  P  P10  1  0.305351  0.826437  0.500000  1
  P  P11  1  0.694216  0.519674  0.500000  1
  P  P12  1  0.826437  0.305351  0.500000  1
  P  P13  1  0.480927  0.173686  0.500000  1
  P  P14  1  0.636241  0.000281  0.000000  1
  P  P15  1  0.000281  0.636241  0.000000  1
  P  P16  1  0.361528  0.361528  0.000000  1
  Ir  Ir17  1  0.364653  0.496466  0.500000  1
  Ir  Ir18  1  0.502462  0.870025  0.500000  1
  Ir  Ir19  1  0.130903  0.635206  0.500000  1
  Ir  Ir20  1  0.870025  0.502462  0.500000  1
  Ir  Ir21  1  0.635206  0.130903  0.500000  1
  Ir  Ir22  1  0.496466  0.364653  0.500000  1
  Ir  Ir23  1  0.285755  0.002934  0.500000  1
  Ir  Ir24  1  0.002934  0.285755  0.500000  1
  Ir  Ir25  1  0.714687  0.714687  0.500000  1
  Ir  Ir26  1  0.004705  0.004705  0.000000  1
  Ru  Ru27  1  0.454311  0.004640  0.000000  1
  Ru  Ru28  1  0.004640  0.454311  0.000000  1
  Ru  Ru29  1  0.545186  0.545186  0.000000  1
  Ru  Ru30  1  0.184113  0.375990  0.000000  1
  Ru  Ru31  1  0.617332  0.802965  0.000000  1
  Ru  Ru32  1  0.197010  0.816530  0.000000  1
  Ru  Ru33  1  0.802965  0.617332  0.000000  1
  Ru  Ru34  1  0.816530  0.197010  0.000000  1
  Ru  Ru35  1  0.375990  0.184113  0.000000  1
