# generated using pymatgen
data_Dy15Pa(CdFe)4
_symmetry_space_group_name_H-M   'P 1'
_cell_length_a   9.42491491
_cell_length_b   9.59805620
_cell_length_c   9.42491600
_cell_angle_alpha   60.59496242
_cell_angle_beta   60.00000318
_cell_angle_gamma   60.59495940
_symmetry_Int_Tables_number   1
_chemical_formula_structural   Dy15Pa(CdFe)4
_chemical_formula_sum   'Dy15 Pa1 Cd4 Fe4'
_cell_volume   608.23412245
_cell_formula_units_Z   1
loop_
 _symmetry_equiv_pos_site_id
 _symmetry_equiv_pos_as_xyz
  1  'x, y, z'
loop_
 _atom_site_type_symbol
 _atom_site_label
 _atom_site_symmetry_multiplicity
 _atom_site_fract_x
 _atom_site_fract_y
 _atom_site_fract_z
 _atom_site_occupancy
  Dy  Dy0  1  0.685898  0.315088  0.685898  1
  Dy  Dy1  1  0.685898  0.315088  0.313116  1
  Dy  Dy2  1  0.941782  0.558585  0.557851  1
  Dy  Dy3  1  0.542981  0.146106  0.155456  1
  Dy  Dy4  1  0.155456  0.146106  0.542981  1
  Dy  Dy5  1  0.938737  0.932968  0.564148  1
  Dy  Dy6  1  0.309414  0.694231  0.309414  1
  Dy  Dy7  1  0.564148  0.932968  0.938737  1
  Dy  Dy8  1  0.564148  0.932968  0.564148  1
  Dy  Dy9  1  0.686942  0.694231  0.309414  1
  Dy  Dy10  1  0.557851  0.558585  0.941782  1
  Dy  Dy11  1  0.941782  0.558585  0.941782  1
  Dy  Dy12  1  0.309414  0.694231  0.686942  1
  Dy  Dy13  1  0.155456  0.146106  0.155456  1
  Dy  Dy14  1  0.313116  0.315088  0.685898  1
  Pa  Pa15  1  0.171810  0.484570  0.171810  1
  Cd  Cd16  1  0.920093  0.239721  0.920093  1
  Cd  Cd17  1  0.920773  0.918580  0.920773  1
  Cd  Cd18  1  0.920773  0.918580  0.239872  1
  Cd  Cd19  1  0.239872  0.918580  0.920773  1
  Fe  Fe20  1  0.338065  0.387400  0.936473  1
  Fe  Fe21  1  0.361056  0.916833  0.361056  1
  Fe  Fe22  1  0.936473  0.387400  0.338065  1
  Fe  Fe23  1  0.338065  0.387400  0.338065  1
