# generated using pymatgen
data_Nb3BMo3P2
_symmetry_space_group_name_H-M   'P 1'
_cell_length_a   6.70894100
_cell_length_b   6.70894182
_cell_length_c   3.31670200
_cell_angle_alpha   90.00000000
_cell_angle_beta   90.00000000
_cell_angle_gamma   120.00000087
_symmetry_Int_Tables_number   1
_chemical_formula_structural   Nb3BMo3P2
_chemical_formula_sum   'Nb3 B1 Mo3 P2'
_cell_volume   129.28408885
_cell_formula_units_Z   1
loop_
 _symmetry_equiv_pos_site_id
 _symmetry_equiv_pos_as_xyz
  1  'x, y, z'
loop_
 _atom_site_type_symbol
 _atom_site_label
 _atom_site_symmetry_multiplicity
 _atom_site_fract_x
 _atom_site_fract_y
 _atom_site_fract_z
 _atom_site_occupancy
  Nb  Nb0  1  0.394868  0.000000  0.500001  1
  Nb  Nb1  1  0.000000  0.394868  0.500001  1
  Nb  Nb2  1  0.605132  0.605131  0.500001  1
  B  B3  1  0.000000  0.000000  0.500001  1
  Mo  Mo4  1  0.754778  0.000000  0.000000  1
  Mo  Mo5  1  0.245221  0.245221  0.000000  1
  Mo  Mo6  1  0.000000  0.754778  0.000000  1
  P  P7  1  0.666667  0.333333  0.000000  1
  P  P8  1  0.333333  0.666666  0.000000  1
