# generated using pymatgen
data_Y3CoP6Ir7Rh
_symmetry_space_group_name_H-M   'P 1'
_cell_length_a   3.92441600
_cell_length_b   11.13462100
_cell_length_c   12.78137600
_cell_angle_alpha   90.00000000
_cell_angle_beta   90.00000000
_cell_angle_gamma   90.00000000
_symmetry_Int_Tables_number   1
_chemical_formula_structural   Y3CoP6Ir7Rh
_chemical_formula_sum   'Y6 Co2 P12 Ir14 Rh2'
_cell_volume   558.50631474
_cell_formula_units_Z   2
loop_
 _symmetry_equiv_pos_site_id
 _symmetry_equiv_pos_as_xyz
  1  'x, y, z'
loop_
 _atom_site_type_symbol
 _atom_site_label
 _atom_site_symmetry_multiplicity
 _atom_site_fract_x
 _atom_site_fract_y
 _atom_site_fract_z
 _atom_site_occupancy
  Y  Y0  1  0.000000  0.500000  0.521338  1
  Y  Y1  1  0.500000  0.000000  0.478662  1
  Y  Y2  1  0.500000  0.816155  0.200586  1
  Y  Y3  1  0.500000  0.183845  0.200586  1
  Y  Y4  1  0.000000  0.683845  0.799414  1
  Y  Y5  1  0.000000  0.316155  0.799414  1
  Co  Co6  1  0.000000  0.500000  0.978424  1
  Co  Co7  1  0.500000  0.000000  0.021576  1
  P  P8  1  0.500000  0.500000  0.881027  1
  P  P9  1  0.000000  0.000000  0.118973  1
  P  P10  1  0.500000  0.500000  0.354980  1
  P  P11  1  0.000000  0.000000  0.645020  1
  P  P12  1  0.500000  0.315425  0.619384  1
  P  P13  1  0.500000  0.684575  0.619384  1
  P  P14  1  0.000000  0.184575  0.380616  1
  P  P15  1  0.000000  0.815425  0.380616  1
  P  P16  1  0.500000  0.851665  0.896768  1
  P  P17  1  0.500000  0.148335  0.896768  1
  P  P18  1  0.000000  0.648335  0.103232  1
  P  P19  1  0.000000  0.351665  0.103232  1
  Ir  Ir20  1  0.500000  0.500000  0.702498  1
  Ir  Ir21  1  0.000000  0.000000  0.297502  1
  Ir  Ir22  1  0.500000  0.338090  0.996174  1
  Ir  Ir23  1  0.500000  0.661910  0.996174  1
  Ir  Ir24  1  0.000000  0.161910  0.003826  1
  Ir  Ir25  1  0.000000  0.838090  0.003826  1
  Ir  Ir26  1  0.500000  0.292434  0.429227  1
  Ir  Ir27  1  0.500000  0.707566  0.429227  1
  Ir  Ir28  1  0.000000  0.207566  0.570773  1
  Ir  Ir29  1  0.000000  0.792434  0.570773  1
  Ir  Ir30  1  0.500000  0.871292  0.714329  1
  Ir  Ir31  1  0.500000  0.128708  0.714329  1
  Ir  Ir32  1  0.000000  0.628708  0.285671  1
  Ir  Ir33  1  0.000000  0.371292  0.285671  1
  Rh  Rh34  1  0.500000  0.500000  0.175204  1
  Rh  Rh35  1  0.000000  0.000000  0.824796  1
