# generated using pymatgen
data_In3(Ni10P3)2
_symmetry_space_group_name_H-M   'P 1'
_cell_length_a   7.90026200
_cell_length_b   7.90026212
_cell_length_c   7.90026200
_cell_angle_alpha   119.99999951
_cell_angle_beta   90.00000000
_cell_angle_gamma   119.99999951
_symmetry_Int_Tables_number   1
_chemical_formula_structural   In3(Ni10P3)2
_chemical_formula_sum   'In3 Ni20 P6'
_cell_volume   348.66591844
_cell_formula_units_Z   1
loop_
 _symmetry_equiv_pos_site_id
 _symmetry_equiv_pos_as_xyz
  1  'x, y, z'
loop_
 _atom_site_type_symbol
 _atom_site_label
 _atom_site_symmetry_multiplicity
 _atom_site_fract_x
 _atom_site_fract_y
 _atom_site_fract_z
 _atom_site_occupancy
  In  In0  1  0.000000  0.000000  0.000000  1
  In  In1  1  0.750001  0.500000  0.250000  1
  In  In2  1  0.250000  0.500000  0.750001  1
  Ni  Ni3  1  0.347635  0.000000  0.000000  1
  Ni  Ni4  1  0.652366  0.000000  0.000000  1
  Ni  Ni5  1  0.000000  0.347635  0.000000  1
  Ni  Ni6  1  0.347635  0.347635  0.000000  1
  Ni  Ni7  1  0.000000  0.652366  0.000000  1
  Ni  Ni8  1  0.652366  0.652366  0.000000  1
  Ni  Ni9  1  0.384065  0.768130  0.152197  1
  Ni  Ni10  1  0.000000  0.000000  0.347635  1
  Ni  Ni11  1  0.000000  0.347635  0.347635  1
  Ni  Ni12  1  0.347635  0.347635  0.347635  1
  Ni  Ni13  1  0.152197  0.768130  0.384065  1
  Ni  Ni14  1  0.615934  0.768130  0.384065  1
  Ni  Ni15  1  0.615934  0.231869  0.384065  1
  Ni  Ni16  1  0.384065  0.231869  0.615934  1
  Ni  Ni17  1  0.384065  0.768130  0.615934  1
  Ni  Ni18  1  0.847803  0.231869  0.615935  1
  Ni  Ni19  1  0.000000  0.000000  0.652366  1
  Ni  Ni20  1  0.000000  0.652366  0.652366  1
  Ni  Ni21  1  0.652366  0.652366  0.652366  1
  Ni  Ni22  1  0.615935  0.231869  0.847803  1
  P  P23  1  0.268101  0.000000  0.268101  1
  P  P24  1  0.731898  0.000000  0.268101  1
  P  P25  1  0.268101  0.536202  0.268101  1
  P  P26  1  0.268101  0.000000  0.731898  1
  P  P27  1  0.731898  0.463797  0.731898  1
  P  P28  1  0.731899  0.000000  0.731899  1
