# generated using pymatgen
data_Dy2VReSi2C
_symmetry_space_group_name_H-M   'P 1'
_cell_length_a   3.81053532
_cell_length_b   5.73306185
_cell_length_c   6.18950123
_cell_angle_alpha   72.08436833
_cell_angle_beta   72.07195575
_cell_angle_gamma   70.58975187
_symmetry_Int_Tables_number   1
_chemical_formula_structural   Dy2VReSi2C
_chemical_formula_sum   'Dy2 V1 Re1 Si2 C1'
_cell_volume   118.11971549
_cell_formula_units_Z   1
loop_
 _symmetry_equiv_pos_site_id
 _symmetry_equiv_pos_as_xyz
  1  'x, y, z'
loop_
 _atom_site_type_symbol
 _atom_site_label
 _atom_site_symmetry_multiplicity
 _atom_site_fract_x
 _atom_site_fract_y
 _atom_site_fract_z
 _atom_site_occupancy
  Dy  Dy0  1  0.426306  0.851339  0.296049  1
  Dy  Dy1  1  0.573790  0.147536  0.704884  1
  V  V2  1  0.794539  0.332138  0.078784  1
  Re  Re3  1  0.208581  0.663654  0.919184  1
  Si  Si4  1  0.863348  0.604420  0.668883  1
  Si  Si5  1  0.134425  0.398972  0.332177  1
  C  C6  1  0.999010  0.001941  0.000039  1
