# generated using pymatgen
data_PrY2NiIr8
_symmetry_space_group_name_H-M   'P 1'
_cell_length_a   5.34408047
_cell_length_b   5.34407920
_cell_length_c   9.19095800
_cell_angle_alpha   73.09865028
_cell_angle_beta   106.90135678
_cell_angle_gamma   120.00001183
_symmetry_Int_Tables_number   1
_chemical_formula_structural   PrY2NiIr8
_chemical_formula_sum   'Pr1 Y2 Ni1 Ir8'
_cell_volume   214.12817556
_cell_formula_units_Z   1
loop_
 _symmetry_equiv_pos_site_id
 _symmetry_equiv_pos_as_xyz
  1  'x, y, z'
loop_
 _atom_site_type_symbol
 _atom_site_label
 _atom_site_symmetry_multiplicity
 _atom_site_fract_x
 _atom_site_fract_y
 _atom_site_fract_z
 _atom_site_occupancy
  Pr  Pr0  1  0.000046  0.999954  0.000136  1
  Y  Y1  1  0.139394  0.860605  0.418183  1
  Y  Y2  1  0.858879  0.141122  0.576634  1
  Ni  Ni3  1  0.333106  0.666893  0.999318  1
  Ir  Ir4  1  0.667518  0.332483  0.002550  1
  Ir  Ir5  1  0.085564  0.420219  0.245124  1
  Ir  Ir6  1  0.579781  0.420220  0.245124  1
  Ir  Ir7  1  0.579781  0.914438  0.245124  1
  Ir  Ir8  1  0.500847  0.499153  0.502542  1
  Ir  Ir9  1  0.416319  0.077547  0.755088  1
  Ir  Ir10  1  0.416319  0.583683  0.755088  1
  Ir  Ir11  1  0.922453  0.583681  0.755088  1
