# generated using pymatgen
data_Dy3ZnCd3Au2
_symmetry_space_group_name_H-M   'P 1'
_cell_length_a   7.86342000
_cell_length_b   7.86342008
_cell_length_c   3.82059200
_cell_angle_alpha   90.00000000
_cell_angle_beta   90.00000000
_cell_angle_gamma   120.00000806
_symmetry_Int_Tables_number   1
_chemical_formula_structural   Dy3ZnCd3Au2
_chemical_formula_sum   'Dy3 Zn1 Cd3 Au2'
_cell_volume   204.58990871
_cell_formula_units_Z   1
loop_
 _symmetry_equiv_pos_site_id
 _symmetry_equiv_pos_as_xyz
  1  'x, y, z'
loop_
 _atom_site_type_symbol
 _atom_site_label
 _atom_site_symmetry_multiplicity
 _atom_site_fract_x
 _atom_site_fract_y
 _atom_site_fract_z
 _atom_site_occupancy
  Dy  Dy0  1  0.591226  0.000000  0.000000  1
  Dy  Dy1  1  0.000000  0.591226  0.000000  1
  Dy  Dy2  1  0.408774  0.408774  0.000000  1
  Zn  Zn3  1  0.000000  0.000000  0.000000  1
  Cd  Cd4  1  0.256043  0.000000  0.500000  1
  Cd  Cd5  1  0.000000  0.256043  0.500000  1
  Cd  Cd6  1  0.743957  0.743957  0.500000  1
  Au  Au7  1  0.333333  0.666667  0.500000  1
  Au  Au8  1  0.666667  0.333333  0.500000  1
