# generated using pymatgen
data_Pr8Co3Si12Ni
_symmetry_space_group_name_H-M   'P 1'
_cell_length_a   8.17815400
_cell_length_b   8.17815576
_cell_length_c   8.56185500
_cell_angle_alpha   90.00000000
_cell_angle_beta   90.00000000
_cell_angle_gamma   120.00000905
_symmetry_Int_Tables_number   1
_chemical_formula_structural   Pr8Co3Si12Ni
_chemical_formula_sum   'Pr8 Co3 Si12 Ni1'
_cell_volume   495.91714473
_cell_formula_units_Z   1
loop_
 _symmetry_equiv_pos_site_id
 _symmetry_equiv_pos_as_xyz
  1  'x, y, z'
loop_
 _atom_site_type_symbol
 _atom_site_label
 _atom_site_symmetry_multiplicity
 _atom_site_fract_x
 _atom_site_fract_y
 _atom_site_fract_z
 _atom_site_occupancy
  Pr  Pr0  1  0.499105  0.500895  0.751633  1
  Pr  Pr1  1  0.499773  0.500227  0.248604  1
  Pr  Pr2  1  0.001789  0.500895  0.751633  1
  Pr  Pr3  1  0.000455  0.500227  0.248604  1
  Pr  Pr4  1  0.499105  0.998211  0.751633  1
  Pr  Pr5  1  0.499773  0.999545  0.248604  1
  Pr  Pr6  1  0.000000  0.000000  0.750431  1
  Pr  Pr7  1  0.000000  0.000000  0.249429  1
  Co  Co8  1  0.666667  0.333333  0.996156  1
  Co  Co9  1  0.333333  0.666667  0.004244  1
  Co  Co10  1  0.333333  0.666667  0.495518  1
  Si  Si11  1  0.828281  0.171719  0.000689  1
  Si  Si12  1  0.171538  0.828462  0.999332  1
  Si  Si13  1  0.343440  0.171719  0.000689  1
  Si  Si14  1  0.171757  0.828243  0.501004  1
  Si  Si15  1  0.656922  0.828462  0.999332  1
  Si  Si16  1  0.830375  0.169625  0.499103  1
  Si  Si17  1  0.828281  0.656560  0.000689  1
  Si  Si18  1  0.656486  0.828243  0.501004  1
  Si  Si19  1  0.171538  0.343078  0.999332  1
  Si  Si20  1  0.339250  0.169625  0.499103  1
  Si  Si21  1  0.171757  0.343514  0.501004  1
  Si  Si22  1  0.830375  0.660750  0.499103  1
  Ni  Ni23  1  0.666667  0.333333  0.503128  1
