# generated using pymatgen
data_Nd7Lu3(Hg3Cl)2
_symmetry_space_group_name_H-M   'P 1'
_cell_length_a   9.17714600
_cell_length_b   9.17714464
_cell_length_c   6.53712100
_cell_angle_alpha   90.00000000
_cell_angle_beta   90.00000000
_cell_angle_gamma   120.00000490
_symmetry_Int_Tables_number   1
_chemical_formula_structural   Nd7Lu3(Hg3Cl)2
_chemical_formula_sum   'Nd7 Lu3 Hg6 Cl2'
_cell_volume   476.79572361
_cell_formula_units_Z   1
loop_
 _symmetry_equiv_pos_site_id
 _symmetry_equiv_pos_as_xyz
  1  'x, y, z'
loop_
 _atom_site_type_symbol
 _atom_site_label
 _atom_site_symmetry_multiplicity
 _atom_site_fract_x
 _atom_site_fract_y
 _atom_site_fract_z
 _atom_site_occupancy
  Nd  Nd0  1  0.267489  0.001280  0.248186  1
  Nd  Nd1  1  0.733791  0.001280  0.751814  1
  Nd  Nd2  1  0.998720  0.266209  0.248186  1
  Nd  Nd3  1  0.998720  0.732511  0.751814  1
  Nd  Nd4  1  0.733791  0.732511  0.248186  1
  Nd  Nd5  1  0.267489  0.266209  0.751814  1
  Nd  Nd6  1  0.333333  0.666667  0.500000  1
  Lu  Lu7  1  0.333333  0.666667  0.000000  1
  Lu  Lu8  1  0.666667  0.333333  0.000000  1
  Lu  Lu9  1  0.666667  0.333333  0.500000  1
  Hg  Hg10  1  0.607176  0.004192  0.246483  1
  Hg  Hg11  1  0.397015  0.004192  0.753517  1
  Hg  Hg12  1  0.995808  0.602985  0.246483  1
  Hg  Hg13  1  0.995808  0.392824  0.753517  1
  Hg  Hg14  1  0.397015  0.392824  0.246483  1
  Hg  Hg15  1  0.607176  0.602985  0.753517  1
  Cl  Cl16  1  0.000000  0.000000  0.000000  1
  Cl  Cl17  1  0.000000  0.000000  0.500000  1
