# generated using pymatgen
data_Y10Hg3Os
_symmetry_space_group_name_H-M   'P 1'
_cell_length_a   9.65417200
_cell_length_b   9.65416707
_cell_length_c   9.71845900
_cell_angle_alpha   90.00000000
_cell_angle_beta   90.00000000
_cell_angle_gamma   119.99942357
_symmetry_Int_Tables_number   1
_chemical_formula_structural   Y10Hg3Os
_chemical_formula_sum   'Y20 Hg6 Os2'
_cell_volume   784.44121448
_cell_formula_units_Z   2
loop_
 _symmetry_equiv_pos_site_id
 _symmetry_equiv_pos_as_xyz
  1  'x, y, z'
loop_
 _atom_site_type_symbol
 _atom_site_label
 _atom_site_symmetry_multiplicity
 _atom_site_fract_x
 _atom_site_fract_y
 _atom_site_fract_z
 _atom_site_occupancy
  Y  Y0  1  0.000000  0.000000  0.500000  1
  Y  Y1  1  0.000000  0.000000  0.000000  1
  Y  Y2  1  0.209455  0.790546  0.439985  1
  Y  Y3  1  0.209461  0.418918  0.439978  1
  Y  Y4  1  0.581081  0.790538  0.439978  1
  Y  Y5  1  0.790545  0.209454  0.560015  1
  Y  Y6  1  0.790539  0.581082  0.560022  1
  Y  Y7  1  0.418919  0.209462  0.560022  1
  Y  Y8  1  0.790545  0.209454  0.939985  1
  Y  Y9  1  0.790539  0.581082  0.939978  1
  Y  Y10  1  0.418919  0.209462  0.939978  1
  Y  Y11  1  0.209455  0.790546  0.060015  1
  Y  Y12  1  0.209461  0.418918  0.060022  1
  Y  Y13  1  0.581081  0.790538  0.060022  1
  Y  Y14  1  0.540336  0.459663  0.250000  1
  Y  Y15  1  0.540335  0.080673  0.250000  1
  Y  Y16  1  0.919327  0.459665  0.250000  1
  Y  Y17  1  0.459664  0.540337  0.750000  1
  Y  Y18  1  0.459665  0.919327  0.750000  1
  Y  Y19  1  0.080673  0.540335  0.750000  1
  Hg  Hg20  1  0.881461  0.118538  0.250000  1
  Hg  Hg21  1  0.881450  0.762928  0.250000  1
  Hg  Hg22  1  0.237071  0.118547  0.250000  1
  Hg  Hg23  1  0.118539  0.881462  0.750000  1
  Hg  Hg24  1  0.118550  0.237072  0.750000  1
  Hg  Hg25  1  0.762929  0.881453  0.750000  1
  Os  Os26  1  0.333337  0.666662  0.250000  1
  Os  Os27  1  0.666663  0.333338  0.750000  1
