# generated using pymatgen
data_TaTc5As14
_symmetry_space_group_name_H-M   'P 1'
_cell_length_a   7.67465822
_cell_length_b   7.67466651
_cell_length_c   7.67465759
_cell_angle_alpha   109.14572517
_cell_angle_beta   110.12417200
_cell_angle_gamma   109.14573287
_symmetry_Int_Tables_number   1
_chemical_formula_structural   TaTc5As14
_chemical_formula_sum   'Ta1 Tc5 As14'
_cell_volume   347.94722406
_cell_formula_units_Z   1
loop_
 _symmetry_equiv_pos_site_id
 _symmetry_equiv_pos_as_xyz
  1  'x, y, z'
loop_
 _atom_site_type_symbol
 _atom_site_label
 _atom_site_symmetry_multiplicity
 _atom_site_fract_x
 _atom_site_fract_y
 _atom_site_fract_z
 _atom_site_occupancy
  Ta  Ta0  1  0.341575  0.000000  0.341575  1
  Tc  Tc1  1  0.000428  0.341328  0.341755  1
  Tc  Tc2  1  0.000428  0.658673  0.659100  1
  Tc  Tc3  1  0.341755  0.341328  0.000428  1
  Tc  Tc4  1  0.659100  0.658673  0.000428  1
  Tc  Tc5  1  0.665896  0.000000  0.665896  1
  As  As6  1  0.751331  0.500000  0.251331  1
  As  As7  1  0.499899  0.747025  0.246924  1
  As  As8  1  0.499899  0.252975  0.752874  1
  As  As9  1  0.752874  0.252975  0.499899  1
  As  As10  1  0.246924  0.747025  0.499899  1
  As  As11  1  0.251331  0.500000  0.751331  1
  As  As12  1  0.995917  0.000000  0.329771  1
  As  As13  1  0.669065  0.000000  0.999526  1
  As  As14  1  0.995917  0.666146  0.995917  1
  As  As15  1  0.329771  0.333854  0.329771  1
  As  As16  1  0.999526  0.330461  0.999526  1
  As  As17  1  0.669066  0.669539  0.669066  1
  As  As18  1  0.329771  0.000000  0.995917  1
  As  As19  1  0.999526  0.000000  0.669065  1
