# generated using pymatgen
data_FeMo3(PO4)4
_symmetry_space_group_name_H-M   'P 1'
_cell_length_a   4.84822677
_cell_length_b   6.83975328
_cell_length_c   8.95054401
_cell_angle_alpha   89.81058734
_cell_angle_beta   89.08218426
_cell_angle_gamma   90.76311400
_symmetry_Int_Tables_number   1
_chemical_formula_structural   FeMo3(PO4)4
_chemical_formula_sum   'Fe1 Mo3 P4 O16'
_cell_volume   296.73984035
_cell_formula_units_Z   1
loop_
 _symmetry_equiv_pos_site_id
 _symmetry_equiv_pos_as_xyz
  1  'x, y, z'
loop_
 _atom_site_type_symbol
 _atom_site_label
 _atom_site_symmetry_multiplicity
 _atom_site_fract_x
 _atom_site_fract_y
 _atom_site_fract_z
 _atom_site_occupancy
  Fe  Fe0  1  0.000000  0.000000  0.000000  1
  Mo  Mo1  1  0.500000  0.500000  0.500000  1
  Mo  Mo2  1  0.000000  0.500000  0.000000  1
  Mo  Mo3  1  0.500000  0.000000  0.500000  1
  P  P4  1  0.984905  0.752395  0.680069  1
  P  P5  1  0.484356  0.250681  0.827186  1
  P  P6  1  0.015095  0.247605  0.319931  1
  P  P7  1  0.515644  0.749319  0.172814  1
  O  O8  1  0.151153  0.438578  0.369086  1
  O  O9  1  0.642097  0.555443  0.127483  1
  O  O10  1  0.852143  0.939253  0.626262  1
  O  O11  1  0.326875  0.068968  0.885421  1
  O  O12  1  0.848847  0.561422  0.630914  1
  O  O13  1  0.357903  0.444557  0.872517  1
  O  O14  1  0.147857  0.060747  0.373738  1
  O  O15  1  0.673125  0.931032  0.114579  1
  O  O16  1  0.210156  0.756746  0.116279  1
  O  O17  1  0.704493  0.249630  0.379048  1
  O  O18  1  0.789844  0.243254  0.883721  1
  O  O19  1  0.295507  0.750370  0.620952  1
  O  O20  1  0.533100  0.754195  0.349423  1
  O  O21  1  0.033433  0.242498  0.143146  1
  O  O22  1  0.466900  0.245805  0.650577  1
  O  O23  1  0.966567  0.757502  0.856854  1
