# generated using pymatgen
data_Nd3Al12(NiOs)2
_symmetry_space_group_name_H-M   'P 1'
_cell_length_a   8.86813549
_cell_length_b   8.86813549
_cell_length_c   9.57756484
_cell_angle_alpha   90.18830677
_cell_angle_beta   89.81169258
_cell_angle_gamma   119.61858487
_symmetry_Int_Tables_number   1
_chemical_formula_structural   Nd3Al12(NiOs)2
_chemical_formula_sum   'Nd6 Al24 Ni4 Os4'
_cell_volume   654.79235256
_cell_formula_units_Z   2
loop_
 _symmetry_equiv_pos_site_id
 _symmetry_equiv_pos_as_xyz
  1  'x, y, z'
loop_
 _atom_site_type_symbol
 _atom_site_label
 _atom_site_symmetry_multiplicity
 _atom_site_fract_x
 _atom_site_fract_y
 _atom_site_fract_z
 _atom_site_occupancy
  Nd  Nd0  1  0.188573  0.381304  0.251111  1
  Nd  Nd1  1  0.811427  0.618696  0.748889  1
  Nd  Nd2  1  0.618696  0.811427  0.251111  1
  Nd  Nd3  1  0.381304  0.188573  0.748889  1
  Nd  Nd4  1  0.191121  0.808879  0.250799  1
  Nd  Nd5  1  0.808879  0.191121  0.749201  1
  Al  Al6  1  0.333807  0.666193  0.018065  1
  Al  Al7  1  0.666193  0.333807  0.981935  1
  Al  Al8  1  0.665769  0.334231  0.515689  1
  Al  Al9  1  0.334231  0.665769  0.484311  1
  Al  Al10  1  0.163051  0.327488  0.574371  1
  Al  Al11  1  0.836949  0.672512  0.425629  1
  Al  Al12  1  0.672512  0.836949  0.574371  1
  Al  Al13  1  0.835422  0.672561  0.075190  1
  Al  Al14  1  0.327488  0.163051  0.425629  1
  Al  Al15  1  0.164578  0.327439  0.924810  1
  Al  Al16  1  0.164407  0.835593  0.574160  1
  Al  Al17  1  0.327439  0.164578  0.075190  1
  Al  Al18  1  0.835593  0.164407  0.425840  1
  Al  Al19  1  0.672561  0.835422  0.924810  1
  Al  Al20  1  0.835734  0.164266  0.075733  1
  Al  Al21  1  0.164266  0.835734  0.924267  1
  Al  Al22  1  0.562223  0.125516  0.247466  1
  Al  Al23  1  0.437777  0.874484  0.752534  1
  Al  Al24  1  0.874484  0.437777  0.247466  1
  Al  Al25  1  0.125516  0.562223  0.752534  1
  Al  Al26  1  0.561073  0.438927  0.248307  1
  Al  Al27  1  0.438927  0.561073  0.751693  1
  Al  Al28  1  0.998969  0.001031  0.250441  1
  Al  Al29  1  0.001031  0.998969  0.749559  1
  Ni  Ni30  1  0.500000  0.000000  0.000000  1
  Ni  Ni31  1  0.000000  0.500000  0.000000  1
  Ni  Ni32  1  0.500000  0.500000  0.000000  1
  Ni  Ni33  1  0.500000  0.500000  0.500000  1
  Os  Os34  1  0.500000  0.000000  0.500000  1
  Os  Os35  1  0.000000  0.500000  0.500000  1
  Os  Os36  1  0.000000  0.000000  0.000000  1
  Os  Os37  1  0.000000  0.000000  0.500000  1
