# generated using pymatgen
data_Tb2Pr3P12Pd2Ru17
_symmetry_space_group_name_H-M   'P 1'
_cell_length_a   4.01463300
_cell_length_b   12.62311329
_cell_length_c   12.62313952
_cell_angle_alpha   119.38598349
_cell_angle_beta   90.00000000
_cell_angle_gamma   90.00000000
_symmetry_Int_Tables_number   1
_chemical_formula_structural   Tb2Pr3P12Pd2Ru17
_chemical_formula_sum   'Tb2 Pr3 P12 Pd2 Ru17'
_cell_volume   557.39659555
_cell_formula_units_Z   1
loop_
 _symmetry_equiv_pos_site_id
 _symmetry_equiv_pos_as_xyz
  1  'x, y, z'
loop_
 _atom_site_type_symbol
 _atom_site_label
 _atom_site_symmetry_multiplicity
 _atom_site_fract_x
 _atom_site_fract_y
 _atom_site_fract_z
 _atom_site_occupancy
  Tb  Tb0  1  0.000000  0.335766  0.663658  1
  Tb  Tb1  1  0.000000  0.663654  0.335766  1
  Pr  Pr2  1  0.500000  0.998709  0.182002  1
  Pr  Pr3  1  0.500000  0.181996  0.998713  1
  Pr  Pr4  1  0.500000  0.815592  0.815595  1
  P  P5  1  0.000000  0.001133  0.809181  1
  P  P6  1  0.000000  0.809178  0.001136  1
  P  P7  1  0.000000  0.187055  0.187060  1
  P  P8  1  0.500000  0.306196  0.478150  1
  P  P9  1  0.500000  0.184165  0.700175  1
  P  P10  1  0.500000  0.521765  0.820488  1
  P  P11  1  0.500000  0.820487  0.521767  1
  P  P12  1  0.500000  0.478144  0.306194  1
  P  P13  1  0.500000  0.700171  0.184167  1
  P  P14  1  0.000000  0.999373  0.367958  1
  P  P15  1  0.000000  0.367955  0.999375  1
  P  P16  1  0.000000  0.623652  0.623653  1
  Pd  Pd17  1  0.000000  0.000981  0.553024  1
  Pd  Pd18  1  0.000000  0.553020  0.000985  1
  Ru  Ru19  1  0.000000  0.444936  0.444938  1
  Ru  Ru20  1  0.500000  0.002198  0.709539  1
  Ru  Ru21  1  0.500000  0.709537  0.002199  1
  Ru  Ru22  1  0.500000  0.285989  0.285994  1
  Ru  Ru23  1  0.000000  0.194665  0.380435  1
  Ru  Ru24  1  0.000000  0.188064  0.802526  1
  Ru  Ru25  1  0.000000  0.619673  0.814448  1
  Ru  Ru26  1  0.000000  0.814443  0.619676  1
  Ru  Ru27  1  0.000000  0.380424  0.194663  1
  Ru  Ru28  1  0.000000  0.802524  0.188068  1
  Ru  Ru29  1  0.500000  0.128066  0.495058  1
  Ru  Ru30  1  0.500000  0.372002  0.878149  1
  Ru  Ru31  1  0.500000  0.506812  0.630678  1
  Ru  Ru32  1  0.500000  0.630674  0.506806  1
  Ru  Ru33  1  0.500000  0.495048  0.128061  1
  Ru  Ru34  1  0.500000  0.878147  0.372002  1
  Ru  Ru35  1  0.000000  0.997707  0.997712  1
