# generated using pymatgen
data_Tb2SmTh(ReB6)2
_symmetry_space_group_name_H-M   'P 1'
_cell_length_a   3.75686000
_cell_length_b   9.27359106
_cell_length_c   11.69511291
_cell_angle_alpha   89.85858449
_cell_angle_beta   90.00000000
_cell_angle_gamma   90.00000000
_symmetry_Int_Tables_number   1
_chemical_formula_structural   Tb2SmTh(ReB6)2
_chemical_formula_sum   'Tb4 Sm2 Th2 Re4 B24'
_cell_volume   407.45161939
_cell_formula_units_Z   2
loop_
 _symmetry_equiv_pos_site_id
 _symmetry_equiv_pos_as_xyz
  1  'x, y, z'
loop_
 _atom_site_type_symbol
 _atom_site_label
 _atom_site_symmetry_multiplicity
 _atom_site_fract_x
 _atom_site_fract_y
 _atom_site_fract_z
 _atom_site_occupancy
  Tb  Tb0  1  0.000000  0.943290  0.371559  1
  Tb  Tb1  1  0.000000  0.056710  0.628441  1
  Tb  Tb2  1  0.000000  0.443520  0.129978  1
  Tb  Tb3  1  0.000000  0.556480  0.870022  1
  Sm  Sm4  1  0.000000  0.324582  0.414360  1
  Sm  Sm5  1  0.000000  0.675418  0.585640  1
  Th  Th6  1  0.000000  0.822169  0.086502  1
  Th  Th7  1  0.000000  0.177831  0.913498  1
  Re  Re8  1  0.000000  0.639640  0.320057  1
  Re  Re9  1  0.000000  0.360360  0.679943  1
  Re  Re10  1  0.000000  0.138182  0.179025  1
  Re  Re11  1  0.000000  0.861818  0.820975  1
  B  B12  1  0.500000  0.554380  0.431941  1
  B  B13  1  0.500000  0.445620  0.568059  1
  B  B14  1  0.500000  0.055565  0.070127  1
  B  B15  1  0.500000  0.944435  0.929873  1
  B  B16  1  0.500000  0.748213  0.417971  1
  B  B17  1  0.500000  0.251787  0.582029  1
  B  B18  1  0.500000  0.249047  0.084111  1
  B  B19  1  0.500000  0.750953  0.915889  1
  B  B20  1  0.500000  0.790404  0.267477  1
  B  B21  1  0.500000  0.209596  0.732523  1
  B  B22  1  0.500000  0.291155  0.234108  1
  B  B23  1  0.500000  0.708845  0.765892  1
  B  B24  1  0.500000  0.630846  0.187539  1
  B  B25  1  0.500000  0.369154  0.812461  1
  B  B26  1  0.500000  0.131381  0.314161  1
  B  B27  1  0.500000  0.868619  0.685839  1
  B  B28  1  0.500000  0.985778  0.214034  1
  B  B29  1  0.500000  0.014222  0.785966  1
  B  B30  1  0.500000  0.484740  0.287958  1
  B  B31  1  0.500000  0.515260  0.712042  1
  B  B32  1  0.500000  0.602161  0.028412  1
  B  B33  1  0.500000  0.397839  0.971588  1
  B  B34  1  0.500000  0.101426  0.471773  1
  B  B35  1  0.500000  0.898574  0.528227  1
