# generated using pymatgen
data_Y3TaFeCo7P6
_symmetry_space_group_name_H-M   'P 1'
_cell_length_a   3.71060100
_cell_length_b   10.67815700
_cell_length_c   12.29099400
_cell_angle_alpha   90.00000000
_cell_angle_beta   90.00000000
_cell_angle_gamma   90.00000000
_symmetry_Int_Tables_number   1
_chemical_formula_structural   Y3TaFeCo7P6
_chemical_formula_sum   'Y6 Ta2 Fe2 Co14 P12'
_cell_volume   486.99843537
_cell_formula_units_Z   2
loop_
 _symmetry_equiv_pos_site_id
 _symmetry_equiv_pos_as_xyz
  1  'x, y, z'
loop_
 _atom_site_type_symbol
 _atom_site_label
 _atom_site_symmetry_multiplicity
 _atom_site_fract_x
 _atom_site_fract_y
 _atom_site_fract_z
 _atom_site_occupancy
  Y  Y0  1  0.000000  0.500000  0.527069  1
  Y  Y1  1  0.500000  0.000000  0.472931  1
  Y  Y2  1  0.500000  0.820876  0.203571  1
  Y  Y3  1  0.500000  0.179124  0.203571  1
  Y  Y4  1  0.000000  0.679124  0.796429  1
  Y  Y5  1  0.000000  0.320876  0.796429  1
  Ta  Ta6  1  0.500000  0.500000  0.155101  1
  Ta  Ta7  1  0.000000  0.000000  0.844899  1
  Fe  Fe8  1  0.000000  0.500000  0.988135  1
  Fe  Fe9  1  0.500000  0.000000  0.011865  1
  Co  Co10  1  0.500000  0.500000  0.701201  1
  Co  Co11  1  0.000000  0.000000  0.298799  1
  Co  Co12  1  0.500000  0.331678  0.993514  1
  Co  Co13  1  0.500000  0.668322  0.993514  1
  Co  Co14  1  0.000000  0.168322  0.006486  1
  Co  Co15  1  0.000000  0.831678  0.006486  1
  Co  Co16  1  0.500000  0.295472  0.432110  1
  Co  Co17  1  0.500000  0.704528  0.432110  1
  Co  Co18  1  0.000000  0.204528  0.567890  1
  Co  Co19  1  0.000000  0.795472  0.567890  1
  Co  Co20  1  0.500000  0.878236  0.705452  1
  Co  Co21  1  0.500000  0.121764  0.705452  1
  Co  Co22  1  0.000000  0.621764  0.294548  1
  Co  Co23  1  0.000000  0.378236  0.294548  1
  P  P24  1  0.500000  0.500000  0.884315  1
  P  P25  1  0.000000  0.000000  0.115685  1
  P  P26  1  0.500000  0.500000  0.356690  1
  P  P27  1  0.000000  0.000000  0.643310  1
  P  P28  1  0.500000  0.310188  0.616143  1
  P  P29  1  0.500000  0.689812  0.616143  1
  P  P30  1  0.000000  0.189812  0.383857  1
  P  P31  1  0.000000  0.810188  0.383857  1
  P  P32  1  0.500000  0.841669  0.894710  1
  P  P33  1  0.500000  0.158331  0.894710  1
  P  P34  1  0.000000  0.658331  0.105290  1
  P  P35  1  0.000000  0.341669  0.105290  1
