# generated using pymatgen
data_Zr6Sc3TaAl12Co7
_symmetry_space_group_name_H-M   'P 1'
_cell_length_a   8.77893442
_cell_length_b   8.77893314
_cell_length_c   8.77893500
_cell_angle_alpha   59.96728444
_cell_angle_beta   59.96728927
_cell_angle_gamma   59.96728194
_symmetry_Int_Tables_number   1
_chemical_formula_structural   Zr6Sc3TaAl12Co7
_chemical_formula_sum   'Zr6 Sc3 Ta1 Al12 Co7'
_cell_volume   478.06623259
_cell_formula_units_Z   1
loop_
 _symmetry_equiv_pos_site_id
 _symmetry_equiv_pos_as_xyz
  1  'x, y, z'
loop_
 _atom_site_type_symbol
 _atom_site_label
 _atom_site_symmetry_multiplicity
 _atom_site_fract_x
 _atom_site_fract_y
 _atom_site_fract_z
 _atom_site_occupancy
  Zr  Zr0  1  0.695338  0.307210  0.307210  1
  Zr  Zr1  1  0.688427  0.312223  0.688427  1
  Zr  Zr2  1  0.688427  0.688427  0.312223  1
  Zr  Zr3  1  0.312223  0.688427  0.688427  1
  Zr  Zr4  1  0.307210  0.695338  0.307210  1
  Zr  Zr5  1  0.307210  0.307210  0.695338  1
  Sc  Sc6  1  0.647991  0.117114  0.117114  1
  Sc  Sc7  1  0.117114  0.647991  0.117114  1
  Sc  Sc8  1  0.117114  0.117114  0.647991  1
  Ta  Ta9  1  0.119331  0.119331  0.119331  1
  Al  Al10  1  0.360977  0.880458  0.880458  1
  Al  Al11  1  0.880458  0.360977  0.880458  1
  Al  Al12  1  0.880458  0.880458  0.360977  1
  Al  Al13  1  0.878844  0.878844  0.878844  1
  Al  Al14  1  0.992583  0.335991  0.335991  1
  Al  Al15  1  0.335991  0.992583  0.335991  1
  Al  Al16  1  0.335991  0.335991  0.992583  1
  Al  Al17  1  0.335566  0.335566  0.335566  1
  Al  Al18  1  0.002926  0.665781  0.665781  1
  Al  Al19  1  0.665781  0.002926  0.665781  1
  Al  Al20  1  0.665781  0.665781  0.002926  1
  Al  Al21  1  0.665866  0.665866  0.665866  1
  Co  Co22  1  0.004960  0.004960  0.004960  1
  Co  Co23  1  0.487185  0.002094  0.002094  1
  Co  Co24  1  0.500911  0.000232  0.500911  1
  Co  Co25  1  0.500911  0.500911  0.000232  1
  Co  Co26  1  0.000232  0.500911  0.500911  1
  Co  Co27  1  0.002094  0.487185  0.002094  1
  Co  Co28  1  0.002094  0.002094  0.487185  1
