# generated using pymatgen
data_Nd3DyIn2HgIr2
_symmetry_space_group_name_H-M   'P 1'
_cell_length_a   7.89208167
_cell_length_b   8.02858456
_cell_length_c   4.19797200
_cell_angle_alpha   90.00000000
_cell_angle_beta   90.00000000
_cell_angle_gamma   121.16022040
_symmetry_Int_Tables_number   1
_chemical_formula_structural   Nd3DyIn2HgIr2
_chemical_formula_sum   'Nd3 Dy1 In2 Hg1 Ir2'
_cell_volume   227.61645794
_cell_formula_units_Z   1
loop_
 _symmetry_equiv_pos_site_id
 _symmetry_equiv_pos_as_xyz
  1  'x, y, z'
loop_
 _atom_site_type_symbol
 _atom_site_label
 _atom_site_symmetry_multiplicity
 _atom_site_fract_x
 _atom_site_fract_y
 _atom_site_fract_z
 _atom_site_occupancy
  Nd  Nd0  1  0.368215  0.393835  0.500000  1
  Nd  Nd1  1  0.577919  0.984970  0.500000  1
  Nd  Nd2  1  0.041123  0.604493  0.500000  1
  Dy  Dy3  1  0.763327  0.770144  0.000000  1
  In  In4  1  0.246210  0.993989  0.000000  1
  In  In5  1  0.992967  0.243772  0.000000  1
  Hg  Hg6  1  0.667771  0.341817  0.000000  1
  Ir  Ir7  1  0.001158  0.003023  0.500000  1
  Ir  Ir8  1  0.341310  0.663957  0.000000  1
