# generated using pymatgen
data_Zr5SiRh10
_symmetry_space_group_name_H-M   'P 1'
_cell_length_a   5.61772722
_cell_length_b   5.61772777
_cell_length_c   8.38879800
_cell_angle_alpha   90.00000000
_cell_angle_beta   90.00000000
_cell_angle_gamma   100.34195436
_symmetry_Int_Tables_number   1
_chemical_formula_structural   Zr5SiRh10
_chemical_formula_sum   'Zr5 Si1 Rh10'
_cell_volume   260.43989863
_cell_formula_units_Z   1
loop_
 _symmetry_equiv_pos_site_id
 _symmetry_equiv_pos_as_xyz
  1  'x, y, z'
loop_
 _atom_site_type_symbol
 _atom_site_label
 _atom_site_symmetry_multiplicity
 _atom_site_fract_x
 _atom_site_fract_y
 _atom_site_fract_z
 _atom_site_occupancy
  Zr  Zr0  1  0.429989  0.429989  0.250000  1
  Zr  Zr1  1  0.793604  0.215830  0.501929  1
  Zr  Zr2  1  0.215830  0.793604  0.998071  1
  Zr  Zr3  1  0.215830  0.793604  0.501929  1
  Zr  Zr4  1  0.793604  0.215830  0.998071  1
  Si  Si5  1  0.541787  0.541787  0.750000  1
  Rh  Rh6  1  0.710511  0.710511  0.999693  1
  Rh  Rh7  1  0.710511  0.710511  0.500307  1
  Rh  Rh8  1  0.301209  0.301209  0.956052  1
  Rh  Rh9  1  0.301209  0.301209  0.543948  1
  Rh  Rh10  1  0.505005  0.985028  0.750000  1
  Rh  Rh11  1  0.514939  0.968979  0.250000  1
  Rh  Rh12  1  0.014272  0.014272  0.250000  1
  Rh  Rh13  1  0.997696  0.997696  0.750000  1
  Rh  Rh14  1  0.985028  0.505005  0.750000  1
  Rh  Rh15  1  0.968979  0.514939  0.250000  1
