# generated using pymatgen
data_Dy7Ho3(SiBi)4
_symmetry_space_group_name_H-M   'P 1'
_cell_length_a   8.65606905
_cell_length_b   8.65423056
_cell_length_c   7.92253409
_cell_angle_alpha   90.00287560
_cell_angle_beta   90.01214446
_cell_angle_gamma   125.63793405
_symmetry_Int_Tables_number   1
_chemical_formula_structural   Dy7Ho3(SiBi)4
_chemical_formula_sum   'Dy7 Ho3 Si4 Bi4'
_cell_volume   482.33817837
_cell_formula_units_Z   1
loop_
 _symmetry_equiv_pos_site_id
 _symmetry_equiv_pos_as_xyz
  1  'x, y, z'
loop_
 _atom_site_type_symbol
 _atom_site_label
 _atom_site_symmetry_multiplicity
 _atom_site_fract_x
 _atom_site_fract_y
 _atom_site_fract_z
 _atom_site_occupancy
  Dy  Dy0  1  0.043482  0.287153  0.335044  1
  Dy  Dy1  1  0.956566  0.712833  0.664898  1
  Dy  Dy2  1  0.456555  0.212780  0.835075  1
  Dy  Dy3  1  0.787224  0.543451  0.164925  1
  Dy  Dy4  1  0.543476  0.787210  0.164945  1
  Dy  Dy5  1  0.212823  0.456523  0.835086  1
  Dy  Dy6  1  0.712873  0.956551  0.664931  1
  Ho  Ho7  1  0.286829  0.043598  0.335204  1
  Ho  Ho8  1  0.000065  0.000007  0.000080  1
  Ho  Ho9  1  0.499954  0.499882  0.499955  1
  Si  Si10  1  0.366149  0.365921  0.132813  1
  Si  Si11  1  0.633844  0.633841  0.867309  1
  Si  Si12  1  0.133897  0.133784  0.632490  1
  Si  Si13  1  0.866401  0.866274  0.367321  1
  Bi  Bi14  1  0.792501  0.207557  0.999969  1
  Bi  Bi15  1  0.207628  0.792625  0.000217  1
  Bi  Bi16  1  0.707261  0.292254  0.499839  1
  Bi  Bi17  1  0.292472  0.707759  0.499899  1
