# generated using pymatgen
data_Dy7Cd(Sn11Os3)2
_symmetry_space_group_name_H-M   'P 1'
_cell_length_a   9.83291700
_cell_length_b   9.83291632
_cell_length_c   10.19175900
_cell_angle_alpha   90.00000000
_cell_angle_beta   90.00000000
_cell_angle_gamma   119.99999218
_symmetry_Int_Tables_number   1
_chemical_formula_structural   Dy7Cd(Sn11Os3)2
_chemical_formula_sum   'Dy7 Cd1 Sn22 Os6'
_cell_volume   853.38406300
_cell_formula_units_Z   1
loop_
 _symmetry_equiv_pos_site_id
 _symmetry_equiv_pos_as_xyz
  1  'x, y, z'
loop_
 _atom_site_type_symbol
 _atom_site_label
 _atom_site_symmetry_multiplicity
 _atom_site_fract_x
 _atom_site_fract_y
 _atom_site_fract_z
 _atom_site_occupancy
  Dy  Dy0  1  0.000000  0.000000  0.000000  1
  Dy  Dy1  1  0.482449  0.517551  0.306369  1
  Dy  Dy2  1  0.517551  0.482449  0.693631  1
  Dy  Dy3  1  0.482449  0.964899  0.306369  1
  Dy  Dy4  1  0.517551  0.035101  0.693631  1
  Dy  Dy5  1  0.035101  0.517551  0.306369  1
  Dy  Dy6  1  0.964899  0.482449  0.693631  1
  Cd  Cd7  1  0.000000  0.000000  0.500000  1
  Sn  Sn8  1  0.350039  0.000000  0.000000  1
  Sn  Sn9  1  0.649961  0.000000  0.000000  1
  Sn  Sn10  1  0.000000  0.350039  0.000000  1
  Sn  Sn11  1  0.000000  0.649961  0.000000  1
  Sn  Sn12  1  0.649961  0.649961  0.000000  1
  Sn  Sn13  1  0.350039  0.350039  0.000000  1
  Sn  Sn14  1  0.333333  0.666667  0.823435  1
  Sn  Sn15  1  0.666667  0.333333  0.176565  1
  Sn  Sn16  1  0.779778  0.220222  0.460154  1
  Sn  Sn17  1  0.220222  0.779778  0.539846  1
  Sn  Sn18  1  0.779778  0.559555  0.460154  1
  Sn  Sn19  1  0.220222  0.440445  0.539846  1
  Sn  Sn20  1  0.440445  0.220222  0.460154  1
  Sn  Sn21  1  0.559555  0.779778  0.539846  1
  Sn  Sn22  1  0.333333  0.666667  0.125936  1
  Sn  Sn23  1  0.666667  0.333333  0.874064  1
  Sn  Sn24  1  0.122382  0.877618  0.267805  1
  Sn  Sn25  1  0.877618  0.122382  0.732195  1
  Sn  Sn26  1  0.122382  0.244766  0.267805  1
  Sn  Sn27  1  0.877618  0.755234  0.732195  1
  Sn  Sn28  1  0.755234  0.877618  0.267805  1
  Sn  Sn29  1  0.244766  0.122382  0.732195  1
  Os  Os30  1  0.831231  0.168769  0.203372  1
  Os  Os31  1  0.168769  0.831231  0.796628  1
  Os  Os32  1  0.831231  0.662462  0.203372  1
  Os  Os33  1  0.168769  0.337538  0.796628  1
  Os  Os34  1  0.337538  0.168769  0.203372  1
  Os  Os35  1  0.662462  0.831231  0.796628  1
