# generated using pymatgen
data_Tm3Sn3HgRh2
_symmetry_space_group_name_H-M   'P 1'
_cell_length_a   7.67861400
_cell_length_b   7.67861468
_cell_length_c   3.85289800
_cell_angle_alpha   90.00000000
_cell_angle_beta   90.00000000
_cell_angle_gamma   119.99999822
_symmetry_Int_Tables_number   1
_chemical_formula_structural   Tm3Sn3HgRh2
_chemical_formula_sum   'Tm3 Sn3 Hg1 Rh2'
_cell_volume   196.73601156
_cell_formula_units_Z   1
loop_
 _symmetry_equiv_pos_site_id
 _symmetry_equiv_pos_as_xyz
  1  'x, y, z'
loop_
 _atom_site_type_symbol
 _atom_site_label
 _atom_site_symmetry_multiplicity
 _atom_site_fract_x
 _atom_site_fract_y
 _atom_site_fract_z
 _atom_site_occupancy
  Tm  Tm0  1  0.022661  0.411467  0.000000  1
  Tm  Tm1  1  0.588533  0.611194  0.000000  1
  Tm  Tm2  1  0.388806  0.977339  0.000000  1
  Sn  Sn3  1  0.252476  0.258804  0.500000  1
  Sn  Sn4  1  0.006328  0.747524  0.500000  1
  Sn  Sn5  1  0.741196  0.993672  0.500000  1
  Hg  Hg6  1  0.666667  0.333333  0.500000  1
  Rh  Rh7  1  0.333333  0.666667  0.500000  1
  Rh  Rh8  1  0.000000  0.000000  0.000000  1
