# generated using pymatgen
data_YbIn3GaIr
_symmetry_space_group_name_H-M   'P 1'
_cell_length_a   4.23640400
_cell_length_b   7.44967500
_cell_length_c   8.35631000
_cell_angle_alpha   90.00000000
_cell_angle_beta   90.00000000
_cell_angle_gamma   90.00000000
_symmetry_Int_Tables_number   1
_chemical_formula_structural   YbIn3GaIr
_chemical_formula_sum   'Yb2 In6 Ga2 Ir2'
_cell_volume   263.72374783
_cell_formula_units_Z   2
loop_
 _symmetry_equiv_pos_site_id
 _symmetry_equiv_pos_as_xyz
  1  'x, y, z'
loop_
 _atom_site_type_symbol
 _atom_site_label
 _atom_site_symmetry_multiplicity
 _atom_site_fract_x
 _atom_site_fract_y
 _atom_site_fract_z
 _atom_site_occupancy
  Yb  Yb0  1  0.000000  0.404897  0.250000  1
  Yb  Yb1  1  0.000000  0.595103  0.750000  1
  In  In2  1  0.500000  0.309137  0.557308  1
  In  In3  1  0.500000  0.309137  0.942692  1
  In  In4  1  0.500000  0.690863  0.442692  1
  In  In5  1  0.500000  0.690863  0.057308  1
  In  In6  1  0.500000  0.923385  0.750000  1
  In  In7  1  0.500000  0.076615  0.250000  1
  Ga  Ga8  1  0.000000  0.000000  0.000000  1
  Ga  Ga9  1  0.000000  0.000000  0.500000  1
  Ir  Ir10  1  0.000000  0.822151  0.250000  1
  Ir  Ir11  1  0.000000  0.177849  0.750000  1
