# generated using pymatgen
data_Er3Ga6Co4Ni5
_symmetry_space_group_name_H-M   'P 1'
_cell_length_a   8.68650944
_cell_length_b   8.71694228
_cell_length_c   4.06836500
_cell_angle_alpha   90.00000000
_cell_angle_beta   90.00000000
_cell_angle_gamma   120.21394731
_symmetry_Int_Tables_number   1
_chemical_formula_structural   Er3Ga6Co4Ni5
_chemical_formula_sum   'Er3 Ga6 Co4 Ni5'
_cell_volume   266.20712787
_cell_formula_units_Z   1
loop_
 _symmetry_equiv_pos_site_id
 _symmetry_equiv_pos_as_xyz
  1  'x, y, z'
loop_
 _atom_site_type_symbol
 _atom_site_label
 _atom_site_symmetry_multiplicity
 _atom_site_fract_x
 _atom_site_fract_y
 _atom_site_fract_z
 _atom_site_occupancy
  Er  Er0  1  0.667493  0.334508  0.500000  1
  Er  Er1  1  0.331223  0.669413  0.500000  1
  Er  Er2  1  0.002198  0.000292  0.000000  1
  Ga  Ga3  1  0.490335  0.487180  0.000000  1
  Ga  Ga4  1  0.510471  0.000760  0.000000  1
  Ga  Ga5  1  0.996241  0.509318  0.000000  1
  Ga  Ga6  1  0.726460  0.726573  0.500000  1
  Ga  Ga7  1  0.273575  0.999127  0.500000  1
  Ga  Ga8  1  0.000494  0.271350  0.500000  1
  Co  Co9  1  0.823653  0.188742  0.000000  1
  Co  Co10  1  0.812689  0.637401  0.000000  1
  Co  Co11  1  0.366204  0.175904  0.000000  1
  Co  Co12  1  0.187834  0.821151  0.000000  1
  Ni  Ni13  1  0.630643  0.809212  0.000000  1
  Ni  Ni14  1  0.178927  0.371922  0.000000  1
  Ni  Ni15  1  0.296978  0.294666  0.500000  1
  Ni  Ni16  1  0.705473  0.000760  0.500000  1
  Ni  Ni17  1  0.999109  0.701723  0.500000  1
