# generated using pymatgen
data_Zr6Ti4SnBi5B2
_symmetry_space_group_name_H-M   'P 1'
_cell_length_a   8.54596258
_cell_length_b   8.51203331
_cell_length_c   5.71551900
_cell_angle_alpha   90.00000000
_cell_angle_beta   90.00000000
_cell_angle_gamma   119.86876513
_symmetry_Int_Tables_number   1
_chemical_formula_structural   Zr6Ti4SnBi5B2
_chemical_formula_sum   'Zr6 Ti4 Sn1 Bi5 B2'
_cell_volume   360.53995759
_cell_formula_units_Z   1
loop_
 _symmetry_equiv_pos_site_id
 _symmetry_equiv_pos_as_xyz
  1  'x, y, z'
loop_
 _atom_site_type_symbol
 _atom_site_label
 _atom_site_symmetry_multiplicity
 _atom_site_fract_x
 _atom_site_fract_y
 _atom_site_fract_z
 _atom_site_occupancy
  Zr  Zr0  1  0.771163  0.769785  0.750000  1
  Zr  Zr1  1  0.228837  0.998622  0.750000  1
  Zr  Zr2  1  0.000000  0.230980  0.750000  1
  Zr  Zr3  1  0.227433  0.232481  0.250000  1
  Zr  Zr4  1  0.772567  0.005048  0.250000  1
  Zr  Zr5  1  0.000000  0.767271  0.250000  1
  Ti  Ti6  1  0.669320  0.334009  0.002587  1
  Ti  Ti7  1  0.330680  0.664691  0.002587  1
  Ti  Ti8  1  0.330680  0.664691  0.497413  1
  Ti  Ti9  1  0.669320  0.334009  0.497413  1
  Sn  Sn10  1  0.000000  0.404775  0.250000  1
  Bi  Bi11  1  0.403445  0.403170  0.750000  1
  Bi  Bi12  1  0.596555  0.999725  0.750000  1
  Bi  Bi13  1  0.000000  0.592367  0.750000  1
  Bi  Bi14  1  0.597575  0.598291  0.250000  1
  Bi  Bi15  1  0.402425  0.000716  0.250000  1
  B  B16  1  0.000000  0.999687  0.000185  1
  B  B17  1  0.000000  0.999687  0.499815  1
