# generated using pymatgen
data_TbHo4Zr3(Co4P3)4
_symmetry_space_group_name_H-M   'P 1'
_cell_length_a   12.30710000
_cell_length_b   12.30710029
_cell_length_c   3.71628000
_cell_angle_alpha   90.00000000
_cell_angle_beta   90.00000000
_cell_angle_gamma   120.00000461
_symmetry_Int_Tables_number   1
_chemical_formula_structural   TbHo4Zr3(Co4P3)4
_chemical_formula_sum   'Tb1 Ho4 Zr3 Co16 P12'
_cell_volume   487.47293541
_cell_formula_units_Z   1
loop_
 _symmetry_equiv_pos_site_id
 _symmetry_equiv_pos_as_xyz
  1  'x, y, z'
loop_
 _atom_site_type_symbol
 _atom_site_label
 _atom_site_symmetry_multiplicity
 _atom_site_fract_x
 _atom_site_fract_y
 _atom_site_fract_z
 _atom_site_occupancy
  Tb  Tb0  1  0.666667  0.333333  0.000000  1
  Ho  Ho1  1  0.333333  0.666667  0.000000  1
  Ho  Ho2  1  0.817922  0.817945  0.500000  1
  Ho  Ho3  1  0.182055  0.999977  0.500000  1
  Ho  Ho4  1  0.000023  0.182078  0.500000  1
  Zr  Zr5  1  0.441215  0.441415  0.000000  1
  Zr  Zr6  1  0.558585  0.999801  0.000000  1
  Zr  Zr7  1  0.000199  0.558785  0.000000  1
  Co  Co8  1  0.875810  0.354888  0.500000  1
  Co  Co9  1  0.645112  0.520921  0.500000  1
  Co  Co10  1  0.479079  0.124190  0.500000  1
  Co  Co11  1  0.354916  0.875214  0.500000  1
  Co  Co12  1  0.520298  0.645084  0.500000  1
  Co  Co13  1  0.124786  0.479702  0.500000  1
  Co  Co14  1  0.805722  0.178430  0.000000  1
  Co  Co15  1  0.821570  0.627291  0.000000  1
  Co  Co16  1  0.372709  0.194278  0.000000  1
  Co  Co17  1  0.178633  0.805629  0.000000  1
  Co  Co18  1  0.626995  0.821367  0.000000  1
  Co  Co19  1  0.194371  0.373005  0.000000  1
  Co  Co20  1  0.277017  0.277120  0.500000  1
  Co  Co21  1  0.722880  0.999898  0.500000  1
  Co  Co22  1  0.000102  0.722983  0.500000  1
  Co  Co23  1  0.000000  0.000000  0.000000  1
  P  P24  1  0.693872  0.171695  0.500000  1
  P  P25  1  0.828305  0.522178  0.500000  1
  P  P26  1  0.477822  0.306128  0.500000  1
  P  P27  1  0.172299  0.693658  0.500000  1
  P  P28  1  0.521360  0.827701  0.500000  1
  P  P29  1  0.306342  0.478640  0.500000  1
  P  P30  1  0.177977  0.178022  0.000000  1
  P  P31  1  0.821978  0.999955  0.000000  1
  P  P32  1  0.000045  0.822023  0.000000  1
  P  P33  1  0.649184  0.649125  0.000000  1
  P  P34  1  0.350875  0.000059  0.000000  1
  P  P35  1  0.999941  0.350816  0.000000  1
