# generated using pymatgen
data_TbDy3Hf3AlPt4
_symmetry_space_group_name_H-M   'P 1'
_cell_length_a   4.57437100
_cell_length_b   7.09529024
_cell_length_c   8.15542650
_cell_angle_alpha   87.00310861
_cell_angle_beta   90.00000000
_cell_angle_gamma   90.00000000
_symmetry_Int_Tables_number   1
_chemical_formula_structural   TbDy3Hf3AlPt4
_chemical_formula_sum   'Tb1 Dy3 Hf3 Al1 Pt4'
_cell_volume   264.33451174
_cell_formula_units_Z   1
loop_
 _symmetry_equiv_pos_site_id
 _symmetry_equiv_pos_as_xyz
  1  'x, y, z'
loop_
 _atom_site_type_symbol
 _atom_site_label
 _atom_site_symmetry_multiplicity
 _atom_site_fract_x
 _atom_site_fract_y
 _atom_site_fract_z
 _atom_site_occupancy
  Tb  Tb0  1  0.750000  0.517061  0.814858  1
  Dy  Dy1  1  0.250000  0.472412  0.187124  1
  Dy  Dy2  1  0.750000  0.039257  0.671124  1
  Dy  Dy3  1  0.250000  0.988334  0.337263  1
  Hf  Hf4  1  0.250000  0.856040  0.923797  1
  Hf  Hf5  1  0.750000  0.137534  0.070768  1
  Hf  Hf6  1  0.750000  0.640435  0.435314  1
  Al  Al7  1  0.250000  0.358368  0.572014  1
  Pt  Pt8  1  0.250000  0.725859  0.609706  1
  Pt  Pt9  1  0.750000  0.270317  0.381394  1
  Pt  Pt10  1  0.750000  0.765690  0.102239  1
  Pt  Pt11  1  0.250000  0.228696  0.894399  1
