# generated using pymatgen
data_Tb10Pb6C
_symmetry_space_group_name_H-M   'P 1'
_cell_length_a   9.10095300
_cell_length_b   9.10095405
_cell_length_c   6.70689700
_cell_angle_alpha   90.00000000
_cell_angle_beta   90.00000000
_cell_angle_gamma   119.99999254
_symmetry_Int_Tables_number   1
_chemical_formula_structural   Tb10Pb6C
_chemical_formula_sum   'Tb10 Pb6 C1'
_cell_volume   481.08973938
_cell_formula_units_Z   1
loop_
 _symmetry_equiv_pos_site_id
 _symmetry_equiv_pos_as_xyz
  1  'x, y, z'
loop_
 _atom_site_type_symbol
 _atom_site_label
 _atom_site_symmetry_multiplicity
 _atom_site_fract_x
 _atom_site_fract_y
 _atom_site_fract_z
 _atom_site_occupancy
  Tb  Tb0  1  0.333333  0.666667  0.500000  1
  Tb  Tb1  1  0.666667  0.333333  0.500000  1
  Tb  Tb2  1  0.666667  0.333333  0.000000  1
  Tb  Tb3  1  0.333333  0.666667  0.000000  1
  Tb  Tb4  1  0.000000  0.774293  0.278089  1
  Tb  Tb5  1  0.225707  0.225707  0.278089  1
  Tb  Tb6  1  0.774293  0.000000  0.278089  1
  Tb  Tb7  1  0.000000  0.225707  0.721911  1
  Tb  Tb8  1  0.774293  0.774293  0.721911  1
  Tb  Tb9  1  0.225707  0.000000  0.721911  1
  Pb  Pb10  1  0.000000  0.399620  0.250308  1
  Pb  Pb11  1  0.600380  0.600380  0.250308  1
  Pb  Pb12  1  0.399620  0.000000  0.250308  1
  Pb  Pb13  1  0.000000  0.600380  0.749692  1
  Pb  Pb14  1  0.399620  0.399620  0.749692  1
  Pb  Pb15  1  0.600380  0.000000  0.749692  1
  C  C16  1  0.000000  0.000000  0.500000  1
