# generated using pymatgen
data_Hf6Al16Co3Pd3Pt
_symmetry_space_group_name_H-M   'P 1'
_cell_length_a   8.64553381
_cell_length_b   8.63761176
_cell_length_c   8.64553355
_cell_angle_alpha   60.05793992
_cell_angle_beta   59.93173708
_cell_angle_gamma   60.05794259
_symmetry_Int_Tables_number   1
_chemical_formula_structural   Hf6Al16Co3Pd3Pt
_chemical_formula_sum   'Hf6 Al16 Co3 Pd3 Pt1'
_cell_volume   456.68541871
_cell_formula_units_Z   1
loop_
 _symmetry_equiv_pos_site_id
 _symmetry_equiv_pos_as_xyz
  1  'x, y, z'
loop_
 _atom_site_type_symbol
 _atom_site_label
 _atom_site_symmetry_multiplicity
 _atom_site_fract_x
 _atom_site_fract_y
 _atom_site_fract_z
 _atom_site_occupancy
  Hf  Hf0  1  0.687102  0.683378  0.315451  1
  Hf  Hf1  1  0.316036  0.681503  0.316036  1
  Hf  Hf2  1  0.684549  0.316622  0.312898  1
  Hf  Hf3  1  0.312898  0.316622  0.684549  1
  Hf  Hf4  1  0.683964  0.318497  0.683964  1
  Hf  Hf5  1  0.315451  0.683378  0.687102  1
  Al  Al6  1  0.886693  0.872222  0.350865  1
  Al  Al7  1  0.878477  0.352544  0.878477  1
  Al  Al8  1  0.350865  0.872222  0.886693  1
  Al  Al9  1  0.884738  0.881473  0.884738  1
  Al  Al10  1  0.113307  0.127778  0.649135  1
  Al  Al11  1  0.121523  0.647456  0.121523  1
  Al  Al12  1  0.649135  0.127778  0.113307  1
  Al  Al13  1  0.115262  0.118527  0.115262  1
  Al  Al14  1  0.659179  0.659724  0.005248  1
  Al  Al15  1  0.664493  0.005965  0.664493  1
  Al  Al16  1  0.005248  0.659724  0.659179  1
  Al  Al17  1  0.669504  0.655935  0.669504  1
  Al  Al18  1  0.340821  0.340276  0.994752  1
  Al  Al19  1  0.335507  0.994035  0.335507  1
  Al  Al20  1  0.994752  0.340276  0.340821  1
  Al  Al21  1  0.330496  0.344065  0.330496  1
  Co  Co22  1  0.000000  0.000000  0.000000  1
  Co  Co23  1  0.000000  0.500000  0.500000  1
  Co  Co24  1  0.500000  0.500000  0.000000  1
  Pd  Pd25  1  0.000000  0.000000  0.500000  1
  Pd  Pd26  1  0.500000  0.000000  0.500000  1
  Pd  Pd27  1  0.500000  0.000000  0.000000  1
  Pt  Pt28  1  0.000000  0.500000  0.000000  1
