# generated using pymatgen
data_Dy7HoRe2(TcB12)2
_symmetry_space_group_name_H-M   'P 1'
_cell_length_a   3.68802100
_cell_length_b   9.17625412
_cell_length_c   11.56275101
_cell_angle_alpha   90.06247724
_cell_angle_beta   90.00000000
_cell_angle_gamma   90.00000000
_symmetry_Int_Tables_number   1
_chemical_formula_structural   Dy7HoRe2(TcB12)2
_chemical_formula_sum   'Dy7 Ho1 Re2 Tc2 B24'
_cell_volume   391.30890647
_cell_formula_units_Z   1
loop_
 _symmetry_equiv_pos_site_id
 _symmetry_equiv_pos_as_xyz
  1  'x, y, z'
loop_
 _atom_site_type_symbol
 _atom_site_label
 _atom_site_symmetry_multiplicity
 _atom_site_fract_x
 _atom_site_fract_y
 _atom_site_fract_z
 _atom_site_occupancy
  Dy  Dy0  1  0.000000  0.324051  0.414049  1
  Dy  Dy1  1  0.000000  0.675929  0.586035  1
  Dy  Dy2  1  0.000000  0.823635  0.085935  1
  Dy  Dy3  1  0.000000  0.176355  0.914001  1
  Dy  Dy4  1  0.000000  0.942232  0.369793  1
  Dy  Dy5  1  0.000000  0.057773  0.630245  1
  Dy  Dy6  1  0.000000  0.443788  0.130470  1
  Ho  Ho7  1  0.000000  0.556305  0.869321  1
  Re  Re8  1  0.000000  0.138697  0.179236  1
  Re  Re9  1  0.000000  0.861073  0.820757  1
  Tc  Tc10  1  0.000000  0.638768  0.320748  1
  Tc  Tc11  1  0.000000  0.361364  0.679386  1
  B  B12  1  0.500000  0.553544  0.432836  1
  B  B13  1  0.500000  0.446448  0.567219  1
  B  B14  1  0.500000  0.053444  0.067036  1
  B  B15  1  0.500000  0.946495  0.932938  1
  B  B16  1  0.500000  0.748695  0.418580  1
  B  B17  1  0.500000  0.251324  0.581440  1
  B  B18  1  0.500000  0.249193  0.081343  1
  B  B19  1  0.500000  0.750549  0.918647  1
  B  B20  1  0.500000  0.791781  0.265493  1
  B  B21  1  0.500000  0.208292  0.734514  1
  B  B22  1  0.500000  0.292108  0.234589  1
  B  B23  1  0.500000  0.707661  0.765482  1
  B  B24  1  0.500000  0.631282  0.185902  1
  B  B25  1  0.500000  0.368943  0.814216  1
  B  B26  1  0.500000  0.130994  0.314349  1
  B  B27  1  0.500000  0.868960  0.685691  1
  B  B28  1  0.500000  0.982519  0.211773  1
  B  B29  1  0.500000  0.017455  0.788243  1
  B  B30  1  0.500000  0.482866  0.288311  1
  B  B31  1  0.500000  0.517248  0.711866  1
  B  B32  1  0.500000  0.600416  0.027710  1
  B  B33  1  0.500000  0.399803  0.971832  1
  B  B34  1  0.500000  0.100321  0.471836  1
  B  B35  1  0.500000  0.899689  0.528177  1
