# generated using pymatgen
data_ErTm8Mg(Ni2Bi)2
_symmetry_space_group_name_H-M   'P 1'
_cell_length_a   8.73733617
_cell_length_b   8.73839411
_cell_length_c   8.73706834
_cell_angle_alpha   129.36002760
_cell_angle_beta   129.36261033
_cell_angle_gamma   74.41930946
_symmetry_Int_Tables_number   1
_chemical_formula_structural   ErTm8Mg(Ni2Bi)2
_chemical_formula_sum   'Er1 Tm8 Mg1 Ni4 Bi2'
_cell_volume   388.67472806
_cell_formula_units_Z   1
loop_
 _symmetry_equiv_pos_site_id
 _symmetry_equiv_pos_as_xyz
  1  'x, y, z'
loop_
 _atom_site_type_symbol
 _atom_site_label
 _atom_site_symmetry_multiplicity
 _atom_site_fract_x
 _atom_site_fract_y
 _atom_site_fract_z
 _atom_site_occupancy
  Er  Er0  1  0.974323  0.798249  0.516763  1
  Tm  Tm1  1  0.499668  0.499873  0.999657  1
  Tm  Tm2  1  0.797634  0.281014  0.823815  1
  Tm  Tm3  1  0.202285  0.719131  0.176214  1
  Tm  Tm4  1  0.457218  0.974172  0.176522  1
  Tm  Tm5  1  0.280934  0.456914  0.482992  1
  Tm  Tm6  1  0.025882  0.202577  0.483036  1
  Tm  Tm7  1  0.543058  0.026060  0.823789  1
  Tm  Tm8  1  0.718926  0.542762  0.516750  1
  Mg  Mg9  1  0.000158  0.999929  0.000225  1
  Ni  Ni10  1  0.131834  0.623790  0.755746  1
  Ni  Ni11  1  0.868341  0.375775  0.244646  1
  Ni  Ni12  1  0.623262  0.868074  0.491915  1
  Ni  Ni13  1  0.376364  0.131321  0.507900  1
  Bi  Bi14  1  0.258474  0.258560  0.000283  1
  Bi  Bi15  1  0.741640  0.741799  0.999749  1
