# generated using pymatgen
data_Sc12InFe3Pb
_symmetry_space_group_name_H-M   'P 1'
_cell_length_a   7.81366437
_cell_length_b   7.81366345
_cell_length_c   7.81366477
_cell_angle_alpha   108.45753594
_cell_angle_beta   108.39543813
_cell_angle_gamma   111.58153336
_symmetry_Int_Tables_number   1
_chemical_formula_structural   Sc12InFe3Pb
_chemical_formula_sum   'Sc12 In1 Fe3 Pb1'
_cell_volume   366.85824288
_cell_formula_units_Z   1
loop_
 _symmetry_equiv_pos_site_id
 _symmetry_equiv_pos_as_xyz
  1  'x, y, z'
loop_
 _atom_site_type_symbol
 _atom_site_label
 _atom_site_symmetry_multiplicity
 _atom_site_fract_x
 _atom_site_fract_y
 _atom_site_fract_z
 _atom_site_occupancy
  Sc  Sc0  1  0.191809  0.426161  0.234353  1
  Sc  Sc1  1  0.808191  0.573839  0.765647  1
  Sc  Sc2  1  0.191809  0.957456  0.765647  1
  Sc  Sc3  1  0.961732  0.194152  0.767578  1
  Sc  Sc4  1  0.808191  0.042544  0.234353  1
  Sc  Sc5  1  0.038268  0.805848  0.232422  1
  Sc  Sc6  1  0.426574  0.194152  0.232422  1
  Sc  Sc7  1  0.573426  0.805848  0.767578  1
  Sc  Sc8  1  0.303699  0.308125  0.611824  1
  Sc  Sc9  1  0.696301  0.691875  0.388176  1
  Sc  Sc10  1  0.696301  0.308125  0.004427  1
  Sc  Sc11  1  0.303699  0.691875  0.995573  1
  In  In12  1  0.000000  0.500000  0.500000  1
  Fe  Fe13  1  0.379412  0.379412  0.000000  1
  Fe  Fe14  1  0.620588  0.620588  0.000000  1
  Fe  Fe15  1  0.000000  0.000000  0.000000  1
  Pb  Pb16  1  0.500000  0.000000  0.500000  1
