# generated using pymatgen
data_Y4HoCoRu
_symmetry_space_group_name_H-M   'P 1'
_cell_length_a   6.34454197
_cell_length_b   7.15056873
_cell_length_c   8.54899150
_cell_angle_alpha   96.64019657
_cell_angle_beta   111.78160026
_cell_angle_gamma   90.00000963
_symmetry_Int_Tables_number   1
_chemical_formula_structural   Y4HoCoRu
_chemical_formula_sum   'Y8 Ho2 Co2 Ru2'
_cell_volume   357.34954993
_cell_formula_units_Z   2
loop_
 _symmetry_equiv_pos_site_id
 _symmetry_equiv_pos_as_xyz
  1  'x, y, z'
loop_
 _atom_site_type_symbol
 _atom_site_label
 _atom_site_symmetry_multiplicity
 _atom_site_fract_x
 _atom_site_fract_y
 _atom_site_fract_z
 _atom_site_occupancy
  Y  Y0  1  0.977377  0.911338  0.188835  1
  Y  Y1  1  0.788542  0.588662  0.811165  1
  Y  Y2  1  0.013790  0.083495  0.814745  1
  Y  Y3  1  0.199046  0.416505  0.185255  1
  Y  Y4  1  0.647247  0.811408  0.431929  1
  Y  Y5  1  0.215318  0.688592  0.568071  1
  Y  Y6  1  0.358369  0.182450  0.566545  1
  Y  Y7  1  0.791824  0.317550  0.433455  1
  Ho  Ho8  1  0.427687  0.750000  0.000000  1
  Ho  Ho9  1  0.575839  0.250000  0.000000  1
  Co  Co10  1  0.822836  0.575982  0.220694  1
  Co  Co11  1  0.602142  0.924018  0.779306  1
  Ru  Ru12  1  0.181059  0.428420  0.782133  1
  Ru  Ru13  1  0.398925  0.071580  0.217867  1
