# generated using pymatgen
data_Sm2ZnGa5Ni2
_symmetry_space_group_name_H-M   'P 1'
_cell_length_a   8.45719003
_cell_length_b   8.45718897
_cell_length_c   8.45718956
_cell_angle_alpha   140.00139133
_cell_angle_beta   107.48874868
_cell_angle_gamma   86.18250500
_symmetry_Int_Tables_number   1
_chemical_formula_structural   Sm2ZnGa5Ni2
_chemical_formula_sum   'Sm4 Zn2 Ga10 Ni4'
_cell_volume   357.37973427
_cell_formula_units_Z   2
loop_
 _symmetry_equiv_pos_site_id
 _symmetry_equiv_pos_as_xyz
  1  'x, y, z'
loop_
 _atom_site_type_symbol
 _atom_site_label
 _atom_site_symmetry_multiplicity
 _atom_site_fract_x
 _atom_site_fract_y
 _atom_site_fract_z
 _atom_site_occupancy
  Sm  Sm0  1  0.864867  0.635575  0.229293  1
  Sm  Sm1  1  0.135133  0.364425  0.770707  1
  Sm  Sm2  1  0.406282  0.135575  0.270707  1
  Sm  Sm3  1  0.593718  0.864425  0.729293  1
  Zn  Zn4  1  0.000000  0.750000  0.750000  1
  Zn  Zn5  1  0.000000  0.250000  0.250000  1
  Ga  Ga6  1  0.500000  0.750000  0.250000  1
  Ga  Ga7  1  0.500000  0.250000  0.750000  1
  Ga  Ga8  1  0.222940  0.972940  0.750000  1
  Ga  Ga9  1  0.777060  0.527060  0.750000  1
  Ga  Ga10  1  0.777060  0.027060  0.250000  1
  Ga  Ga11  1  0.222940  0.472940  0.250000  1
  Ga  Ga12  1  0.063607  0.890737  0.172870  1
  Ga  Ga13  1  0.936393  0.109263  0.827130  1
  Ga  Ga14  1  0.717868  0.390737  0.327130  1
  Ga  Ga15  1  0.282132  0.609263  0.672870  1
  Ni  Ni16  1  0.268710  0.862101  0.406610  1
  Ni  Ni17  1  0.731290  0.137899  0.593390  1
  Ni  Ni18  1  0.455492  0.362101  0.093390  1
  Ni  Ni19  1  0.544508  0.637899  0.906610  1
