# generated using pymatgen
data_Li3Hf(Ni4P3)2
_symmetry_space_group_name_H-M   'P 1'
_cell_length_a   11.91337102
_cell_length_b   11.91336979
_cell_length_c   3.63992000
_cell_angle_alpha   90.00000000
_cell_angle_beta   90.00000000
_cell_angle_gamma   120.00578438
_symmetry_Int_Tables_number   1
_chemical_formula_structural   Li3Hf(Ni4P3)2
_chemical_formula_sum   'Li6 Hf2 Ni16 P12'
_cell_volume   447.36957290
_cell_formula_units_Z   2
loop_
 _symmetry_equiv_pos_site_id
 _symmetry_equiv_pos_as_xyz
  1  'x, y, z'
loop_
 _atom_site_type_symbol
 _atom_site_label
 _atom_site_symmetry_multiplicity
 _atom_site_fract_x
 _atom_site_fract_y
 _atom_site_fract_z
 _atom_site_occupancy
  Li  Li0  1  0.823631  0.823631  0.500000  1
  Li  Li1  1  0.442609  0.442609  0.000000  1
  Li  Li2  1  0.557035  0.000436  0.000000  1
  Li  Li3  1  0.333164  0.666790  0.000000  1
  Li  Li4  1  0.666790  0.333164  0.000000  1
  Li  Li5  1  0.000436  0.557035  0.000000  1
  Hf  Hf6  1  0.000261  0.184958  0.500000  1
  Hf  Hf7  1  0.184958  0.000261  0.500000  1
  Ni  Ni8  1  0.622516  0.820418  0.000000  1
  Ni  Ni9  1  0.378096  0.198147  0.000000  1
  Ni  Ni10  1  0.998176  0.716806  0.500000  1
  Ni  Ni11  1  0.282238  0.282238  0.500000  1
  Ni  Ni12  1  0.875211  0.355679  0.500000  1
  Ni  Ni13  1  0.716806  0.998176  0.500000  1
  Ni  Ni14  1  0.820418  0.622516  0.000000  1
  Ni  Ni15  1  0.177271  0.801579  0.000000  1
  Ni  Ni16  1  0.355679  0.875211  0.500000  1
  Ni  Ni17  1  0.123693  0.480779  0.500000  1
  Ni  Ni18  1  0.643697  0.520291  0.500000  1
  Ni  Ni19  1  0.000612  0.000612  0.000000  1
  Ni  Ni20  1  0.520291  0.643697  0.500000  1
  Ni  Ni21  1  0.480779  0.123693  0.500000  1
  Ni  Ni22  1  0.198147  0.378096  0.000000  1
  Ni  Ni23  1  0.801579  0.177271  0.000000  1
  P  P24  1  0.999362  0.354956  0.000000  1
  P  P25  1  0.826066  0.511948  0.500000  1
  P  P26  1  0.686228  0.172778  0.500000  1
  P  P27  1  0.177332  0.177332  0.000000  1
  P  P28  1  0.643811  0.643811  0.000000  1
  P  P29  1  0.823672  0.998863  0.000000  1
  P  P30  1  0.511948  0.826066  0.500000  1
  P  P31  1  0.172778  0.686228  0.500000  1
  P  P32  1  0.354956  0.999362  0.000000  1
  P  P33  1  0.487091  0.313799  0.500000  1
  P  P34  1  0.998863  0.823672  0.000000  1
  P  P35  1  0.313799  0.487091  0.500000  1
