# generated using pymatgen
data_Nd3Cd3SnHg2
_symmetry_space_group_name_H-M   'P 1'
_cell_length_a   7.84735800
_cell_length_b   7.84735767
_cell_length_c   4.50177700
_cell_angle_alpha   90.00000000
_cell_angle_beta   90.00000000
_cell_angle_gamma   120.00000139
_symmetry_Int_Tables_number   1
_chemical_formula_structural   Nd3Cd3SnHg2
_chemical_formula_sum   'Nd3 Cd3 Sn1 Hg2'
_cell_volume   240.08305951
_cell_formula_units_Z   1
loop_
 _symmetry_equiv_pos_site_id
 _symmetry_equiv_pos_as_xyz
  1  'x, y, z'
loop_
 _atom_site_type_symbol
 _atom_site_label
 _atom_site_symmetry_multiplicity
 _atom_site_fract_x
 _atom_site_fract_y
 _atom_site_fract_z
 _atom_site_occupancy
  Nd  Nd0  1  0.585143  0.995579  0.000000  1
  Nd  Nd1  1  0.004421  0.589564  0.000000  1
  Nd  Nd2  1  0.410436  0.414857  0.000000  1
  Cd  Cd3  1  0.247835  0.992368  0.500000  1
  Cd  Cd4  1  0.007632  0.255467  0.500000  1
  Cd  Cd5  1  0.744533  0.752165  0.500000  1
  Sn  Sn6  1  0.666667  0.333333  0.500000  1
  Hg  Hg7  1  0.333333  0.666667  0.500000  1
  Hg  Hg8  1  0.000000  0.000000  0.000000  1
