# generated using pymatgen
data_Er3NiRh8
_symmetry_space_group_name_H-M   'P 1'
_cell_length_a   5.22477600
_cell_length_b   5.22477659
_cell_length_c   17.23402800
_cell_angle_alpha   90.00000000
_cell_angle_beta   90.00000000
_cell_angle_gamma   119.99998362
_symmetry_Int_Tables_number   1
_chemical_formula_structural   Er3NiRh8
_chemical_formula_sum   'Er6 Ni2 Rh16'
_cell_volume   407.42990062
_cell_formula_units_Z   2
loop_
 _symmetry_equiv_pos_site_id
 _symmetry_equiv_pos_as_xyz
  1  'x, y, z'
loop_
 _atom_site_type_symbol
 _atom_site_label
 _atom_site_symmetry_multiplicity
 _atom_site_fract_x
 _atom_site_fract_y
 _atom_site_fract_z
 _atom_site_occupancy
  Er  Er0  1  0.333333  0.666667  0.957918  1
  Er  Er1  1  0.666667  0.333333  0.042082  1
  Er  Er2  1  0.666667  0.333333  0.457918  1
  Er  Er3  1  0.333333  0.666667  0.542082  1
  Er  Er4  1  0.333333  0.666667  0.750000  1
  Er  Er5  1  0.666667  0.333333  0.250000  1
  Ni  Ni6  1  0.333333  0.666667  0.250000  1
  Ni  Ni7  1  0.666667  0.333333  0.750000  1
  Rh  Rh8  1  0.168759  0.831241  0.373113  1
  Rh  Rh9  1  0.168759  0.337519  0.373113  1
  Rh  Rh10  1  0.662481  0.831241  0.373113  1
  Rh  Rh11  1  0.831241  0.168759  0.626887  1
  Rh  Rh12  1  0.831241  0.662481  0.626887  1
  Rh  Rh13  1  0.337519  0.168759  0.626887  1
  Rh  Rh14  1  0.831241  0.168759  0.873113  1
  Rh  Rh15  1  0.831241  0.662481  0.873113  1
  Rh  Rh16  1  0.337519  0.168759  0.873113  1
  Rh  Rh17  1  0.168759  0.831241  0.126887  1
  Rh  Rh18  1  0.168759  0.337519  0.126887  1
  Rh  Rh19  1  0.662481  0.831241  0.126887  1
  Rh  Rh20  1  0.000000  0.000000  0.250000  1
  Rh  Rh21  1  0.000000  0.000000  0.750000  1
  Rh  Rh22  1  0.000000  0.000000  0.500000  1
  Rh  Rh23  1  0.000000  0.000000  0.000000  1
