# generated using pymatgen
data_DyYRh6S
_symmetry_space_group_name_H-M   'P 1'
_cell_length_a   5.96723876
_cell_length_b   5.96723919
_cell_length_c   5.96723700
_cell_angle_alpha   59.99999552
_cell_angle_beta   59.99999313
_cell_angle_gamma   59.99999140
_symmetry_Int_Tables_number   1
_chemical_formula_structural   DyYRh6S
_chemical_formula_sum   'Dy1 Y1 Rh6 S1'
_cell_volume   150.24674961
_cell_formula_units_Z   1
loop_
 _symmetry_equiv_pos_site_id
 _symmetry_equiv_pos_as_xyz
  1  'x, y, z'
loop_
 _atom_site_type_symbol
 _atom_site_label
 _atom_site_symmetry_multiplicity
 _atom_site_fract_x
 _atom_site_fract_y
 _atom_site_fract_z
 _atom_site_occupancy
  Dy  Dy0  1  0.750000  0.750000  0.750000  1
  Y  Y1  1  0.250000  0.250000  0.250000  1
  Rh  Rh2  1  0.735017  0.264984  0.264984  1
  Rh  Rh3  1  0.264984  0.735017  0.264984  1
  Rh  Rh4  1  0.735016  0.735016  0.264985  1
  Rh  Rh5  1  0.264984  0.264984  0.735017  1
  Rh  Rh6  1  0.735016  0.264985  0.735016  1
  Rh  Rh7  1  0.264985  0.735016  0.735016  1
  S  S8  1  0.000000  0.000000  0.000000  1
