# generated using pymatgen
data_La4YbIr2
_symmetry_space_group_name_H-M   'P 1'
_cell_length_a   9.07141380
_cell_length_b   9.07141411
_cell_length_c   7.48007959
_cell_angle_alpha   83.73695070
_cell_angle_beta   83.73695204
_cell_angle_gamma   43.49989421
_symmetry_Int_Tables_number   1
_chemical_formula_structural   La4YbIr2
_chemical_formula_sum   'La8 Yb2 Ir4'
_cell_volume   420.77604300
_cell_formula_units_Z   2
loop_
 _symmetry_equiv_pos_site_id
 _symmetry_equiv_pos_as_xyz
  1  'x, y, z'
loop_
 _atom_site_type_symbol
 _atom_site_label
 _atom_site_symmetry_multiplicity
 _atom_site_fract_x
 _atom_site_fract_y
 _atom_site_fract_z
 _atom_site_occupancy
  La  La0  1  0.989879  0.193987  0.088873  1
  La  La1  1  0.806013  0.010121  0.411127  1
  La  La2  1  0.353433  0.216398  0.818006  1
  La  La3  1  0.783602  0.646567  0.681994  1
  La  La4  1  0.648816  0.788042  0.179931  1
  La  La5  1  0.211958  0.351184  0.320069  1
  La  La6  1  0.564841  0.435159  0.750000  1
  La  La7  1  0.426928  0.573072  0.250000  1
  Yb  Yb8  1  0.010632  0.805188  0.913745  1
  Yb  Yb9  1  0.194812  0.989368  0.586255  1
  Ir  Ir10  1  0.182842  0.587035  0.573179  1
  Ir  Ir11  1  0.412965  0.817158  0.926821  1
  Ir  Ir12  1  0.817573  0.404294  0.421793  1
  Ir  Ir13  1  0.595706  0.182427  0.078207  1
