# generated using pymatgen
data_Nd2Ti3Co9As7
_symmetry_space_group_name_H-M   'P 1'
_cell_length_a   3.81167800
_cell_length_b   9.55711392
_cell_length_c   9.55711400
_cell_angle_alpha   119.99999334
_cell_angle_beta   90.00000000
_cell_angle_gamma   90.00000000
_symmetry_Int_Tables_number   1
_chemical_formula_structural   Nd2Ti3Co9As7
_chemical_formula_sum   'Nd2 Ti3 Co9 As7'
_cell_volume   301.50908015
_cell_formula_units_Z   1
loop_
 _symmetry_equiv_pos_site_id
 _symmetry_equiv_pos_as_xyz
  1  'x, y, z'
loop_
 _atom_site_type_symbol
 _atom_site_label
 _atom_site_symmetry_multiplicity
 _atom_site_fract_x
 _atom_site_fract_y
 _atom_site_fract_z
 _atom_site_occupancy
  Nd  Nd0  1  0.000000  0.666667  0.333333  1
  Nd  Nd1  1  0.500000  0.333333  0.666667  1
  Ti  Ti2  1  0.500000  0.779449  0.889408  1
  Ti  Ti3  1  0.500000  0.109959  0.220551  1
  Ti  Ti4  1  0.500000  0.110592  0.890041  1
  Co  Co5  1  0.000000  0.574991  0.941452  1
  Co  Co6  1  0.000000  0.366461  0.425009  1
  Co  Co7  1  0.000000  0.058548  0.633539  1
  Co  Co8  1  0.000000  0.879919  0.158353  1
  Co  Co9  1  0.000000  0.278435  0.120081  1
  Co  Co10  1  0.000000  0.841647  0.721565  1
  Co  Co11  1  0.500000  0.950451  0.385054  1
  Co  Co12  1  0.500000  0.434603  0.049549  1
  Co  Co13  1  0.500000  0.614946  0.565397  1
  As  As14  1  0.000000  0.000000  0.000000  1
  As  As15  1  0.500000  0.710110  0.118218  1
  As  As16  1  0.500000  0.408107  0.289890  1
  As  As17  1  0.500000  0.881782  0.591893  1
  As  As18  1  0.000000  0.584152  0.693044  1
  As  As19  1  0.000000  0.108892  0.415848  1
  As  As20  1  0.000000  0.306956  0.891108  1
