# generated using pymatgen
data_VGa2Ni8SnPt4
_symmetry_space_group_name_H-M   'P 1'
_cell_length_a   3.77113200
_cell_length_b   3.71095100
_cell_length_c   15.00151800
_cell_angle_alpha   90.00000000
_cell_angle_beta   90.00000000
_cell_angle_gamma   90.00000000
_symmetry_Int_Tables_number   1
_chemical_formula_structural   VGa2Ni8SnPt4
_chemical_formula_sum   'V1 Ga2 Ni8 Sn1 Pt4'
_cell_volume   209.93853463
_cell_formula_units_Z   1
loop_
 _symmetry_equiv_pos_site_id
 _symmetry_equiv_pos_as_xyz
  1  'x, y, z'
loop_
 _atom_site_type_symbol
 _atom_site_label
 _atom_site_symmetry_multiplicity
 _atom_site_fract_x
 _atom_site_fract_y
 _atom_site_fract_z
 _atom_site_occupancy
  V  V0  1  0.000000  0.000000  0.500000  1
  Ga  Ga1  1  0.000000  0.000000  0.253997  1
  Ga  Ga2  1  0.000000  0.000000  0.746003  1
  Ni  Ni3  1  0.500000  0.500000  0.000000  1
  Ni  Ni4  1  0.500000  0.500000  0.256603  1
  Ni  Ni5  1  0.500000  0.500000  0.500000  1
  Ni  Ni6  1  0.500000  0.500000  0.743397  1
  Ni  Ni7  1  0.000000  0.500000  0.133494  1
  Ni  Ni8  1  0.000000  0.500000  0.383928  1
  Ni  Ni9  1  0.000000  0.500000  0.616072  1
  Ni  Ni10  1  0.000000  0.500000  0.866506  1
  Sn  Sn11  1  0.000000  0.000000  0.000000  1
  Pt  Pt12  1  0.500000  0.000000  0.133583  1
  Pt  Pt13  1  0.500000  0.000000  0.380115  1
  Pt  Pt14  1  0.500000  0.000000  0.619885  1
  Pt  Pt15  1  0.500000  0.000000  0.866417  1
