# generated using pymatgen
data_Nd2Al3SiPt2
_symmetry_space_group_name_H-M   'P 1'
_cell_length_a   9.19768102
_cell_length_b   9.19768105
_cell_length_c   4.16222500
_cell_angle_alpha   90.00000000
_cell_angle_beta   90.00000000
_cell_angle_gamma   152.10409129
_symmetry_Int_Tables_number   1
_chemical_formula_structural   Nd2Al3SiPt2
_chemical_formula_sum   'Nd2 Al3 Si1 Pt2'
_cell_volume   164.74201925
_cell_formula_units_Z   1
loop_
 _symmetry_equiv_pos_site_id
 _symmetry_equiv_pos_as_xyz
  1  'x, y, z'
loop_
 _atom_site_type_symbol
 _atom_site_label
 _atom_site_symmetry_multiplicity
 _atom_site_fract_x
 _atom_site_fract_y
 _atom_site_fract_z
 _atom_site_occupancy
  Nd  Nd0  1  0.101070  0.898930  0.250000  1
  Nd  Nd1  1  0.899315  0.100685  0.750000  1
  Al  Al2  1  0.753983  0.246017  0.250000  1
  Al  Al3  1  0.246114  0.753886  0.750000  1
  Al  Al4  1  0.536934  0.463066  0.750000  1
  Si  Si5  1  0.461329  0.538671  0.250000  1
  Pt  Pt6  1  0.674580  0.325420  0.750000  1
  Pt  Pt7  1  0.326676  0.673324  0.250000  1
