# generated using pymatgen
data_Pr2Al4Ge2Ir
_symmetry_space_group_name_H-M   'P 1'
_cell_length_a   4.33370109
_cell_length_b   4.33370016
_cell_length_c   10.54248700
_cell_angle_alpha   101.92456325
_cell_angle_beta   101.92456066
_cell_angle_gamma   89.93100383
_symmetry_Int_Tables_number   1
_chemical_formula_structural   Pr2Al4Ge2Ir
_chemical_formula_sum   'Pr2 Al4 Ge2 Ir1'
_cell_volume   189.36674777
_cell_formula_units_Z   1
loop_
 _symmetry_equiv_pos_site_id
 _symmetry_equiv_pos_as_xyz
  1  'x, y, z'
loop_
 _atom_site_type_symbol
 _atom_site_label
 _atom_site_symmetry_multiplicity
 _atom_site_fract_x
 _atom_site_fract_y
 _atom_site_fract_z
 _atom_site_occupancy
  Pr  Pr0  1  0.181990  0.181990  0.364228  1
  Pr  Pr1  1  0.818011  0.818011  0.635772  1
  Al  Al2  1  0.566223  0.065883  0.132525  1
  Al  Al3  1  0.065883  0.566223  0.132525  1
  Al  Al4  1  0.934117  0.433777  0.867475  1
  Al  Al5  1  0.433777  0.934117  0.867475  1
  Ge  Ge6  1  0.660811  0.660811  0.320862  1
  Ge  Ge7  1  0.339192  0.339192  0.679140  1
  Ir  Ir8  1  0.000000  0.000000  0.000000  1
