# generated using pymatgen
data_NaMn2Cl9
_symmetry_space_group_name_H-M   'P 1'
_cell_length_a   7.24001161
_cell_length_b   6.97677594
_cell_length_c   17.00127108
_cell_angle_alpha   90.81279446
_cell_angle_beta   91.48694956
_cell_angle_gamma   120.98523979
_symmetry_Int_Tables_number   1
_chemical_formula_structural   NaMn2Cl9
_chemical_formula_sum   'Na2 Mn4 Cl18'
_cell_volume   735.59290895
_cell_formula_units_Z   2
loop_
 _symmetry_equiv_pos_site_id
 _symmetry_equiv_pos_as_xyz
  1  'x, y, z'
loop_
 _atom_site_type_symbol
 _atom_site_label
 _atom_site_symmetry_multiplicity
 _atom_site_fract_x
 _atom_site_fract_y
 _atom_site_fract_z
 _atom_site_occupancy
  Na  Na0  1  0.942517  0.255935  0.531214  1
  Na  Na1  1  0.193897  0.734463  0.026980  1
  Mn  Mn2  1  0.841789  0.019084  0.168071  1
  Mn  Mn3  1  0.671558  0.025147  0.334487  1
  Mn  Mn4  1  0.322204  0.983443  0.669325  1
  Mn  Mn5  1  0.147204  0.972452  0.836318  1
  Cl  Cl6  1  0.958946  0.121927  0.864213  1
  Cl  Cl7  1  0.768580  0.343280  0.399105  1
  Cl  Cl8  1  0.674791  0.154520  0.655571  1
  Cl  Cl9  1  0.635864  0.170219  0.212373  1
  Cl  Cl10  1  0.965851  0.825607  0.711064  1
  Cl  Cl11  1  0.749633  0.875030  0.434234  1
  Cl  Cl12  1  0.608683  0.726951  0.248733  1
  Cl  Cl13  1  0.627709  0.853908  0.062520  1
  Cl  Cl14  1  0.374027  0.123408  0.939168  1
  Cl  Cl15  1  0.375295  0.273257  0.756983  1
  Cl  Cl16  1  0.264703  0.144367  0.567973  1
  Cl  Cl17  1  0.028813  0.177979  0.288335  1
  Cl  Cl18  1  0.357109  0.826722  0.785581  1
  Cl  Cl19  1  0.068073  0.322826  0.105429  1
  Cl  Cl20  1  0.333912  0.870956  0.358042  1
  Cl  Cl21  1  0.252841  0.682946  0.599141  1
  Cl  Cl22  1  0.031277  0.855018  0.151287  1
  Cl  Cl23  1  0.932549  0.652726  0.893465  1
