# generated using pymatgen
data_Dy3Lu5Ti5Si16Mo7
_symmetry_space_group_name_H-M   'P 1'
_cell_length_a   6.89640722
_cell_length_b   6.90392856
_cell_length_c   12.75546111
_cell_angle_alpha   90.01328418
_cell_angle_beta   90.06870277
_cell_angle_gamma   89.99633880
_symmetry_Int_Tables_number   1
_chemical_formula_structural   Dy3Lu5Ti5Si16Mo7
_chemical_formula_sum   'Dy3 Lu5 Ti5 Si16 Mo7'
_cell_volume   607.31642161
_cell_formula_units_Z   1
loop_
 _symmetry_equiv_pos_site_id
 _symmetry_equiv_pos_as_xyz
  1  'x, y, z'
loop_
 _atom_site_type_symbol
 _atom_site_label
 _atom_site_symmetry_multiplicity
 _atom_site_fract_x
 _atom_site_fract_y
 _atom_site_fract_z
 _atom_site_occupancy
  Dy  Dy0  1  0.502625  0.159772  0.218178  1
  Dy  Dy1  1  0.496569  0.840508  0.717680  1
  Dy  Dy2  1  0.339351  0.002032  0.468648  1
  Lu  Lu3  1  0.999480  0.659635  0.032046  1
  Lu  Lu4  1  0.001806  0.340487  0.530669  1
  Lu  Lu5  1  0.659014  0.998855  0.969213  1
  Lu  Lu6  1  0.159658  0.501568  0.782026  1
  Lu  Lu7  1  0.839540  0.497978  0.280325  1
  Ti  Ti8  1  0.670924  0.668607  0.500137  1
  Ti  Ti9  1  0.833303  0.170167  0.749936  1
  Ti  Ti10  1  0.168866  0.829381  0.249087  1
  Ti  Ti11  1  0.328782  0.329131  0.000309  1
  Ti  Ti12  1  0.659085  0.495673  0.876345  1
  Si  Si13  1  0.040066  0.707197  0.436672  1
  Si  Si14  1  0.957595  0.292185  0.937551  1
  Si  Si15  1  0.712562  0.041067  0.562840  1
  Si  Si16  1  0.206943  0.459591  0.186763  1
  Si  Si17  1  0.792994  0.542486  0.687623  1
  Si  Si18  1  0.457924  0.211296  0.814227  1
  Si  Si19  1  0.541204  0.787679  0.312623  1
  Si  Si20  1  0.289603  0.958302  0.062147  1
  Si  Si21  1  0.798407  0.868326  0.182083  1
  Si  Si22  1  0.297488  0.625316  0.567335  1
  Si  Si23  1  0.702272  0.372418  0.066372  1
  Si  Si24  1  0.632024  0.299481  0.432996  1
  Si  Si25  1  0.368787  0.702916  0.932827  1
  Si  Si26  1  0.127254  0.201493  0.316806  1
  Si  Si27  1  0.200239  0.133688  0.683355  1
  Si  Si28  1  0.870879  0.799727  0.817700  1
  Mo  Mo29  1  0.340122  0.504566  0.376620  1
  Mo  Mo30  1  0.842277  0.991710  0.373897  1
  Mo  Mo31  1  0.006478  0.157204  0.127245  1
  Mo  Mo32  1  0.996721  0.841645  0.625474  1
  Mo  Mo33  1  0.509950  0.340520  0.623802  1
  Mo  Mo34  1  0.157455  0.007884  0.873860  1
  Mo  Mo35  1  0.491753  0.659507  0.124582  1
