# generated using pymatgen
data_CrCo6TcMo5
_symmetry_space_group_name_H-M   'P 1'
_cell_length_a   9.00032541
_cell_length_b   9.00032520
_cell_length_c   9.00032718
_cell_angle_alpha   30.50566730
_cell_angle_beta   30.50567287
_cell_angle_gamma   30.50567166
_symmetry_Int_Tables_number   1
_chemical_formula_structural   CrCo6TcMo5
_chemical_formula_sum   'Cr1 Co6 Tc1 Mo5'
_cell_volume   166.53799709
_cell_formula_units_Z   1
loop_
 _symmetry_equiv_pos_site_id
 _symmetry_equiv_pos_as_xyz
  1  'x, y, z'
loop_
 _atom_site_type_symbol
 _atom_site_label
 _atom_site_symmetry_multiplicity
 _atom_site_fract_x
 _atom_site_fract_y
 _atom_site_fract_z
 _atom_site_occupancy
  Cr  Cr0  1  0.000069  0.000069  0.000069  1
  Co  Co1  1  0.090837  0.090837  0.588723  1
  Co  Co2  1  0.412375  0.908509  0.908509  1
  Co  Co3  1  0.588723  0.090837  0.090837  1
  Co  Co4  1  0.908509  0.908509  0.412375  1
  Co  Co5  1  0.908509  0.412375  0.908509  1
  Co  Co6  1  0.090837  0.588723  0.090837  1
  Tc  Tc7  1  0.836750  0.836750  0.836750  1
  Mo  Mo8  1  0.652272  0.652272  0.652272  1
  Mo  Mo9  1  0.450843  0.450843  0.450843  1
  Mo  Mo10  1  0.548996  0.548996  0.548996  1
  Mo  Mo11  1  0.163632  0.163632  0.163632  1
  Mo  Mo12  1  0.347649  0.347649  0.347649  1
