# generated using pymatgen
data_NaHoErGa8Ag3
_symmetry_space_group_name_H-M   'P 1'
_cell_length_a   4.35220622
_cell_length_b   8.36347176
_cell_length_c   8.36347192
_cell_angle_alpha   70.76392334
_cell_angle_beta   74.91857898
_cell_angle_gamma   74.91858167
_symmetry_Int_Tables_number   1
_chemical_formula_structural   NaHoErGa8Ag3
_chemical_formula_sum   'Na1 Ho1 Er1 Ga8 Ag3'
_cell_volume   272.40060536
_cell_formula_units_Z   1
loop_
 _symmetry_equiv_pos_site_id
 _symmetry_equiv_pos_as_xyz
  1  'x, y, z'
loop_
 _atom_site_type_symbol
 _atom_site_label
 _atom_site_symmetry_multiplicity
 _atom_site_fract_x
 _atom_site_fract_y
 _atom_site_fract_z
 _atom_site_occupancy
  Na  Na0  1  0.499968  0.500032  0.500032  1
  Ho  Ho1  1  0.794967  0.205033  0.205033  1
  Er  Er2  1  0.204809  0.795191  0.795191  1
  Ga  Ga3  1  0.357182  0.361989  0.923645  1
  Ga  Ga4  1  0.642901  0.638395  0.075804  1
  Ga  Ga5  1  0.357182  0.923645  0.361989  1
  Ga  Ga6  1  0.642901  0.075804  0.638395  1
  Ga  Ga7  1  0.160444  0.472934  0.206178  1
  Ga  Ga8  1  0.839262  0.527657  0.793819  1
  Ga  Ga9  1  0.160444  0.206178  0.472934  1
  Ga  Ga10  1  0.839262  0.793819  0.527657  1
  Ag  Ag11  1  0.500227  0.999773  0.999773  1
  Ag  Ag12  1  0.000226  0.810471  0.189078  1
  Ag  Ag13  1  0.000226  0.189078  0.810471  1
