# generated using pymatgen
data_Lu3AuO7
_symmetry_space_group_name_H-M   'P 1'
_cell_length_a   6.36927849
_cell_length_b   6.36927947
_cell_length_c   7.28203500
_cell_angle_alpha   90.00000000
_cell_angle_beta   90.00000000
_cell_angle_gamma   108.64099005
_symmetry_Int_Tables_number   1
_chemical_formula_structural   Lu3AuO7
_chemical_formula_sum   'Lu6 Au2 O14'
_cell_volume   279.91801487
_cell_formula_units_Z   2
loop_
 _symmetry_equiv_pos_site_id
 _symmetry_equiv_pos_as_xyz
  1  'x, y, z'
loop_
 _atom_site_type_symbol
 _atom_site_label
 _atom_site_symmetry_multiplicity
 _atom_site_fract_x
 _atom_site_fract_y
 _atom_site_fract_z
 _atom_site_occupancy
  Lu  Lu0  1  0.528480  0.998087  0.750911  1
  Lu  Lu1  1  0.471520  0.001913  0.250911  1
  Lu  Lu2  1  0.001913  0.471520  0.749089  1
  Lu  Lu3  1  0.998087  0.528480  0.249089  1
  Lu  Lu4  1  0.496928  0.496928  0.000000  1
  Lu  Lu5  1  0.503072  0.503072  0.500000  1
  Au  Au6  1  0.000024  0.000024  0.000000  1
  Au  Au7  1  0.999976  0.999976  0.500000  1
  O  O8  1  0.639474  0.360526  0.750000  1
  O  O9  1  0.360526  0.639474  0.250000  1
  O  O10  1  0.915023  0.084977  0.750000  1
  O  O11  1  0.084977  0.915023  0.250000  1
  O  O12  1  0.336260  0.086232  0.975844  1
  O  O13  1  0.663740  0.913768  0.475844  1
  O  O14  1  0.913768  0.663740  0.524156  1
  O  O15  1  0.086232  0.336260  0.024156  1
  O  O16  1  0.366726  0.633274  0.750000  1
  O  O17  1  0.633274  0.366726  0.250000  1
  O  O18  1  0.334761  0.084171  0.525627  1
  O  O19  1  0.665239  0.915829  0.025627  1
  O  O20  1  0.915829  0.665239  0.974373  1
  O  O21  1  0.084171  0.334761  0.474373  1
