# generated using pymatgen
data_Nd2I25
_symmetry_space_group_name_H-M   'P 1'
_cell_length_a   18.31409909
_cell_length_b   11.70412303
_cell_length_c   19.46849383
_cell_angle_alpha   83.25221886
_cell_angle_beta   154.58158926
_cell_angle_gamma   99.68586287
_symmetry_Int_Tables_number   1
_chemical_formula_structural   Nd2I25
_chemical_formula_sum   'Nd2 I25'
_cell_volume   1759.79273450
_cell_formula_units_Z   1
loop_
 _symmetry_equiv_pos_site_id
 _symmetry_equiv_pos_as_xyz
  1  'x, y, z'
loop_
 _atom_site_type_symbol
 _atom_site_label
 _atom_site_symmetry_multiplicity
 _atom_site_fract_x
 _atom_site_fract_y
 _atom_site_fract_z
 _atom_site_occupancy
  Nd  Nd0  1  0.759774  0.417466  0.229978  1
  Nd  Nd1  1  0.240226  0.582534  0.770022  1
  I  I2  1  0.812106  0.839749  0.097470  1
  I  I3  1  0.000000  0.500000  0.000000  1
  I  I4  1  0.859386  0.714067  0.622320  1
  I  I5  1  0.593933  0.150789  0.677630  1
  I  I6  1  0.406067  0.849211  0.322370  1
  I  I7  1  0.140614  0.285933  0.377680  1
  I  I8  1  0.187894  0.160251  0.902530  1
  I  I9  1  0.808746  0.179254  0.220604  1
  I  I10  1  0.988150  0.664023  0.433472  1
  I  I11  1  0.929948  0.512838  0.622616  1
  I  I12  1  0.961049  0.251157  0.954098  1
  I  I13  1  0.766250  0.939207  0.597270  1
  I  I14  1  0.478326  0.825226  0.917804  1
  I  I15  1  0.599759  0.557733  0.528235  1
  I  I16  1  0.706372  0.984278  0.894491  1
  I  I17  1  0.503915  0.521037  0.107929  1
  I  I18  1  0.496085  0.478963  0.892071  1
  I  I19  1  0.293628  0.015722  0.105509  1
  I  I20  1  0.400241  0.442267  0.471765  1
  I  I21  1  0.521674  0.174774  0.082196  1
  I  I22  1  0.233750  0.060793  0.402730  1
  I  I23  1  0.038951  0.748843  0.045902  1
  I  I24  1  0.070052  0.487162  0.377384  1
  I  I25  1  0.011850  0.335977  0.566528  1
  I  I26  1  0.191254  0.820746  0.779396  1
