# generated using pymatgen
data_La4Pr7Nd5MgCd3Ir4
_symmetry_space_group_name_H-M   'P 1'
_cell_length_a   10.04252664
_cell_length_b   10.04252514
_cell_length_c   10.03221800
_cell_angle_alpha   60.03394556
_cell_angle_beta   60.03395049
_cell_angle_gamma   60.05701942
_symmetry_Int_Tables_number   1
_chemical_formula_structural   La4Pr7Nd5MgCd3Ir4
_chemical_formula_sum   'La4 Pr7 Nd5 Mg1 Cd3 Ir4'
_cell_volume   716.10635879
_cell_formula_units_Z   1
loop_
 _symmetry_equiv_pos_site_id
 _symmetry_equiv_pos_as_xyz
  1  'x, y, z'
loop_
 _atom_site_type_symbol
 _atom_site_label
 _atom_site_symmetry_multiplicity
 _atom_site_fract_x
 _atom_site_fract_y
 _atom_site_fract_z
 _atom_site_occupancy
  La  La0  1  0.348653  0.348653  0.348047  1
  La  La1  1  0.347634  0.347634  0.957461  1
  La  La2  1  0.347646  0.956614  0.347683  1
  La  La3  1  0.956614  0.347646  0.347683  1
  Pr  Pr4  1  0.811560  0.811560  0.188861  1
  Pr  Pr5  1  0.939330  0.560308  0.562847  1
  Pr  Pr6  1  0.560334  0.939849  0.938184  1
  Pr  Pr7  1  0.560308  0.939330  0.562847  1
  Pr  Pr8  1  0.939849  0.560334  0.938184  1
  Pr  Pr9  1  0.561891  0.561891  0.938368  1
  Pr  Pr10  1  0.939164  0.939164  0.561020  1
  Nd  Nd11  1  0.810282  0.189712  0.190468  1
  Nd  Nd12  1  0.187915  0.811738  0.811537  1
  Nd  Nd13  1  0.189712  0.810282  0.190468  1
  Nd  Nd14  1  0.811738  0.187915  0.811537  1
  Nd  Nd15  1  0.189168  0.189168  0.810995  1
  Mg  Mg16  1  0.575600  0.575600  0.576489  1
  Cd  Cd17  1  0.581079  0.581079  0.257350  1
  Cd  Cd18  1  0.581249  0.257101  0.581040  1
  Cd  Cd19  1  0.257101  0.581249  0.581040  1
  Ir  Ir20  1  0.142354  0.142354  0.141146  1
  Ir  Ir21  1  0.142382  0.142382  0.574692  1
  Ir  Ir22  1  0.144030  0.574407  0.141025  1
  Ir  Ir23  1  0.574407  0.144030  0.141025  1
