# generated using pymatgen
data_Ca3Tm5(CdIn)4
_symmetry_space_group_name_H-M   'P 1'
_cell_length_a   7.33563469
_cell_length_b   5.37849400
_cell_length_c   10.74312574
_cell_angle_alpha   90.00000000
_cell_angle_beta   89.87103844
_cell_angle_gamma   90.00000000
_symmetry_Int_Tables_number   1
_chemical_formula_structural   Ca3Tm5(CdIn)4
_chemical_formula_sum   'Ca3 Tm5 Cd4 In4'
_cell_volume   423.86537665
_cell_formula_units_Z   1
loop_
 _symmetry_equiv_pos_site_id
 _symmetry_equiv_pos_as_xyz
  1  'x, y, z'
loop_
 _atom_site_type_symbol
 _atom_site_label
 _atom_site_symmetry_multiplicity
 _atom_site_fract_x
 _atom_site_fract_y
 _atom_site_fract_z
 _atom_site_occupancy
  Ca  Ca0  1  0.499519  0.750000  0.629085  1
  Ca  Ca1  1  0.001216  0.250000  0.871735  1
  Ca  Ca2  1  0.499081  0.250000  0.871246  1
  Tm  Tm3  1  0.500429  0.750000  0.127640  1
  Tm  Tm4  1  0.001844  0.750000  0.127600  1
  Tm  Tm5  1  0.501329  0.250000  0.371813  1
  Tm  Tm6  1  0.998105  0.250000  0.371502  1
  Tm  Tm7  1  0.998796  0.750000  0.629261  1
  Cd  Cd8  1  0.750768  0.250000  0.126979  1
  Cd  Cd9  1  0.247899  0.750000  0.376410  1
  Cd  Cd10  1  0.755461  0.250000  0.613015  1
  Cd  Cd11  1  0.246597  0.750000  0.883427  1
  In  In12  1  0.249891  0.250000  0.127552  1
  In  In13  1  0.752206  0.750000  0.376022  1
  In  In14  1  0.243611  0.250000  0.613865  1
  In  In15  1  0.753250  0.750000  0.882851  1
