# generated using pymatgen
data_Ho4B16Ru11Rh5
_symmetry_space_group_name_H-M   'P 1'
_cell_length_a   9.21045925
_cell_length_b   7.49862165
_cell_length_c   7.48900305
_cell_angle_alpha   89.93165831
_cell_angle_beta   113.91677319
_cell_angle_gamma   114.31630747
_symmetry_Int_Tables_number   1
_chemical_formula_structural   Ho4B16Ru11Rh5
_chemical_formula_sum   'Ho4 B16 Ru11 Rh5'
_cell_volume   422.26115589
_cell_formula_units_Z   1
loop_
 _symmetry_equiv_pos_site_id
 _symmetry_equiv_pos_as_xyz
  1  'x, y, z'
loop_
 _atom_site_type_symbol
 _atom_site_label
 _atom_site_symmetry_multiplicity
 _atom_site_fract_x
 _atom_site_fract_y
 _atom_site_fract_z
 _atom_site_occupancy
  Ho  Ho0  1  0.748664  0.874052  0.122720  1
  Ho  Ho1  1  0.252461  0.626804  0.373100  1
  Ho  Ho2  1  0.749608  0.377395  0.624812  1
  Ho  Ho3  1  0.247488  0.123120  0.875796  1
  B  B4  1  0.910775  0.284914  0.067945  1
  B  B5  1  0.412970  0.563984  0.123475  1
  B  B6  1  0.082731  0.211753  0.154193  1
  B  B7  1  0.587528  0.148516  0.210744  1
  B  B8  1  0.415046  0.058452  0.291810  1
  B  B9  1  0.917791  0.624410  0.360464  1
  B  B10  1  0.586580  0.655237  0.375892  1
  B  B11  1  0.086835  0.878639  0.443295  1
  B  B12  1  0.913455  0.125939  0.563828  1
  B  B13  1  0.410705  0.343601  0.626738  1
  B  B14  1  0.086542  0.374464  0.654950  1
  B  B15  1  0.589352  0.938419  0.711573  1
  B  B16  1  0.415240  0.843116  0.782272  1
  B  B17  1  0.912573  0.790467  0.843650  1
  B  B18  1  0.585198  0.431201  0.871175  1
  B  B19  1  0.083937  0.709422  0.928665  1
  Ru  Ru20  1  0.872630  0.324064  0.335320  1
  Ru  Ru21  1  0.626120  0.961788  0.448269  1
  Ru  Ru22  1  0.127082  0.179394  0.461986  1
  Ru  Ru23  1  0.874932  0.825486  0.538887  1
  Ru  Ru24  1  0.371551  0.036655  0.548482  1
  Ru  Ru25  1  0.129123  0.676689  0.666655  1
  Ru  Ru26  1  0.625469  0.666000  0.677350  1
  Ru  Ru27  1  0.372956  0.534266  0.822494  1
  Ru  Ru28  1  0.874404  0.053588  0.834011  1
  Ru  Ru29  1  0.627413  0.167834  0.948619  1
  Ru  Ru30  1  0.127575  0.451380  0.963588  1
  Rh  Rh31  1  0.876185  0.554024  0.039722  1
  Rh  Rh32  1  0.379039  0.839848  0.050108  1
  Rh  Rh33  1  0.120893  0.947113  0.161144  1
  Rh  Rh34  1  0.625152  0.463049  0.176084  1
  Rh  Rh35  1  0.373994  0.334923  0.320175  1
