# generated using pymatgen
data_Ce2Er2In2Ni3Ir
_symmetry_space_group_name_H-M   'P 1'
_cell_length_a   7.49939032
_cell_length_b   7.49939057
_cell_length_c   3.63629600
_cell_angle_alpha   90.00000000
_cell_angle_beta   90.00000000
_cell_angle_gamma   92.58020505
_symmetry_Int_Tables_number   1
_chemical_formula_structural   Ce2Er2In2Ni3Ir
_chemical_formula_sum   'Ce2 Er2 In2 Ni3 Ir1'
_cell_volume   204.30106945
_cell_formula_units_Z   1
loop_
 _symmetry_equiv_pos_site_id
 _symmetry_equiv_pos_as_xyz
  1  'x, y, z'
loop_
 _atom_site_type_symbol
 _atom_site_label
 _atom_site_symmetry_multiplicity
 _atom_site_fract_x
 _atom_site_fract_y
 _atom_site_fract_z
 _atom_site_occupancy
  Ce  Ce0  1  0.674078  0.174078  0.500000  1
  Ce  Ce1  1  0.326585  0.826585  0.500000  1
  Er  Er2  1  0.171197  0.326679  0.500000  1
  Er  Er3  1  0.826679  0.671197  0.500000  1
  In  In4  1  0.001188  0.995163  0.000000  1
  In  In5  1  0.495163  0.501188  0.000000  1
  Ni  Ni6  1  0.617629  0.879826  0.000000  1
  Ni  Ni7  1  0.133054  0.633054  0.000000  1
  Ni  Ni8  1  0.379826  0.117629  0.000000  1
  Ir  Ir9  1  0.874601  0.374601  0.000000  1
