# generated using pymatgen
data_LiTbCeSi4Pd
_symmetry_space_group_name_H-M   'P 1'
_cell_length_a   3.89877500
_cell_length_b   7.34067060
_cell_length_c   10.21785888
_cell_angle_alpha   90.14188251
_cell_angle_beta   90.00000000
_cell_angle_gamma   90.00000000
_symmetry_Int_Tables_number   1
_chemical_formula_structural   LiTbCeSi4Pd
_chemical_formula_sum   'Li2 Tb2 Ce2 Si8 Pd2'
_cell_volume   292.43037229
_cell_formula_units_Z   2
loop_
 _symmetry_equiv_pos_site_id
 _symmetry_equiv_pos_as_xyz
  1  'x, y, z'
loop_
 _atom_site_type_symbol
 _atom_site_label
 _atom_site_symmetry_multiplicity
 _atom_site_fract_x
 _atom_site_fract_y
 _atom_site_fract_z
 _atom_site_occupancy
  Li  Li0  1  0.750000  0.003842  0.605690  1
  Li  Li1  1  0.750000  0.502932  0.896459  1
  Tb  Tb2  1  0.250000  0.143424  0.872909  1
  Tb  Tb3  1  0.750000  0.861851  0.131065  1
  Ce  Ce4  1  0.250000  0.646415  0.629540  1
  Ce  Ce5  1  0.750000  0.362553  0.368057  1
  Si  Si6  1  0.250000  0.221249  0.572117  1
  Si  Si7  1  0.250000  0.725487  0.929353  1
  Si  Si8  1  0.750000  0.774410  0.425335  1
  Si  Si9  1  0.750000  0.272102  0.073382  1
  Si  Si10  1  0.250000  0.660191  0.315345  1
  Si  Si11  1  0.250000  0.161203  0.183504  1
  Si  Si12  1  0.750000  0.336978  0.681005  1
  Si  Si13  1  0.750000  0.837499  0.820446  1
  Pd  Pd14  1  0.250000  0.993377  0.390256  1
  Pd  Pd15  1  0.250000  0.496485  0.105537  1
