# generated using pymatgen
data_Yb5Ge2Pb
_symmetry_space_group_name_H-M   'P 1'
_cell_length_a   7.78477934
_cell_length_b   7.78478034
_cell_length_c   9.37379151
_cell_angle_alpha   114.53454451
_cell_angle_beta   114.53455208
_cell_angle_gamma   90.00000192
_symmetry_Int_Tables_number   1
_chemical_formula_structural   Yb5Ge2Pb
_chemical_formula_sum   'Yb10 Ge4 Pb2'
_cell_volume   459.80934997
_cell_formula_units_Z   2
loop_
 _symmetry_equiv_pos_site_id
 _symmetry_equiv_pos_as_xyz
  1  'x, y, z'
loop_
 _atom_site_type_symbol
 _atom_site_label
 _atom_site_symmetry_multiplicity
 _atom_site_fract_x
 _atom_site_fract_y
 _atom_site_fract_z
 _atom_site_occupancy
  Yb  Yb0  1  0.500000  0.500000  0.000000  1
  Yb  Yb1  1  0.000000  0.000000  0.000000  1
  Yb  Yb2  1  0.959997  0.809900  0.269897  1
  Yb  Yb3  1  0.309900  0.459997  0.269897  1
  Yb  Yb4  1  0.809900  0.309900  0.269897  1
  Yb  Yb5  1  0.459997  0.959997  0.269897  1
  Yb  Yb6  1  0.040003  0.190100  0.730103  1
  Yb  Yb7  1  0.690100  0.540003  0.730103  1
  Yb  Yb8  1  0.190100  0.690100  0.730103  1
  Yb  Yb9  1  0.540003  0.040003  0.730103  1
  Ge  Ge10  1  0.619721  0.880279  0.000000  1
  Ge  Ge11  1  0.380279  0.119721  0.000000  1
  Ge  Ge12  1  0.880279  0.380279  0.000000  1
  Ge  Ge13  1  0.119721  0.619721  0.000000  1
  Pb  Pb14  1  0.750000  0.750000  0.500000  1
  Pb  Pb15  1  0.250000  0.250000  0.500000  1
