# generated using pymatgen
data_Dy3TmGa12Ru
_symmetry_space_group_name_H-M   'P 1'
_cell_length_a   7.45259768
_cell_length_b   7.45259705
_cell_length_c   7.45259691
_cell_angle_alpha   109.37387165
_cell_angle_beta   109.37386767
_cell_angle_gamma   109.37386569
_symmetry_Int_Tables_number   1
_chemical_formula_structural   Dy3TmGa12Ru
_chemical_formula_sum   'Dy3 Tm1 Ga12 Ru1'
_cell_volume   319.78390491
_cell_formula_units_Z   1
loop_
 _symmetry_equiv_pos_site_id
 _symmetry_equiv_pos_as_xyz
  1  'x, y, z'
loop_
 _atom_site_type_symbol
 _atom_site_label
 _atom_site_symmetry_multiplicity
 _atom_site_fract_x
 _atom_site_fract_y
 _atom_site_fract_z
 _atom_site_occupancy
  Dy  Dy0  1  0.000000  0.000000  0.500000  1
  Dy  Dy1  1  0.000000  0.500000  0.000000  1
  Dy  Dy2  1  0.500000  0.000000  0.000000  1
  Tm  Tm3  1  0.500000  0.500000  0.500000  1
  Ga  Ga4  1  0.749044  0.250956  0.500000  1
  Ga  Ga5  1  0.749044  0.500000  0.250956  1
  Ga  Ga6  1  0.500000  0.250956  0.749044  1
  Ga  Ga7  1  0.250956  0.500000  0.749044  1
  Ga  Ga8  1  0.250956  0.749044  0.500000  1
  Ga  Ga9  1  0.500000  0.749044  0.250956  1
  Ga  Ga10  1  0.709728  0.709728  0.998542  1
  Ga  Ga11  1  0.290272  0.001458  0.290272  1
  Ga  Ga12  1  0.001458  0.290272  0.290272  1
  Ga  Ga13  1  0.290272  0.290272  0.001458  1
  Ga  Ga14  1  0.709728  0.998542  0.709728  1
  Ga  Ga15  1  0.998542  0.709728  0.709728  1
  Ru  Ru16  1  0.000000  0.000000  0.000000  1
