# generated using pymatgen
data_Er2Ti3Si7Pt9
_symmetry_space_group_name_H-M   'P 1'
_cell_length_a   9.91366800
_cell_length_b   9.91366858
_cell_length_c   3.93832100
_cell_angle_alpha   90.00000000
_cell_angle_beta   90.00000000
_cell_angle_gamma   119.99999807
_symmetry_Int_Tables_number   1
_chemical_formula_structural   Er2Ti3Si7Pt9
_chemical_formula_sum   'Er2 Ti3 Si7 Pt9'
_cell_volume   335.20502312
_cell_formula_units_Z   1
loop_
 _symmetry_equiv_pos_site_id
 _symmetry_equiv_pos_as_xyz
  1  'x, y, z'
loop_
 _atom_site_type_symbol
 _atom_site_label
 _atom_site_symmetry_multiplicity
 _atom_site_fract_x
 _atom_site_fract_y
 _atom_site_fract_z
 _atom_site_occupancy
  Er  Er0  1  0.000000  0.000000  0.000000  1
  Er  Er1  1  0.333333  0.666667  0.500000  1
  Ti  Ti2  1  0.885749  0.454068  0.500000  1
  Ti  Ti3  1  0.568320  0.114251  0.500000  1
  Ti  Ti4  1  0.545932  0.431680  0.500000  1
  Si  Si5  1  0.254182  0.207393  0.500000  1
  Si  Si6  1  0.792607  0.046791  0.500000  1
  Si  Si7  1  0.953209  0.745818  0.500000  1
  Si  Si8  1  0.553945  0.638042  0.000000  1
  Si  Si9  1  0.361958  0.915903  0.000000  1
  Si  Si10  1  0.084097  0.446055  0.000000  1
  Si  Si11  1  0.666667  0.333333  0.000000  1
  Pt  Pt12  1  0.222565  0.941343  0.500000  1
  Pt  Pt13  1  0.058657  0.281224  0.500000  1
  Pt  Pt14  1  0.718776  0.777435  0.500000  1
  Pt  Pt15  1  0.308405  0.409911  0.000000  1
  Pt  Pt16  1  0.590089  0.898493  0.000000  1
  Pt  Pt17  1  0.101507  0.691595  0.000000  1
  Pt  Pt18  1  0.388858  0.174776  0.000000  1
  Pt  Pt19  1  0.825224  0.214083  0.000000  1
  Pt  Pt20  1  0.785917  0.611142  0.000000  1
