# generated using pymatgen
data_LaPr(ZnCu)5
_symmetry_space_group_name_H-M   'P 1'
_cell_length_a   4.23049500
_cell_length_b   5.27938817
_cell_length_c   9.22418659
_cell_angle_alpha   90.63518373
_cell_angle_beta   90.00000000
_cell_angle_gamma   90.00000000
_symmetry_Int_Tables_number   1
_chemical_formula_structural   LaPr(ZnCu)5
_chemical_formula_sum   'La1 Pr1 Zn5 Cu5'
_cell_volume   206.00424635
_cell_formula_units_Z   1
loop_
 _symmetry_equiv_pos_site_id
 _symmetry_equiv_pos_as_xyz
  1  'x, y, z'
loop_
 _atom_site_type_symbol
 _atom_site_label
 _atom_site_symmetry_multiplicity
 _atom_site_fract_x
 _atom_site_fract_y
 _atom_site_fract_z
 _atom_site_occupancy
  La  La0  1  0.000000  0.997957  0.999305  1
  Pr  Pr1  1  0.000000  0.501881  0.500182  1
  Zn  Zn2  1  0.500000  0.007853  0.503759  1
  Zn  Zn3  1  0.500000  0.493209  0.996693  1
  Zn  Zn4  1  0.500000  0.251792  0.252798  1
  Zn  Zn5  1  0.500000  0.746590  0.746500  1
  Zn  Zn6  1  0.500000  0.747627  0.253044  1
  Cu  Cu7  1  0.000000  0.998911  0.333578  1
  Cu  Cu8  1  0.000000  0.494535  0.830659  1
  Cu  Cu9  1  0.000000  0.499724  0.166934  1
  Cu  Cu10  1  0.000000  0.007124  0.668585  1
  Cu  Cu11  1  0.500000  0.252598  0.747961  1
