# generated using pymatgen
data_Be8AlFe2Si
_symmetry_space_group_name_H-M   'P 1'
_cell_length_a   4.19602800
_cell_length_b   4.19602764
_cell_length_c   6.76830400
_cell_angle_alpha   90.00000000
_cell_angle_beta   90.00000000
_cell_angle_gamma   119.99998710
_symmetry_Int_Tables_number   1
_chemical_formula_structural   Be8AlFe2Si
_chemical_formula_sum   'Be8 Al1 Fe2 Si1'
_cell_volume   103.20179771
_cell_formula_units_Z   1
loop_
 _symmetry_equiv_pos_site_id
 _symmetry_equiv_pos_as_xyz
  1  'x, y, z'
loop_
 _atom_site_type_symbol
 _atom_site_label
 _atom_site_symmetry_multiplicity
 _atom_site_fract_x
 _atom_site_fract_y
 _atom_site_fract_z
 _atom_site_occupancy
  Be  Be0  1  0.000000  0.000000  0.990815  1
  Be  Be1  1  0.000000  0.000000  0.493172  1
  Be  Be2  1  0.830898  0.661797  0.250556  1
  Be  Be3  1  0.169119  0.830881  0.748886  1
  Be  Be4  1  0.661762  0.830881  0.748886  1
  Be  Be5  1  0.338203  0.169102  0.250556  1
  Be  Be6  1  0.830898  0.169102  0.250556  1
  Be  Be7  1  0.169119  0.338238  0.748886  1
  Al  Al8  1  0.333333  0.666667  0.063792  1
  Fe  Fe9  1  0.666667  0.333333  0.937468  1
  Fe  Fe10  1  0.333333  0.666667  0.450352  1
  Si  Si11  1  0.666667  0.333333  0.566076  1
