# generated using pymatgen
data_PrCr4Bi3F28
_symmetry_space_group_name_H-M   'P 1'
_cell_length_a   5.61297518
_cell_length_b   9.03069671
_cell_length_c   11.92291400
_cell_angle_alpha   62.32995992
_cell_angle_beta   90.05046706
_cell_angle_gamma   89.83311163
_symmetry_Int_Tables_number   1
_chemical_formula_structural   PrCr4Bi3F28
_chemical_formula_sum   'Pr1 Cr4 Bi3 F28'
_cell_volume   535.24067278
_cell_formula_units_Z   1
loop_
 _symmetry_equiv_pos_site_id
 _symmetry_equiv_pos_as_xyz
  1  'x, y, z'
loop_
 _atom_site_type_symbol
 _atom_site_label
 _atom_site_symmetry_multiplicity
 _atom_site_fract_x
 _atom_site_fract_y
 _atom_site_fract_z
 _atom_site_occupancy
  Pr  Pr0  1  0.733207  0.806900  0.263969  1
  Cr  Cr1  1  0.759698  0.275302  0.956521  1
  Cr  Cr2  1  0.257719  0.724718  0.544051  1
  Cr  Cr3  1  0.242956  0.725372  0.040872  1
  Cr  Cr4  1  0.742533  0.273141  0.458501  1
  Bi  Bi5  1  0.776431  0.813038  0.761659  1
  Bi  Bi6  1  0.275491  0.186509  0.738805  1
  Bi  Bi7  1  0.224444  0.185475  0.237625  1
  F  F8  1  0.424695  0.709335  0.920594  1
  F  F9  1  0.925888  0.289268  0.579017  1
  F  F10  1  0.575963  0.292136  0.076283  1
  F  F11  1  0.070213  0.711208  0.421924  1
  F  F12  1  0.457911  0.281259  0.544565  1
  F  F13  1  0.955763  0.719641  0.955656  1
  F  F14  1  0.538303  0.715794  0.459065  1
  F  F15  1  0.045331  0.281534  0.042624  1
  F  F16  1  0.769936  0.503539  0.862877  1
  F  F17  1  0.263431  0.496801  0.636443  1
  F  F18  1  0.228621  0.499180  0.135091  1
  F  F19  1  0.733635  0.503085  0.365298  1
  F  F20  1  0.759093  0.044846  0.046924  1
  F  F21  1  0.257678  0.955906  0.453317  1
  F  F22  1  0.241116  0.957438  0.951501  1
  F  F23  1  0.741766  0.041966  0.548376  1
  F  F24  1  0.978359  0.729810  0.632248  1
  F  F25  1  0.481213  0.271895  0.866230  1
  F  F26  1  0.020227  0.269951  0.369699  1
  F  F27  1  0.518724  0.728373  0.130475  1
  F  F28  1  0.058138  0.745601  0.162908  1
  F  F29  1  0.559426  0.257219  0.336420  1
  F  F30  1  0.943292  0.256294  0.834625  1
  F  F31  1  0.440595  0.742926  0.665647  1
  F  F32  1  0.388368  0.971841  0.222795  1
  F  F33  1  0.899322  0.034291  0.276355  1
  F  F34  1  0.605347  0.029503  0.778136  1
  F  F35  1  0.105167  0.968904  0.722905  1
