# generated using pymatgen
data_Hf3Ta3FeAs2
_symmetry_space_group_name_H-M   'P 1'
_cell_length_a   7.24022475
_cell_length_b   3.50539800
_cell_length_c   7.24021500
_cell_angle_alpha   90.00000000
_cell_angle_beta   120.00003258
_cell_angle_gamma   90.00000000
_symmetry_Int_Tables_number   1
_chemical_formula_structural   Hf3Ta3FeAs2
_chemical_formula_sum   'Hf3 Ta3 Fe1 As2'
_cell_volume   159.13706132
_cell_formula_units_Z   1
loop_
 _symmetry_equiv_pos_site_id
 _symmetry_equiv_pos_as_xyz
  1  'x, y, z'
loop_
 _atom_site_type_symbol
 _atom_site_label
 _atom_site_symmetry_multiplicity
 _atom_site_fract_x
 _atom_site_fract_y
 _atom_site_fract_z
 _atom_site_occupancy
  Hf  Hf0  1  0.588810  0.000000  0.000000  1
  Hf  Hf1  1  0.411200  0.000000  0.411194  1
  Hf  Hf2  1  0.000006  0.000000  0.588806  1
  Ta  Ta3  1  0.245840  0.500000  0.000000  1
  Ta  Ta4  1  0.000005  0.500000  0.245836  1
  Ta  Ta5  1  0.754167  0.500000  0.754162  1
  Fe  Fe6  1  0.000006  0.000000  0.000000  1
  As  As7  1  0.666672  0.500000  0.333333  1
  As  As8  1  0.333338  0.500000  0.666667  1
