# generated using pymatgen
data_Hf3(GaCu2)2
_symmetry_space_group_name_H-M   'P 1'
_cell_length_a   6.46632400
_cell_length_b   6.46632276
_cell_length_c   3.96055900
_cell_angle_alpha   90.00000000
_cell_angle_beta   90.00000000
_cell_angle_gamma   119.99999611
_symmetry_Int_Tables_number   1
_chemical_formula_structural   Hf3(GaCu2)2
_chemical_formula_sum   'Hf3 Ga2 Cu4'
_cell_volume   143.41744320
_cell_formula_units_Z   1
loop_
 _symmetry_equiv_pos_site_id
 _symmetry_equiv_pos_as_xyz
  1  'x, y, z'
loop_
 _atom_site_type_symbol
 _atom_site_label
 _atom_site_symmetry_multiplicity
 _atom_site_fract_x
 _atom_site_fract_y
 _atom_site_fract_z
 _atom_site_occupancy
  Hf  Hf0  1  0.000000  0.591991  0.500000  1
  Hf  Hf1  1  0.408009  0.408009  0.500000  1
  Hf  Hf2  1  0.591991  0.000000  0.500000  1
  Ga  Ga3  1  0.666667  0.333333  0.000000  1
  Ga  Ga4  1  0.333333  0.666667  0.000000  1
  Cu  Cu5  1  0.000000  0.000000  0.500000  1
  Cu  Cu6  1  0.238841  0.000000  0.000000  1
  Cu  Cu7  1  0.761159  0.761159  0.000000  1
  Cu  Cu8  1  0.000000  0.238841  0.000000  1
