# generated using pymatgen
data_Pr16Er3TmGa12
_symmetry_space_group_name_H-M   'P 1'
_cell_length_a   7.84034800
_cell_length_b   7.84034800
_cell_length_c   14.72786400
_cell_angle_alpha   90.00000000
_cell_angle_beta   90.00000000
_cell_angle_gamma   90.00000000
_symmetry_Int_Tables_number   1
_chemical_formula_structural   Pr16Er3TmGa12
_chemical_formula_sum   'Pr16 Er3 Tm1 Ga12'
_cell_volume   905.33736391
_cell_formula_units_Z   1
loop_
 _symmetry_equiv_pos_site_id
 _symmetry_equiv_pos_as_xyz
  1  'x, y, z'
loop_
 _atom_site_type_symbol
 _atom_site_label
 _atom_site_symmetry_multiplicity
 _atom_site_fract_x
 _atom_site_fract_y
 _atom_site_fract_z
 _atom_site_occupancy
  Pr  Pr0  1  0.815558  0.839559  0.603801  1
  Pr  Pr1  1  0.184433  0.839534  0.103783  1
  Pr  Pr2  1  0.160454  0.815568  0.396214  1
  Pr  Pr3  1  0.839546  0.184432  0.396214  1
  Pr  Pr4  1  0.684432  0.660454  0.396214  1
  Pr  Pr5  1  0.660441  0.315558  0.603801  1
  Pr  Pr6  1  0.339559  0.684442  0.603801  1
  Pr  Pr7  1  0.660466  0.684433  0.103783  1
  Pr  Pr8  1  0.684351  0.339435  0.896207  1
  Pr  Pr9  1  0.839435  0.815649  0.896207  1
  Pr  Pr10  1  0.315568  0.339546  0.396214  1
  Pr  Pr11  1  0.184442  0.160441  0.603801  1
  Pr  Pr12  1  0.815567  0.160466  0.103783  1
  Pr  Pr13  1  0.315649  0.660565  0.896207  1
  Pr  Pr14  1  0.339534  0.315567  0.103783  1
  Pr  Pr15  1  0.160565  0.184351  0.896207  1
  Er  Er16  1  0.000000  0.500000  0.722884  1
  Er  Er17  1  0.000000  0.500000  0.222836  1
  Er  Er18  1  0.500000  0.000000  0.277136  1
  Tm  Tm19  1  0.500000  0.000000  0.777003  1
  Ga  Ga20  1  0.621652  0.378347  0.250003  1
  Ga  Ga21  1  0.121807  0.878394  0.750044  1
  Ga  Ga22  1  0.378394  0.378193  0.750044  1
  Ga  Ga23  1  0.378348  0.621653  0.250003  1
  Ga  Ga24  1  0.878347  0.878348  0.250003  1
  Ga  Ga25  1  0.621606  0.621807  0.750044  1
  Ga  Ga26  1  0.000000  0.500000  0.512411  1
  Ga  Ga27  1  0.878193  0.121606  0.750044  1
  Ga  Ga28  1  0.500000  0.000000  0.487652  1
  Ga  Ga29  1  0.500000  0.000000  0.987460  1
  Ga  Ga30  1  0.121653  0.121652  0.250003  1
  Ga  Ga31  1  0.000000  0.500000  0.012408  1
