# generated using pymatgen
data_Yb2LuOsO6
_symmetry_space_group_name_H-M   'P 1'
_cell_length_a   5.47268905
_cell_length_b   5.74227500
_cell_length_c   9.56668262
_cell_angle_alpha   90.00000000
_cell_angle_beta   124.39199261
_cell_angle_gamma   90.00000000
_symmetry_Int_Tables_number   1
_chemical_formula_structural   Yb2LuOsO6
_chemical_formula_sum   'Yb4 Lu2 Os2 O12'
_cell_volume   248.08549384
_cell_formula_units_Z   2
loop_
 _symmetry_equiv_pos_site_id
 _symmetry_equiv_pos_as_xyz
  1  'x, y, z'
loop_
 _atom_site_type_symbol
 _atom_site_label
 _atom_site_symmetry_multiplicity
 _atom_site_fract_x
 _atom_site_fract_y
 _atom_site_fract_z
 _atom_site_occupancy
  Yb  Yb0  1  0.230855  0.436378  0.751057  1
  Yb  Yb1  1  0.230855  0.063622  0.251057  1
  Yb  Yb2  1  0.769145  0.563622  0.248943  1
  Yb  Yb3  1  0.769145  0.936378  0.748943  1
  Lu  Lu4  1  0.500000  0.500000  0.500000  1
  Lu  Lu5  1  0.500000  0.000000  0.000000  1
  Os  Os6  1  0.000000  0.500000  0.000000  1
  Os  Os7  1  0.000000  0.000000  0.500000  1
  O  O8  1  0.763529  0.188688  0.556507  1
  O  O9  1  0.763529  0.311312  0.056507  1
  O  O10  1  0.236471  0.811312  0.443493  1
  O  O11  1  0.236471  0.688688  0.943493  1
  O  O12  1  0.880458  0.710868  0.562154  1
  O  O13  1  0.880458  0.789132  0.062154  1
  O  O14  1  0.119542  0.289132  0.437846  1
  O  O15  1  0.119542  0.210868  0.937846  1
  O  O16  1  0.350038  0.043337  0.736604  1
  O  O17  1  0.350038  0.456663  0.236604  1
  O  O18  1  0.649962  0.956663  0.263396  1
  O  O19  1  0.649962  0.543337  0.763396  1
