# generated using pymatgen
data_Na8Si3GeSe12
_symmetry_space_group_name_H-M   'P 1'
_cell_length_a   16.23995062
_cell_length_b   6.09632627
_cell_length_c   7.12713793
_cell_angle_alpha   66.34691673
_cell_angle_beta   89.89417949
_cell_angle_gamma   90.07789538
_symmetry_Int_Tables_number   1
_chemical_formula_structural   Na8Si3GeSe12
_chemical_formula_sum   'Na8 Si3 Ge1 Se12'
_cell_volume   646.33488106
_cell_formula_units_Z   1
loop_
 _symmetry_equiv_pos_site_id
 _symmetry_equiv_pos_as_xyz
  1  'x, y, z'
loop_
 _atom_site_type_symbol
 _atom_site_label
 _atom_site_symmetry_multiplicity
 _atom_site_fract_x
 _atom_site_fract_y
 _atom_site_fract_z
 _atom_site_occupancy
  Na  Na0  1  0.332502  0.470139  0.571200  1
  Na  Na1  1  0.832751  0.030180  0.428847  1
  Na  Na2  1  0.667274  0.529927  0.429265  1
  Na  Na3  1  0.167381  0.970123  0.571286  1
  Na  Na4  1  0.975913  0.333185  0.785384  1
  Na  Na5  1  0.523685  0.832518  0.785140  1
  Na  Na6  1  0.474830  0.167767  0.213859  1
  Na  Na7  1  0.025248  0.667867  0.214468  1
  Si  Si8  1  0.670595  0.158229  0.028041  1
  Si  Si9  1  0.172197  0.342382  0.970823  1
  Si  Si10  1  0.327865  0.842462  0.971133  1
  Ge  Ge11  1  0.829413  0.659152  0.029051  1
  Se  Se12  1  0.147417  0.441713  0.634464  1
  Se  Se13  1  0.646909  0.060548  0.364923  1
  Se  Se14  1  0.853488  0.553744  0.380001  1
  Se  Se15  1  0.352970  0.941815  0.634505  1
  Se  Se16  1  0.802954  0.317672  0.942050  1
  Se  Se17  1  0.303092  0.170083  0.056740  1
  Se  Se18  1  0.196861  0.669796  0.056787  1
  Se  Se19  1  0.692412  0.831355  0.942338  1
  Se  Se20  1  0.066874  0.169267  0.188812  1
  Se  Se21  1  0.565901  0.333546  0.810783  1
  Se  Se22  1  0.938637  0.836959  0.801830  1
  Se  Se23  1  0.432829  0.669572  0.188271  1
