# generated using pymatgen
data_DyNp3O12
_symmetry_space_group_name_H-M   'P 1'
_cell_length_a   7.19225010
_cell_length_b   7.28359537
_cell_length_c   7.18759221
_cell_angle_alpha   109.74727184
_cell_angle_beta   109.45044914
_cell_angle_gamma   109.70550321
_symmetry_Int_Tables_number   1
_chemical_formula_structural   DyNp3O12
_chemical_formula_sum   'Dy1 Np3 O12'
_cell_volume   288.08299042
_cell_formula_units_Z   1
loop_
 _symmetry_equiv_pos_site_id
 _symmetry_equiv_pos_as_xyz
  1  'x, y, z'
loop_
 _atom_site_type_symbol
 _atom_site_label
 _atom_site_symmetry_multiplicity
 _atom_site_fract_x
 _atom_site_fract_y
 _atom_site_fract_z
 _atom_site_occupancy
  Dy  Dy0  1  0.499884  0.996454  0.996515  1
  Np  Np1  1  0.500074  0.496571  0.496486  1
  Np  Np2  1  0.999958  0.496575  0.996687  1
  Np  Np3  1  0.000055  0.996735  0.496699  1
  O  O4  1  0.247044  0.439956  0.237958  1
  O  O5  1  0.753093  0.552987  0.754922  1
  O  O6  1  0.204262  0.995989  0.746564  1
  O  O7  1  0.795882  0.997662  0.246855  1
  O  O8  1  0.257273  0.207567  0.509527  1
  O  O9  1  0.742796  0.785867  0.483725  1
  O  O10  1  0.751039  0.253297  0.959869  1
  O  O11  1  0.248720  0.739909  0.033510  1
  O  O12  1  0.006618  0.703175  0.251818  1
  O  O13  1  0.993160  0.289910  0.741578  1
  O  O14  1  0.539880  0.284329  0.293572  1
  O  O15  1  0.460263  0.708741  0.699436  1
