# generated using pymatgen
data_Y16Ho4Ir11Au
_symmetry_space_group_name_H-M   'P 1'
_cell_length_a   10.97482518
_cell_length_b   10.97482661
_cell_length_c   6.36012006
_cell_angle_alpha   89.93998927
_cell_angle_beta   89.93999335
_cell_angle_gamma   89.60027339
_symmetry_Int_Tables_number   1
_chemical_formula_structural   Y16Ho4Ir11Au
_chemical_formula_sum   'Y16 Ho4 Ir11 Au1'
_cell_volume   766.03665328
_cell_formula_units_Z   1
loop_
 _symmetry_equiv_pos_site_id
 _symmetry_equiv_pos_as_xyz
  1  'x, y, z'
loop_
 _atom_site_type_symbol
 _atom_site_label
 _atom_site_symmetry_multiplicity
 _atom_site_fract_x
 _atom_site_fract_y
 _atom_site_fract_z
 _atom_site_occupancy
  Y  Y0  1  0.290179  0.088080  0.376878  1
  Y  Y1  1  0.292401  0.911151  0.875936  1
  Y  Y2  1  0.704417  0.084779  0.866638  1
  Y  Y3  1  0.706034  0.905363  0.379989  1
  Y  Y4  1  0.587773  0.790709  0.878685  1
  Y  Y5  1  0.579991  0.210173  0.378621  1
  Y  Y6  1  0.411176  0.790997  0.377439  1
  Y  Y7  1  0.410595  0.208817  0.877614  1
  Y  Y8  1  0.209291  0.412227  0.621315  1
  Y  Y9  1  0.209003  0.588824  0.122561  1
  Y  Y10  1  0.789827  0.420009  0.121379  1
  Y  Y11  1  0.791183  0.589405  0.622386  1
  Y  Y12  1  0.911920  0.709821  0.123122  1
  Y  Y13  1  0.915221  0.295583  0.633362  1
  Y  Y14  1  0.088849  0.707599  0.624064  1
  Y  Y15  1  0.094637  0.293966  0.120011  1
  Ho  Ho16  1  0.003739  0.996008  0.501817  1
  Ho  Ho17  1  0.003992  0.996261  0.998183  1
  Ho  Ho18  1  0.499246  0.499735  0.999076  1
  Ho  Ho19  1  0.500265  0.500754  0.500924  1
  Ir  Ir20  1  0.847511  0.848861  0.749583  1
  Ir  Ir21  1  0.151139  0.152489  0.750417  1
  Ir  Ir22  1  0.153953  0.846047  0.250000  1
  Ir  Ir23  1  0.654375  0.345625  0.750000  1
  Ir  Ir24  1  0.652890  0.651676  0.248750  1
  Ir  Ir25  1  0.348324  0.347110  0.251250  1
  Ir  Ir26  1  0.347212  0.652788  0.750000  1
  Ir  Ir27  1  0.500630  0.000207  0.125196  1
  Ir  Ir28  1  0.499874  0.000513  0.621815  1
  Ir  Ir29  1  0.999487  0.500126  0.878185  1
  Ir  Ir30  1  0.999793  0.499370  0.374804  1
  Au  Au31  1  0.845075  0.154925  0.250000  1
