# generated using pymatgen
data_Tb4Er2Al25Os7
_symmetry_space_group_name_H-M   'P 1'
_cell_length_a   8.88169491
_cell_length_b   8.88169376
_cell_length_c   9.56435048
_cell_angle_alpha   90.23370233
_cell_angle_beta   89.76629390
_cell_angle_gamma   120.05262302
_symmetry_Int_Tables_number   1
_chemical_formula_structural   Tb4Er2Al25Os7
_chemical_formula_sum   'Tb4 Er2 Al25 Os7'
_cell_volume   653.04394894
_cell_formula_units_Z   1
loop_
 _symmetry_equiv_pos_site_id
 _symmetry_equiv_pos_as_xyz
  1  'x, y, z'
loop_
 _atom_site_type_symbol
 _atom_site_label
 _atom_site_symmetry_multiplicity
 _atom_site_fract_x
 _atom_site_fract_y
 _atom_site_fract_z
 _atom_site_occupancy
  Tb  Tb0  1  0.192718  0.384322  0.245106  1
  Tb  Tb1  1  0.807282  0.615678  0.754894  1
  Tb  Tb2  1  0.615678  0.807282  0.245106  1
  Tb  Tb3  1  0.384322  0.192718  0.754894  1
  Er  Er4  1  0.195331  0.804669  0.256884  1
  Er  Er5  1  0.804669  0.195331  0.743116  1
  Al  Al6  1  0.326736  0.673264  0.022588  1
  Al  Al7  1  0.673264  0.326736  0.977412  1
  Al  Al8  1  0.665939  0.334061  0.518064  1
  Al  Al9  1  0.334061  0.665939  0.481936  1
  Al  Al10  1  0.162202  0.325795  0.571229  1
  Al  Al11  1  0.837798  0.674205  0.428771  1
  Al  Al12  1  0.674205  0.837798  0.571229  1
  Al  Al13  1  0.852735  0.678192  0.082566  1
  Al  Al14  1  0.325795  0.162202  0.428771  1
  Al  Al15  1  0.147265  0.321808  0.917434  1
  Al  Al16  1  0.162747  0.837253  0.575781  1
  Al  Al17  1  0.321808  0.147265  0.082566  1
  Al  Al18  1  0.837253  0.162747  0.424219  1
  Al  Al19  1  0.678192  0.852735  0.917434  1
  Al  Al20  1  0.837038  0.162962  0.076280  1
  Al  Al21  1  0.162962  0.837038  0.923720  1
  Al  Al22  1  0.561962  0.120353  0.249707  1
  Al  Al23  1  0.438038  0.879647  0.750293  1
  Al  Al24  1  0.879647  0.438038  0.249707  1
  Al  Al25  1  0.120353  0.561962  0.750293  1
  Al  Al26  1  0.565831  0.434169  0.258655  1
  Al  Al27  1  0.434169  0.565831  0.741345  1
  Al  Al28  1  0.000208  0.999792  0.250481  1
  Al  Al29  1  0.999792  0.000208  0.749519  1
  Al  Al30  1  0.500000  0.500000  0.000000  1
  Os  Os31  1  0.500000  0.000000  0.000000  1
  Os  Os32  1  0.000000  0.500000  0.000000  1
  Os  Os33  1  0.500000  0.000000  0.500000  1
  Os  Os34  1  0.000000  0.500000  0.500000  1
  Os  Os35  1  0.500000  0.500000  0.500000  1
  Os  Os36  1  0.000000  0.000000  0.000000  1
  Os  Os37  1  0.000000  0.000000  0.500000  1
