# generated using pymatgen
data_SrV(Sb4Os)3
_symmetry_space_group_name_H-M   'P 1'
_cell_length_a   8.22827395
_cell_length_b   8.22827471
_cell_length_c   8.19981800
_cell_angle_alpha   109.40118090
_cell_angle_beta   109.40118276
_cell_angle_gamma   109.54116572
_symmetry_Int_Tables_number   1
_chemical_formula_structural   SrV(Sb4Os)3
_chemical_formula_sum   'Sr1 V1 Sb12 Os3'
_cell_volume   427.73474024
_cell_formula_units_Z   1
loop_
 _symmetry_equiv_pos_site_id
 _symmetry_equiv_pos_as_xyz
  1  'x, y, z'
loop_
 _atom_site_type_symbol
 _atom_site_label
 _atom_site_symmetry_multiplicity
 _atom_site_fract_x
 _atom_site_fract_y
 _atom_site_fract_z
 _atom_site_occupancy
  Sr  Sr0  1  0.000000  0.000000  0.000000  1
  V  V1  1  0.000000  0.000000  0.500000  1
  Sb  Sb2  1  0.344736  0.159424  0.497418  1
  Sb  Sb3  1  0.338922  0.842473  0.181219  1
  Sb  Sb4  1  0.661078  0.157527  0.818781  1
  Sb  Sb5  1  0.814687  0.655264  0.152684  1
  Sb  Sb6  1  0.157527  0.496448  0.338745  1
  Sb  Sb7  1  0.503552  0.661078  0.842296  1
  Sb  Sb8  1  0.840576  0.185313  0.337995  1
  Sb  Sb9  1  0.655264  0.840576  0.502582  1
  Sb  Sb10  1  0.185313  0.344736  0.847316  1
  Sb  Sb11  1  0.159424  0.814687  0.662005  1
  Sb  Sb12  1  0.496448  0.338922  0.157704  1
  Sb  Sb13  1  0.842473  0.503552  0.661255  1
  Os  Os14  1  0.500000  0.500000  0.500000  1
  Os  Os15  1  0.000000  0.500000  0.000000  1
  Os  Os16  1  0.500000  0.000000  0.000000  1
