# generated using pymatgen
data_Ca7Yb(Si4Mo3)4
_symmetry_space_group_name_H-M   'P 1'
_cell_length_a   6.74631303
_cell_length_b   6.94892372
_cell_length_c   13.11168912
_cell_angle_alpha   89.99755411
_cell_angle_beta   90.02670368
_cell_angle_gamma   89.97903687
_symmetry_Int_Tables_number   1
_chemical_formula_structural   Ca7Yb(Si4Mo3)4
_chemical_formula_sum   'Ca7 Yb1 Si16 Mo12'
_cell_volume   614.67082508
_cell_formula_units_Z   1
loop_
 _symmetry_equiv_pos_site_id
 _symmetry_equiv_pos_as_xyz
  1  'x, y, z'
loop_
 _atom_site_type_symbol
 _atom_site_label
 _atom_site_symmetry_multiplicity
 _atom_site_fract_x
 _atom_site_fract_y
 _atom_site_fract_z
 _atom_site_occupancy
  Ca  Ca0  1  0.498593  0.332906  0.091296  1
  Ca  Ca1  1  0.998457  0.166899  0.408361  1
  Ca  Ca2  1  0.501440  0.666801  0.591614  1
  Ca  Ca3  1  0.001362  0.832799  0.908703  1
  Ca  Ca4  1  0.501033  0.667546  0.908596  1
  Ca  Ca5  1  0.001305  0.832679  0.591557  1
  Ca  Ca6  1  0.498480  0.333423  0.408457  1
  Yb  Yb7  1  0.998744  0.167777  0.092174  1
  Si  Si8  1  0.656930  0.043845  0.545734  1
  Si  Si9  1  0.157288  0.455415  0.954841  1
  Si  Si10  1  0.342016  0.957107  0.045606  1
  Si  Si11  1  0.842952  0.544074  0.454087  1
  Si  Si12  1  0.342972  0.955976  0.454074  1
  Si  Si13  1  0.842747  0.543406  0.045651  1
  Si  Si14  1  0.657916  0.043881  0.954984  1
  Si  Si15  1  0.157005  0.455839  0.545756  1
  Si  Si16  1  0.535184  0.373088  0.750402  1
  Si  Si17  1  0.035064  0.126000  0.750167  1
  Si  Si18  1  0.464918  0.627500  0.249244  1
  Si  Si19  1  0.964893  0.873824  0.249464  1
  Si  Si20  1  0.800753  0.628346  0.750233  1
  Si  Si21  1  0.300714  0.870734  0.750086  1
  Si  Si22  1  0.199484  0.371083  0.249798  1
  Si  Si23  1  0.699007  0.129643  0.249740  1
  Mo  Mo24  1  0.835766  0.330307  0.628562  1
  Mo  Mo25  1  0.335571  0.169184  0.871934  1
  Mo  Mo26  1  0.164204  0.669520  0.128039  1
  Mo  Mo27  1  0.664280  0.830584  0.371224  1
  Mo  Mo28  1  0.164245  0.669447  0.371208  1
  Mo  Mo29  1  0.665184  0.831545  0.127992  1
  Mo  Mo30  1  0.836011  0.329808  0.872124  1
  Mo  Mo31  1  0.335715  0.169209  0.628569  1
  Mo  Mo32  1  0.660848  0.011549  0.750207  1
  Mo  Mo33  1  0.160924  0.487690  0.750271  1
  Mo  Mo34  1  0.338776  0.988846  0.249733  1
  Mo  Mo35  1  0.839217  0.511721  0.249513  1
