# generated using pymatgen
data_Y3ErGa18(Ru2Rh)2
_symmetry_space_group_name_H-M   'P 1'
_cell_length_a   7.53078304
_cell_length_b   7.53122552
_cell_length_c   9.68357000
_cell_angle_alpha   90.00000000
_cell_angle_beta   90.00000000
_cell_angle_gamma   119.92556216
_symmetry_Int_Tables_number   1
_chemical_formula_structural   Y3ErGa18(Ru2Rh)2
_chemical_formula_sum   'Y3 Er1 Ga18 Ru4 Rh2'
_cell_volume   475.98929514
_cell_formula_units_Z   1
loop_
 _symmetry_equiv_pos_site_id
 _symmetry_equiv_pos_as_xyz
  1  'x, y, z'
loop_
 _atom_site_type_symbol
 _atom_site_label
 _atom_site_symmetry_multiplicity
 _atom_site_fract_x
 _atom_site_fract_y
 _atom_site_fract_z
 _atom_site_occupancy
  Y  Y0  1  0.003048  0.333172  0.750000  1
  Y  Y1  1  0.666845  0.996939  0.250000  1
  Y  Y2  1  0.333172  0.003040  0.750000  1
  Er  Er3  1  0.997083  0.666757  0.250000  1
  Ga  Ga4  1  0.337886  0.337890  0.561354  1
  Ga  Ga5  1  0.662312  0.662114  0.438498  1
  Ga  Ga6  1  0.662312  0.662114  0.061502  1
  Ga  Ga7  1  0.337886  0.337890  0.938646  1
  Ga  Ga8  1  0.336303  0.546953  0.250000  1
  Ga  Ga9  1  0.663490  0.453131  0.750000  1
  Ga  Ga10  1  0.547224  0.336745  0.250000  1
  Ga  Ga11  1  0.453126  0.663495  0.750000  1
  Ga  Ga12  1  0.003257  0.335409  0.076860  1
  Ga  Ga13  1  0.996746  0.664832  0.923451  1
  Ga  Ga14  1  0.996746  0.664832  0.576549  1
  Ga  Ga15  1  0.334928  0.003034  0.423151  1
  Ga  Ga16  1  0.003257  0.335409  0.423140  1
  Ga  Ga17  1  0.664820  0.996737  0.576688  1
  Ga  Ga18  1  0.664820  0.996737  0.923312  1
  Ga  Ga19  1  0.334928  0.003034  0.076849  1
  Ga  Ga20  1  0.126563  0.126364  0.250000  1
  Ga  Ga21  1  0.873313  0.873306  0.750000  1
  Ru  Ru22  1  0.673829  0.326393  0.000106  1
  Ru  Ru23  1  0.326160  0.673734  0.000138  1
  Ru  Ru24  1  0.326160  0.673734  0.499862  1
  Ru  Ru25  1  0.673829  0.326393  0.499894  1
  Rh  Rh26  1  0.999979  0.999906  0.000077  1
  Rh  Rh27  1  0.999979  0.999906  0.499923  1
