# generated using pymatgen
data_Nd2HoAlC3
_symmetry_space_group_name_H-M   'P 1'
_cell_length_a   3.69352000
_cell_length_b   7.39821305
_cell_length_c   10.05896332
_cell_angle_alpha   89.31286050
_cell_angle_beta   90.00000000
_cell_angle_gamma   90.00000000
_symmetry_Int_Tables_number   1
_chemical_formula_structural   Nd2HoAlC3
_chemical_formula_sum   'Nd4 Ho2 Al2 C6'
_cell_volume   274.84591131
_cell_formula_units_Z   2
loop_
 _symmetry_equiv_pos_site_id
 _symmetry_equiv_pos_as_xyz
  1  'x, y, z'
loop_
 _atom_site_type_symbol
 _atom_site_label
 _atom_site_symmetry_multiplicity
 _atom_site_fract_x
 _atom_site_fract_y
 _atom_site_fract_z
 _atom_site_occupancy
  Nd  Nd0  1  0.500000  0.515353  0.190493  1
  Nd  Nd1  1  0.500000  0.484647  0.809507  1
  Nd  Nd2  1  0.000000  0.750925  0.462219  1
  Nd  Nd3  1  0.000000  0.249075  0.537781  1
  Ho  Ho4  1  0.500000  0.985367  0.201653  1
  Ho  Ho5  1  0.500000  0.014633  0.798347  1
  Al  Al6  1  0.000000  0.780654  0.005635  1
  Al  Al7  1  0.000000  0.219346  0.994365  1
  C  C8  1  0.500000  0.506402  0.565386  1
  C  C9  1  0.500000  0.493598  0.434614  1
  C  C10  1  0.500000  0.992537  0.565488  1
  C  C11  1  0.500000  0.007463  0.434512  1
  C  C12  1  0.000000  0.762206  0.206214  1
  C  C13  1  0.000000  0.237794  0.793786  1
