# generated using pymatgen
data_CaYbZnNi6GeB2
_symmetry_space_group_name_H-M   'P 1'
_cell_length_a   5.07941001
_cell_length_b   5.08647265
_cell_length_c   6.74487600
_cell_angle_alpha   89.99398484
_cell_angle_beta   90.00292152
_cell_angle_gamma   119.97343948
_symmetry_Int_Tables_number   1
_chemical_formula_structural   CaYbZnNi6GeB2
_chemical_formula_sum   'Ca1 Yb1 Zn1 Ni6 Ge1 B2'
_cell_volume   150.95613078
_cell_formula_units_Z   1
loop_
 _symmetry_equiv_pos_site_id
 _symmetry_equiv_pos_as_xyz
  1  'x, y, z'
loop_
 _atom_site_type_symbol
 _atom_site_label
 _atom_site_symmetry_multiplicity
 _atom_site_fract_x
 _atom_site_fract_y
 _atom_site_fract_z
 _atom_site_occupancy
  Ca  Ca0  1  0.999988  0.000018  0.499982  1
  Yb  Yb1  1  0.000041  0.000036  0.999922  1
  Zn  Zn2  1  0.333243  0.666529  0.500028  1
  Ni  Ni3  1  0.500556  0.499518  0.798853  1
  Ni  Ni4  1  0.500579  0.001153  0.798851  1
  Ni  Ni5  1  0.998977  0.499526  0.798743  1
  Ni  Ni6  1  0.500448  0.499342  0.201213  1
  Ni  Ni7  1  0.500493  0.001018  0.201214  1
  Ni  Ni8  1  0.998901  0.499357  0.201221  1
  Ge  Ge9  1  0.666702  0.333463  0.500001  1
  B  B10  1  0.666670  0.333238  0.000000  1
  B  B11  1  0.333402  0.666800  0.999972  1
