# generated using pymatgen
data_DyY3ScOs7
_symmetry_space_group_name_H-M   'P 1'
_cell_length_a   5.40514700
_cell_length_b   5.40514758
_cell_length_c   8.89447700
_cell_angle_alpha   90.00000000
_cell_angle_beta   90.00000000
_cell_angle_gamma   120.00000254
_symmetry_Int_Tables_number   1
_chemical_formula_structural   DyY3ScOs7
_chemical_formula_sum   'Dy1 Y3 Sc1 Os7'
_cell_volume   225.04330813
_cell_formula_units_Z   1
loop_
 _symmetry_equiv_pos_site_id
 _symmetry_equiv_pos_as_xyz
  1  'x, y, z'
loop_
 _atom_site_type_symbol
 _atom_site_label
 _atom_site_symmetry_multiplicity
 _atom_site_fract_x
 _atom_site_fract_y
 _atom_site_fract_z
 _atom_site_occupancy
  Dy  Dy0  1  0.333333  0.666667  0.060311  1
  Y  Y1  1  0.333333  0.666667  0.422852  1
  Y  Y2  1  0.666667  0.333333  0.577116  1
  Y  Y3  1  0.666667  0.333333  0.939661  1
  Sc  Sc4  1  0.000000  0.000000  0.500010  1
  Os  Os5  1  0.000000  0.000000  0.000033  1
  Os  Os6  1  0.827519  0.172481  0.245020  1
  Os  Os7  1  0.827519  0.655035  0.245020  1
  Os  Os8  1  0.344965  0.172481  0.245020  1
  Os  Os9  1  0.172520  0.827480  0.754986  1
  Os  Os10  1  0.172520  0.345041  0.754986  1
  Os  Os11  1  0.654959  0.827480  0.754986  1
