# generated using pymatgen
data_CaLa7SnPd24
_symmetry_space_group_name_H-M   'P 1'
_cell_length_a   8.58870481
_cell_length_b   8.58870481
_cell_length_c   8.58870481
_cell_angle_alpha   89.96482477
_cell_angle_beta   89.96482477
_cell_angle_gamma   89.96482477
_symmetry_Int_Tables_number   1
_chemical_formula_structural   CaLa7SnPd24
_chemical_formula_sum   'Ca1 La7 Sn1 Pd24'
_cell_volume   633.55275515
_cell_formula_units_Z   1
loop_
 _symmetry_equiv_pos_site_id
 _symmetry_equiv_pos_as_xyz
  1  'x, y, z'
loop_
 _atom_site_type_symbol
 _atom_site_label
 _atom_site_symmetry_multiplicity
 _atom_site_fract_x
 _atom_site_fract_y
 _atom_site_fract_z
 _atom_site_occupancy
  Ca  Ca0  1  0.250092  0.250092  0.250092  1
  La  La1  1  0.748166  0.748166  0.748166  1
  La  La2  1  0.747185  0.747185  0.252147  1
  La  La3  1  0.747185  0.252147  0.747185  1
  La  La4  1  0.253158  0.253158  0.747513  1
  La  La5  1  0.253158  0.747513  0.253158  1
  La  La6  1  0.252147  0.747185  0.747185  1
  La  La7  1  0.747513  0.253158  0.253158  1
  Sn  Sn8  1  0.000941  0.000941  0.000941  1
  Pd  Pd9  1  0.266727  0.499382  0.001719  1
  Pd  Pd10  1  0.733479  0.500128  0.999014  1
  Pd  Pd11  1  0.001719  0.266727  0.499382  1
  Pd  Pd12  1  0.499382  0.266727  0.001719  1
  Pd  Pd13  1  0.999014  0.733479  0.500128  1
  Pd  Pd14  1  0.500128  0.733479  0.999014  1
  Pd  Pd15  1  0.499382  0.001719  0.266727  1
  Pd  Pd16  1  0.266727  0.001719  0.499382  1
  Pd  Pd17  1  0.500128  0.999014  0.733479  1
  Pd  Pd18  1  0.733479  0.999014  0.500128  1
  Pd  Pd19  1  0.001719  0.499382  0.266727  1
  Pd  Pd20  1  0.999014  0.500128  0.733479  1
  Pd  Pd21  1  0.254983  0.498259  0.498259  1
  Pd  Pd22  1  0.744552  0.500409  0.500409  1
  Pd  Pd23  1  0.498259  0.254983  0.498259  1
  Pd  Pd24  1  0.500409  0.744552  0.500409  1
  Pd  Pd25  1  0.498259  0.498259  0.254983  1
  Pd  Pd26  1  0.500409  0.500409  0.744552  1
  Pd  Pd27  1  0.313311  0.001362  0.001362  1
  Pd  Pd28  1  0.686761  0.999944  0.999944  1
  Pd  Pd29  1  0.001362  0.313311  0.001362  1
  Pd  Pd30  1  0.999944  0.686761  0.999944  1
  Pd  Pd31  1  0.001362  0.001362  0.313311  1
  Pd  Pd32  1  0.999944  0.999944  0.686761  1
