# generated using pymatgen
data_Ba2Li4YbBi4
_symmetry_space_group_name_H-M   'P 1'
_cell_length_a   9.38730862
_cell_length_b   9.38730791
_cell_length_c   9.38730968
_cell_angle_alpha   148.13386076
_cell_angle_beta   133.52367241
_cell_angle_gamma   57.45661754
_symmetry_Int_Tables_number   1
_chemical_formula_structural   Ba2Li4YbBi4
_chemical_formula_sum   'Ba2 Li4 Yb1 Bi4'
_cell_volume   314.27449228
_cell_formula_units_Z   1
loop_
 _symmetry_equiv_pos_site_id
 _symmetry_equiv_pos_as_xyz
  1  'x, y, z'
loop_
 _atom_site_type_symbol
 _atom_site_label
 _atom_site_symmetry_multiplicity
 _atom_site_fract_x
 _atom_site_fract_y
 _atom_site_fract_z
 _atom_site_occupancy
  Ba  Ba0  1  0.630786  0.130786  0.500000  1
  Ba  Ba1  1  0.369214  0.869214  0.500000  1
  Li  Li2  1  0.981857  0.673988  0.307869  1
  Li  Li3  1  0.018143  0.326012  0.692131  1
  Li  Li4  1  0.633881  0.326012  0.307869  1
  Li  Li5  1  0.366119  0.673988  0.692131  1
  Yb  Yb6  1  0.000000  0.000000  0.000000  1
  Bi  Bi7  1  0.793490  0.793490  0.000000  1
  Bi  Bi8  1  0.206510  0.206510  0.000000  1
  Bi  Bi9  1  0.712806  0.500000  0.212806  1
  Bi  Bi10  1  0.287194  0.500000  0.787194  1
