# generated using pymatgen
data_AuSe2BrO8
_symmetry_space_group_name_H-M   'P 1'
_cell_length_a   5.69005697
_cell_length_b   5.03485158
_cell_length_c   9.33875498
_cell_angle_alpha   82.73481320
_cell_angle_beta   100.87852424
_cell_angle_gamma   81.48226520
_symmetry_Int_Tables_number   1
_chemical_formula_structural   AuSe2BrO8
_chemical_formula_sum   'Au1 Se2 Br1 O8'
_cell_volume   256.53111230
_cell_formula_units_Z   1
loop_
 _symmetry_equiv_pos_site_id
 _symmetry_equiv_pos_as_xyz
  1  'x, y, z'
loop_
 _atom_site_type_symbol
 _atom_site_label
 _atom_site_symmetry_multiplicity
 _atom_site_fract_x
 _atom_site_fract_y
 _atom_site_fract_z
 _atom_site_occupancy
  Au  Au0  1  0.000000  0.500000  0.500000  1
  Se  Se1  1  0.062301  0.919457  0.726469  1
  Se  Se2  1  0.937699  0.080543  0.273531  1
  Br  Br3  1  0.500000  0.000000  0.000000  1
  O  O4  1  0.236777  0.798245  0.897646  1
  O  O5  1  0.194193  0.762730  0.596027  1
  O  O6  1  0.763223  0.201755  0.102354  1
  O  O7  1  0.805807  0.237270  0.403973  1
  O  O8  1  0.782477  0.877986  0.712296  1
  O  O9  1  0.118178  0.249334  0.696093  1
  O  O10  1  0.217523  0.122014  0.287704  1
  O  O11  1  0.881822  0.750666  0.303907  1
