# generated using pymatgen
data_Yb5Er3SiPd24
_symmetry_space_group_name_H-M   'P 1'
_cell_length_a   8.29204265
_cell_length_b   8.29204265
_cell_length_c   8.28303529
_cell_angle_alpha   89.97844414
_cell_angle_beta   90.02155586
_cell_angle_gamma   90.06901641
_symmetry_Int_Tables_number   1
_chemical_formula_structural   Yb5Er3SiPd24
_chemical_formula_sum   'Yb5 Er3 Si1 Pd24'
_cell_volume   569.52420939
_cell_formula_units_Z   1
loop_
 _symmetry_equiv_pos_site_id
 _symmetry_equiv_pos_as_xyz
  1  'x, y, z'
loop_
 _atom_site_type_symbol
 _atom_site_label
 _atom_site_symmetry_multiplicity
 _atom_site_fract_x
 _atom_site_fract_y
 _atom_site_fract_z
 _atom_site_occupancy
  Yb  Yb0  1  0.252090  0.251943  0.252041  1
  Yb  Yb1  1  0.748017  0.747904  0.748040  1
  Yb  Yb2  1  0.748057  0.747910  0.252041  1
  Yb  Yb3  1  0.747773  0.252227  0.747773  1
  Yb  Yb4  1  0.252096  0.251983  0.748040  1
  Er  Er5  1  0.253048  0.746952  0.253040  1
  Er  Er6  1  0.253278  0.746722  0.746855  1
  Er  Er7  1  0.746838  0.253162  0.253302  1
  Si  Si8  1  0.999408  0.000592  0.999489  1
  Pd  Pd9  1  0.257080  0.500580  0.000222  1
  Pd  Pd10  1  0.742806  0.499730  0.000605  1
  Pd  Pd11  1  0.999628  0.257235  0.499582  1
  Pd  Pd12  1  0.500270  0.257194  0.000605  1
  Pd  Pd13  1  0.000899  0.742839  0.499830  1
  Pd  Pd14  1  0.499420  0.742920  0.000222  1
  Pd  Pd15  1  0.499900  0.999828  0.257180  1
  Pd  Pd16  1  0.257161  0.999101  0.499830  1
  Pd  Pd17  1  0.499646  0.999449  0.742762  1
  Pd  Pd18  1  0.742765  0.000372  0.499582  1
  Pd  Pd19  1  0.000172  0.500100  0.257180  1
  Pd  Pd20  1  0.000551  0.500354  0.742762  1
  Pd  Pd21  1  0.251931  0.500144  0.499783  1
  Pd  Pd22  1  0.748201  0.500026  0.499755  1
  Pd  Pd23  1  0.499974  0.251799  0.499755  1
  Pd  Pd24  1  0.499856  0.748069  0.499783  1
  Pd  Pd25  1  0.499817  0.500183  0.251903  1
  Pd  Pd26  1  0.499793  0.500207  0.748218  1
  Pd  Pd27  1  0.280079  0.999748  0.999940  1
  Pd  Pd28  1  0.719475  0.000327  0.000141  1
  Pd  Pd29  1  0.999673  0.280525  0.000141  1
  Pd  Pd30  1  0.000252  0.719921  0.999940  1
  Pd  Pd31  1  0.999920  0.000080  0.280328  1
  Pd  Pd32  1  0.000125  0.999875  0.719329  1
