# generated using pymatgen
data_Gd2Co2Br
_symmetry_space_group_name_H-M   'P 1'
_cell_length_a   3.96754300
_cell_length_b   3.96754186
_cell_length_c   15.98466800
_cell_angle_alpha   90.00000000
_cell_angle_beta   90.00000000
_cell_angle_gamma   120.00000117
_symmetry_Int_Tables_number   1
_chemical_formula_structural   Gd2Co2Br
_chemical_formula_sum   'Gd4 Co4 Br2'
_cell_volume   217.91012346
_cell_formula_units_Z   2
loop_
 _symmetry_equiv_pos_site_id
 _symmetry_equiv_pos_as_xyz
  1  'x, y, z'
loop_
 _atom_site_type_symbol
 _atom_site_label
 _atom_site_symmetry_multiplicity
 _atom_site_fract_x
 _atom_site_fract_y
 _atom_site_fract_z
 _atom_site_occupancy
  Gd  Gd0  1  0.000000  0.000000  0.609556  1
  Gd  Gd1  1  0.000000  0.000000  0.390444  1
  Gd  Gd2  1  0.000000  0.000000  0.109556  1
  Gd  Gd3  1  0.000000  0.000000  0.890444  1
  Co  Co4  1  0.666667  0.333333  0.501451  1
  Co  Co5  1  0.333333  0.666667  0.001451  1
  Co  Co6  1  0.666667  0.333333  0.998549  1
  Co  Co7  1  0.333333  0.666667  0.498549  1
  Br  Br8  1  0.666667  0.333333  0.250000  1
  Br  Br9  1  0.333333  0.666667  0.750000  1
