# generated using pymatgen
data_Y2Th2Al7Tc
_symmetry_space_group_name_H-M   'P 1'
_cell_length_a   5.61024400
_cell_length_b   5.61024502
_cell_length_c   9.05399400
_cell_angle_alpha   90.00000000
_cell_angle_beta   90.00000000
_cell_angle_gamma   119.99999400
_symmetry_Int_Tables_number   1
_chemical_formula_structural   Y2Th2Al7Tc
_chemical_formula_sum   'Y2 Th2 Al7 Tc1'
_cell_volume   246.79391017
_cell_formula_units_Z   1
loop_
 _symmetry_equiv_pos_site_id
 _symmetry_equiv_pos_as_xyz
  1  'x, y, z'
loop_
 _atom_site_type_symbol
 _atom_site_label
 _atom_site_symmetry_multiplicity
 _atom_site_fract_x
 _atom_site_fract_y
 _atom_site_fract_z
 _atom_site_occupancy
  Y  Y0  1  0.666667  0.333333  0.438999  1
  Y  Y1  1  0.333333  0.666667  0.561001  1
  Th  Th2  1  0.333333  0.666667  0.939880  1
  Th  Th3  1  0.666667  0.333333  0.060120  1
  Al  Al4  1  0.000000  0.000000  0.500000  1
  Al  Al5  1  0.666349  0.833175  0.247928  1
  Al  Al6  1  0.166825  0.833175  0.247928  1
  Al  Al7  1  0.166825  0.333651  0.247928  1
  Al  Al8  1  0.333651  0.166825  0.752072  1
  Al  Al9  1  0.833175  0.166825  0.752072  1
  Al  Al10  1  0.833175  0.666349  0.752072  1
  Tc  Tc11  1  0.000000  0.000000  0.000000  1
