# generated using pymatgen
data_Nd2GaSi7Ni18
_symmetry_space_group_name_H-M   'P 1'
_cell_length_a   7.98980552
_cell_length_b   7.98980436
_cell_length_c   7.97889800
_cell_angle_alpha   120.35511549
_cell_angle_beta   120.35511065
_cell_angle_gamma   89.20860945
_symmetry_Int_Tables_number   1
_chemical_formula_structural   Nd2GaSi7Ni18
_chemical_formula_sum   'Nd2 Ga1 Si7 Ni18'
_cell_volume   358.75325468
_cell_formula_units_Z   1
loop_
 _symmetry_equiv_pos_site_id
 _symmetry_equiv_pos_as_xyz
  1  'x, y, z'
loop_
 _atom_site_type_symbol
 _atom_site_label
 _atom_site_symmetry_multiplicity
 _atom_site_fract_x
 _atom_site_fract_y
 _atom_site_fract_z
 _atom_site_occupancy
  Nd  Nd0  1  0.748669  0.750178  0.000180  1
  Nd  Nd1  1  0.250178  0.248669  0.000180  1
  Ga  Ga2  1  0.051917  0.551917  0.848890  1
  Si  Si3  1  0.712479  0.212479  0.158720  1
  Si  Si4  1  0.555357  0.711486  0.500632  1
  Si  Si5  1  0.211486  0.055357  0.500632  1
  Si  Si6  1  0.947455  0.447455  0.153787  1
  Si  Si7  1  0.286823  0.786823  0.841993  1
  Si  Si8  1  0.445948  0.287862  0.499122  1
  Si  Si9  1  0.787862  0.945948  0.499122  1
  Ni  Ni10  1  0.067379  0.205319  0.270550  1
  Ni  Ni11  1  0.932232  0.798681  0.726972  1
  Ni  Ni12  1  0.566591  0.294775  0.864588  1
  Ni  Ni13  1  0.438218  0.706553  0.139070  1
  Ni  Ni14  1  0.794775  0.066591  0.864588  1
  Ni  Ni15  1  0.206553  0.938218  0.139070  1
  Ni  Ni16  1  0.705319  0.567379  0.270550  1
  Ni  Ni17  1  0.298681  0.432232  0.726972  1
  Ni  Ni18  1  0.445847  0.945847  0.763646  1
  Ni  Ni19  1  0.196954  0.696954  0.261043  1
  Ni  Ni20  1  0.944664  0.179266  0.493645  1
  Ni  Ni21  1  0.679266  0.444664  0.493645  1
  Ni  Ni22  1  0.553868  0.053868  0.237137  1
  Ni  Ni23  1  0.800368  0.300368  0.746237  1
  Ni  Ni24  1  0.053315  0.818556  0.501876  1
  Ni  Ni25  1  0.318556  0.553315  0.501876  1
  Ni  Ni26  1  0.000590  0.500590  0.495751  1
  Ni  Ni27  1  0.498651  0.998651  0.499525  1
