# generated using pymatgen
data_Ce3B6Ir7Os
_symmetry_space_group_name_H-M   'P 1'
_cell_length_a   9.99443777
_cell_length_b   9.14032501
_cell_length_c   5.65385033
_cell_angle_alpha   81.30614669
_cell_angle_beta   64.69338051
_cell_angle_gamma   34.00048127
_symmetry_Int_Tables_number   1
_chemical_formula_structural   Ce3B6Ir7Os
_chemical_formula_sum   'Ce3 B6 Ir7 Os1'
_cell_volume   239.07831407
_cell_formula_units_Z   1
loop_
 _symmetry_equiv_pos_site_id
 _symmetry_equiv_pos_as_xyz
  1  'x, y, z'
loop_
 _atom_site_type_symbol
 _atom_site_label
 _atom_site_symmetry_multiplicity
 _atom_site_fract_x
 _atom_site_fract_y
 _atom_site_fract_z
 _atom_site_occupancy
  Ce  Ce0  1  0.000000  0.000000  0.000000  1
  Ce  Ce1  1  0.175889  0.175889  0.824111  1
  Ce  Ce2  1  0.824111  0.824111  0.175889  1
  B  B3  1  0.823690  0.526116  0.484621  1
  B  B4  1  0.165573  0.484621  0.526116  1
  B  B5  1  0.484621  0.165573  0.823690  1
  B  B6  1  0.669817  0.330183  0.669817  1
  B  B7  1  0.526116  0.823690  0.165573  1
  B  B8  1  0.330183  0.669817  0.330183  1
  Ir  Ir9  1  0.413542  0.413542  0.586458  1
  Ir  Ir10  1  0.585026  0.585026  0.914974  1
  Ir  Ir11  1  0.085575  0.085575  0.414425  1
  Ir  Ir12  1  0.914974  0.914974  0.585026  1
  Ir  Ir13  1  0.586458  0.586458  0.413542  1
  Ir  Ir14  1  0.250000  0.250000  0.250000  1
  Ir  Ir15  1  0.414425  0.414425  0.085575  1
  Os  Os16  1  0.750000  0.750000  0.750000  1
