# generated using pymatgen
data_CuNiRhS4
_symmetry_space_group_name_H-M   'P 1'
_cell_length_a   6.89086964
_cell_length_b   6.93684306
_cell_length_c   6.89086925
_cell_angle_alpha   59.77906119
_cell_angle_beta   59.84518384
_cell_angle_gamma   59.77906074
_symmetry_Int_Tables_number   1
_chemical_formula_structural   CuNiRhS4
_chemical_formula_sum   'Cu2 Ni2 Rh2 S8'
_cell_volume   231.86179423
_cell_formula_units_Z   2
loop_
 _symmetry_equiv_pos_site_id
 _symmetry_equiv_pos_as_xyz
  1  'x, y, z'
loop_
 _atom_site_type_symbol
 _atom_site_label
 _atom_site_symmetry_multiplicity
 _atom_site_fract_x
 _atom_site_fract_y
 _atom_site_fract_z
 _atom_site_occupancy
  Cu  Cu0  1  0.750171  0.749829  0.750171  1
  Cu  Cu1  1  0.499829  0.500171  0.499829  1
  Ni  Ni2  1  0.125000  0.125000  0.625000  1
  Ni  Ni3  1  0.625000  0.125000  0.125000  1
  Rh  Rh4  1  0.125000  0.625000  0.125000  1
  Rh  Rh5  1  0.125000  0.125000  0.125000  1
  S  S6  1  0.881897  0.340284  0.881897  1
  S  S7  1  0.371995  0.360455  0.907097  1
  S  S8  1  0.368103  0.354079  0.368103  1
  S  S9  1  0.907097  0.360455  0.371995  1
  S  S10  1  0.881897  0.895921  0.881897  1
  S  S11  1  0.342903  0.889545  0.878005  1
  S  S12  1  0.368103  0.909716  0.368103  1
  S  S13  1  0.878005  0.889545  0.342903  1
