# generated using pymatgen
data_Ca2La2YbPb4
_symmetry_space_group_name_H-M   'P 1'
_cell_length_a   8.09959600
_cell_length_b   8.67384900
_cell_length_c   16.34411600
_cell_angle_alpha   90.00000000
_cell_angle_beta   90.00000000
_cell_angle_gamma   90.00000000
_symmetry_Int_Tables_number   1
_chemical_formula_structural   Ca2La2YbPb4
_chemical_formula_sum   'Ca8 La8 Yb4 Pb16'
_cell_volume   1148.25051958
_cell_formula_units_Z   4
loop_
 _symmetry_equiv_pos_site_id
 _symmetry_equiv_pos_as_xyz
  1  'x, y, z'
loop_
 _atom_site_type_symbol
 _atom_site_label
 _atom_site_symmetry_multiplicity
 _atom_site_fract_x
 _atom_site_fract_y
 _atom_site_fract_z
 _atom_site_occupancy
  Ca  Ca0  1  0.665716  0.166449  0.622712  1
  Ca  Ca1  1  0.165716  0.333551  0.877288  1
  Ca  Ca2  1  0.334284  0.833551  0.122712  1
  Ca  Ca3  1  0.834284  0.666449  0.377288  1
  Ca  Ca4  1  0.835158  0.496146  0.749954  1
  Ca  Ca5  1  0.335158  0.003854  0.750046  1
  Ca  Ca6  1  0.164842  0.503854  0.249954  1
  Ca  Ca7  1  0.664842  0.996146  0.250046  1
  La  La8  1  0.501413  0.686008  0.595239  1
  La  La9  1  0.001413  0.813992  0.904761  1
  La  La10  1  0.498587  0.313992  0.095239  1
  La  La11  1  0.998587  0.186008  0.404761  1
  La  La12  1  0.498821  0.313921  0.404695  1
  La  La13  1  0.998821  0.186079  0.095305  1
  La  La14  1  0.501179  0.686079  0.904695  1
  La  La15  1  0.001179  0.813921  0.595305  1
  Yb  Yb16  1  0.333924  0.833213  0.376944  1
  Yb  Yb17  1  0.833924  0.666787  0.123056  1
  Yb  Yb18  1  0.666076  0.166787  0.876944  1
  Yb  Yb19  1  0.166076  0.333213  0.623056  1
  Pb  Pb20  1  0.676245  0.962464  0.459520  1
  Pb  Pb21  1  0.176245  0.537536  0.040480  1
  Pb  Pb22  1  0.323755  0.037536  0.959520  1
  Pb  Pb23  1  0.823755  0.462464  0.540480  1
  Pb  Pb24  1  0.322785  0.037830  0.540113  1
  Pb  Pb25  1  0.822785  0.462170  0.959887  1
  Pb  Pb26  1  0.677215  0.962170  0.040113  1
  Pb  Pb27  1  0.177215  0.537830  0.459887  1
  Pb  Pb28  1  0.467384  0.392320  0.750250  1
  Pb  Pb29  1  0.967384  0.107680  0.749750  1
  Pb  Pb30  1  0.532616  0.607680  0.250250  1
  Pb  Pb31  1  0.032616  0.892320  0.249750  1
  Pb  Pb32  1  0.703963  0.854434  0.750293  1
  Pb  Pb33  1  0.203963  0.645566  0.749707  1
  Pb  Pb34  1  0.296037  0.145566  0.250293  1
  Pb  Pb35  1  0.796037  0.354434  0.249707  1
