# generated using pymatgen
data_K8Li4Ho3LuSb8
_symmetry_space_group_name_H-M   'P 1'
_cell_length_a   10.91960965
_cell_length_b   10.91960953
_cell_length_c   7.11321041
_cell_angle_alpha   90.01245431
_cell_angle_beta   89.98754855
_cell_angle_gamma   98.72047212
_symmetry_Int_Tables_number   1
_chemical_formula_structural   K8Li4Ho3LuSb8
_chemical_formula_sum   'K8 Li4 Ho3 Lu1 Sb8'
_cell_volume   838.35908406
_cell_formula_units_Z   1
loop_
 _symmetry_equiv_pos_site_id
 _symmetry_equiv_pos_as_xyz
  1  'x, y, z'
loop_
 _atom_site_type_symbol
 _atom_site_label
 _atom_site_symmetry_multiplicity
 _atom_site_fract_x
 _atom_site_fract_y
 _atom_site_fract_z
 _atom_site_occupancy
  K  K0  1  0.569576  0.930052  0.749675  1
  K  K1  1  0.930052  0.569576  0.250325  1
  K  K2  1  0.429717  0.071145  0.250419  1
  K  K3  1  0.071145  0.429717  0.749581  1
  K  K4  1  0.675670  0.323322  0.783773  1
  K  K5  1  0.823483  0.176696  0.283841  1
  K  K6  1  0.323322  0.675670  0.216227  1
  K  K7  1  0.176696  0.823483  0.716159  1
  Li  Li8  1  0.619499  0.619499  0.000000  1
  Li  Li9  1  0.880024  0.880024  0.500000  1
  Li  Li10  1  0.379799  0.379799  0.000000  1
  Li  Li11  1  0.121022  0.121022  0.500000  1
  Ho  Ho12  1  0.869632  0.869632  0.000000  1
  Ho  Ho13  1  0.629532  0.629532  0.500000  1
  Ho  Ho14  1  0.130781  0.130781  0.000000  1
  Lu  Lu15  1  0.370304  0.370304  0.500000  1
  Sb  Sb16  1  0.351706  0.150674  0.747555  1
  Sb  Sb17  1  0.150674  0.351706  0.252445  1
  Sb  Sb18  1  0.648075  0.851308  0.249966  1
  Sb  Sb19  1  0.851308  0.648075  0.750034  1
  Sb  Sb20  1  0.901319  0.099189  0.758214  1
  Sb  Sb21  1  0.597167  0.400309  0.259238  1
  Sb  Sb22  1  0.099189  0.901319  0.241786  1
  Sb  Sb23  1  0.400309  0.597167  0.740762  1
