# generated using pymatgen
data_EuHf(TcO4)6
_symmetry_space_group_name_H-M   'P 1'
_cell_length_a   10.08516000
_cell_length_b   10.08515834
_cell_length_c   6.05379400
_cell_angle_alpha   90.00000000
_cell_angle_beta   90.00000000
_cell_angle_gamma   119.99999232
_symmetry_Int_Tables_number   1
_chemical_formula_structural   EuHf(TcO4)6
_chemical_formula_sum   'Eu1 Hf1 Tc6 O24'
_cell_volume   533.24134812
_cell_formula_units_Z   1
loop_
 _symmetry_equiv_pos_site_id
 _symmetry_equiv_pos_as_xyz
  1  'x, y, z'
loop_
 _atom_site_type_symbol
 _atom_site_label
 _atom_site_symmetry_multiplicity
 _atom_site_fract_x
 _atom_site_fract_y
 _atom_site_fract_z
 _atom_site_occupancy
  Eu  Eu0  1  0.333333  0.666667  0.250000  1
  Hf  Hf1  1  0.666667  0.333333  0.750000  1
  Tc  Tc2  1  0.071118  0.383215  0.750000  1
  Tc  Tc3  1  0.404537  0.297450  0.250000  1
  Tc  Tc4  1  0.616785  0.687900  0.750000  1
  Tc  Tc5  1  0.892913  0.595463  0.250000  1
  Tc  Tc6  1  0.312100  0.928882  0.750000  1
  Tc  Tc7  1  0.702550  0.107087  0.250000  1
  O  O8  1  0.499602  0.644137  0.518360  1
  O  O9  1  0.355863  0.855464  0.518360  1
  O  O10  1  0.817368  0.714080  0.250000  1
  O  O11  1  0.121133  0.871679  0.750000  1
  O  O12  1  0.285920  0.103287  0.250000  1
  O  O13  1  0.128321  0.249454  0.750000  1
  O  O14  1  0.522810  0.353324  0.012375  1
  O  O15  1  0.896713  0.182632  0.250000  1
  O  O16  1  0.090047  0.704276  0.250000  1
  O  O17  1  0.144536  0.500398  0.981640  1
  O  O18  1  0.144536  0.500398  0.518360  1
  O  O19  1  0.869204  0.296764  0.750000  1
  O  O20  1  0.295724  0.385771  0.250000  1
  O  O21  1  0.703236  0.572440  0.750000  1
  O  O22  1  0.830514  0.477190  0.487625  1
  O  O23  1  0.427560  0.130796  0.750000  1
  O  O24  1  0.646676  0.169486  0.012375  1
  O  O25  1  0.499602  0.644137  0.981640  1
  O  O26  1  0.355863  0.855464  0.981640  1
  O  O27  1  0.646676  0.169486  0.487625  1
  O  O28  1  0.522810  0.353324  0.487625  1
  O  O29  1  0.830514  0.477190  0.012375  1
  O  O30  1  0.750546  0.878867  0.750000  1
  O  O31  1  0.614229  0.909953  0.250000  1
