# generated using pymatgen
data_Zr10Sn7Au
_symmetry_space_group_name_H-M   'P 1'
_cell_length_a   8.82406800
_cell_length_b   8.82406709
_cell_length_c   5.96263300
_cell_angle_alpha   90.00000000
_cell_angle_beta   90.00000000
_cell_angle_gamma   120.00000342
_symmetry_Int_Tables_number   1
_chemical_formula_structural   Zr10Sn7Au
_chemical_formula_sum   'Zr10 Sn7 Au1'
_cell_volume   402.07432694
_cell_formula_units_Z   1
loop_
 _symmetry_equiv_pos_site_id
 _symmetry_equiv_pos_as_xyz
  1  'x, y, z'
loop_
 _atom_site_type_symbol
 _atom_site_label
 _atom_site_symmetry_multiplicity
 _atom_site_fract_x
 _atom_site_fract_y
 _atom_site_fract_z
 _atom_site_occupancy
  Zr  Zr0  1  0.333333  0.666667  0.000000  1
  Zr  Zr1  1  0.666667  0.333333  0.500000  1
  Zr  Zr2  1  0.666667  0.333333  0.000000  1
  Zr  Zr3  1  0.333333  0.666667  0.500000  1
  Zr  Zr4  1  0.278359  0.000000  0.249775  1
  Zr  Zr5  1  0.278359  0.278359  0.750225  1
  Zr  Zr6  1  0.000000  0.721641  0.750225  1
  Zr  Zr7  1  0.000000  0.278359  0.249775  1
  Zr  Zr8  1  0.721641  0.721641  0.249775  1
  Zr  Zr9  1  0.721641  0.000000  0.750225  1
  Sn  Sn10  1  0.000000  0.000000  0.500000  1
  Sn  Sn11  1  0.615872  0.000000  0.249883  1
  Sn  Sn12  1  0.615872  0.615872  0.750117  1
  Sn  Sn13  1  0.000000  0.384128  0.750117  1
  Sn  Sn14  1  0.000000  0.615872  0.249883  1
  Sn  Sn15  1  0.384128  0.384128  0.249883  1
  Sn  Sn16  1  0.384128  0.000000  0.750117  1
  Au  Au17  1  0.000000  0.000000  0.000000  1
