# generated using pymatgen
data_Li8Zn2Sn3
_symmetry_space_group_name_H-M   'P 1'
_cell_length_a   9.78331268
_cell_length_b   9.78331330
_cell_length_c   9.78331322
_cell_angle_alpha   48.02390221
_cell_angle_beta   48.02389936
_cell_angle_gamma   48.02389820
_symmetry_Int_Tables_number   1
_chemical_formula_structural   Li8Zn2Sn3
_chemical_formula_sum   'Li16 Zn4 Sn6'
_cell_volume   474.14387160
_cell_formula_units_Z   2
loop_
 _symmetry_equiv_pos_site_id
 _symmetry_equiv_pos_as_xyz
  1  'x, y, z'
loop_
 _atom_site_type_symbol
 _atom_site_label
 _atom_site_symmetry_multiplicity
 _atom_site_fract_x
 _atom_site_fract_y
 _atom_site_fract_z
 _atom_site_occupancy
  Li  Li0  1  0.062367  0.062367  0.062367  1
  Li  Li1  1  0.302296  0.590603  0.956698  1
  Li  Li2  1  0.562367  0.562367  0.562367  1
  Li  Li3  1  0.201494  0.910848  0.558842  1
  Li  Li4  1  0.590603  0.956698  0.302296  1
  Li  Li5  1  0.058842  0.410848  0.701494  1
  Li  Li6  1  0.910848  0.558842  0.201494  1
  Li  Li7  1  0.802296  0.456698  0.090603  1
  Li  Li8  1  0.956698  0.302296  0.590603  1
  Li  Li9  1  0.558842  0.201494  0.910848  1
  Li  Li10  1  0.456698  0.090603  0.802296  1
  Li  Li11  1  0.701494  0.058842  0.410848  1
  Li  Li12  1  0.090603  0.802296  0.456698  1
  Li  Li13  1  0.452687  0.452687  0.452687  1
  Li  Li14  1  0.952687  0.952687  0.952687  1
  Li  Li15  1  0.410848  0.701494  0.058842  1
  Zn  Zn16  1  0.675098  0.675098  0.675098  1
  Zn  Zn17  1  0.336611  0.336611  0.336611  1
  Zn  Zn18  1  0.836611  0.836611  0.836611  1
  Zn  Zn19  1  0.175098  0.175098  0.175098  1
  Sn  Sn20  1  0.186204  0.502299  0.822326  1
  Sn  Sn21  1  0.686204  0.322326  0.002299  1
  Sn  Sn22  1  0.822326  0.186204  0.502299  1
  Sn  Sn23  1  0.322326  0.002299  0.686204  1
  Sn  Sn24  1  0.002299  0.686204  0.322326  1
  Sn  Sn25  1  0.502299  0.822326  0.186204  1
