# generated using pymatgen
data_Nd3Cd3Ge2Pd
_symmetry_space_group_name_H-M   'P 1'
_cell_length_a   7.43913100
_cell_length_b   7.43913038
_cell_length_c   4.46316900
_cell_angle_alpha   90.00000000
_cell_angle_beta   90.00000000
_cell_angle_gamma   119.99999831
_symmetry_Int_Tables_number   1
_chemical_formula_structural   Nd3Cd3Ge2Pd
_chemical_formula_sum   'Nd3 Cd3 Ge2 Pd1'
_cell_volume   213.90372509
_cell_formula_units_Z   1
loop_
 _symmetry_equiv_pos_site_id
 _symmetry_equiv_pos_as_xyz
  1  'x, y, z'
loop_
 _atom_site_type_symbol
 _atom_site_label
 _atom_site_symmetry_multiplicity
 _atom_site_fract_x
 _atom_site_fract_y
 _atom_site_fract_z
 _atom_site_occupancy
  Nd  Nd0  1  0.590512  0.000000  0.000000  1
  Nd  Nd1  1  0.000000  0.590512  0.000000  1
  Nd  Nd2  1  0.409488  0.409488  0.000000  1
  Cd  Cd3  1  0.242871  0.000000  0.500000  1
  Cd  Cd4  1  0.000000  0.242871  0.500000  1
  Cd  Cd5  1  0.757129  0.757129  0.500000  1
  Ge  Ge6  1  0.333333  0.666667  0.500000  1
  Ge  Ge7  1  0.666667  0.333333  0.500000  1
  Pd  Pd8  1  0.000000  0.000000  0.000000  1
