# generated using pymatgen
data_Li3La3Ga2Bi
_symmetry_space_group_name_H-M   'P 1'
_cell_length_a   7.54559900
_cell_length_b   7.54559925
_cell_length_c   4.55337300
_cell_angle_alpha   90.00000000
_cell_angle_beta   90.00000000
_cell_angle_gamma   119.99999451
_symmetry_Int_Tables_number   1
_chemical_formula_structural   Li3La3Ga2Bi
_chemical_formula_sum   'Li3 La3 Ga2 Bi1'
_cell_volume   224.51809117
_cell_formula_units_Z   1
loop_
 _symmetry_equiv_pos_site_id
 _symmetry_equiv_pos_as_xyz
  1  'x, y, z'
loop_
 _atom_site_type_symbol
 _atom_site_label
 _atom_site_symmetry_multiplicity
 _atom_site_fract_x
 _atom_site_fract_y
 _atom_site_fract_z
 _atom_site_occupancy
  Li  Li0  1  0.234927  0.000000  0.500000  1
  Li  Li1  1  0.765073  0.765073  0.500000  1
  Li  Li2  1  0.000000  0.234927  0.500000  1
  La  La3  1  0.000000  0.549696  0.000000  1
  La  La4  1  0.549696  0.000000  0.000000  1
  La  La5  1  0.450304  0.450304  0.000000  1
  Ga  Ga6  1  0.333333  0.666667  0.500000  1
  Ga  Ga7  1  0.666667  0.333333  0.500000  1
  Bi  Bi8  1  0.000000  0.000000  0.000000  1
