# generated using pymatgen
data_CaY6Sn23Ir6
_symmetry_space_group_name_H-M   'P 1'
_cell_length_a   9.89161600
_cell_length_b   9.89161672
_cell_length_c   10.11656000
_cell_angle_alpha   90.00000000
_cell_angle_beta   90.00000000
_cell_angle_gamma   120.00000426
_symmetry_Int_Tables_number   1
_chemical_formula_structural   CaY6Sn23Ir6
_chemical_formula_sum   'Ca1 Y6 Sn23 Ir6'
_cell_volume   857.23126686
_cell_formula_units_Z   1
loop_
 _symmetry_equiv_pos_site_id
 _symmetry_equiv_pos_as_xyz
  1  'x, y, z'
loop_
 _atom_site_type_symbol
 _atom_site_label
 _atom_site_symmetry_multiplicity
 _atom_site_fract_x
 _atom_site_fract_y
 _atom_site_fract_z
 _atom_site_occupancy
  Ca  Ca0  1  0.000000  0.000000  0.000000  1
  Y  Y1  1  0.039811  0.519905  0.307118  1
  Y  Y2  1  0.480095  0.960189  0.307118  1
  Y  Y3  1  0.480095  0.519905  0.307118  1
  Y  Y4  1  0.960189  0.480095  0.692882  1
  Y  Y5  1  0.519905  0.039811  0.692882  1
  Y  Y6  1  0.519905  0.480095  0.692882  1
  Sn  Sn7  1  0.000000  0.000000  0.500000  1
  Sn  Sn8  1  0.117794  0.882206  0.283160  1
  Sn  Sn9  1  0.764412  0.882206  0.283160  1
  Sn  Sn10  1  0.117794  0.235588  0.283160  1
  Sn  Sn11  1  0.882206  0.117794  0.716840  1
  Sn  Sn12  1  0.235588  0.117794  0.716840  1
  Sn  Sn13  1  0.882206  0.764412  0.716840  1
  Sn  Sn14  1  0.351753  0.000000  0.000000  1
  Sn  Sn15  1  0.648247  0.648247  0.000000  1
  Sn  Sn16  1  0.000000  0.351753  0.000000  1
  Sn  Sn17  1  0.351753  0.351753  0.000000  1
  Sn  Sn18  1  0.000000  0.648247  0.000000  1
  Sn  Sn19  1  0.648247  0.000000  0.000000  1
  Sn  Sn20  1  0.777776  0.555553  0.456183  1
  Sn  Sn21  1  0.777776  0.222224  0.456183  1
  Sn  Sn22  1  0.444447  0.222224  0.456183  1
  Sn  Sn23  1  0.222224  0.444447  0.543817  1
  Sn  Sn24  1  0.222224  0.777776  0.543817  1
  Sn  Sn25  1  0.555553  0.777776  0.543817  1
  Sn  Sn26  1  0.666667  0.333333  0.175125  1
  Sn  Sn27  1  0.333333  0.666667  0.824875  1
  Sn  Sn28  1  0.666667  0.333333  0.879169  1
  Sn  Sn29  1  0.333333  0.666667  0.120831  1
  Ir  Ir30  1  0.169949  0.830051  0.799950  1
  Ir  Ir31  1  0.660104  0.830051  0.799950  1
  Ir  Ir32  1  0.169949  0.339896  0.799950  1
  Ir  Ir33  1  0.830051  0.169949  0.200050  1
  Ir  Ir34  1  0.339896  0.169949  0.200050  1
  Ir  Ir35  1  0.830051  0.660104  0.200050  1
