# generated using pymatgen
data_La3PtBr3
_symmetry_space_group_name_H-M   'P 1'
_cell_length_a   10.67515976
_cell_length_b   10.67515974
_cell_length_c   10.67516000
_cell_angle_alpha   109.47122303
_cell_angle_beta   109.47122298
_cell_angle_gamma   109.47122102
_symmetry_Int_Tables_number   1
_chemical_formula_structural   La3PtBr3
_chemical_formula_sum   'La12 Pt4 Br12'
_cell_volume   936.48589453
_cell_formula_units_Z   4
loop_
 _symmetry_equiv_pos_site_id
 _symmetry_equiv_pos_as_xyz
  1  'x, y, z'
loop_
 _atom_site_type_symbol
 _atom_site_label
 _atom_site_symmetry_multiplicity
 _atom_site_fract_x
 _atom_site_fract_y
 _atom_site_fract_z
 _atom_site_occupancy
  La  La0  1  0.472792  0.486396  0.236396  1
  La  La1  1  0.750000  0.236396  0.263604  1
  La  La2  1  0.750000  0.013604  0.486396  1
  La  La3  1  0.236396  0.472792  0.486396  1
  La  La4  1  0.263604  0.750000  0.236396  1
  La  La5  1  0.027208  0.263604  0.013604  1
  La  La6  1  0.013604  0.027208  0.263604  1
  La  La7  1  0.486396  0.750000  0.013604  1
  La  La8  1  0.486396  0.236396  0.472792  1
  La  La9  1  0.013604  0.486396  0.750000  1
  La  La10  1  0.263604  0.013604  0.027208  1
  La  La11  1  0.236396  0.263604  0.750000  1
  Pt  Pt12  1  0.250000  0.250000  0.250000  1
  Pt  Pt13  1  0.500000  0.000000  0.250000  1
  Pt  Pt14  1  0.000000  0.250000  0.500000  1
  Pt  Pt15  1  0.250000  0.500000  0.000000  1
  Br  Br16  1  0.250000  0.755360  0.744640  1
  Br  Br17  1  0.510720  0.505360  0.755360  1
  Br  Br18  1  0.989280  0.744640  0.994640  1
  Br  Br19  1  0.744640  0.250000  0.755360  1
  Br  Br20  1  0.994640  0.989280  0.744640  1
  Br  Br21  1  0.250000  0.994640  0.505360  1
  Br  Br22  1  0.755360  0.510720  0.505360  1
  Br  Br23  1  0.505360  0.250000  0.994640  1
  Br  Br24  1  0.755360  0.744640  0.250000  1
  Br  Br25  1  0.744640  0.994640  0.989280  1
  Br  Br26  1  0.994640  0.505360  0.250000  1
  Br  Br27  1  0.505360  0.755360  0.510720  1
