# generated using pymatgen
data_Ti4VBiTe
_symmetry_space_group_name_H-M   'P 1'
_cell_length_a   7.92386936
_cell_length_b   7.92386845
_cell_length_c   7.78964263
_cell_angle_alpha   96.07306997
_cell_angle_beta   96.07307519
_cell_angle_gamma   142.37193634
_symmetry_Int_Tables_number   1
_chemical_formula_structural   Ti4VBiTe
_chemical_formula_sum   'Ti8 V2 Bi2 Te2'
_cell_volume   282.08262270
_cell_formula_units_Z   2
loop_
 _symmetry_equiv_pos_site_id
 _symmetry_equiv_pos_as_xyz
  1  'x, y, z'
loop_
 _atom_site_type_symbol
 _atom_site_label
 _atom_site_symmetry_multiplicity
 _atom_site_fract_x
 _atom_site_fract_y
 _atom_site_fract_z
 _atom_site_occupancy
  Ti  Ti0  1  0.800932  0.915144  0.716076  1
  Ti  Ti1  1  0.919428  0.197975  0.117403  1
  Ti  Ti2  1  0.584856  0.699068  0.283924  1
  Ti  Ti3  1  0.697975  0.419428  0.117403  1
  Ti  Ti4  1  0.080572  0.802025  0.882597  1
  Ti  Ti5  1  0.199068  0.084856  0.283924  1
  Ti  Ti6  1  0.302025  0.580572  0.882597  1
  Ti  Ti7  1  0.415144  0.300932  0.716076  1
  V  V8  1  0.250000  0.250000  0.000000  1
  V  V9  1  0.750000  0.750000  0.000000  1
  Bi  Bi10  1  0.362279  0.862279  0.224559  1
  Bi  Bi11  1  0.637721  0.137721  0.775441  1
  Te  Te12  1  0.853514  0.646486  0.500000  1
  Te  Te13  1  0.146486  0.353514  0.500000  1
