# generated using pymatgen
data_LiLaNi4
_symmetry_space_group_name_H-M   'P 1'
_cell_length_a   4.97572093
_cell_length_b   4.97572062
_cell_length_c   4.97572200
_cell_angle_alpha   60.00000412
_cell_angle_beta   60.00000621
_cell_angle_gamma   60.00000205
_symmetry_Int_Tables_number   1
_chemical_formula_structural   LiLaNi4
_chemical_formula_sum   'Li1 La1 Ni4'
_cell_volume   87.10701923
_cell_formula_units_Z   1
loop_
 _symmetry_equiv_pos_site_id
 _symmetry_equiv_pos_as_xyz
  1  'x, y, z'
loop_
 _atom_site_type_symbol
 _atom_site_label
 _atom_site_symmetry_multiplicity
 _atom_site_fract_x
 _atom_site_fract_y
 _atom_site_fract_z
 _atom_site_occupancy
  Li  Li0  1  0.750000  0.750000  0.750000  1
  La  La1  1  0.500000  0.500000  0.500000  1
  Ni  Ni2  1  0.123992  0.123992  0.628024  1
  Ni  Ni3  1  0.123992  0.628024  0.123992  1
  Ni  Ni4  1  0.123992  0.123992  0.123992  1
  Ni  Ni5  1  0.628024  0.123992  0.123992  1
