# generated using pymatgen
data_ErLu4In4RuPt
_symmetry_space_group_name_H-M   'P 1'
_cell_length_a   3.55113400
_cell_length_b   7.97223240
_cell_length_c   18.12201205
_cell_angle_alpha   89.89155260
_cell_angle_beta   90.00000000
_cell_angle_gamma   90.00000000
_symmetry_Int_Tables_number   1
_chemical_formula_structural   ErLu4In4RuPt
_chemical_formula_sum   'Er2 Lu8 In8 Ru2 Pt2'
_cell_volume   513.04167873
_cell_formula_units_Z   2
loop_
 _symmetry_equiv_pos_site_id
 _symmetry_equiv_pos_as_xyz
  1  'x, y, z'
loop_
 _atom_site_type_symbol
 _atom_site_label
 _atom_site_symmetry_multiplicity
 _atom_site_fract_x
 _atom_site_fract_y
 _atom_site_fract_z
 _atom_site_occupancy
  Er  Er0  1  0.000000  0.000000  0.000000  1
  Er  Er1  1  0.000000  0.500000  0.500000  1
  Lu  Lu2  1  0.000000  0.115741  0.412135  1
  Lu  Lu3  1  0.000000  0.884259  0.587865  1
  Lu  Lu4  1  0.000000  0.382335  0.914079  1
  Lu  Lu5  1  0.000000  0.617665  0.085921  1
  Lu  Lu6  1  0.000000  0.237387  0.222579  1
  Lu  Lu7  1  0.000000  0.762613  0.777421  1
  Lu  Lu8  1  0.000000  0.248112  0.720050  1
  Lu  Lu9  1  0.000000  0.751888  0.279950  1
  In  In10  1  0.500000  0.423889  0.351989  1
  In  In11  1  0.500000  0.576111  0.648011  1
  In  In12  1  0.500000  0.070231  0.850238  1
  In  In13  1  0.500000  0.929769  0.149762  1
  In  In14  1  0.500000  0.292073  0.065603  1
  In  In15  1  0.500000  0.707927  0.934397  1
  In  In16  1  0.500000  0.205896  0.567629  1
  In  In17  1  0.500000  0.794104  0.432371  1
  Ru  Ru18  1  0.500000  0.023485  0.303624  1
  Ru  Ru19  1  0.500000  0.976515  0.696376  1
  Pt  Pt20  1  0.500000  0.474972  0.803799  1
  Pt  Pt21  1  0.500000  0.525028  0.196201  1
