# generated using pymatgen
data_La2YbPa3(Ni3Bi4)2
_symmetry_space_group_name_H-M   'P 1'
_cell_length_a   8.42016279
_cell_length_b   8.42422751
_cell_length_c   8.42016259
_cell_angle_alpha   109.86149383
_cell_angle_beta   109.20979634
_cell_angle_gamma   109.32344986
_symmetry_Int_Tables_number   1
_chemical_formula_structural   La2YbPa3(Ni3Bi4)2
_chemical_formula_sum   'La2 Yb1 Pa3 Ni6 Bi8'
_cell_volume   459.87361666
_cell_formula_units_Z   1
loop_
 _symmetry_equiv_pos_site_id
 _symmetry_equiv_pos_as_xyz
  1  'x, y, z'
loop_
 _atom_site_type_symbol
 _atom_site_label
 _atom_site_symmetry_multiplicity
 _atom_site_fract_x
 _atom_site_fract_y
 _atom_site_fract_z
 _atom_site_occupancy
  La  La0  1  0.251230  0.127968  0.877886  1
  La  La1  1  0.749918  0.372032  0.623262  1
  Yb  Yb2  1  0.628186  0.750000  0.378186  1
  Pa  Pa3  1  0.125415  0.878915  0.250264  1
  Pa  Pa4  1  0.371349  0.621085  0.746500  1
  Pa  Pa5  1  0.870610  0.250000  0.120610  1
  Ni  Ni6  1  0.649103  0.360307  0.236343  1
  Ni  Ni7  1  0.876036  0.139693  0.788795  1
  Ni  Ni8  1  0.366745  0.250000  0.616745  1
  Ni  Ni9  1  0.130978  0.750000  0.880978  1
  Ni  Ni10  1  0.232028  0.612541  0.368997  1
  Ni  Ni11  1  0.756455  0.887459  0.119487  1
  Bi  Bi12  1  0.336010  0.338349  0.335080  1
  Bi  Bi13  1  0.169795  0.506860  0.005117  1
  Bi  Bi14  1  0.996732  0.161651  0.497661  1
  Bi  Bi15  1  0.832003  0.830616  0.832649  1
  Bi  Bi16  1  0.498258  0.993140  0.162936  1
  Bi  Bi17  1  0.664571  0.508436  0.000980  1
  Bi  Bi18  1  0.492544  0.991564  0.656134  1
  Bi  Bi19  1  0.002033  0.669384  0.501387  1
