# generated using pymatgen
data_Sr3Tb2Si12Ir19
_symmetry_space_group_name_H-M   'P 1'
_cell_length_a   12.90447100
_cell_length_b   12.90447200
_cell_length_c   4.04981500
_cell_angle_alpha   90.00000000
_cell_angle_beta   90.00000000
_cell_angle_gamma   120.00000512
_symmetry_Int_Tables_number   1
_chemical_formula_structural   Sr3Tb2Si12Ir19
_chemical_formula_sum   'Sr3 Tb2 Si12 Ir19'
_cell_volume   584.04490492
_cell_formula_units_Z   1
loop_
 _symmetry_equiv_pos_site_id
 _symmetry_equiv_pos_as_xyz
  1  'x, y, z'
loop_
 _atom_site_type_symbol
 _atom_site_label
 _atom_site_symmetry_multiplicity
 _atom_site_fract_x
 _atom_site_fract_y
 _atom_site_fract_z
 _atom_site_occupancy
  Sr  Sr0  1  0.000000  0.816588  0.500000  1
  Sr  Sr1  1  0.183412  0.183412  0.500000  1
  Sr  Sr2  1  0.816588  0.000000  0.500000  1
  Tb  Tb3  1  0.333333  0.666667  0.000000  1
  Tb  Tb4  1  0.666667  0.333333  0.000000  1
  Si  Si5  1  0.000000  0.186795  0.000000  1
  Si  Si6  1  0.813205  0.813205  0.000000  1
  Si  Si7  1  0.186795  0.000000  0.000000  1
  Si  Si8  1  0.519289  0.689801  0.500000  1
  Si  Si9  1  0.310199  0.829487  0.500000  1
  Si  Si10  1  0.170513  0.480711  0.500000  1
  Si  Si11  1  0.480711  0.170513  0.500000  1
  Si  Si12  1  0.689801  0.519289  0.500000  1
  Si  Si13  1  0.829487  0.310199  0.500000  1
  Si  Si14  1  0.000000  0.629931  0.000000  1
  Si  Si15  1  0.370069  0.370069  0.000000  1
  Si  Si16  1  0.629931  0.000000  0.000000  1
  Ir  Ir17  1  0.000000  0.287623  0.500000  1
  Ir  Ir18  1  0.712377  0.712377  0.500000  1
  Ir  Ir19  1  0.287623  0.000000  0.500000  1
  Ir  Ir20  1  0.617501  0.802063  0.000000  1
  Ir  Ir21  1  0.197937  0.815438  0.000000  1
  Ir  Ir22  1  0.184562  0.382499  0.000000  1
  Ir  Ir23  1  0.382499  0.184562  0.000000  1
  Ir  Ir24  1  0.802063  0.617501  0.000000  1
  Ir  Ir25  1  0.815438  0.197937  0.000000  1
  Ir  Ir26  1  0.510305  0.874085  0.500000  1
  Ir  Ir27  1  0.125915  0.636220  0.500000  1
  Ir  Ir28  1  0.363780  0.489695  0.500000  1
  Ir  Ir29  1  0.489695  0.363780  0.500000  1
  Ir  Ir30  1  0.874085  0.510305  0.500000  1
  Ir  Ir31  1  0.636220  0.125915  0.500000  1
  Ir  Ir32  1  0.000000  0.000000  0.000000  1
  Ir  Ir33  1  0.000000  0.448131  0.000000  1
  Ir  Ir34  1  0.551869  0.551869  0.000000  1
  Ir  Ir35  1  0.448131  0.000000  0.000000  1
