# generated using pymatgen
data_VZn2Ni2SbO8
_symmetry_space_group_name_H-M   'P 1'
_cell_length_a   6.13511240
_cell_length_b   6.13736475
_cell_length_c   6.17880542
_cell_angle_alpha   58.59974912
_cell_angle_beta   58.63738380
_cell_angle_gamma   58.68476715
_symmetry_Int_Tables_number   1
_chemical_formula_structural   VZn2Ni2SbO8
_chemical_formula_sum   'V1 Zn2 Ni2 Sb1 O8'
_cell_volume   159.39877583
_cell_formula_units_Z   1
loop_
 _symmetry_equiv_pos_site_id
 _symmetry_equiv_pos_as_xyz
  1  'x, y, z'
loop_
 _atom_site_type_symbol
 _atom_site_label
 _atom_site_symmetry_multiplicity
 _atom_site_fract_x
 _atom_site_fract_y
 _atom_site_fract_z
 _atom_site_occupancy
  V  V0  1  0.499997  0.499998  0.000001  1
  Zn  Zn1  1  0.139209  0.138335  0.128617  1
  Zn  Zn2  1  0.860804  0.861662  0.871379  1
  Ni  Ni3  1  0.999986  0.499978  0.500011  1
  Ni  Ni4  1  0.500020  0.000009  0.500006  1
  Sb  Sb5  1  0.499987  0.500014  0.499995  1
  O  O6  1  0.266796  0.267746  0.257559  1
  O  O7  1  0.266814  0.266244  0.721410  1
  O  O8  1  0.269491  0.725516  0.259780  1
  O  O9  1  0.724919  0.270873  0.258197  1
  O  O10  1  0.275089  0.729140  0.741793  1
  O  O11  1  0.730492  0.274483  0.740217  1
  O  O12  1  0.733183  0.733760  0.278589  1
  O  O13  1  0.733214  0.732246  0.742447  1
