# generated using pymatgen
data_Dy8Cd2NiIr
_symmetry_space_group_name_H-M   'P 1'
_cell_length_a   9.58546943
_cell_length_b   9.58546970
_cell_length_c   9.63889600
_cell_angle_alpha   59.81545239
_cell_angle_beta   59.81545144
_cell_angle_gamma   59.60437340
_symmetry_Int_Tables_number   1
_chemical_formula_structural   Dy8Cd2NiIr
_chemical_formula_sum   'Dy16 Cd4 Ni2 Ir2'
_cell_volume   622.60681660
_cell_formula_units_Z   2
loop_
 _symmetry_equiv_pos_site_id
 _symmetry_equiv_pos_as_xyz
  1  'x, y, z'
loop_
 _atom_site_type_symbol
 _atom_site_label
 _atom_site_symmetry_multiplicity
 _atom_site_fract_x
 _atom_site_fract_y
 _atom_site_fract_z
 _atom_site_occupancy
  Dy  Dy0  1  0.600303  0.600303  0.594276  1
  Dy  Dy1  1  0.600303  0.600303  0.205119  1
  Dy  Dy2  1  0.602846  0.203564  0.596795  1
  Dy  Dy3  1  0.203564  0.602846  0.596795  1
  Dy  Dy4  1  0.059022  0.437384  0.440617  1
  Dy  Dy5  1  0.437384  0.059022  0.062977  1
  Dy  Dy6  1  0.437384  0.059022  0.440617  1
  Dy  Dy7  1  0.059022  0.437384  0.062977  1
  Dy  Dy8  1  0.439212  0.439212  0.060788  1
  Dy  Dy9  1  0.060937  0.060937  0.439063  1
  Dy  Dy10  1  0.187329  0.810472  0.816372  1
  Dy  Dy11  1  0.810472  0.187329  0.185827  1
  Dy  Dy12  1  0.810472  0.187329  0.816372  1
  Dy  Dy13  1  0.187329  0.810472  0.185827  1
  Dy  Dy14  1  0.815479  0.815479  0.184521  1
  Dy  Dy15  1  0.188882  0.188882  0.811118  1
  Cd  Cd16  1  0.829810  0.829810  0.832307  1
  Cd  Cd17  1  0.829810  0.829810  0.508073  1
  Cd  Cd18  1  0.830337  0.506007  0.831827  1
  Cd  Cd19  1  0.506007  0.830337  0.831827  1
  Ni  Ni20  1  0.392543  0.824932  0.391262  1
  Ni  Ni21  1  0.824932  0.392543  0.391262  1
  Ir  Ir22  1  0.393311  0.393311  0.390588  1
  Ir  Ir23  1  0.393311  0.393311  0.822790  1
