# generated using pymatgen
data_Y5(FeB3)2
_symmetry_space_group_name_H-M   'P 1'
_cell_length_a   5.42135819
_cell_length_b   5.42135764
_cell_length_c   8.35948642
_cell_angle_alpha   71.07903332
_cell_angle_beta   71.07903363
_cell_angle_gamma   59.99999314
_symmetry_Int_Tables_number   1
_chemical_formula_structural   Y5(FeB3)2
_chemical_formula_sum   'Y5 Fe2 B6'
_cell_volume   197.29956619
_cell_formula_units_Z   1
loop_
 _symmetry_equiv_pos_site_id
 _symmetry_equiv_pos_as_xyz
  1  'x, y, z'
loop_
 _atom_site_type_symbol
 _atom_site_label
 _atom_site_symmetry_multiplicity
 _atom_site_fract_x
 _atom_site_fract_y
 _atom_site_fract_z
 _atom_site_occupancy
  Y  Y0  1  0.000000  0.000000  0.000000  1
  Y  Y1  1  0.251077  0.251077  0.246768  1
  Y  Y2  1  0.748923  0.748923  0.753232  1
  Y  Y3  1  0.416942  0.416942  0.749172  1
  Y  Y4  1  0.583058  0.583058  0.250828  1
  Fe  Fe5  1  0.119316  0.119316  0.642051  1
  Fe  Fe6  1  0.880684  0.880684  0.357949  1
  B  B7  1  0.167583  0.832417  0.500000  1
  B  B8  1  0.832417  0.500000  0.500000  1
  B  B9  1  0.500000  0.167583  0.500000  1
  B  B10  1  0.167583  0.500000  0.500000  1
  B  B11  1  0.500000  0.832417  0.500000  1
  B  B12  1  0.832417  0.167583  0.500000  1
