# generated using pymatgen
data_Sc5Si7Ni16Ru
_symmetry_space_group_name_H-M   'P 1'
_cell_length_a   8.01513456
_cell_length_b   8.01513461
_cell_length_c   8.00162200
_cell_angle_alpha   60.05575302
_cell_angle_beta   60.05575281
_cell_angle_gamma   59.88848530
_symmetry_Int_Tables_number   1
_chemical_formula_structural   Sc5Si7Ni16Ru
_chemical_formula_sum   'Sc5 Si7 Ni16 Ru1'
_cell_volume   363.48138763
_cell_formula_units_Z   1
loop_
 _symmetry_equiv_pos_site_id
 _symmetry_equiv_pos_as_xyz
  1  'x, y, z'
loop_
 _atom_site_type_symbol
 _atom_site_label
 _atom_site_symmetry_multiplicity
 _atom_site_fract_x
 _atom_site_fract_y
 _atom_site_fract_z
 _atom_site_occupancy
  Sc  Sc0  1  0.301388  0.706788  0.293212  1
  Sc  Sc1  1  0.706788  0.301388  0.293212  1
  Sc  Sc2  1  0.284910  0.284910  0.715090  1
  Sc  Sc3  1  0.706788  0.301388  0.698612  1
  Sc  Sc4  1  0.301388  0.706788  0.698612  1
  Si  Si5  1  0.004241  0.004241  0.995759  1
  Si  Si6  1  0.997667  0.997667  0.502333  1
  Si  Si7  1  0.509966  0.991856  0.490034  1
  Si  Si8  1  0.991856  0.509966  0.490034  1
  Si  Si9  1  0.497667  0.497667  0.002333  1
  Si  Si10  1  0.991856  0.509966  0.008144  1
  Si  Si11  1  0.509966  0.991856  0.008144  1
  Ni  Ni12  1  0.881035  0.881035  0.351672  1
  Ni  Ni13  1  0.880087  0.356869  0.881521  1
  Ni  Ni14  1  0.356869  0.880087  0.881521  1
  Ni  Ni15  1  0.881035  0.881035  0.886256  1
  Ni  Ni16  1  0.118479  0.118479  0.643131  1
  Ni  Ni17  1  0.113744  0.648328  0.118965  1
  Ni  Ni18  1  0.648328  0.113744  0.118965  1
  Ni  Ni19  1  0.118479  0.118479  0.119913  1
  Ni  Ni20  1  0.668251  0.668251  0.990765  1
  Ni  Ni21  1  0.666000  0.997220  0.668389  1
  Ni  Ni22  1  0.997220  0.666000  0.668389  1
  Ni  Ni23  1  0.668251  0.668251  0.672734  1
  Ni  Ni24  1  0.331611  0.331611  0.002780  1
  Ni  Ni25  1  0.327266  0.009235  0.331749  1
  Ni  Ni26  1  0.009235  0.327266  0.331749  1
  Ni  Ni27  1  0.331611  0.331611  0.334000  1
  Ru  Ru28  1  0.698019  0.698019  0.301981  1
