# generated using pymatgen
data_TbYZr2(Ga3Rh)6
_symmetry_space_group_name_H-M   'P 1'
_cell_length_a   7.52955217
_cell_length_b   7.52982119
_cell_length_c   9.43638200
_cell_angle_alpha   89.99990108
_cell_angle_beta   89.99995434
_cell_angle_gamma   119.85018887
_symmetry_Int_Tables_number   1
_chemical_formula_structural   TbYZr2(Ga3Rh)6
_chemical_formula_sum   'Tb1 Y1 Zr2 Ga18 Rh6'
_cell_volume   464.02735877
_cell_formula_units_Z   1
loop_
 _symmetry_equiv_pos_site_id
 _symmetry_equiv_pos_as_xyz
  1  'x, y, z'
loop_
 _atom_site_type_symbol
 _atom_site_label
 _atom_site_symmetry_multiplicity
 _atom_site_fract_x
 _atom_site_fract_y
 _atom_site_fract_z
 _atom_site_occupancy
  Tb  Tb0  1  0.330290  0.003475  0.750000  1
  Y  Y1  1  0.996571  0.669810  0.249999  1
  Zr  Zr2  1  0.004899  0.332219  0.750000  1
  Zr  Zr3  1  0.667778  0.995113  0.250000  1
  Ga  Ga4  1  0.123655  0.126484  0.250000  1
  Ga  Ga5  1  0.873562  0.876202  0.750000  1
  Ga  Ga6  1  0.996125  0.330711  0.078675  1
  Ga  Ga7  1  0.999744  0.661896  0.918185  1
  Ga  Ga8  1  0.999743  0.661894  0.581815  1
  Ga  Ga9  1  0.337994  0.000228  0.418191  1
  Ga  Ga10  1  0.996125  0.330712  0.421325  1
  Ga  Ga11  1  0.669368  0.003915  0.578780  1
  Ga  Ga12  1  0.669367  0.003915  0.921220  1
  Ga  Ga13  1  0.337993  0.000228  0.081809  1
  Ga  Ga14  1  0.330221  0.333161  0.567911  1
  Ga  Ga15  1  0.666846  0.669722  0.432012  1
  Ga  Ga16  1  0.666845  0.669721  0.067988  1
  Ga  Ga17  1  0.330221  0.333161  0.932090  1
  Ga  Ga18  1  0.340400  0.550084  0.250000  1
  Ga  Ga19  1  0.663766  0.451877  0.750000  1
  Ga  Ga20  1  0.548131  0.336063  0.250000  1
  Ga  Ga21  1  0.449956  0.659702  0.750000  1
  Rh  Rh22  1  0.671764  0.328304  0.000027  1
  Rh  Rh23  1  0.328310  0.671810  0.000029  1
  Rh  Rh24  1  0.328311  0.671809  0.499971  1
  Rh  Rh25  1  0.671765  0.328303  0.499973  1
  Rh  Rh26  1  0.000126  0.999741  0.000097  1
  Rh  Rh27  1  0.000125  0.999742  0.499905  1
