# generated using pymatgen
data_Hf3Zr3(Zn3N)2
_symmetry_space_group_name_H-M   'P 1'
_cell_length_a   8.56081948
_cell_length_b   8.56081954
_cell_length_c   8.56081900
_cell_angle_alpha   59.99999821
_cell_angle_beta   59.99999800
_cell_angle_gamma   60.00000334
_symmetry_Int_Tables_number   1
_chemical_formula_structural   Hf3Zr3(Zn3N)2
_chemical_formula_sum   'Hf6 Zr6 Zn12 N4'
_cell_volume   443.64030713
_cell_formula_units_Z   2
loop_
 _symmetry_equiv_pos_site_id
 _symmetry_equiv_pos_as_xyz
  1  'x, y, z'
loop_
 _atom_site_type_symbol
 _atom_site_label
 _atom_site_symmetry_multiplicity
 _atom_site_fract_x
 _atom_site_fract_y
 _atom_site_fract_z
 _atom_site_occupancy
  Hf  Hf0  1  0.434479  0.065521  0.065521  1
  Hf  Hf1  1  0.065521  0.434479  0.065521  1
  Hf  Hf2  1  0.434479  0.434479  0.065521  1
  Hf  Hf3  1  0.065521  0.434479  0.434479  1
  Hf  Hf4  1  0.434479  0.065521  0.434479  1
  Hf  Hf5  1  0.065521  0.065521  0.434479  1
  Zr  Zr6  1  0.813591  0.186409  0.186409  1
  Zr  Zr7  1  0.186409  0.813591  0.186409  1
  Zr  Zr8  1  0.813591  0.813591  0.186409  1
  Zr  Zr9  1  0.186409  0.813591  0.813591  1
  Zr  Zr10  1  0.813591  0.186409  0.813591  1
  Zr  Zr11  1  0.186409  0.186409  0.813591  1
  Zn  Zn12  1  0.417530  0.417530  0.747410  1
  Zn  Zn13  1  0.417530  0.417530  0.417530  1
  Zn  Zn14  1  0.747410  0.417530  0.417530  1
  Zn  Zn15  1  0.417530  0.747410  0.417530  1
  Zn  Zn16  1  0.831469  0.831469  0.505595  1
  Zn  Zn17  1  0.831469  0.831469  0.831469  1
  Zn  Zn18  1  0.505595  0.831469  0.831469  1
  Zn  Zn19  1  0.831469  0.505595  0.831469  1
  Zn  Zn20  1  0.624715  0.624715  0.125854  1
  Zn  Zn21  1  0.624715  0.624715  0.624715  1
  Zn  Zn22  1  0.125854  0.624715  0.624715  1
  Zn  Zn23  1  0.624715  0.125854  0.624715  1
  N  N24  1  0.127315  0.127315  0.618056  1
  N  N25  1  0.127315  0.127315  0.127315  1
  N  N26  1  0.618056  0.127315  0.127315  1
  N  N27  1  0.127315  0.618056  0.127315  1
