# generated using pymatgen
data_Lu16Ga6FeNi
_symmetry_space_group_name_H-M   'P 1'
_cell_length_a   9.73483900
_cell_length_b   9.73486636
_cell_length_c   6.73324800
_cell_angle_alpha   89.99995880
_cell_angle_beta   89.99998823
_cell_angle_gamma   119.99979488
_symmetry_Int_Tables_number   1
_chemical_formula_structural   Lu16Ga6FeNi
_chemical_formula_sum   'Lu16 Ga6 Fe1 Ni1'
_cell_volume   552.60512399
_cell_formula_units_Z   1
loop_
 _symmetry_equiv_pos_site_id
 _symmetry_equiv_pos_as_xyz
  1  'x, y, z'
loop_
 _atom_site_type_symbol
 _atom_site_label
 _atom_site_symmetry_multiplicity
 _atom_site_fract_x
 _atom_site_fract_y
 _atom_site_fract_z
 _atom_site_occupancy
  Lu  Lu0  1  0.173332  0.826786  0.508600  1
  Lu  Lu1  1  0.653899  0.826992  0.508408  1
  Lu  Lu2  1  0.173186  0.346155  0.508329  1
  Lu  Lu3  1  0.826700  0.173431  0.010281  1
  Lu  Lu4  1  0.346584  0.173389  0.010219  1
  Lu  Lu5  1  0.826793  0.653502  0.010233  1
  Lu  Lu6  1  0.333377  0.666681  0.832222  1
  Lu  Lu7  1  0.666718  0.333423  0.331611  1
  Lu  Lu8  1  0.463668  0.536554  0.207879  1
  Lu  Lu9  1  0.073339  0.536659  0.208066  1
  Lu  Lu10  1  0.463494  0.926868  0.208190  1
  Lu  Lu11  1  0.532269  0.467824  0.704878  1
  Lu  Lu12  1  0.935222  0.467656  0.705152  1
  Lu  Lu13  1  0.532345  0.064765  0.705148  1
  Lu  Lu14  1  0.000043  0.000007  0.230952  1
  Lu  Lu15  1  0.000079  0.000097  0.733713  1
  Ga  Ga16  1  0.162606  0.837488  0.959941  1
  Ga  Ga17  1  0.674220  0.837381  0.959802  1
  Ga  Ga18  1  0.162564  0.325084  0.959608  1
  Ga  Ga19  1  0.835603  0.164123  0.460711  1
  Ga  Ga20  1  0.328047  0.163611  0.460097  1
  Ga  Ga21  1  0.836036  0.671774  0.460324  1
  Fe  Fe22  1  0.333552  0.666706  0.447697  1
  Ni  Ni23  1  0.666328  0.333046  0.941982  1
