# generated using pymatgen
data_Y4ReB12Ru
_symmetry_space_group_name_H-M   'P 1'
_cell_length_a   3.67830200
_cell_length_b   9.17996247
_cell_length_c   11.56827700
_cell_angle_alpha   90.20826094
_cell_angle_beta   90.00000000
_cell_angle_gamma   90.00000000
_symmetry_Int_Tables_number   1
_chemical_formula_structural   Y4ReB12Ru
_chemical_formula_sum   'Y8 Re2 B24 Ru2'
_cell_volume   390.61966138
_cell_formula_units_Z   2
loop_
 _symmetry_equiv_pos_site_id
 _symmetry_equiv_pos_as_xyz
  1  'x, y, z'
loop_
 _atom_site_type_symbol
 _atom_site_label
 _atom_site_symmetry_multiplicity
 _atom_site_fract_x
 _atom_site_fract_y
 _atom_site_fract_z
 _atom_site_occupancy
  Y  Y0  1  0.000000  0.321153  0.412476  1
  Y  Y1  1  0.000000  0.678847  0.587524  1
  Y  Y2  1  0.000000  0.824765  0.084475  1
  Y  Y3  1  0.000000  0.175235  0.915525  1
  Y  Y4  1  0.000000  0.942749  0.370453  1
  Y  Y5  1  0.000000  0.057251  0.629547  1
  Y  Y6  1  0.000000  0.442776  0.129350  1
  Y  Y7  1  0.000000  0.557224  0.870650  1
  Re  Re8  1  0.000000  0.138814  0.179805  1
  Re  Re9  1  0.000000  0.861186  0.820195  1
  B  B10  1  0.500000  0.554068  0.432822  1
  B  B11  1  0.500000  0.445932  0.567178  1
  B  B12  1  0.500000  0.053292  0.067013  1
  B  B13  1  0.500000  0.946708  0.932987  1
  B  B14  1  0.500000  0.748219  0.418652  1
  B  B15  1  0.500000  0.251781  0.581348  1
  B  B16  1  0.500000  0.248630  0.081303  1
  B  B17  1  0.500000  0.751370  0.918697  1
  B  B18  1  0.500000  0.790342  0.265905  1
  B  B19  1  0.500000  0.209658  0.734095  1
  B  B20  1  0.500000  0.291476  0.234756  1
  B  B21  1  0.500000  0.708524  0.765244  1
  B  B22  1  0.500000  0.631110  0.186326  1
  B  B23  1  0.500000  0.368890  0.813674  1
  B  B24  1  0.500000  0.131383  0.314590  1
  B  B25  1  0.500000  0.868617  0.685410  1
  B  B26  1  0.500000  0.983057  0.212241  1
  B  B27  1  0.500000  0.016943  0.787759  1
  B  B28  1  0.500000  0.483786  0.288336  1
  B  B29  1  0.500000  0.516214  0.711664  1
  B  B30  1  0.500000  0.603565  0.028827  1
  B  B31  1  0.500000  0.396435  0.971173  1
  B  B32  1  0.500000  0.104002  0.471324  1
  B  B33  1  0.500000  0.895998  0.528676  1
  Ru  Ru34  1  0.000000  0.637722  0.321725  1
  Ru  Ru35  1  0.000000  0.362278  0.678275  1
