# generated using pymatgen
data_La3PrAl17GaIr6
_symmetry_space_group_name_H-M   'P 1'
_cell_length_a   7.64668043
_cell_length_b   7.64885892
_cell_length_c   9.68519000
_cell_angle_alpha   90.00000000
_cell_angle_beta   90.00000000
_cell_angle_gamma   119.22917683
_symmetry_Int_Tables_number   1
_chemical_formula_structural   La3PrAl17GaIr6
_chemical_formula_sum   'La3 Pr1 Al17 Ga1 Ir6'
_cell_volume   494.34430999
_cell_formula_units_Z   1
loop_
 _symmetry_equiv_pos_site_id
 _symmetry_equiv_pos_as_xyz
  1  'x, y, z'
loop_
 _atom_site_type_symbol
 _atom_site_label
 _atom_site_symmetry_multiplicity
 _atom_site_fract_x
 _atom_site_fract_y
 _atom_site_fract_z
 _atom_site_occupancy
  La  La0  1  0.993951  0.673456  0.250000  1
  La  La1  1  0.004045  0.328393  0.750000  1
  La  La2  1  0.674425  0.994416  0.250000  1
  Pr  Pr3  1  0.328393  0.003976  0.750000  1
  Al  Al4  1  0.867382  0.866665  0.750000  1
  Al  Al5  1  0.004506  0.336692  0.071689  1
  Al  Al6  1  0.996736  0.664871  0.927108  1
  Al  Al7  1  0.996736  0.664871  0.572892  1
  Al  Al8  1  0.336530  0.004109  0.429187  1
  Al  Al9  1  0.004506  0.336692  0.428311  1
  Al  Al10  1  0.663053  0.995879  0.572815  1
  Al  Al11  1  0.663053  0.995879  0.927185  1
  Al  Al12  1  0.336530  0.004109  0.070813  1
  Al  Al13  1  0.334555  0.333914  0.547434  1
  Al  Al14  1  0.664029  0.664059  0.457336  1
  Al  Al15  1  0.664029  0.664059  0.042664  1
  Al  Al16  1  0.334555  0.333914  0.952566  1
  Al  Al17  1  0.338166  0.545387  0.250000  1
  Al  Al18  1  0.659786  0.453723  0.750000  1
  Al  Al19  1  0.544989  0.337948  0.250000  1
  Al  Al20  1  0.454904  0.661950  0.750000  1
  Ga  Ga21  1  0.138735  0.138655  0.250000  1
  Ir  Ir22  1  0.669921  0.328812  0.000129  1
  Ir  Ir23  1  0.329007  0.670188  0.000004  1
  Ir  Ir24  1  0.329007  0.670188  0.499996  1
  Ir  Ir25  1  0.669921  0.328812  0.499871  1
  Ir  Ir26  1  0.999277  0.999193  0.997456  1
  Ir  Ir27  1  0.999277  0.999193  0.502544  1
