# generated using pymatgen
data_SrPr7(As7Ir8)2
_symmetry_space_group_name_H-M   'P 1'
_cell_length_a   4.14805900
_cell_length_b   13.29221132
_cell_length_c   13.69123400
_cell_angle_alpha   81.75074622
_cell_angle_beta   90.00000000
_cell_angle_gamma   90.00000000
_symmetry_Int_Tables_number   1
_chemical_formula_structural   SrPr7(As7Ir8)2
_chemical_formula_sum   'Sr1 Pr7 As14 Ir16'
_cell_volume   747.08120878
_cell_formula_units_Z   1
loop_
 _symmetry_equiv_pos_site_id
 _symmetry_equiv_pos_as_xyz
  1  'x, y, z'
loop_
 _atom_site_type_symbol
 _atom_site_label
 _atom_site_symmetry_multiplicity
 _atom_site_fract_x
 _atom_site_fract_y
 _atom_site_fract_z
 _atom_site_occupancy
  Sr  Sr0  1  0.250000  0.102243  0.794176  1
  Pr  Pr1  1  0.750000  0.900418  0.207570  1
  Pr  Pr2  1  0.250000  0.287164  0.103180  1
  Pr  Pr3  1  0.750000  0.713347  0.896875  1
  Pr  Pr4  1  0.250000  0.519224  0.293354  1
  Pr  Pr5  1  0.750000  0.480153  0.706374  1
  Pr  Pr6  1  0.250000  0.207807  0.438410  1
  Pr  Pr7  1  0.750000  0.790909  0.561259  1
  As  As8  1  0.250000  0.057175  0.099385  1
  As  As9  1  0.750000  0.942197  0.900072  1
  As  As10  1  0.250000  0.312006  0.687210  1
  As  As11  1  0.750000  0.688920  0.311888  1
  As  As12  1  0.250000  0.607376  0.566231  1
  As  As13  1  0.750000  0.392646  0.433667  1
  As  As14  1  0.250000  0.847342  0.720895  1
  As  As15  1  0.750000  0.152404  0.280501  1
  As  As16  1  0.750000  0.257015  0.918094  1
  As  As17  1  0.250000  0.743043  0.082287  1
  As  As18  1  0.750000  0.095342  0.587152  1
  As  As19  1  0.250000  0.904979  0.412686  1
  As  As20  1  0.750000  0.472005  0.128541  1
  As  As21  1  0.250000  0.528347  0.871758  1
  Ir  Ir22  1  0.250000  0.988677  0.574175  1
  Ir  Ir23  1  0.750000  0.010699  0.425511  1
  Ir  Ir24  1  0.250000  0.664913  0.733703  1
  Ir  Ir25  1  0.750000  0.334836  0.266629  1
  Ir  Ir26  1  0.250000  0.555146  0.046205  1
  Ir  Ir27  1  0.750000  0.445066  0.954194  1
  Ir  Ir28  1  0.250000  0.054039  0.276880  1
  Ir  Ir29  1  0.750000  0.941636  0.720770  1
  Ir  Ir30  1  0.250000  0.426083  0.525830  1
  Ir  Ir31  1  0.750000  0.575278  0.473074  1
  Ir  Ir32  1  0.250000  0.917559  0.998884  1
  Ir  Ir33  1  0.750000  0.080740  0.004411  1
  Ir  Ir34  1  0.250000  0.722661  0.400369  1
  Ir  Ir35  1  0.750000  0.279400  0.598126  1
  Ir  Ir36  1  0.250000  0.344807  0.860345  1
  Ir  Ir37  1  0.750000  0.656397  0.139326  1
