# generated using pymatgen
data_ErZr3Cr4(Co4P3)4
_symmetry_space_group_name_H-M   'P 1'
_cell_length_a   3.62283300
_cell_length_b   10.21116573
_cell_length_c   11.66394317
_cell_angle_alpha   89.94388631
_cell_angle_beta   90.00000000
_cell_angle_gamma   90.00000000
_symmetry_Int_Tables_number   1
_chemical_formula_structural   ErZr3Cr4(Co4P3)4
_chemical_formula_sum   'Er1 Zr3 Cr4 Co16 P12'
_cell_volume   431.48810384
_cell_formula_units_Z   1
loop_
 _symmetry_equiv_pos_site_id
 _symmetry_equiv_pos_as_xyz
  1  'x, y, z'
loop_
 _atom_site_type_symbol
 _atom_site_label
 _atom_site_symmetry_multiplicity
 _atom_site_fract_x
 _atom_site_fract_y
 _atom_site_fract_z
 _atom_site_occupancy
  Er  Er0  1  0.750000  0.082984  0.795302  1
  Zr  Zr1  1  0.250000  0.583460  0.704361  1
  Zr  Zr2  1  0.250000  0.916546  0.203908  1
  Zr  Zr3  1  0.750000  0.416661  0.295978  1
  Cr  Cr4  1  0.250000  0.712170  0.989186  1
  Cr  Cr5  1  0.250000  0.786815  0.487620  1
  Cr  Cr6  1  0.750000  0.288587  0.012788  1
  Cr  Cr7  1  0.750000  0.212868  0.511055  1
  Co  Co8  1  0.250000  0.408198  0.487742  1
  Co  Co9  1  0.250000  0.091745  0.991526  1
  Co  Co10  1  0.750000  0.592032  0.512005  1
  Co  Co11  1  0.750000  0.905797  0.013107  1
  Co  Co12  1  0.250000  0.223229  0.179949  1
  Co  Co13  1  0.250000  0.280192  0.678168  1
  Co  Co14  1  0.750000  0.777065  0.821519  1
  Co  Co15  1  0.750000  0.721800  0.320842  1
  Co  Co16  1  0.250000  0.883559  0.698667  1
  Co  Co17  1  0.250000  0.613338  0.201114  1
  Co  Co18  1  0.750000  0.113282  0.298536  1
  Co  Co19  1  0.750000  0.388272  0.800153  1
  Co  Co20  1  0.250000  0.467575  0.932004  1
  Co  Co21  1  0.250000  0.033581  0.429449  1
  Co  Co22  1  0.750000  0.534174  0.069689  1
  Co  Co23  1  0.750000  0.965197  0.565882  1
  P  P24  1  0.250000  0.418632  0.114711  1
  P  P25  1  0.250000  0.082077  0.611907  1
  P  P26  1  0.750000  0.582106  0.886296  1
  P  P27  1  0.750000  0.917781  0.384317  1
  P  P28  1  0.250000  0.268076  0.870623  1
  P  P29  1  0.250000  0.234351  0.369469  1
  P  P30  1  0.750000  0.733706  0.131176  1
  P  P31  1  0.750000  0.766242  0.630444  1
  P  P32  1  0.250000  0.598160  0.390635  1
  P  P33  1  0.250000  0.900268  0.890847  1
  P  P34  1  0.750000  0.401316  0.609908  1
  P  P35  1  0.750000  0.098156  0.109113  1
