# generated using pymatgen
data_Tm12In2CoSiTc2
_symmetry_space_group_name_H-M   'P 1'
_cell_length_a   8.40443294
_cell_length_b   8.40452696
_cell_length_c   8.40443137
_cell_angle_alpha   113.64242162
_cell_angle_beta   111.87505329
_cell_angle_gamma   103.08414880
_symmetry_Int_Tables_number   1
_chemical_formula_structural   Tm12In2CoSiTc2
_chemical_formula_sum   'Tm12 In2 Co1 Si1 Tc2'
_cell_volume   452.67833177
_cell_formula_units_Z   1
loop_
 _symmetry_equiv_pos_site_id
 _symmetry_equiv_pos_as_xyz
  1  'x, y, z'
loop_
 _atom_site_type_symbol
 _atom_site_label
 _atom_site_symmetry_multiplicity
 _atom_site_fract_x
 _atom_site_fract_y
 _atom_site_fract_z
 _atom_site_occupancy
  Tm  Tm0  1  0.435949  0.239137  0.196815  1
  Tm  Tm1  1  0.549341  0.754934  0.794406  1
  Tm  Tm2  1  0.042320  0.239137  0.803188  1
  Tm  Tm3  1  0.960530  0.754934  0.205593  1
  Tm  Tm4  1  0.177756  0.280887  0.470709  1
  Tm  Tm5  1  0.810176  0.707048  0.529292  1
  Tm  Tm6  1  0.177755  0.707048  0.896873  1
  Tm  Tm7  1  0.810178  0.280887  0.103130  1
  Tm  Tm8  1  0.343242  0.658941  0.315700  1
  Tm  Tm9  1  0.671924  0.352057  0.680134  1
  Tm  Tm10  1  0.343244  0.027543  0.684298  1
  Tm  Tm11  1  0.671918  0.991790  0.319872  1
  In  In12  1  0.499191  0.499180  0.999989  1
  In  In13  1  0.995869  0.995863  0.999994  1
  Co  Co14  1  0.890748  0.390748  0.500000  1
  Si  Si15  1  0.120669  0.620672  0.500003  1
  Tc  Tc16  1  0.322371  0.999597  0.322778  1
  Tc  Tc17  1  0.676819  0.999597  0.677225  1
