# generated using pymatgen
data_Nb12Al8Fe3CuC4
_symmetry_space_group_name_H-M   'P 1'
_cell_length_a   8.25517898
_cell_length_b   8.25517931
_cell_length_c   8.25517774
_cell_angle_alpha   60.21468938
_cell_angle_beta   60.21469232
_cell_angle_gamma   60.21468419
_symmetry_Int_Tables_number   1
_chemical_formula_structural   Nb12Al8Fe3CuC4
_chemical_formula_sum   'Nb12 Al8 Fe3 Cu1 C4'
_cell_volume   399.73334898
_cell_formula_units_Z   1
loop_
 _symmetry_equiv_pos_site_id
 _symmetry_equiv_pos_as_xyz
  1  'x, y, z'
loop_
 _atom_site_type_symbol
 _atom_site_label
 _atom_site_symmetry_multiplicity
 _atom_site_fract_x
 _atom_site_fract_y
 _atom_site_fract_z
 _atom_site_occupancy
  Nb  Nb0  1  0.558672  0.940623  0.558672  1
  Nb  Nb1  1  0.309377  0.691328  0.691328  1
  Nb  Nb2  1  0.683211  0.311402  0.311402  1
  Nb  Nb3  1  0.311402  0.683211  0.311402  1
  Nb  Nb4  1  0.691328  0.691328  0.309377  1
  Nb  Nb5  1  0.311402  0.311402  0.683211  1
  Nb  Nb6  1  0.558672  0.558672  0.940623  1
  Nb  Nb7  1  0.940623  0.558672  0.558672  1
  Nb  Nb8  1  0.566789  0.938598  0.938598  1
  Nb  Nb9  1  0.938598  0.938598  0.566789  1
  Nb  Nb10  1  0.691328  0.309377  0.691328  1
  Nb  Nb11  1  0.938598  0.566789  0.938598  1
  Al  Al12  1  0.919055  0.919055  0.919055  1
  Al  Al13  1  0.001774  0.334645  0.334645  1
  Al  Al14  1  0.334645  0.001774  0.334645  1
  Al  Al15  1  0.334645  0.334645  0.001774  1
  Al  Al16  1  0.915355  0.248226  0.915355  1
  Al  Al17  1  0.915355  0.915355  0.248226  1
  Al  Al18  1  0.248226  0.915355  0.915355  1
  Al  Al19  1  0.330945  0.330945  0.330945  1
  Fe  Fe20  1  0.625000  0.125000  0.125000  1
  Fe  Fe21  1  0.125000  0.625000  0.125000  1
  Fe  Fe22  1  0.125000  0.125000  0.625000  1
  Cu  Cu23  1  0.125000  0.125000  0.125000  1
  C  C24  1  0.625000  0.625000  0.625000  1
  C  C25  1  0.125000  0.625000  0.625000  1
  C  C26  1  0.625000  0.125000  0.625000  1
  C  C27  1  0.625000  0.625000  0.125000  1
