# generated using pymatgen
data_Ce2SmZn3PdPt2
_symmetry_space_group_name_H-M   'P 1'
_cell_length_a   7.46289310
_cell_length_b   7.46078892
_cell_length_c   3.86157500
_cell_angle_alpha   90.00000000
_cell_angle_beta   90.00000000
_cell_angle_gamma   119.99066786
_symmetry_Int_Tables_number   1
_chemical_formula_structural   Ce2SmZn3PdPt2
_chemical_formula_sum   'Ce2 Sm1 Zn3 Pd1 Pt2'
_cell_volume   186.22068145
_cell_formula_units_Z   1
loop_
 _symmetry_equiv_pos_site_id
 _symmetry_equiv_pos_as_xyz
  1  'x, y, z'
loop_
 _atom_site_type_symbol
 _atom_site_label
 _atom_site_symmetry_multiplicity
 _atom_site_fract_x
 _atom_site_fract_y
 _atom_site_fract_z
 _atom_site_occupancy
  Ce  Ce0  1  0.589173  0.589452  0.000000  1
  Ce  Ce1  1  0.410827  0.000279  0.000000  1
  Sm  Sm2  1  0.000000  0.410010  0.000000  1
  Zn  Zn3  1  0.000000  0.747865  0.500000  1
  Zn  Zn4  1  0.243419  0.247105  0.500000  1
  Zn  Zn5  1  0.756581  0.003685  0.500000  1
  Pd  Pd6  1  0.000000  0.995369  0.000000  1
  Pt  Pt7  1  0.654802  0.330518  0.500000  1
  Pt  Pt8  1  0.345198  0.675717  0.500000  1
