# generated using pymatgen
data_Hf3ZrPa6(FeSb3)2
_symmetry_space_group_name_H-M   'P 1'
_cell_length_a   8.96223100
_cell_length_b   8.96223236
_cell_length_c   5.95264500
_cell_angle_alpha   90.00000000
_cell_angle_beta   90.00000000
_cell_angle_gamma   119.99999868
_symmetry_Int_Tables_number   1
_chemical_formula_structural   Hf3ZrPa6(FeSb3)2
_chemical_formula_sum   'Hf3 Zr1 Pa6 Fe2 Sb6'
_cell_volume   414.06922511
_cell_formula_units_Z   1
loop_
 _symmetry_equiv_pos_site_id
 _symmetry_equiv_pos_as_xyz
  1  'x, y, z'
loop_
 _atom_site_type_symbol
 _atom_site_label
 _atom_site_symmetry_multiplicity
 _atom_site_fract_x
 _atom_site_fract_y
 _atom_site_fract_z
 _atom_site_occupancy
  Hf  Hf0  1  0.666667  0.333333  0.000000  1
  Hf  Hf1  1  0.333333  0.666667  0.000000  1
  Hf  Hf2  1  0.333333  0.666667  0.500000  1
  Zr  Zr3  1  0.666667  0.333333  0.500000  1
  Pa  Pa4  1  0.754580  0.754820  0.750110  1
  Pa  Pa5  1  0.245180  0.999760  0.750110  1
  Pa  Pa6  1  0.000240  0.245420  0.750110  1
  Pa  Pa7  1  0.245180  0.245420  0.249890  1
  Pa  Pa8  1  0.754580  0.999760  0.249890  1
  Pa  Pa9  1  0.000240  0.754820  0.249890  1
  Fe  Fe10  1  0.000000  0.000000  0.000000  1
  Fe  Fe11  1  0.000000  0.000000  0.500000  1
  Sb  Sb12  1  0.399959  0.400289  0.750168  1
  Sb  Sb13  1  0.599711  0.999670  0.750168  1
  Sb  Sb14  1  0.000330  0.600041  0.750168  1
  Sb  Sb15  1  0.599711  0.600041  0.249832  1
  Sb  Sb16  1  0.399959  0.999670  0.249832  1
  Sb  Sb17  1  0.000330  0.400289  0.249832  1
