# generated using pymatgen
data_NdTh3(ZnGa)4
_symmetry_space_group_name_H-M   'P 1'
_cell_length_a   4.43091800
_cell_length_b   4.43091802
_cell_length_c   15.73268600
_cell_angle_alpha   90.00000000
_cell_angle_beta   90.00000000
_cell_angle_gamma   120.00001476
_symmetry_Int_Tables_number   1
_chemical_formula_structural   NdTh3(ZnGa)4
_chemical_formula_sum   'Nd1 Th3 Zn4 Ga4'
_cell_volume   267.49820380
_cell_formula_units_Z   1
loop_
 _symmetry_equiv_pos_site_id
 _symmetry_equiv_pos_as_xyz
  1  'x, y, z'
loop_
 _atom_site_type_symbol
 _atom_site_label
 _atom_site_symmetry_multiplicity
 _atom_site_fract_x
 _atom_site_fract_y
 _atom_site_fract_z
 _atom_site_occupancy
  Nd  Nd0  1  0.000000  0.000000  0.500000  1
  Th  Th1  1  0.000000  0.000000  0.250715  1
  Th  Th2  1  0.000000  0.000000  0.749285  1
  Th  Th3  1  0.000000  0.000000  0.000000  1
  Zn  Zn4  1  0.333333  0.666667  0.130802  1
  Zn  Zn5  1  0.666667  0.333333  0.869198  1
  Zn  Zn6  1  0.666667  0.333333  0.632101  1
  Zn  Zn7  1  0.333333  0.666667  0.367899  1
  Ga  Ga8  1  0.333333  0.666667  0.621765  1
  Ga  Ga9  1  0.666667  0.333333  0.378235  1
  Ga  Ga10  1  0.666667  0.333333  0.121003  1
  Ga  Ga11  1  0.333333  0.666667  0.878997  1
