# generated using pymatgen
data_Nd6Al21CoSi3Os7
_symmetry_space_group_name_H-M   'P 1'
_cell_length_a   8.81919500
_cell_length_b   8.81919446
_cell_length_c   9.65358200
_cell_angle_alpha   90.00000000
_cell_angle_beta   90.00000000
_cell_angle_gamma   120.00000577
_symmetry_Int_Tables_number   1
_chemical_formula_structural   Nd6Al21CoSi3Os7
_chemical_formula_sum   'Nd6 Al21 Co1 Si3 Os7'
_cell_volume   650.24490881
_cell_formula_units_Z   1
loop_
 _symmetry_equiv_pos_site_id
 _symmetry_equiv_pos_as_xyz
  1  'x, y, z'
loop_
 _atom_site_type_symbol
 _atom_site_label
 _atom_site_symmetry_multiplicity
 _atom_site_fract_x
 _atom_site_fract_y
 _atom_site_fract_z
 _atom_site_occupancy
  Nd  Nd0  1  0.193767  0.387535  0.248267  1
  Nd  Nd1  1  0.805509  0.611017  0.752659  1
  Nd  Nd2  1  0.612465  0.806233  0.248267  1
  Nd  Nd3  1  0.388983  0.194491  0.752659  1
  Nd  Nd4  1  0.193767  0.806233  0.248267  1
  Nd  Nd5  1  0.805509  0.194491  0.752659  1
  Al  Al6  1  0.333333  0.666667  0.487996  1
  Al  Al7  1  0.162863  0.325727  0.573706  1
  Al  Al8  1  0.836219  0.672437  0.424272  1
  Al  Al9  1  0.674273  0.837137  0.573706  1
  Al  Al10  1  0.838440  0.676880  0.074037  1
  Al  Al11  1  0.327563  0.163781  0.424272  1
  Al  Al12  1  0.161542  0.323084  0.926034  1
  Al  Al13  1  0.162863  0.837137  0.573706  1
  Al  Al14  1  0.323120  0.161560  0.074037  1
  Al  Al15  1  0.836219  0.163781  0.424272  1
  Al  Al16  1  0.676916  0.838458  0.926034  1
  Al  Al17  1  0.838440  0.161560  0.074037  1
  Al  Al18  1  0.161542  0.838458  0.926034  1
  Al  Al19  1  0.564547  0.129094  0.247845  1
  Al  Al20  1  0.436323  0.872647  0.748755  1
  Al  Al21  1  0.870906  0.435453  0.247845  1
  Al  Al22  1  0.127353  0.563677  0.748755  1
  Al  Al23  1  0.564547  0.435453  0.247845  1
  Al  Al24  1  0.436323  0.563677  0.748755  1
  Al  Al25  1  0.000000  0.000000  0.241956  1
  Al  Al26  1  0.000000  0.000000  0.756952  1
  Co  Co27  1  0.000000  0.000000  0.999346  1
  Si  Si28  1  0.333333  0.666667  0.024536  1
  Si  Si29  1  0.666667  0.333333  0.974046  1
  Si  Si30  1  0.666667  0.333333  0.530836  1
  Os  Os31  1  0.499205  0.998411  0.998972  1
  Os  Os32  1  0.001589  0.500795  0.998972  1
  Os  Os33  1  0.503935  0.007870  0.500536  1
  Os  Os34  1  0.499205  0.500795  0.998972  1
  Os  Os35  1  0.992130  0.496065  0.500536  1
  Os  Os36  1  0.503935  0.496065  0.500536  1
  Os  Os37  1  0.000000  0.000000  0.499087  1
