# generated using pymatgen
data_FeHOF
_symmetry_space_group_name_H-M   'P 1'
_cell_length_a   5.67064659
_cell_length_b   6.49933939
_cell_length_c   5.16637405
_cell_angle_alpha   90.05820210
_cell_angle_beta   111.68570429
_cell_angle_gamma   89.99198423
_symmetry_Int_Tables_number   1
_chemical_formula_structural   FeHOF
_chemical_formula_sum   'Fe4 H4 O4 F4'
_cell_volume   176.93273721
_cell_formula_units_Z   4
loop_
 _symmetry_equiv_pos_site_id
 _symmetry_equiv_pos_as_xyz
  1  'x, y, z'
loop_
 _atom_site_type_symbol
 _atom_site_label
 _atom_site_symmetry_multiplicity
 _atom_site_fract_x
 _atom_site_fract_y
 _atom_site_fract_z
 _atom_site_occupancy
  Fe  Fe0  1  0.739167  0.874988  0.994797  1
  Fe  Fe1  1  0.239217  0.624947  0.994819  1
  Fe  Fe2  1  0.260833  0.125012  0.005201  1
  Fe  Fe3  1  0.760783  0.375053  0.005181  1
  H  H4  1  0.739072  0.125773  0.411248  1
  H  H5  1  0.239016  0.374554  0.411180  1
  H  H6  1  0.760985  0.625447  0.588820  1
  H  H7  1  0.260929  0.874227  0.588752  1
  O  O8  1  0.670772  0.128003  0.205200  1
  O  O9  1  0.170774  0.372331  0.205147  1
  O  O10  1  0.829224  0.627669  0.794851  1
  O  O11  1  0.329228  0.871997  0.794798  1
  F  F12  1  0.651353  0.622013  0.231489  1
  F  F13  1  0.151346  0.878325  0.231450  1
  F  F14  1  0.348646  0.377987  0.768511  1
  F  F15  1  0.848655  0.121675  0.768552  1
