# generated using pymatgen
data_Dy9Ho(GaTe)4
_symmetry_space_group_name_H-M   'P 1'
_cell_length_a   8.63314612
_cell_length_b   8.63314757
_cell_length_c   7.89352700
_cell_angle_alpha   90.00957015
_cell_angle_beta   90.00956351
_cell_angle_gamma   125.78329883
_symmetry_Int_Tables_number   1
_chemical_formula_structural   Dy9Ho(GaTe)4
_chemical_formula_sum   'Dy9 Ho1 Ga4 Te4'
_cell_volume   477.26064895
_cell_formula_units_Z   1
loop_
 _symmetry_equiv_pos_site_id
 _symmetry_equiv_pos_as_xyz
  1  'x, y, z'
loop_
 _atom_site_type_symbol
 _atom_site_label
 _atom_site_symmetry_multiplicity
 _atom_site_fract_x
 _atom_site_fract_y
 _atom_site_fract_z
 _atom_site_occupancy
  Dy  Dy0  1  0.000000  0.000000  0.000000  1
  Dy  Dy1  1  0.793703  0.539664  0.166581  1
  Dy  Dy2  1  0.460336  0.206297  0.833419  1
  Dy  Dy3  1  0.960754  0.706226  0.666458  1
  Dy  Dy4  1  0.293774  0.039246  0.333542  1
  Dy  Dy5  1  0.206297  0.460336  0.833419  1
  Dy  Dy6  1  0.539664  0.793703  0.166581  1
  Dy  Dy7  1  0.039246  0.293774  0.333542  1
  Dy  Dy8  1  0.706226  0.960754  0.666458  1
  Ho  Ho9  1  0.500000  0.500000  0.500000  1
  Ga  Ga10  1  0.869692  0.869692  0.371347  1
  Ga  Ga11  1  0.130308  0.130308  0.628653  1
  Ga  Ga12  1  0.630386  0.630386  0.870324  1
  Ga  Ga13  1  0.369614  0.369614  0.129676  1
  Te  Te14  1  0.204919  0.795081  0.000000  1
  Te  Te15  1  0.704524  0.295476  0.500000  1
  Te  Te16  1  0.795081  0.204919  0.000000  1
  Te  Te17  1  0.295476  0.704524  0.500000  1
