# generated using pymatgen
data_Tm5Sc14Si16W
_symmetry_space_group_name_H-M   'P 1'
_cell_length_a   6.94480586
_cell_length_b   7.26272226
_cell_length_c   13.73722842
_cell_angle_alpha   89.85357094
_cell_angle_beta   89.84019709
_cell_angle_gamma   89.77663244
_symmetry_Int_Tables_number   1
_chemical_formula_structural   Tm5Sc14Si16W
_chemical_formula_sum   'Tm5 Sc14 Si16 W1'
_cell_volume   692.87081774
_cell_formula_units_Z   1
loop_
 _symmetry_equiv_pos_site_id
 _symmetry_equiv_pos_as_xyz
  1  'x, y, z'
loop_
 _atom_site_type_symbol
 _atom_site_label
 _atom_site_symmetry_multiplicity
 _atom_site_fract_x
 _atom_site_fract_y
 _atom_site_fract_z
 _atom_site_occupancy
  Tm  Tm0  1  0.993915  0.680784  0.600315  1
  Tm  Tm1  1  0.010970  0.321673  0.405779  1
  Tm  Tm2  1  0.509540  0.176499  0.405941  1
  Tm  Tm3  1  0.011712  0.322442  0.090401  1
  Tm  Tm4  1  0.487880  0.824620  0.598775  1
  Sc  Sc5  1  0.840246  0.004775  0.247802  1
  Sc  Sc6  1  0.340270  0.495586  0.248393  1
  Sc  Sc7  1  0.658740  0.508115  0.752606  1
  Sc  Sc8  1  0.992750  0.686372  0.899186  1
  Sc  Sc9  1  0.485743  0.823647  0.901679  1
  Sc  Sc10  1  0.513945  0.180389  0.094666  1
  Sc  Sc11  1  0.329495  0.320844  0.630107  1
  Sc  Sc12  1  0.669271  0.677138  0.373560  1
  Sc  Sc13  1  0.171856  0.825962  0.376260  1
  Sc  Sc14  1  0.669448  0.677852  0.124218  1
  Sc  Sc15  1  0.828175  0.170436  0.630422  1
  Sc  Sc16  1  0.329251  0.320091  0.874505  1
  Sc  Sc17  1  0.826087  0.170058  0.872792  1
  Sc  Sc18  1  0.172027  0.826497  0.120405  1
  Si  Si19  1  0.031217  0.383894  0.752512  1
  Si  Si20  1  0.970171  0.612312  0.248557  1
  Si  Si21  1  0.467802  0.891184  0.247657  1
  Si  Si22  1  0.520461  0.096818  0.753125  1
  Si  Si23  1  0.283498  0.644592  0.754407  1
  Si  Si24  1  0.714803  0.367247  0.247305  1
  Si  Si25  1  0.216187  0.132165  0.246922  1
  Si  Si26  1  0.794265  0.866595  0.753267  1
  Si  Si27  1  0.157570  0.033719  0.547992  1
  Si  Si28  1  0.840909  0.964348  0.463948  1
  Si  Si29  1  0.342904  0.534879  0.463792  1
  Si  Si30  1  0.836825  0.964398  0.035351  1
  Si  Si31  1  0.660700  0.464990  0.539699  1
  Si  Si32  1  0.158333  0.024963  0.949654  1
  Si  Si33  1  0.663440  0.469396  0.960111  1
  Si  Si34  1  0.346261  0.534838  0.035793  1
  W  W35  1  0.153332  0.999880  0.752095  1
