# generated using pymatgen
data_Eu6Cd16N
_symmetry_space_group_name_H-M   'P 1'
_cell_length_a   9.11309898
_cell_length_b   9.11309894
_cell_length_c   9.11309900
_cell_angle_alpha   109.47122300
_cell_angle_beta   109.47122289
_cell_angle_gamma   109.47121848
_symmetry_Int_Tables_number   1
_chemical_formula_structural   Eu6Cd16N
_chemical_formula_sum   'Eu6 Cd16 N1'
_cell_volume   582.60788358
_cell_formula_units_Z   1
loop_
 _symmetry_equiv_pos_site_id
 _symmetry_equiv_pos_as_xyz
  1  'x, y, z'
loop_
 _atom_site_type_symbol
 _atom_site_label
 _atom_site_symmetry_multiplicity
 _atom_site_fract_x
 _atom_site_fract_y
 _atom_site_fract_z
 _atom_site_occupancy
  Eu  Eu0  1  0.000000  0.247592  0.247592  1
  Eu  Eu1  1  0.247592  0.000000  0.247592  1
  Eu  Eu2  1  0.752408  0.000000  0.752408  1
  Eu  Eu3  1  0.752408  0.752408  0.000000  1
  Eu  Eu4  1  0.247592  0.247592  0.000000  1
  Eu  Eu5  1  0.000000  0.752408  0.752408  1
  Cd  Cd6  1  0.500000  0.500000  0.500000  1
  Cd  Cd7  1  0.500000  0.000000  0.000000  1
  Cd  Cd8  1  0.000000  0.500000  0.000000  1
  Cd  Cd9  1  0.000000  0.000000  0.500000  1
  Cd  Cd10  1  0.690832  0.345416  0.345416  1
  Cd  Cd11  1  0.345416  0.000000  0.654584  1
  Cd  Cd12  1  0.345416  0.690832  0.345416  1
  Cd  Cd13  1  0.345416  0.345416  0.690832  1
  Cd  Cd14  1  0.345416  0.654584  0.000000  1
  Cd  Cd15  1  0.000000  0.345416  0.654584  1
  Cd  Cd16  1  0.000000  0.654584  0.345416  1
  Cd  Cd17  1  0.654584  0.654584  0.309168  1
  Cd  Cd18  1  0.654584  0.000000  0.345416  1
  Cd  Cd19  1  0.654584  0.345416  0.000000  1
  Cd  Cd20  1  0.654584  0.309168  0.654584  1
  Cd  Cd21  1  0.309168  0.654584  0.654584  1
  N  N22  1  0.000000  0.000000  0.000000  1
