# generated using pymatgen
data_K2EuI4
_symmetry_space_group_name_H-M   'P 1'
_cell_length_a   8.90033000
_cell_length_b   9.92876300
_cell_length_c   14.99374300
_cell_angle_alpha   90.00000000
_cell_angle_beta   90.00000000
_cell_angle_gamma   90.00000000
_symmetry_Int_Tables_number   1
_chemical_formula_structural   K2EuI4
_chemical_formula_sum   'K8 Eu4 I16'
_cell_volume   1324.98608137
_cell_formula_units_Z   4
loop_
 _symmetry_equiv_pos_site_id
 _symmetry_equiv_pos_as_xyz
  1  'x, y, z'
loop_
 _atom_site_type_symbol
 _atom_site_label
 _atom_site_symmetry_multiplicity
 _atom_site_fract_x
 _atom_site_fract_y
 _atom_site_fract_z
 _atom_site_occupancy
  K  K0  1  0.580384  0.500000  0.188830  1
  K  K1  1  0.080384  0.500000  0.311171  1
  K  K2  1  0.919616  0.000000  0.688829  1
  K  K3  1  0.419616  0.000000  0.811170  1
  K  K4  1  0.576147  0.000000  0.178676  1
  K  K5  1  0.076145  0.000000  0.321325  1
  K  K6  1  0.923855  0.500000  0.678675  1
  K  K7  1  0.423855  0.500000  0.821324  1
  Eu  Eu8  1  0.000000  0.250000  0.000000  1
  Eu  Eu9  1  0.000000  0.750000  0.000000  1
  Eu  Eu10  1  0.500000  0.250000  0.500000  1
  Eu  Eu11  1  0.500000  0.750000  0.500000  1
  I  I12  1  0.233035  0.000000  0.048690  1
  I  I13  1  0.234274  0.500000  0.050654  1
  I  I14  1  0.862413  0.247417  0.200809  1
  I  I15  1  0.862413  0.752583  0.200809  1
  I  I16  1  0.362413  0.247417  0.299190  1
  I  I17  1  0.362413  0.752583  0.299190  1
  I  I18  1  0.734274  0.500000  0.449346  1
  I  I19  1  0.733036  0.000000  0.451310  1
  I  I20  1  0.266964  0.500000  0.548690  1
  I  I21  1  0.265728  0.000000  0.550653  1
  I  I22  1  0.637588  0.252583  0.700810  1
  I  I23  1  0.637588  0.747418  0.700810  1
  I  I24  1  0.137587  0.252583  0.799190  1
  I  I25  1  0.137587  0.747418  0.799190  1
  I  I26  1  0.765728  0.000000  0.949346  1
  I  I27  1  0.766964  0.500000  0.951310  1
