# generated using pymatgen
data_Th3Co8P6Ru
_symmetry_space_group_name_H-M   'P 1'
_cell_length_a   3.83875800
_cell_length_b   10.65913000
_cell_length_c   12.51227400
_cell_angle_alpha   90.00000000
_cell_angle_beta   90.00000000
_cell_angle_gamma   90.00000000
_symmetry_Int_Tables_number   1
_chemical_formula_structural   Th3Co8P6Ru
_chemical_formula_sum   'Th6 Co16 P12 Ru2'
_cell_volume   511.97498234
_cell_formula_units_Z   2
loop_
 _symmetry_equiv_pos_site_id
 _symmetry_equiv_pos_as_xyz
  1  'x, y, z'
loop_
 _atom_site_type_symbol
 _atom_site_label
 _atom_site_symmetry_multiplicity
 _atom_site_fract_x
 _atom_site_fract_y
 _atom_site_fract_z
 _atom_site_occupancy
  Th  Th0  1  0.000000  0.500000  0.522678  1
  Th  Th1  1  0.500000  0.000000  0.477322  1
  Th  Th2  1  0.500000  0.815681  0.207693  1
  Th  Th3  1  0.500000  0.184319  0.207693  1
  Th  Th4  1  0.000000  0.684319  0.792307  1
  Th  Th5  1  0.000000  0.315681  0.792307  1
  Co  Co6  1  0.500000  0.500000  0.704076  1
  Co  Co7  1  0.000000  0.000000  0.295924  1
  Co  Co8  1  0.000000  0.500000  0.984581  1
  Co  Co9  1  0.500000  0.000000  0.015419  1
  Co  Co10  1  0.500000  0.332951  0.991434  1
  Co  Co11  1  0.500000  0.667049  0.991434  1
  Co  Co12  1  0.000000  0.167049  0.008566  1
  Co  Co13  1  0.000000  0.832951  0.008566  1
  Co  Co14  1  0.500000  0.301975  0.427633  1
  Co  Co15  1  0.500000  0.698025  0.427633  1
  Co  Co16  1  0.000000  0.198025  0.572367  1
  Co  Co17  1  0.000000  0.801975  0.572367  1
  Co  Co18  1  0.500000  0.881548  0.714461  1
  Co  Co19  1  0.500000  0.118452  0.714461  1
  Co  Co20  1  0.000000  0.618452  0.285539  1
  Co  Co21  1  0.000000  0.381548  0.285539  1
  P  P22  1  0.500000  0.500000  0.885569  1
  P  P23  1  0.000000  0.000000  0.114431  1
  P  P24  1  0.500000  0.500000  0.342353  1
  P  P25  1  0.000000  0.000000  0.657647  1
  P  P26  1  0.500000  0.305082  0.611822  1
  P  P27  1  0.500000  0.694918  0.611822  1
  P  P28  1  0.000000  0.194918  0.388178  1
  P  P29  1  0.000000  0.805082  0.388178  1
  P  P30  1  0.500000  0.848934  0.898359  1
  P  P31  1  0.500000  0.151066  0.898359  1
  P  P32  1  0.000000  0.651066  0.101641  1
  P  P33  1  0.000000  0.348934  0.101641  1
  Ru  Ru34  1  0.500000  0.500000  0.155582  1
  Ru  Ru35  1  0.000000  0.000000  0.844418  1
