# generated using pymatgen
data_Ho7Er9(In3Ir)2
_symmetry_space_group_name_H-M   'P 1'
_cell_length_a   10.35775600
_cell_length_b   10.35823717
_cell_length_c   7.01676900
_cell_angle_alpha   89.99922386
_cell_angle_beta   90.00000000
_cell_angle_gamma   119.99845698
_symmetry_Int_Tables_number   1
_chemical_formula_structural   Ho7Er9(In3Ir)2
_chemical_formula_sum   'Ho7 Er9 In6 Ir2'
_cell_volume   651.96771461
_cell_formula_units_Z   1
loop_
 _symmetry_equiv_pos_site_id
 _symmetry_equiv_pos_as_xyz
  1  'x, y, z'
loop_
 _atom_site_type_symbol
 _atom_site_label
 _atom_site_symmetry_multiplicity
 _atom_site_fract_x
 _atom_site_fract_y
 _atom_site_fract_z
 _atom_site_occupancy
  Ho  Ho0  1  0.533063  0.066126  0.792951  1
  Ho  Ho1  1  0.933873  0.466846  0.793042  1
  Ho  Ho2  1  0.532973  0.466846  0.793042  1
  Ho  Ho3  1  0.466939  0.933878  0.292920  1
  Ho  Ho4  1  0.066205  0.533042  0.292875  1
  Ho  Ho5  1  0.466836  0.533042  0.292875  1
  Ho  Ho6  1  0.823521  0.647041  0.499683  1
  Er  Er7  1  0.353179  0.176593  0.499700  1
  Er  Er8  1  0.823414  0.176593  0.499700  1
  Er  Er9  1  0.176589  0.353179  0.999705  1
  Er  Er10  1  0.646809  0.823406  0.999729  1
  Er  Er11  1  0.176597  0.823406  0.999729  1
  Er  Er12  1  0.666623  0.333244  0.174272  1
  Er  Er13  1  0.333335  0.666671  0.674388  1
  Er  Er14  1  0.000039  0.000078  0.778666  1
  Er  Er15  1  0.000040  0.000080  0.278448  1
  In  In16  1  0.837246  0.674495  0.039093  1
  In  In17  1  0.325486  0.162742  0.039290  1
  In  In18  1  0.837254  0.162742  0.039290  1
  In  In19  1  0.162757  0.325511  0.539298  1
  In  In20  1  0.674351  0.837373  0.539311  1
  In  In21  1  0.163024  0.837373  0.539311  1
  Ir  Ir22  1  0.666518  0.333035  0.569335  1
  Ir  Ir23  1  0.333329  0.666660  0.069246  1
