# generated using pymatgen
data_Pa2Al9Rh2W
_symmetry_space_group_name_H-M   'P 1'
_cell_length_a   7.59391481
_cell_length_b   7.59391551
_cell_length_c   9.39099200
_cell_angle_alpha   90.00000000
_cell_angle_beta   90.00000000
_cell_angle_gamma   116.87202868
_symmetry_Int_Tables_number   1
_chemical_formula_structural   Pa2Al9Rh2W
_chemical_formula_sum   'Pa4 Al18 Rh4 W2'
_cell_volume   483.07739493
_cell_formula_units_Z   2
loop_
 _symmetry_equiv_pos_site_id
 _symmetry_equiv_pos_as_xyz
  1  'x, y, z'
loop_
 _atom_site_type_symbol
 _atom_site_label
 _atom_site_symmetry_multiplicity
 _atom_site_fract_x
 _atom_site_fract_y
 _atom_site_fract_z
 _atom_site_occupancy
  Pa  Pa0  1  0.996046  0.707631  0.750000  1
  Pa  Pa1  1  0.003954  0.292369  0.250000  1
  Pa  Pa2  1  0.707631  0.996046  0.750000  1
  Pa  Pa3  1  0.292369  0.003954  0.250000  1
  Al  Al4  1  0.159705  0.159705  0.750000  1
  Al  Al5  1  0.840295  0.840295  0.250000  1
  Al  Al6  1  0.009637  0.353676  0.582656  1
  Al  Al7  1  0.990363  0.646324  0.417344  1
  Al  Al8  1  0.990363  0.646324  0.082656  1
  Al  Al9  1  0.353676  0.009637  0.917344  1
  Al  Al10  1  0.009637  0.353676  0.917344  1
  Al  Al11  1  0.646324  0.990363  0.082656  1
  Al  Al12  1  0.646324  0.990363  0.417344  1
  Al  Al13  1  0.353676  0.009637  0.582656  1
  Al  Al14  1  0.337897  0.337897  0.041198  1
  Al  Al15  1  0.662103  0.662103  0.958802  1
  Al  Al16  1  0.662103  0.662103  0.541198  1
  Al  Al17  1  0.337897  0.337897  0.458802  1
  Al  Al18  1  0.350805  0.570484  0.750000  1
  Al  Al19  1  0.649195  0.429516  0.250000  1
  Al  Al20  1  0.570484  0.350805  0.750000  1
  Al  Al21  1  0.429516  0.649195  0.250000  1
  Rh  Rh22  1  0.673829  0.326171  0.500000  1
  Rh  Rh23  1  0.326171  0.673829  0.500000  1
  Rh  Rh24  1  0.326171  0.673829  0.000000  1
  Rh  Rh25  1  0.673829  0.326171  0.000000  1
  W  W26  1  0.000000  0.000000  0.500000  1
  W  W27  1  0.000000  0.000000  0.000000  1
