# generated using pymatgen
data_Tb17Lu3Pb16
_symmetry_space_group_name_H-M   'P 1'
_cell_length_a   8.19958152
_cell_length_b   8.29967353
_cell_length_c   15.69294500
_cell_angle_alpha   90.00000000
_cell_angle_beta   90.00000000
_cell_angle_gamma   89.93031774
_symmetry_Int_Tables_number   1
_chemical_formula_structural   Tb17Lu3Pb16
_chemical_formula_sum   'Tb17 Lu3 Pb16'
_cell_volume   1067.96453060
_cell_formula_units_Z   1
loop_
 _symmetry_equiv_pos_site_id
 _symmetry_equiv_pos_as_xyz
  1  'x, y, z'
loop_
 _atom_site_type_symbol
 _atom_site_label
 _atom_site_symmetry_multiplicity
 _atom_site_fract_x
 _atom_site_fract_y
 _atom_site_fract_z
 _atom_site_occupancy
  Tb  Tb0  1  0.376883  0.840939  0.879516  1
  Tb  Tb1  1  0.876803  0.659030  0.620291  1
  Tb  Tb2  1  0.623755  0.159500  0.379822  1
  Tb  Tb3  1  0.122761  0.341199  0.120245  1
  Tb  Tb4  1  0.623755  0.159500  0.120178  1
  Tb  Tb5  1  0.122761  0.341199  0.379755  1
  Tb  Tb6  1  0.376883  0.840939  0.620484  1
  Tb  Tb7  1  0.876803  0.659030  0.879709  1
  Tb  Tb8  1  0.533726  0.322984  0.899882  1
  Tb  Tb9  1  0.033808  0.176994  0.600261  1
  Tb  Tb10  1  0.466551  0.676615  0.399864  1
  Tb  Tb11  1  0.965971  0.822729  0.100078  1
  Tb  Tb12  1  0.466551  0.676615  0.100136  1
  Tb  Tb13  1  0.965971  0.822729  0.399922  1
  Tb  Tb14  1  0.533726  0.322984  0.600118  1
  Tb  Tb15  1  0.033808  0.176994  0.899739  1
  Tb  Tb16  1  0.291632  0.003553  0.250000  1
  Lu  Lu17  1  0.208736  0.503721  0.750000  1
  Lu  Lu18  1  0.708701  0.996058  0.750000  1
  Lu  Lu19  1  0.791176  0.496048  0.250000  1
  Pb  Pb20  1  0.281123  0.033007  0.042814  1
  Pb  Pb21  1  0.781250  0.467198  0.456444  1
  Pb  Pb22  1  0.718771  0.967308  0.543726  1
  Pb  Pb23  1  0.218856  0.532789  0.956297  1
  Pb  Pb24  1  0.718771  0.967308  0.956274  1
  Pb  Pb25  1  0.218856  0.532789  0.543703  1
  Pb  Pb26  1  0.281123  0.033007  0.457186  1
  Pb  Pb27  1  0.781250  0.467198  0.043556  1
  Pb  Pb28  1  0.571454  0.626495  0.750000  1
  Pb  Pb29  1  0.071498  0.873369  0.750000  1
  Pb  Pb30  1  0.428804  0.374453  0.250000  1
  Pb  Pb31  1  0.926683  0.127389  0.250000  1
  Pb  Pb32  1  0.345367  0.153537  0.750000  1
  Pb  Pb33  1  0.845230  0.346985  0.750000  1
  Pb  Pb34  1  0.655523  0.846520  0.250000  1
  Pb  Pb35  1  0.154683  0.651288  0.250000  1
