# generated using pymatgen
data_Y11In9CoAu3
_symmetry_space_group_name_H-M   'P 1'
_cell_length_a   13.30288081
_cell_length_b   13.29337630
_cell_length_c   3.65432600
_cell_angle_alpha   90.00000000
_cell_angle_beta   90.00000000
_cell_angle_gamma   110.74758112
_symmetry_Int_Tables_number   1
_chemical_formula_structural   Y11In9CoAu3
_chemical_formula_sum   'Y11 In9 Co1 Au3'
_cell_volume   604.32372104
_cell_formula_units_Z   1
loop_
 _symmetry_equiv_pos_site_id
 _symmetry_equiv_pos_as_xyz
  1  'x, y, z'
loop_
 _atom_site_type_symbol
 _atom_site_label
 _atom_site_symmetry_multiplicity
 _atom_site_fract_x
 _atom_site_fract_y
 _atom_site_fract_z
 _atom_site_occupancy
  Y  Y0  1  0.067796  0.417549  0.000000  1
  Y  Y1  1  0.933426  0.585044  0.000000  1
  Y  Y2  1  0.414959  0.063855  0.000000  1
  Y  Y3  1  0.580089  0.918643  0.000000  1
  Y  Y4  1  0.633027  0.368467  0.000000  1
  Y  Y5  1  0.383859  0.641579  0.000000  1
  Y  Y6  1  0.840447  0.157749  0.000000  1
  Y  Y7  1  0.159637  0.841196  0.000000  1
  Y  Y8  1  0.997829  0.999462  0.000000  1
  Y  Y9  1  0.304533  0.305106  0.000000  1
  Y  Y10  1  0.681709  0.699423  0.000000  1
  In  In11  1  0.845598  0.366465  0.500000  1
  In  In12  1  0.158196  0.634622  0.500000  1
  In  In13  1  0.369516  0.840916  0.500000  1
  In  In14  1  0.633010  0.150062  0.500000  1
  In  In15  1  0.067714  0.213886  0.500000  1
  In  In16  1  0.929346  0.785037  0.500000  1
  In  In17  1  0.213676  0.068128  0.500000  1
  In  In18  1  0.780088  0.925917  0.500000  1
  In  In19  1  0.501351  0.505646  0.500000  1
  Co  Co20  1  0.548928  0.755207  0.500000  1
  Au  Au21  1  0.252298  0.454925  0.500000  1
  Au  Au22  1  0.749868  0.550791  0.500000  1
  Au  Au23  1  0.453097  0.250326  0.500000  1
