# generated using pymatgen
data_Yb5Pa3PPd24
_symmetry_space_group_name_H-M   'P 1'
_cell_length_a   8.33278792
_cell_length_b   8.33278803
_cell_length_c   8.31612000
_cell_angle_alpha   89.70570145
_cell_angle_beta   89.70570145
_cell_angle_gamma   89.26323999
_symmetry_Int_Tables_number   1
_chemical_formula_structural   Yb5Pa3PPd24
_chemical_formula_sum   'Yb5 Pa3 P1 Pd24'
_cell_volume   577.36996965
_cell_formula_units_Z   1
loop_
 _symmetry_equiv_pos_site_id
 _symmetry_equiv_pos_as_xyz
  1  'x, y, z'
loop_
 _atom_site_type_symbol
 _atom_site_label
 _atom_site_symmetry_multiplicity
 _atom_site_fract_x
 _atom_site_fract_y
 _atom_site_fract_z
 _atom_site_occupancy
  Yb  Yb0  1  0.746225  0.250936  0.746811  1
  Yb  Yb1  1  0.254654  0.254654  0.748154  1
  Yb  Yb2  1  0.251192  0.748546  0.253495  1
  Yb  Yb3  1  0.250936  0.746225  0.746811  1
  Yb  Yb4  1  0.748546  0.251192  0.253495  1
  Pa  Pa5  1  0.259990  0.259990  0.261404  1
  Pa  Pa6  1  0.739589  0.739589  0.743336  1
  Pa  Pa7  1  0.742318  0.742318  0.255729  1
  P  P8  1  0.005136  0.005136  0.994850  1
  Pd  Pd9  1  0.255810  0.498072  0.007858  1
  Pd  Pd10  1  0.744885  0.504071  0.001269  1
  Pd  Pd11  1  0.006310  0.256276  0.495452  1
  Pd  Pd12  1  0.498072  0.255810  0.007858  1
  Pd  Pd13  1  0.990454  0.743670  0.497947  1
  Pd  Pd14  1  0.504071  0.744885  0.001269  1
  Pd  Pd15  1  0.502160  0.998328  0.255218  1
  Pd  Pd16  1  0.256276  0.006310  0.495452  1
  Pd  Pd17  1  0.503904  0.992445  0.744026  1
  Pd  Pd18  1  0.743670  0.990454  0.497947  1
  Pd  Pd19  1  0.998328  0.502160  0.255218  1
  Pd  Pd20  1  0.992445  0.503904  0.744026  1
  Pd  Pd21  1  0.251168  0.499098  0.497324  1
  Pd  Pd22  1  0.747137  0.500773  0.498382  1
  Pd  Pd23  1  0.499098  0.251168  0.497324  1
  Pd  Pd24  1  0.500773  0.747137  0.498382  1
  Pd  Pd25  1  0.502135  0.502135  0.252573  1
  Pd  Pd26  1  0.502629  0.502629  0.749528  1
  Pd  Pd27  1  0.277847  0.004162  0.003059  1
  Pd  Pd28  1  0.727659  0.995110  0.999489  1
  Pd  Pd29  1  0.004162  0.277847  0.003059  1
  Pd  Pd30  1  0.995110  0.727659  0.999489  1
  Pd  Pd31  1  0.000306  0.000306  0.272530  1
  Pd  Pd32  1  0.997007  0.997007  0.721239  1
