# generated using pymatgen
data_Pr16Hg4PdRu3
_symmetry_space_group_name_H-M   'P 1'
_cell_length_a   9.94984862
_cell_length_b   10.00013314
_cell_length_c   10.00013300
_cell_angle_alpha   60.00000377
_cell_angle_beta   59.83268423
_cell_angle_gamma   59.83268151
_symmetry_Int_Tables_number   1
_chemical_formula_structural   Pr16Hg4PdRu3
_chemical_formula_sum   'Pr16 Hg4 Pd1 Ru3'
_cell_volume   701.79468440
_cell_formula_units_Z   1
loop_
 _symmetry_equiv_pos_site_id
 _symmetry_equiv_pos_as_xyz
  1  'x, y, z'
loop_
 _atom_site_type_symbol
 _atom_site_label
 _atom_site_symmetry_multiplicity
 _atom_site_fract_x
 _atom_site_fract_y
 _atom_site_fract_z
 _atom_site_occupancy
  Pr  Pr0  1  0.345344  0.352443  0.352443  1
  Pr  Pr1  1  0.345344  0.352443  0.949772  1
  Pr  Pr2  1  0.345344  0.949772  0.352443  1
  Pr  Pr3  1  0.957438  0.347521  0.347521  1
  Pr  Pr4  1  0.815631  0.191322  0.191322  1
  Pr  Pr5  1  0.189749  0.810372  0.810372  1
  Pr  Pr6  1  0.189749  0.810372  0.189507  1
  Pr  Pr7  1  0.815631  0.191322  0.801725  1
  Pr  Pr8  1  0.189749  0.189507  0.810372  1
  Pr  Pr9  1  0.815631  0.801725  0.191322  1
  Pr  Pr10  1  0.936831  0.562341  0.562341  1
  Pr  Pr11  1  0.557647  0.938781  0.938781  1
  Pr  Pr12  1  0.557647  0.938781  0.564791  1
  Pr  Pr13  1  0.936831  0.562341  0.938487  1
  Pr  Pr14  1  0.557647  0.564791  0.938781  1
  Pr  Pr15  1  0.936831  0.938487  0.562341  1
  Hg  Hg16  1  0.583892  0.583467  0.583467  1
  Hg  Hg17  1  0.583892  0.583467  0.249173  1
  Hg  Hg18  1  0.583892  0.249173  0.583467  1
  Hg  Hg19  1  0.249092  0.583635  0.583635  1
  Pd  Pd20  1  0.575195  0.141602  0.141602  1
  Ru  Ru21  1  0.143665  0.138068  0.138068  1
  Ru  Ru22  1  0.143665  0.138068  0.580199  1
  Ru  Ru23  1  0.143665  0.580199  0.138068  1
