# generated using pymatgen
data_Tm8Mg2Sc10Si15Sb
_symmetry_space_group_name_H-M   'P 1'
_cell_length_a   7.04994684
_cell_length_b   7.36337056
_cell_length_c   13.98155357
_cell_angle_alpha   90.04390817
_cell_angle_beta   88.89624906
_cell_angle_gamma   89.99671346
_symmetry_Int_Tables_number   1
_chemical_formula_structural   Tm8Mg2Sc10Si15Sb
_chemical_formula_sum   'Tm8 Mg2 Sc10 Si15 Sb1'
_cell_volume   725.66672881
_cell_formula_units_Z   1
loop_
 _symmetry_equiv_pos_site_id
 _symmetry_equiv_pos_as_xyz
  1  'x, y, z'
loop_
 _atom_site_type_symbol
 _atom_site_label
 _atom_site_symmetry_multiplicity
 _atom_site_fract_x
 _atom_site_fract_y
 _atom_site_fract_z
 _atom_site_occupancy
  Tm  Tm0  1  0.010172  0.180132  0.096881  1
  Tm  Tm1  1  0.989806  0.821260  0.903823  1
  Tm  Tm2  1  0.488699  0.675878  0.904153  1
  Tm  Tm3  1  0.995147  0.826155  0.597025  1
  Tm  Tm4  1  0.511490  0.324149  0.096666  1
  Tm  Tm5  1  0.999117  0.174746  0.400206  1
  Tm  Tm6  1  0.513274  0.319847  0.399451  1
  Tm  Tm7  1  0.505604  0.683846  0.599443  1
  Mg  Mg8  1  0.164526  0.503805  0.755163  1
  Mg  Mg9  1  0.834831  0.495827  0.250317  1
  Sc  Sc10  1  0.335232  0.004107  0.251275  1
  Sc  Sc11  1  0.665946  0.996217  0.750369  1
  Sc  Sc12  1  0.343429  0.163120  0.629393  1
  Sc  Sc13  1  0.663168  0.824603  0.373516  1
  Sc  Sc14  1  0.150756  0.682165  0.370075  1
  Sc  Sc15  1  0.668731  0.820623  0.124273  1
  Sc  Sc16  1  0.835121  0.324058  0.625707  1
  Sc  Sc17  1  0.329501  0.177974  0.875628  1
  Sc  Sc18  1  0.834109  0.322210  0.875456  1
  Sc  Sc19  1  0.165948  0.677289  0.124712  1
  Si  Si20  1  0.035428  0.102156  0.751148  1
  Si  Si21  1  0.963715  0.899253  0.246360  1
  Si  Si22  1  0.456752  0.615786  0.248562  1
  Si  Si23  1  0.541926  0.384515  0.752320  1
  Si  Si24  1  0.293192  0.874695  0.752327  1
  Si  Si25  1  0.706417  0.121794  0.247491  1
  Si  Si26  1  0.218138  0.370492  0.249026  1
  Si  Si27  1  0.783629  0.630166  0.751516  1
  Si  Si28  1  0.811042  0.543603  0.464357  1
  Si  Si29  1  0.328837  0.965736  0.459800  1
  Si  Si30  1  0.839627  0.538109  0.034456  1
  Si  Si31  1  0.671703  0.036139  0.538800  1
  Si  Si32  1  0.159757  0.461858  0.965793  1
  Si  Si33  1  0.656665  0.032700  0.960091  1
  Si  Si34  1  0.342430  0.967801  0.040179  1
  Sb  Sb35  1  0.186132  0.457182  0.534241  1
