# generated using pymatgen
data_YbS23
_symmetry_space_group_name_H-M   'P 1'
_cell_length_a   5.57730933
_cell_length_b   9.65445035
_cell_length_c   15.29508000
_cell_angle_alpha   89.05711967
_cell_angle_beta   86.41939397
_cell_angle_gamma   90.71539292
_symmetry_Int_Tables_number   1
_chemical_formula_structural   YbS23
_chemical_formula_sum   'Yb1 S23'
_cell_volume   821.78233717
_cell_formula_units_Z   1
loop_
 _symmetry_equiv_pos_site_id
 _symmetry_equiv_pos_as_xyz
  1  'x, y, z'
loop_
 _atom_site_type_symbol
 _atom_site_label
 _atom_site_symmetry_multiplicity
 _atom_site_fract_x
 _atom_site_fract_y
 _atom_site_fract_z
 _atom_site_occupancy
  Yb  Yb0  1  0.387455  0.356574  0.450390  1
  S  S1  1  0.420927  0.782473  0.403417  1
  S  S2  1  0.073869  0.295923  0.095678  1
  S  S3  1  0.858334  0.279868  0.473526  1
  S  S4  1  0.224081  0.731745  0.517320  1
  S  S5  1  0.221873  0.239311  0.974636  1
  S  S6  1  0.784648  0.737377  0.019440  1
  S  S7  1  0.154729  0.421963  0.307653  1
  S  S8  1  0.626433  0.603468  0.381157  1
  S  S9  1  0.855109  0.135339  0.145711  1
  S  S10  1  0.222628  0.862713  0.136823  1
  S  S11  1  0.688262  0.644050  0.634661  1
  S  S12  1  0.417802  0.331307  0.637193  1
  S  S13  1  0.165838  0.858084  0.858142  1
  S  S14  1  0.773706  0.115913  0.863018  1
  S  S15  1  0.998882  0.693805  0.121498  1
  S  S16  1  0.424025  0.789243  0.621571  1
  S  S17  1  0.665718  0.193141  0.582102  1
  S  S18  1  0.966566  0.686649  0.902709  1
  S  S19  1  0.990693  0.287713  0.878552  1
  S  S20  1  0.499985  0.487202  0.278463  1
  S  S21  1  0.053176  0.003022  0.219520  1
  S  S22  1  0.566837  0.482875  0.715668  1
  S  S23  1  0.958424  0.980238  0.781155  1
