# generated using pymatgen
data_Zr10Sn2Bi5Pt
_symmetry_space_group_name_H-M   'P 1'
_cell_length_a   8.89834656
_cell_length_b   8.90940958
_cell_length_c   5.95032800
_cell_angle_alpha   89.98981341
_cell_angle_beta   90.02040495
_cell_angle_gamma   119.95893265
_symmetry_Int_Tables_number   1
_chemical_formula_structural   Zr10Sn2Bi5Pt
_chemical_formula_sum   'Zr10 Sn2 Bi5 Pt1'
_cell_volume   408.70440889
_cell_formula_units_Z   1
loop_
 _symmetry_equiv_pos_site_id
 _symmetry_equiv_pos_as_xyz
  1  'x, y, z'
loop_
 _atom_site_type_symbol
 _atom_site_label
 _atom_site_symmetry_multiplicity
 _atom_site_fract_x
 _atom_site_fract_y
 _atom_site_fract_z
 _atom_site_occupancy
  Zr  Zr0  1  0.333931  0.669969  0.999018  1
  Zr  Zr1  1  0.663637  0.329808  0.501365  1
  Zr  Zr2  1  0.663962  0.330031  0.999018  1
  Zr  Zr3  1  0.333828  0.670192  0.501365  1
  Zr  Zr4  1  0.271974  0.000000  0.237675  1
  Zr  Zr5  1  0.273793  0.268233  0.762169  1
  Zr  Zr6  1  0.005561  0.731767  0.762169  1
  Zr  Zr7  1  0.998996  0.270127  0.237726  1
  Zr  Zr8  1  0.728868  0.729873  0.237726  1
  Zr  Zr9  1  0.725465  0.000000  0.762070  1
  Sn  Sn10  1  0.000120  0.000000  0.501082  1
  Sn  Sn11  1  0.385698  0.000000  0.745433  1
  Bi  Bi12  1  0.612802  0.000000  0.254914  1
  Bi  Bi13  1  0.615063  0.614154  0.744861  1
  Bi  Bi14  1  0.000909  0.385846  0.744861  1
  Bi  Bi15  1  0.999256  0.613049  0.255186  1
  Bi  Bi16  1  0.386207  0.386951  0.255186  1
  Pt  Pt17  1  0.999934  0.000000  0.998176  1
