# generated using pymatgen
data_Sm8Sc11Si16Tc
_symmetry_space_group_name_H-M   'P 1'
_cell_length_a   7.11061543
_cell_length_b   7.43655748
_cell_length_c   14.03678600
_cell_angle_alpha   90.00000000
_cell_angle_beta   90.00000000
_cell_angle_gamma   90.07258520
_symmetry_Int_Tables_number   1
_chemical_formula_structural   Sm8Sc11Si16Tc
_chemical_formula_sum   'Sm8 Sc11 Si16 Tc1'
_cell_volume   742.24359880
_cell_formula_units_Z   1
loop_
 _symmetry_equiv_pos_site_id
 _symmetry_equiv_pos_as_xyz
  1  'x, y, z'
loop_
 _atom_site_type_symbol
 _atom_site_label
 _atom_site_symmetry_multiplicity
 _atom_site_fract_x
 _atom_site_fract_y
 _atom_site_fract_z
 _atom_site_occupancy
  Sm  Sm0  1  0.012004  0.174702  0.094826  1
  Sm  Sm1  1  0.992635  0.820678  0.899988  1
  Sm  Sm2  1  0.486096  0.670523  0.900263  1
  Sm  Sm3  1  0.992635  0.820678  0.600012  1
  Sm  Sm4  1  0.511570  0.325725  0.096372  1
  Sm  Sm5  1  0.012004  0.174702  0.405174  1
  Sm  Sm6  1  0.511570  0.325725  0.403628  1
  Sm  Sm7  1  0.486096  0.670523  0.599737  1
  Sc  Sc8  1  0.841228  0.497964  0.250000  1
  Sc  Sc9  1  0.341219  0.001886  0.250000  1
  Sc  Sc10  1  0.658217  0.999777  0.750000  1
  Sc  Sc11  1  0.326084  0.179024  0.626983  1
  Sc  Sc12  1  0.671814  0.824021  0.375011  1
  Sc  Sc13  1  0.171825  0.674997  0.376165  1
  Sc  Sc14  1  0.671814  0.824021  0.124989  1
  Sc  Sc15  1  0.830384  0.330452  0.627782  1
  Sc  Sc16  1  0.326084  0.179024  0.873017  1
  Sc  Sc17  1  0.830384  0.330452  0.872218  1
  Sc  Sc18  1  0.171825  0.674997  0.123835  1
  Si  Si19  1  0.031818  0.127327  0.750000  1
  Si  Si20  1  0.970073  0.880162  0.250000  1
  Si  Si21  1  0.467753  0.621583  0.250000  1
  Si  Si22  1  0.522934  0.386822  0.750000  1
  Si  Si23  1  0.287025  0.874117  0.750000  1
  Si  Si24  1  0.714599  0.123233  0.250000  1
  Si  Si25  1  0.212930  0.376986  0.250000  1
  Si  Si26  1  0.795734  0.622370  0.750000  1
  Si  Si27  1  0.153014  0.464456  0.546689  1
  Si  Si28  1  0.846006  0.536230  0.462351  1
  Si  Si29  1  0.348257  0.964006  0.462744  1
  Si  Si30  1  0.846006  0.536230  0.037649  1
  Si  Si31  1  0.654214  0.034923  0.540191  1
  Si  Si32  1  0.153014  0.464456  0.953311  1
  Si  Si33  1  0.654214  0.034923  0.959809  1
  Si  Si34  1  0.348257  0.964006  0.037256  1
  Tc  Tc35  1  0.148668  0.488299  0.750000  1
