# generated using pymatgen
data_Ba8Li(CoO4)3
_symmetry_space_group_name_H-M   'P 1'
_cell_length_a   6.50079300
_cell_length_b   6.49285376
_cell_length_c   12.69202296
_cell_angle_alpha   88.14753799
_cell_angle_beta   89.05642536
_cell_angle_gamma   126.12860556
_symmetry_Int_Tables_number   1
_chemical_formula_structural   Ba8Li(CoO4)3
_chemical_formula_sum   'Ba8 Li1 Co3 O12'
_cell_volume   432.04853143
_cell_formula_units_Z   1
loop_
 _symmetry_equiv_pos_site_id
 _symmetry_equiv_pos_as_xyz
  1  'x, y, z'
loop_
 _atom_site_type_symbol
 _atom_site_label
 _atom_site_symmetry_multiplicity
 _atom_site_fract_x
 _atom_site_fract_y
 _atom_site_fract_z
 _atom_site_occupancy
  Ba  Ba0  1  0.451999  0.030758  0.146230  1
  Ba  Ba1  1  0.027588  0.440759  0.653930  1
  Ba  Ba2  1  0.560714  0.970475  0.850289  1
  Ba  Ba3  1  0.965102  0.567756  0.339768  1
  Ba  Ba4  1  0.860034  0.657316  0.934181  1
  Ba  Ba5  1  0.341472  0.132615  0.578183  1
  Ba  Ba6  1  0.140817  0.342727  0.074433  1
  Ba  Ba7  1  0.654538  0.862473  0.426883  1
  Li  Li8  1  0.736583  0.733960  0.165277  1
  Co  Co9  1  0.726516  0.731816  0.665040  1
  Co  Co10  1  0.266274  0.266604  0.332852  1
  Co  Co11  1  0.268847  0.273056  0.835178  1
  O  O12  1  0.328135  0.129757  0.963199  1
  O  O13  1  0.864166  0.671540  0.535094  1
  O  O14  1  0.675427  0.874929  0.036089  1
  O  O15  1  0.138808  0.324330  0.457800  1
  O  O16  1  0.996169  0.012755  0.746446  1
  O  O17  1  0.010992  0.999212  0.255555  1
  O  O18  1  0.596536  0.407035  0.750490  1
  O  O19  1  0.470763  0.150690  0.366948  1
  O  O20  1  0.146978  0.486419  0.865401  1
  O  O21  1  0.511576  0.852713  0.629329  1
  O  O22  1  0.857728  0.503047  0.133645  1
  O  O23  1  0.402236  0.577258  0.257762  1
