# generated using pymatgen
data_Y8TiCuPd23
_symmetry_space_group_name_H-M   'P 1'
_cell_length_a   8.31092300
_cell_length_b   8.37176900
_cell_length_c   8.41657800
_cell_angle_alpha   90.00000000
_cell_angle_beta   90.00000000
_cell_angle_gamma   90.00000000
_symmetry_Int_Tables_number   1
_chemical_formula_structural   Y8TiCuPd23
_chemical_formula_sum   'Y8 Ti1 Cu1 Pd23'
_cell_volume   585.60132090
_cell_formula_units_Z   1
loop_
 _symmetry_equiv_pos_site_id
 _symmetry_equiv_pos_as_xyz
  1  'x, y, z'
loop_
 _atom_site_type_symbol
 _atom_site_label
 _atom_site_symmetry_multiplicity
 _atom_site_fract_x
 _atom_site_fract_y
 _atom_site_fract_z
 _atom_site_occupancy
  Y  Y0  1  0.252186  0.250144  0.256553  1
  Y  Y1  1  0.747575  0.746816  0.748328  1
  Y  Y2  1  0.747575  0.746816  0.251672  1
  Y  Y3  1  0.747575  0.253184  0.748328  1
  Y  Y4  1  0.252186  0.250144  0.743447  1
  Y  Y5  1  0.252186  0.749856  0.256553  1
  Y  Y6  1  0.252186  0.749856  0.743447  1
  Y  Y7  1  0.747575  0.253184  0.251672  1
  Ti  Ti8  1  0.996833  0.000000  0.000000  1
  Cu  Cu9  1  0.267624  0.500000  0.000000  1
  Pd  Pd10  1  0.741358  0.500000  0.000000  1
  Pd  Pd11  1  0.998449  0.261028  0.500000  1
  Pd  Pd12  1  0.493936  0.265438  0.000000  1
  Pd  Pd13  1  0.998449  0.738972  0.500000  1
  Pd  Pd14  1  0.493936  0.734562  0.000000  1
  Pd  Pd15  1  0.500029  0.000000  0.261346  1
  Pd  Pd16  1  0.260839  0.000000  0.500000  1
  Pd  Pd17  1  0.500029  0.000000  0.738654  1
  Pd  Pd18  1  0.738309  0.000000  0.500000  1
  Pd  Pd19  1  0.002492  0.500000  0.261163  1
  Pd  Pd20  1  0.002492  0.500000  0.738837  1
  Pd  Pd21  1  0.252984  0.500000  0.500000  1
  Pd  Pd22  1  0.746392  0.500000  0.500000  1
  Pd  Pd23  1  0.501155  0.253660  0.500000  1
  Pd  Pd24  1  0.501155  0.746340  0.500000  1
  Pd  Pd25  1  0.496003  0.500000  0.250838  1
  Pd  Pd26  1  0.496003  0.500000  0.749162  1
  Pd  Pd27  1  0.293769  0.000000  0.000000  1
  Pd  Pd28  1  0.699585  0.000000  0.000000  1
  Pd  Pd29  1  0.010826  0.299288  0.000000  1
  Pd  Pd30  1  0.010826  0.700712  0.000000  1
  Pd  Pd31  1  0.998743  0.000000  0.293731  1
  Pd  Pd32  1  0.998743  0.000000  0.706269  1
