# generated using pymatgen
data_PaCoNiP2
_symmetry_space_group_name_H-M   'P 1'
_cell_length_a   4.01973900
_cell_length_b   4.01973900
_cell_length_c   8.81993300
_cell_angle_alpha   90.00000000
_cell_angle_beta   90.00000000
_cell_angle_gamma   90.00000000
_symmetry_Int_Tables_number   1
_chemical_formula_structural   PaCoNiP2
_chemical_formula_sum   'Pa2 Co2 Ni2 P4'
_cell_volume   142.51513775
_cell_formula_units_Z   2
loop_
 _symmetry_equiv_pos_site_id
 _symmetry_equiv_pos_as_xyz
  1  'x, y, z'
loop_
 _atom_site_type_symbol
 _atom_site_label
 _atom_site_symmetry_multiplicity
 _atom_site_fract_x
 _atom_site_fract_y
 _atom_site_fract_z
 _atom_site_occupancy
  Pa  Pa0  1  0.500000  0.000000  0.248283  1
  Pa  Pa1  1  0.000000  0.500000  0.751717  1
  Co  Co2  1  0.000000  0.500000  0.109233  1
  Co  Co3  1  0.500000  0.000000  0.890767  1
  Ni  Ni4  1  0.000000  0.000000  0.500000  1
  Ni  Ni5  1  0.500000  0.500000  0.500000  1
  P  P6  1  0.000000  0.500000  0.365057  1
  P  P7  1  0.500000  0.500000  0.000000  1
  P  P8  1  0.500000  0.000000  0.634943  1
  P  P9  1  0.000000  0.000000  0.000000  1
