# generated using pymatgen
data_Lu2Tc6P7Ir6
_symmetry_space_group_name_H-M   'P 1'
_cell_length_a   9.47081359
_cell_length_b   9.46696857
_cell_length_c   3.97125700
_cell_angle_alpha   90.00000000
_cell_angle_beta   90.00000000
_cell_angle_gamma   120.00657947
_symmetry_Int_Tables_number   1
_chemical_formula_structural   Lu2Tc6P7Ir6
_chemical_formula_sum   'Lu2 Tc6 P7 Ir6'
_cell_volume   308.33871048
_cell_formula_units_Z   1
loop_
 _symmetry_equiv_pos_site_id
 _symmetry_equiv_pos_as_xyz
  1  'x, y, z'
loop_
 _atom_site_type_symbol
 _atom_site_label
 _atom_site_symmetry_multiplicity
 _atom_site_fract_x
 _atom_site_fract_y
 _atom_site_fract_z
 _atom_site_occupancy
  Lu  Lu0  1  0.666681  0.333400  0.000000  1
  Lu  Lu1  1  0.999944  0.999900  0.500000  1
  Tc  Tc2  1  0.495504  0.940691  0.000000  1
  Tc  Tc3  1  0.059462  0.554905  0.000000  1
  Tc  Tc4  1  0.445098  0.504537  0.000000  1
  Tc  Tc5  1  0.551495  0.759372  0.500000  1
  Tc  Tc6  1  0.240693  0.792115  0.500000  1
  Tc  Tc7  1  0.207902  0.448496  0.500000  1
  P  P8  1  0.455093  0.066614  0.500000  1
  P  P9  1  0.933398  0.388469  0.500000  1
  P  P10  1  0.611506  0.544937  0.500000  1
  P  P11  1  0.749121  0.965385  0.000000  1
  P  P12  1  0.034545  0.783688  0.000000  1
  P  P13  1  0.216247  0.250847  0.000000  1
  P  P14  1  0.333369  0.666738  0.000000  1
  Ir  Ir15  1  0.770843  0.739069  0.000000  1
  Ir  Ir16  1  0.260838  0.031735  0.000000  1
  Ir  Ir17  1  0.968241  0.229127  0.000000  1
  Ir  Ir18  1  0.725526  0.118104  0.500000  1
  Ir  Ir19  1  0.881880  0.607375  0.500000  1
  Ir  Ir20  1  0.392610  0.274499  0.500000  1
