# generated using pymatgen
data_SrPrBe2(Cu2Si)8
_symmetry_space_group_name_H-M   'P 1'
_cell_length_a   8.15569262
_cell_length_b   8.15564984
_cell_length_c   8.15561223
_cell_angle_alpha   120.64256062
_cell_angle_beta   120.64297478
_cell_angle_gamma   88.89028480
_symmetry_Int_Tables_number   1
_chemical_formula_structural   SrPrBe2(Cu2Si)8
_chemical_formula_sum   'Sr1 Pr1 Be2 Cu16 Si8'
_cell_volume   379.78039398
_cell_formula_units_Z   1
loop_
 _symmetry_equiv_pos_site_id
 _symmetry_equiv_pos_as_xyz
  1  'x, y, z'
loop_
 _atom_site_type_symbol
 _atom_site_label
 _atom_site_symmetry_multiplicity
 _atom_site_fract_x
 _atom_site_fract_y
 _atom_site_fract_z
 _atom_site_occupancy
  Sr  Sr0  1  0.749998  0.749998  0.999997  1
  Pr  Pr1  1  0.250000  0.249999  0.999999  1
  Be  Be2  1  0.499998  0.999999  0.499998  1
  Be  Be3  1  0.999997  0.499996  0.499993  1
  Cu  Cu4  1  0.942876  0.211018  0.152887  1
  Cu  Cu5  1  0.210990  0.058131  0.268120  1
  Cu  Cu6  1  0.789994  0.942851  0.731845  1
  Cu  Cu7  1  0.441842  0.288998  0.731839  1
  Cu  Cu8  1  0.058143  0.790023  0.847177  1
  Cu  Cu9  1  0.799978  0.058518  0.500420  1
  Cu  Cu10  1  0.558072  0.299550  0.499560  1
  Cu  Cu11  1  0.200444  0.941910  0.500416  1
  Cu  Cu12  1  0.441481  0.700009  0.499563  1
  Cu  Cu13  1  0.941925  0.441507  0.741471  1
  Cu  Cu14  1  0.700012  0.200441  0.258535  1
  Cu  Cu15  1  0.058523  0.558085  0.258528  1
  Cu  Cu16  1  0.710026  0.441862  0.152887  1
  Cu  Cu17  1  0.557129  0.710011  0.268135  1
  Cu  Cu18  1  0.299546  0.799958  0.741467  1
  Cu  Cu19  1  0.289029  0.557139  0.847168  1
  Si  Si20  1  0.792875  0.290884  0.850393  1
  Si  Si21  1  0.557520  0.059507  0.850393  1
  Si  Si22  1  0.059499  0.209106  0.501980  1
  Si  Si23  1  0.290885  0.440491  0.498003  1
  Si  Si24  1  0.942483  0.792875  0.501984  1
  Si  Si25  1  0.440503  0.942494  0.149619  1
  Si  Si26  1  0.209112  0.707126  0.149618  1
  Si  Si27  1  0.707120  0.557515  0.498007  1
