# generated using pymatgen
data_U8CuS17
_symmetry_space_group_name_H-M   'P 1'
_cell_length_a   7.81219853
_cell_length_b   7.81219929
_cell_length_c   10.32147950
_cell_angle_alpha   79.99795774
_cell_angle_beta   79.99795671
_cell_angle_gamma   64.06817816
_symmetry_Int_Tables_number   1
_chemical_formula_structural   U8CuS17
_chemical_formula_sum   'U8 Cu1 S17'
_cell_volume   554.48353370
_cell_formula_units_Z   1
loop_
 _symmetry_equiv_pos_site_id
 _symmetry_equiv_pos_as_xyz
  1  'x, y, z'
loop_
 _atom_site_type_symbol
 _atom_site_label
 _atom_site_symmetry_multiplicity
 _atom_site_fract_x
 _atom_site_fract_y
 _atom_site_fract_z
 _atom_site_occupancy
  U  U0  1  0.817675  0.301701  0.297711  1
  U  U1  1  0.301701  0.817675  0.297711  1
  U  U2  1  0.182325  0.698299  0.702289  1
  U  U3  1  0.698299  0.182325  0.702289  1
  U  U4  1  0.797909  0.797909  0.455032  1
  U  U5  1  0.202091  0.202091  0.544968  1
  U  U6  1  0.317695  0.317695  0.015212  1
  U  U7  1  0.682305  0.682305  0.984788  1
  Cu  Cu8  1  0.000000  0.000000  0.000000  1
  S  S9  1  0.179816  0.566465  0.465183  1
  S  S10  1  0.566465  0.179816  0.465183  1
  S  S11  1  0.820184  0.433535  0.534817  1
  S  S12  1  0.433535  0.820184  0.534817  1
  S  S13  1  0.943115  0.328335  0.033841  1
  S  S14  1  0.328335  0.943115  0.033841  1
  S  S15  1  0.056885  0.671665  0.966159  1
  S  S16  1  0.671665  0.056885  0.966159  1
  S  S17  1  0.943018  0.943018  0.227129  1
  S  S18  1  0.056982  0.056982  0.772871  1
  S  S19  1  0.787394  0.787394  0.720654  1
  S  S20  1  0.212606  0.212606  0.279346  1
  S  S21  1  0.699286  0.699286  0.244599  1
  S  S22  1  0.300714  0.300714  0.755401  1
  S  S23  1  0.478821  0.478821  0.170238  1
  S  S24  1  0.521179  0.521179  0.829762  1
  S  S25  1  0.000000  0.000000  0.500000  1
