# generated using pymatgen
data_PmBe2Rh3
_symmetry_space_group_name_H-M   'P 1'
_cell_length_a   5.55331700
_cell_length_b   5.55331705
_cell_length_c   3.30232800
_cell_angle_alpha   90.00000000
_cell_angle_beta   90.00000000
_cell_angle_gamma   60.00014161
_symmetry_Int_Tables_number   1
_chemical_formula_structural   PmBe2Rh3
_chemical_formula_sum   'Pm1 Be2 Rh3'
_cell_volume   88.19752375
_cell_formula_units_Z   1
loop_
 _symmetry_equiv_pos_site_id
 _symmetry_equiv_pos_as_xyz
  1  'x, y, z'
loop_
 _atom_site_type_symbol
 _atom_site_label
 _atom_site_symmetry_multiplicity
 _atom_site_fract_x
 _atom_site_fract_y
 _atom_site_fract_z
 _atom_site_occupancy
  Pm  Pm0  1  0.999998  0.000002  0.000000  1
  Be  Be1  1  0.333332  0.333334  0.000000  1
  Be  Be2  1  0.666666  0.666668  0.000000  1
  Rh  Rh3  1  0.500061  0.000002  0.499999  1
  Rh  Rh4  1  0.999998  0.499938  0.499999  1
  Rh  Rh5  1  0.499939  0.500060  0.499999  1
