# generated using pymatgen
data_Ho5Ta3Co16As11P
_symmetry_space_group_name_H-M   'P 1'
_cell_length_a   12.56672366
_cell_length_b   12.55963207
_cell_length_c   3.82672500
_cell_angle_alpha   90.00000000
_cell_angle_beta   90.00000000
_cell_angle_gamma   119.95980574
_symmetry_Int_Tables_number   1
_chemical_formula_structural   Ho5Ta3Co16As11P
_chemical_formula_sum   'Ho5 Ta3 Co16 As11 P1'
_cell_volume   523.27817919
_cell_formula_units_Z   1
loop_
 _symmetry_equiv_pos_site_id
 _symmetry_equiv_pos_as_xyz
  1  'x, y, z'
loop_
 _atom_site_type_symbol
 _atom_site_label
 _atom_site_symmetry_multiplicity
 _atom_site_fract_x
 _atom_site_fract_y
 _atom_site_fract_z
 _atom_site_occupancy
  Ho  Ho0  1  0.666219  0.333496  0.000000  1
  Ho  Ho1  1  0.332633  0.660073  0.000000  1
  Ho  Ho2  1  0.816809  0.816624  0.500000  1
  Ho  Ho3  1  0.182970  0.000636  0.500000  1
  Ho  Ho4  1  0.000459  0.183408  0.500000  1
  Ta  Ta5  1  0.436832  0.442646  0.000000  1
  Ta  Ta6  1  0.559989  0.999584  0.000000  1
  Ta  Ta7  1  0.000653  0.560068  0.000000  1
  Co  Co8  1  0.877017  0.356088  0.500000  1
  Co  Co9  1  0.643744  0.521016  0.500000  1
  Co  Co10  1  0.480250  0.124469  0.500000  1
  Co  Co11  1  0.356196  0.875640  0.500000  1
  Co  Co12  1  0.508395  0.635895  0.500000  1
  Co  Co13  1  0.131937  0.480792  0.500000  1
  Co  Co14  1  0.801307  0.176471  0.000000  1
  Co  Co15  1  0.824268  0.624675  0.000000  1
  Co  Co16  1  0.375447  0.200939  0.000000  1
  Co  Co17  1  0.176220  0.800592  0.000000  1
  Co  Co18  1  0.623510  0.822464  0.000000  1
  Co  Co19  1  0.204779  0.381565  0.000000  1
  Co  Co20  1  0.283770  0.289471  0.500000  1
  Co  Co21  1  0.715590  0.999368  0.500000  1
  Co  Co22  1  0.000656  0.715724  0.500000  1
  Co  Co23  1  0.000738  0.000875  0.000000  1
  As  As24  1  0.687066  0.170682  0.500000  1
  As  As25  1  0.829412  0.516082  0.500000  1
  As  As26  1  0.483021  0.314201  0.500000  1
  As  As27  1  0.171941  0.686378  0.500000  1
  As  As28  1  0.515202  0.827555  0.500000  1
  As  As29  1  0.177481  0.178882  0.000000  1
  As  As30  1  0.822845  0.999684  0.000000  1
  As  As31  1  0.000172  0.823314  0.000000  1
  As  As32  1  0.644674  0.644621  0.000000  1
  As  As33  1  0.354948  0.000615  0.000000  1
  As  As34  1  0.001955  0.355817  0.000000  1
  P  P35  1  0.310897  0.479591  0.500000  1
