# generated using pymatgen
data_AgBiIr2O7
_symmetry_space_group_name_H-M   'P 1'
_cell_length_a   7.28032235
_cell_length_b   7.18582804
_cell_length_c   7.28032168
_cell_angle_alpha   60.42843535
_cell_angle_beta   60.98891359
_cell_angle_gamma   60.42843237
_symmetry_Int_Tables_number   1
_chemical_formula_structural   AgBiIr2O7
_chemical_formula_sum   'Ag2 Bi2 Ir4 O14'
_cell_volume   273.04132720
_cell_formula_units_Z   2
loop_
 _symmetry_equiv_pos_site_id
 _symmetry_equiv_pos_as_xyz
  1  'x, y, z'
loop_
 _atom_site_type_symbol
 _atom_site_label
 _atom_site_symmetry_multiplicity
 _atom_site_fract_x
 _atom_site_fract_y
 _atom_site_fract_z
 _atom_site_occupancy
  Ag  Ag0  1  0.125000  0.625000  0.125000  1
  Ag  Ag1  1  0.125000  0.125000  0.125000  1
  Bi  Bi2  1  0.625000  0.125000  0.125000  1
  Bi  Bi3  1  0.125000  0.125000  0.625000  1
  Ir  Ir4  1  0.125000  0.625000  0.625000  1
  Ir  Ir5  1  0.625000  0.125000  0.625000  1
  Ir  Ir6  1  0.625000  0.625000  0.125000  1
  Ir  Ir7  1  0.625000  0.625000  0.625000  1
  O  O8  1  0.695383  0.710514  0.299199  1
  O  O9  1  0.299199  0.294904  0.695383  1
  O  O10  1  0.707109  0.292891  0.707109  1
  O  O11  1  0.311733  0.688267  0.311733  1
  O  O12  1  0.299199  0.710514  0.695383  1
  O  O13  1  0.695383  0.294904  0.299199  1
  O  O14  1  0.554617  0.539486  0.950801  1
  O  O15  1  0.950801  0.955096  0.554617  1
  O  O16  1  0.542891  0.957109  0.542891  1
  O  O17  1  0.938267  0.561733  0.938267  1
  O  O18  1  0.950801  0.539486  0.554617  1
  O  O19  1  0.554617  0.955096  0.950801  1
  O  O20  1  0.241017  0.258983  0.241017  1
  O  O21  1  0.008983  0.991017  0.008983  1
