# generated using pymatgen
data_Y6Ge7P5Rh18
_symmetry_space_group_name_H-M   'P 1'
_cell_length_a   3.96128200
_cell_length_b   11.49167911
_cell_length_c   13.08533151
_cell_angle_alpha   89.91588864
_cell_angle_beta   90.00000000
_cell_angle_gamma   90.00000000
_symmetry_Int_Tables_number   1
_chemical_formula_structural   Y6Ge7P5Rh18
_chemical_formula_sum   'Y6 Ge7 P5 Rh18'
_cell_volume   595.66696136
_cell_formula_units_Z   1
loop_
 _symmetry_equiv_pos_site_id
 _symmetry_equiv_pos_as_xyz
  1  'x, y, z'
loop_
 _atom_site_type_symbol
 _atom_site_label
 _atom_site_symmetry_multiplicity
 _atom_site_fract_x
 _atom_site_fract_y
 _atom_site_fract_z
 _atom_site_occupancy
  Y  Y0  1  0.000000  0.498834  0.518935  1
  Y  Y1  1  0.500000  0.001219  0.479079  1
  Y  Y2  1  0.500000  0.818981  0.204827  1
  Y  Y3  1  0.500000  0.186423  0.203064  1
  Y  Y4  1  0.000000  0.679867  0.796688  1
  Y  Y5  1  0.000000  0.318756  0.795054  1
  Ge  Ge6  1  0.500000  0.312931  0.615849  1
  Ge  Ge7  1  0.500000  0.688238  0.618435  1
  Ge  Ge8  1  0.000000  0.189594  0.380200  1
  Ge  Ge9  1  0.000000  0.809818  0.382036  1
  Ge  Ge10  1  0.500000  0.852779  0.891285  1
  Ge  Ge11  1  0.500000  0.149014  0.891882  1
  Ge  Ge12  1  0.000000  0.648976  0.109941  1
  P  P13  1  0.500000  0.498303  0.883906  1
  P  P14  1  0.000000  0.999711  0.119561  1
  P  P15  1  0.500000  0.500745  0.343222  1
  P  P16  1  0.000000  0.000827  0.656353  1
  P  P17  1  0.000000  0.346212  0.104596  1
  Rh  Rh18  1  0.500000  0.500709  0.162657  1
  Rh  Rh19  1  0.000000  0.002148  0.837019  1
  Rh  Rh20  1  0.500000  0.499799  0.709057  1
  Rh  Rh21  1  0.000000  0.998968  0.294193  1
  Rh  Rh22  1  0.000000  0.494839  0.979130  1
  Rh  Rh23  1  0.500000  0.001222  0.028824  1
  Rh  Rh24  1  0.500000  0.334297  0.996277  1
  Rh  Rh25  1  0.500000  0.664307  0.986491  1
  Rh  Rh26  1  0.000000  0.168134  0.016414  1
  Rh  Rh27  1  0.000000  0.834740  0.013777  1
  Rh  Rh28  1  0.500000  0.311187  0.426329  1
  Rh  Rh29  1  0.500000  0.691756  0.430950  1
  Rh  Rh30  1  0.000000  0.193284  0.567558  1
  Rh  Rh31  1  0.000000  0.808660  0.569456  1
  Rh  Rh32  1  0.500000  0.881631  0.706240  1
  Rh  Rh33  1  0.500000  0.121140  0.706202  1
  Rh  Rh34  1  0.000000  0.616185  0.294424  1
  Rh  Rh35  1  0.000000  0.375765  0.280089  1
