# generated using pymatgen
data_Er3Cu5(Ni4B)2
_symmetry_space_group_name_H-M   'P 1'
_cell_length_a   4.98690897
_cell_length_b   4.98690967
_cell_length_c   10.87040300
_cell_angle_alpha   90.00000000
_cell_angle_beta   90.00000000
_cell_angle_gamma   119.85224290
_symmetry_Int_Tables_number   1
_chemical_formula_structural   Er3Cu5(Ni4B)2
_chemical_formula_sum   'Er3 Cu5 Ni8 B2'
_cell_volume   234.46818207
_cell_formula_units_Z   1
loop_
 _symmetry_equiv_pos_site_id
 _symmetry_equiv_pos_as_xyz
  1  'x, y, z'
loop_
 _atom_site_type_symbol
 _atom_site_label
 _atom_site_symmetry_multiplicity
 _atom_site_fract_x
 _atom_site_fract_y
 _atom_site_fract_z
 _atom_site_occupancy
  Er  Er0  1  0.000000  0.000000  0.000000  1
  Er  Er1  1  0.000000  0.000000  0.671099  1
  Er  Er2  1  0.000000  0.000000  0.328901  1
  Cu  Cu3  1  0.500000  0.500000  0.500000  1
  Cu  Cu4  1  0.668383  0.331617  0.683683  1
  Cu  Cu5  1  0.331617  0.668383  0.683683  1
  Cu  Cu6  1  0.331617  0.668383  0.316317  1
  Cu  Cu7  1  0.668383  0.331617  0.316317  1
  Ni  Ni8  1  0.500000  0.000000  0.500000  1
  Ni  Ni9  1  0.000000  0.500000  0.500000  1
  Ni  Ni10  1  0.500000  0.500000  0.869818  1
  Ni  Ni11  1  0.500000  0.000000  0.869800  1
  Ni  Ni12  1  0.000000  0.500000  0.869800  1
  Ni  Ni13  1  0.500000  0.500000  0.130182  1
  Ni  Ni14  1  0.500000  0.000000  0.130200  1
  Ni  Ni15  1  0.000000  0.500000  0.130200  1
  B  B16  1  0.666747  0.333253  0.000000  1
  B  B17  1  0.333253  0.666747  0.000000  1
