# generated using pymatgen
data_Tm2Lu4Bi2Mo
_symmetry_space_group_name_H-M   'P 1'
_cell_length_a   8.15391000
_cell_length_b   8.15806154
_cell_length_c   4.31997500
_cell_angle_alpha   90.00000000
_cell_angle_beta   90.00000000
_cell_angle_gamma   119.98317566
_symmetry_Int_Tables_number   1
_chemical_formula_structural   Tm2Lu4Bi2Mo
_chemical_formula_sum   'Tm2 Lu4 Bi2 Mo1'
_cell_volume   248.90771509
_cell_formula_units_Z   1
loop_
 _symmetry_equiv_pos_site_id
 _symmetry_equiv_pos_as_xyz
  1  'x, y, z'
loop_
 _atom_site_type_symbol
 _atom_site_label
 _atom_site_symmetry_multiplicity
 _atom_site_fract_x
 _atom_site_fract_y
 _atom_site_fract_z
 _atom_site_occupancy
  Tm  Tm0  1  0.000156  0.613821  0.000000  1
  Tm  Tm1  1  0.386334  0.386179  0.000000  1
  Lu  Lu2  1  0.234278  0.000000  0.500000  1
  Lu  Lu3  1  0.999459  0.234182  0.500000  1
  Lu  Lu4  1  0.765277  0.765818  0.500000  1
  Lu  Lu5  1  0.615011  0.000000  0.000000  1
  Bi  Bi6  1  0.333801  0.667222  0.500000  1
  Bi  Bi7  1  0.666580  0.332778  0.500000  1
  Mo  Mo8  1  0.999106  0.000000  0.000000  1
