# generated using pymatgen
data_Sc4Cr3Fe4Co13P12
_symmetry_space_group_name_H-M   'P 1'
_cell_length_a   3.57349800
_cell_length_b   10.20834139
_cell_length_c   11.63567091
_cell_angle_alpha   90.09956428
_cell_angle_beta   90.00000000
_cell_angle_gamma   90.00000000
_symmetry_Int_Tables_number   1
_chemical_formula_structural   Sc4Cr3Fe4Co13P12
_chemical_formula_sum   'Sc4 Cr3 Fe4 Co13 P12'
_cell_volume   424.46267108
_cell_formula_units_Z   1
loop_
 _symmetry_equiv_pos_site_id
 _symmetry_equiv_pos_as_xyz
  1  'x, y, z'
loop_
 _atom_site_type_symbol
 _atom_site_label
 _atom_site_symmetry_multiplicity
 _atom_site_fract_x
 _atom_site_fract_y
 _atom_site_fract_z
 _atom_site_occupancy
  Sc  Sc0  1  0.250000  0.581916  0.703748  1
  Sc  Sc1  1  0.250000  0.916933  0.204411  1
  Sc  Sc2  1  0.750000  0.418371  0.295648  1
  Sc  Sc3  1  0.750000  0.081469  0.795447  1
  Cr  Cr4  1  0.250000  0.707462  0.988555  1
  Cr  Cr5  1  0.250000  0.790938  0.489774  1
  Cr  Cr6  1  0.750000  0.291581  0.011650  1
  Fe  Fe7  1  0.750000  0.212797  0.512506  1
  Fe  Fe8  1  0.250000  0.404277  0.487367  1
  Fe  Fe9  1  0.750000  0.594270  0.511731  1
  Fe  Fe10  1  0.750000  0.906706  0.012460  1
  Co  Co11  1  0.250000  0.095416  0.987587  1
  Co  Co12  1  0.250000  0.221131  0.177621  1
  Co  Co13  1  0.250000  0.277870  0.675822  1
  Co  Co14  1  0.750000  0.778481  0.823618  1
  Co  Co15  1  0.750000  0.721976  0.323145  1
  Co  Co16  1  0.250000  0.885554  0.701017  1
  Co  Co17  1  0.250000  0.615080  0.200345  1
  Co  Co18  1  0.750000  0.116597  0.301308  1
  Co  Co19  1  0.750000  0.383455  0.798759  1
  Co  Co20  1  0.250000  0.463542  0.932412  1
  Co  Co21  1  0.250000  0.035692  0.431315  1
  Co  Co22  1  0.750000  0.535632  0.066447  1
  Co  Co23  1  0.750000  0.965823  0.567714  1
  P  P24  1  0.250000  0.419484  0.117487  1
  P  P25  1  0.250000  0.081322  0.615158  1
  P  P26  1  0.750000  0.579861  0.881641  1
  P  P27  1  0.750000  0.919681  0.383472  1
  P  P28  1  0.250000  0.263917  0.865386  1
  P  P29  1  0.250000  0.235863  0.369255  1
  P  P30  1  0.750000  0.736568  0.133151  1
  P  P31  1  0.750000  0.764341  0.633032  1
  P  P32  1  0.250000  0.591695  0.390686  1
  P  P33  1  0.250000  0.906560  0.890793  1
  P  P34  1  0.750000  0.404286  0.607562  1
  P  P35  1  0.750000  0.093453  0.111972  1
