# generated using pymatgen
data_HoTh3Zn2(HgRh2)2
_symmetry_space_group_name_H-M   'P 1'
_cell_length_a   3.95201400
_cell_length_b   7.38588909
_cell_length_c   8.73839512
_cell_angle_alpha   90.89902743
_cell_angle_beta   90.00000000
_cell_angle_gamma   90.00000000
_symmetry_Int_Tables_number   1
_chemical_formula_structural   HoTh3Zn2(HgRh2)2
_chemical_formula_sum   'Ho1 Th3 Zn2 Hg2 Rh4'
_cell_volume   255.03481407
_cell_formula_units_Z   1
loop_
 _symmetry_equiv_pos_site_id
 _symmetry_equiv_pos_as_xyz
  1  'x, y, z'
loop_
 _atom_site_type_symbol
 _atom_site_label
 _atom_site_symmetry_multiplicity
 _atom_site_fract_x
 _atom_site_fract_y
 _atom_site_fract_z
 _atom_site_occupancy
  Ho  Ho0  1  0.750000  0.943546  0.692039  1
  Th  Th1  1  0.250000  0.550573  0.183646  1
  Th  Th2  1  0.750000  0.444724  0.804950  1
  Th  Th3  1  0.250000  0.054066  0.322417  1
  Zn  Zn4  1  0.750000  0.869418  0.056391  1
  Zn  Zn5  1  0.750000  0.372236  0.442625  1
  Hg  Hg6  1  0.250000  0.117159  0.938520  1
  Hg  Hg7  1  0.250000  0.642787  0.557101  1
  Rh  Rh8  1  0.750000  0.776696  0.347129  1
  Rh  Rh9  1  0.250000  0.239252  0.624224  1
  Rh  Rh10  1  0.750000  0.272033  0.148754  1
  Rh  Rh11  1  0.250000  0.717511  0.882205  1
