# generated using pymatgen
data_Zr6Al16Co(NiPt2)2
_symmetry_space_group_name_H-M   'P 1'
_cell_length_a   8.67293996
_cell_length_b   8.67293935
_cell_length_c   8.66284352
_cell_angle_alpha   60.19437737
_cell_angle_beta   60.19437685
_cell_angle_gamma   59.95027614
_symmetry_Int_Tables_number   1
_chemical_formula_structural   Zr6Al16Co(NiPt2)2
_chemical_formula_sum   'Zr6 Al16 Co1 Ni2 Pt4'
_cell_volume   461.93772864
_cell_formula_units_Z   1
loop_
 _symmetry_equiv_pos_site_id
 _symmetry_equiv_pos_as_xyz
  1  'x, y, z'
loop_
 _atom_site_type_symbol
 _atom_site_label
 _atom_site_symmetry_multiplicity
 _atom_site_fract_x
 _atom_site_fract_y
 _atom_site_fract_z
 _atom_site_occupancy
  Zr  Zr0  1  0.688557  0.310941  0.311894  1
  Zr  Zr1  1  0.689059  0.311443  0.688106  1
  Zr  Zr2  1  0.688369  0.688369  0.312343  1
  Zr  Zr3  1  0.311443  0.689059  0.688106  1
  Zr  Zr4  1  0.310941  0.688557  0.311894  1
  Zr  Zr5  1  0.311631  0.311631  0.687657  1
  Al  Al6  1  0.649924  0.115158  0.122375  1
  Al  Al7  1  0.115158  0.649924  0.122375  1
  Al  Al8  1  0.118699  0.118699  0.650194  1
  Al  Al9  1  0.116066  0.116066  0.117955  1
  Al  Al10  1  0.350076  0.884842  0.877625  1
  Al  Al11  1  0.884842  0.350076  0.877625  1
  Al  Al12  1  0.881301  0.881301  0.349806  1
  Al  Al13  1  0.883934  0.883934  0.882045  1
  Al  Al14  1  0.998220  0.338250  0.338807  1
  Al  Al15  1  0.338250  0.998220  0.338807  1
  Al  Al16  1  0.334233  0.334233  0.997816  1
  Al  Al17  1  0.329981  0.329981  0.341800  1
  Al  Al18  1  0.001780  0.661750  0.661193  1
  Al  Al19  1  0.661750  0.001780  0.661193  1
  Al  Al20  1  0.665767  0.665767  0.002184  1
  Al  Al21  1  0.670019  0.670019  0.658200  1
  Co  Co22  1  0.000000  0.000000  0.000000  1
  Ni  Ni23  1  0.500000  0.000000  0.500000  1
  Ni  Ni24  1  0.000000  0.500000  0.500000  1
  Pt  Pt25  1  0.500000  0.000000  0.000000  1
  Pt  Pt26  1  0.500000  0.500000  0.000000  1
  Pt  Pt27  1  0.000000  0.500000  0.000000  1
  Pt  Pt28  1  0.000000  0.000000  0.500000  1
