# generated using pymatgen
data_Ce2HfBiF15
_symmetry_space_group_name_H-M   'P 1'
_cell_length_a   8.55394273
_cell_length_b   8.55394444
_cell_length_c   8.60947800
_cell_angle_alpha   79.67152962
_cell_angle_beta   79.67152073
_cell_angle_gamma   99.53031421
_symmetry_Int_Tables_number   1
_chemical_formula_structural   Ce2HfBiF15
_chemical_formula_sum   'Ce4 Hf2 Bi2 F30'
_cell_volume   596.84763905
_cell_formula_units_Z   2
loop_
 _symmetry_equiv_pos_site_id
 _symmetry_equiv_pos_as_xyz
  1  'x, y, z'
loop_
 _atom_site_type_symbol
 _atom_site_label
 _atom_site_symmetry_multiplicity
 _atom_site_fract_x
 _atom_site_fract_y
 _atom_site_fract_z
 _atom_site_occupancy
  Ce  Ce0  1  0.749793  0.681394  0.676251  1
  Ce  Ce1  1  0.318606  0.250207  0.823749  1
  Ce  Ce2  1  0.250207  0.318606  0.323749  1
  Ce  Ce3  1  0.681394  0.749793  0.176251  1
  Hf  Hf4  1  0.751545  0.248455  0.250000  1
  Hf  Hf5  1  0.248455  0.751545  0.750000  1
  Bi  Bi6  1  0.181535  0.818465  0.250000  1
  Bi  Bi7  1  0.818465  0.181535  0.750000  1
  F  F8  1  0.465278  0.534722  0.250000  1
  F  F9  1  0.751564  0.956431  0.967471  1
  F  F10  1  0.043569  0.248436  0.532529  1
  F  F11  1  0.248436  0.043569  0.032529  1
  F  F12  1  0.956431  0.751564  0.467471  1
  F  F13  1  0.534722  0.465278  0.750000  1
  F  F14  1  0.224848  0.507965  0.776733  1
  F  F15  1  0.230650  0.726688  0.990003  1
  F  F16  1  0.006408  0.728944  0.776480  1
  F  F17  1  0.728944  0.006408  0.276480  1
  F  F18  1  0.726688  0.230650  0.490003  1
  F  F19  1  0.507965  0.224848  0.276733  1
  F  F20  1  0.775153  0.492035  0.223267  1
  F  F21  1  0.769350  0.273312  0.009997  1
  F  F22  1  0.993592  0.271056  0.223520  1
  F  F23  1  0.271056  0.993592  0.723520  1
  F  F24  1  0.273312  0.769350  0.509997  1
  F  F25  1  0.492035  0.775152  0.723267  1
  F  F26  1  0.540516  0.150222  0.814214  1
  F  F27  1  0.192032  0.055764  0.348924  1
  F  F28  1  0.648806  0.686103  0.446206  1
  F  F29  1  0.686103  0.648806  0.946206  1
  F  F30  1  0.055764  0.192032  0.848924  1
  F  F31  1  0.150222  0.540516  0.314214  1
  F  F32  1  0.459484  0.849778  0.185786  1
  F  F33  1  0.807968  0.944236  0.651076  1
  F  F34  1  0.351194  0.313897  0.553794  1
  F  F35  1  0.313897  0.351194  0.053794  1
  F  F36  1  0.944236  0.807968  0.151076  1
  F  F37  1  0.849778  0.459484  0.685786  1
