# generated using pymatgen
data_La5Pr(GaPd5)2
_symmetry_space_group_name_H-M   'P 1'
_cell_length_a   8.58189366
_cell_length_b   8.57305240
_cell_length_c   8.57305100
_cell_angle_alpha   127.98810114
_cell_angle_beta   126.06744683
_cell_angle_gamma   78.19209024
_symmetry_Int_Tables_number   1
_chemical_formula_structural   La5Pr(GaPd5)2
_chemical_formula_sum   'La5 Pr1 Ga2 Pd10'
_cell_volume   389.31855058
_cell_formula_units_Z   1
loop_
 _symmetry_equiv_pos_site_id
 _symmetry_equiv_pos_as_xyz
  1  'x, y, z'
loop_
 _atom_site_type_symbol
 _atom_site_label
 _atom_site_symmetry_multiplicity
 _atom_site_fract_x
 _atom_site_fract_y
 _atom_site_fract_z
 _atom_site_occupancy
  La  La0  1  0.218825  0.450176  0.768650  1
  La  La1  1  0.181211  0.950378  0.230833  1
  La  La2  1  0.377421  0.249855  0.127566  1
  La  La3  1  0.781309  0.549909  0.231399  1
  La  La4  1  0.622616  0.750277  0.872340  1
  Pr  Pr5  1  0.819055  0.050047  0.769008  1
  Ga  Ga6  1  0.220664  0.749988  0.470675  1
  Ga  Ga7  1  0.779634  0.249608  0.530025  1
  Pd  Pd8  1  0.831696  0.604655  0.643037  1
  Pd  Pd9  1  0.538830  0.311240  0.643125  1
  Pd  Pd10  1  0.461191  0.104111  0.772439  1
  Pd  Pd11  1  0.831696  0.188660  0.227042  1
  Pd  Pd12  1  0.167878  0.395375  0.356283  1
  Pd  Pd13  1  0.461191  0.688751  0.357080  1
  Pd  Pd14  1  0.538830  0.895704  0.227589  1
  Pd  Pd15  1  0.167878  0.811594  0.772503  1
  Pd  Pd16  1  0.000038  0.000060  0.500428  1
  Pd  Pd17  1  0.000038  0.499610  0.999978  1
