# generated using pymatgen
data_Sm8Sc11Si16W
_symmetry_space_group_name_H-M   'P 1'
_cell_length_a   7.16762931
_cell_length_b   7.41021342
_cell_length_c   14.02109377
_cell_angle_alpha   90.19782550
_cell_angle_beta   89.69559439
_cell_angle_gamma   89.65183391
_symmetry_Int_Tables_number   1
_chemical_formula_structural   Sm8Sc11Si16W
_chemical_formula_sum   'Sm8 Sc11 Si16 W1'
_cell_volume   744.68286490
_cell_formula_units_Z   1
loop_
 _symmetry_equiv_pos_site_id
 _symmetry_equiv_pos_as_xyz
  1  'x, y, z'
loop_
 _atom_site_type_symbol
 _atom_site_label
 _atom_site_symmetry_multiplicity
 _atom_site_fract_x
 _atom_site_fract_y
 _atom_site_fract_z
 _atom_site_occupancy
  Sm  Sm0  1  0.012011  0.172228  0.097081  1
  Sm  Sm1  1  0.988644  0.827407  0.898155  1
  Sm  Sm2  1  0.486298  0.675197  0.898416  1
  Sm  Sm3  1  0.992800  0.831146  0.595763  1
  Sm  Sm4  1  0.513815  0.325165  0.097155  1
  Sm  Sm5  1  0.011481  0.173834  0.403453  1
  Sm  Sm6  1  0.507578  0.327085  0.409197  1
  Sm  Sm7  1  0.487010  0.674494  0.597137  1
  Sc  Sc8  1  0.162369  0.491627  0.744921  1
  Sc  Sc9  1  0.838610  0.498625  0.251932  1
  Sc  Sc10  1  0.338455  0.001511  0.251537  1
  Sc  Sc11  1  0.657066  0.002599  0.747436  1
  Sc  Sc12  1  0.666657  0.826030  0.378879  1
  Sc  Sc13  1  0.168618  0.676670  0.378063  1
  Sc  Sc14  1  0.669887  0.824322  0.124471  1
  Sc  Sc15  1  0.831679  0.325005  0.623962  1
  Sc  Sc16  1  0.332073  0.176995  0.875325  1
  Sc  Sc17  1  0.828760  0.323244  0.871029  1
  Sc  Sc18  1  0.170874  0.676056  0.125645  1
  Si  Si19  1  0.043352  0.125142  0.744672  1
  Si  Si20  1  0.964094  0.880413  0.251635  1
  Si  Si21  1  0.466833  0.622575  0.250929  1
  Si  Si22  1  0.529380  0.369223  0.745273  1
  Si  Si23  1  0.288360  0.887475  0.746077  1
  Si  Si24  1  0.711336  0.121960  0.251017  1
  Si  Si25  1  0.214404  0.377592  0.250806  1
  Si  Si26  1  0.785308  0.620858  0.746818  1
  Si  Si27  1  0.173340  0.448951  0.542584  1
  Si  Si28  1  0.846002  0.533332  0.460240  1
  Si  Si29  1  0.337340  0.969833  0.470813  1
  Si  Si30  1  0.847801  0.535802  0.039150  1
  Si  Si31  1  0.642810  0.037601  0.546237  1
  Si  Si32  1  0.150617  0.465503  0.958746  1
  Si  Si33  1  0.657437  0.036729  0.957906  1
  Si  Si34  1  0.344939  0.962494  0.039023  1
  W  W35  1  0.331963  0.175277  0.628517  1
