# generated using pymatgen
data_UPaB24
_symmetry_space_group_name_H-M   'P 1'
_cell_length_a   9.17035138
_cell_length_b   9.17035128
_cell_length_c   9.17035065
_cell_angle_alpha   33.47670863
_cell_angle_beta   33.47670848
_cell_angle_gamma   33.47670825
_symmetry_Int_Tables_number   1
_chemical_formula_structural   UPaB24
_chemical_formula_sum   'U1 Pa1 B24'
_cell_volume   208.97224725
_cell_formula_units_Z   1
loop_
 _symmetry_equiv_pos_site_id
 _symmetry_equiv_pos_as_xyz
  1  'x, y, z'
loop_
 _atom_site_type_symbol
 _atom_site_label
 _atom_site_symmetry_multiplicity
 _atom_site_fract_x
 _atom_site_fract_y
 _atom_site_fract_z
 _atom_site_occupancy
  U  U0  1  0.000000  0.000000  0.000000  1
  Pa  Pa1  1  0.500000  0.500000  0.500000  1
  B  B2  1  0.911508  0.590629  0.249432  1
  B  B3  1  0.409371  0.088492  0.750568  1
  B  B4  1  0.080826  0.419852  0.080826  1
  B  B5  1  0.580259  0.919407  0.580259  1
  B  B6  1  0.249432  0.590629  0.911508  1
  B  B7  1  0.750568  0.088492  0.409371  1
  B  B8  1  0.080826  0.080826  0.419852  1
  B  B9  1  0.580259  0.580259  0.919407  1
  B  B10  1  0.911508  0.249432  0.590629  1
  B  B11  1  0.409371  0.750568  0.088492  1
  B  B12  1  0.249432  0.911508  0.590629  1
  B  B13  1  0.750568  0.409371  0.088492  1
  B  B14  1  0.419741  0.419741  0.080593  1
  B  B15  1  0.919174  0.919174  0.580148  1
  B  B16  1  0.419741  0.080593  0.419741  1
  B  B17  1  0.919174  0.580148  0.919174  1
  B  B18  1  0.080593  0.419741  0.419741  1
  B  B19  1  0.580148  0.919174  0.919174  1
  B  B20  1  0.590629  0.911508  0.249432  1
  B  B21  1  0.088492  0.409371  0.750568  1
  B  B22  1  0.590629  0.249432  0.911508  1
  B  B23  1  0.088492  0.750568  0.409371  1
  B  B24  1  0.419852  0.080826  0.080826  1
  B  B25  1  0.919407  0.580259  0.580259  1
