# generated using pymatgen
data_Ho2ErPaNi4SnHg
_symmetry_space_group_name_H-M   'P 1'
_cell_length_a   7.38136200
_cell_length_b   7.38136182
_cell_length_c   3.58896800
_cell_angle_alpha   90.00000000
_cell_angle_beta   90.00000000
_cell_angle_gamma   92.22115765
_symmetry_Int_Tables_number   1
_chemical_formula_structural   Ho2ErPaNi4SnHg
_chemical_formula_sum   'Ho2 Er1 Pa1 Ni4 Sn1 Hg1'
_cell_volume   195.39622315
_cell_formula_units_Z   1
loop_
 _symmetry_equiv_pos_site_id
 _symmetry_equiv_pos_as_xyz
  1  'x, y, z'
loop_
 _atom_site_type_symbol
 _atom_site_label
 _atom_site_symmetry_multiplicity
 _atom_site_fract_x
 _atom_site_fract_y
 _atom_site_fract_z
 _atom_site_occupancy
  Ho  Ho0  1  0.176718  0.329505  0.500000  1
  Ho  Ho1  1  0.826669  0.673946  0.500000  1
  Er  Er2  1  0.326649  0.821944  0.500000  1
  Pa  Pa3  1  0.670012  0.173785  0.500000  1
  Ni  Ni4  1  0.866389  0.355275  0.000000  1
  Ni  Ni5  1  0.106453  0.615491  0.000000  1
  Ni  Ni6  1  0.393150  0.128430  0.000000  1
  Ni  Ni7  1  0.630158  0.895840  0.000000  1
  Sn  Sn8  1  0.007063  0.997565  0.000000  1
  Hg  Hg9  1  0.496738  0.508219  0.000000  1
