# generated using pymatgen
data_Zn3Cu3Pd5Pt
_symmetry_space_group_name_H-M   'P 1'
_cell_length_a   4.31221300
_cell_length_b   6.04298200
_cell_length_c   12.89677800
_cell_angle_alpha   90.00000000
_cell_angle_beta   89.99984475
_cell_angle_gamma   90.00000000
_symmetry_Int_Tables_number   1
_chemical_formula_structural   Zn3Cu3Pd5Pt
_chemical_formula_sum   'Zn6 Cu6 Pd10 Pt2'
_cell_volume   336.07230856
_cell_formula_units_Z   2
loop_
 _symmetry_equiv_pos_site_id
 _symmetry_equiv_pos_as_xyz
  1  'x, y, z'
loop_
 _atom_site_type_symbol
 _atom_site_label
 _atom_site_symmetry_multiplicity
 _atom_site_fract_x
 _atom_site_fract_y
 _atom_site_fract_z
 _atom_site_occupancy
  Zn  Zn0  1  0.000000  0.500000  0.000000  1
  Zn  Zn1  1  0.499720  0.000000  0.166921  1
  Zn  Zn2  1  0.999720  0.500000  0.333233  1
  Zn  Zn3  1  0.500000  0.000000  0.500000  1
  Zn  Zn4  1  0.000279  0.500000  0.666768  1
  Zn  Zn5  1  0.500280  0.000000  0.833079  1
  Cu  Cu6  1  0.000000  0.000000  0.000000  1
  Cu  Cu7  1  0.499732  0.500000  0.166598  1
  Cu  Cu8  1  0.999729  0.000000  0.333342  1
  Cu  Cu9  1  0.500000  0.500000  0.500000  1
  Cu  Cu10  1  0.000273  0.000000  0.666659  1
  Cu  Cu11  1  0.500270  0.500000  0.833402  1
  Pd  Pd12  1  0.999744  0.249668  0.167014  1
  Pd  Pd13  1  0.999744  0.750331  0.167014  1
  Pd  Pd14  1  0.499741  0.250401  0.333318  1
  Pd  Pd15  1  0.499741  0.749598  0.333318  1
  Pd  Pd16  1  0.000000  0.249758  0.500000  1
  Pd  Pd17  1  0.000000  0.750243  0.500000  1
  Pd  Pd18  1  0.500258  0.250401  0.666681  1
  Pd  Pd19  1  0.500258  0.749598  0.666681  1
  Pd  Pd20  1  0.000256  0.249668  0.832987  1
  Pd  Pd21  1  0.000256  0.750331  0.832987  1
  Pt  Pt22  1  0.500000  0.250366  0.000000  1
  Pt  Pt23  1  0.500000  0.749634  0.000000  1
