# generated using pymatgen
data_Er5Tm5(Si3O)2
_symmetry_space_group_name_H-M   'P 1'
_cell_length_a   8.29252200
_cell_length_b   8.29252021
_cell_length_c   6.11023500
_cell_angle_alpha   90.00000000
_cell_angle_beta   90.00000000
_cell_angle_gamma   120.00251032
_symmetry_Int_Tables_number   1
_chemical_formula_structural   Er5Tm5(Si3O)2
_chemical_formula_sum   'Er5 Tm5 Si6 O2'
_cell_volume   363.87375294
_cell_formula_units_Z   1
loop_
 _symmetry_equiv_pos_site_id
 _symmetry_equiv_pos_as_xyz
  1  'x, y, z'
loop_
 _atom_site_type_symbol
 _atom_site_label
 _atom_site_symmetry_multiplicity
 _atom_site_fract_x
 _atom_site_fract_y
 _atom_site_fract_z
 _atom_site_occupancy
  Er  Er0  1  0.232307  0.000091  0.250000  1
  Er  Er1  1  0.767755  0.000022  0.750000  1
  Er  Er2  1  0.000091  0.232307  0.250000  1
  Er  Er3  1  0.000022  0.767755  0.750000  1
  Er  Er4  1  0.767709  0.767709  0.250000  1
  Tm  Tm5  1  0.231730  0.231730  0.750000  1
  Tm  Tm6  1  0.333306  0.666554  0.999981  1
  Tm  Tm7  1  0.666554  0.333306  0.999981  1
  Tm  Tm8  1  0.666554  0.333306  0.500019  1
  Tm  Tm9  1  0.333306  0.666554  0.500019  1
  Si  Si10  1  0.601970  0.999999  0.250000  1
  Si  Si11  1  0.397858  0.000215  0.750000  1
  Si  Si12  1  0.999999  0.601970  0.250000  1
  Si  Si13  1  0.000215  0.397858  0.750000  1
  Si  Si14  1  0.398004  0.398004  0.250000  1
  Si  Si15  1  0.601794  0.601794  0.750000  1
  O  O16  1  0.000413  0.000413  0.999521  1
  O  O17  1  0.000413  0.000413  0.500479  1
