# generated using pymatgen
data_Tb5Y6HoNi4
_symmetry_space_group_name_H-M   'P 1'
_cell_length_a   6.36347105
_cell_length_b   6.85966588
_cell_length_c   9.60738600
_cell_angle_alpha   89.96303991
_cell_angle_beta   89.78681520
_cell_angle_gamma   89.93456259
_symmetry_Int_Tables_number   1
_chemical_formula_structural   Tb5Y6HoNi4
_chemical_formula_sum   'Tb5 Y6 Ho1 Ni4'
_cell_volume   419.37148417
_cell_formula_units_Z   1
loop_
 _symmetry_equiv_pos_site_id
 _symmetry_equiv_pos_as_xyz
  1  'x, y, z'
loop_
 _atom_site_type_symbol
 _atom_site_label
 _atom_site_symmetry_multiplicity
 _atom_site_fract_x
 _atom_site_fract_y
 _atom_site_fract_z
 _atom_site_occupancy
  Tb  Tb0  1  0.821954  0.821533  0.935151  1
  Tb  Tb1  1  0.676864  0.321280  0.934222  1
  Tb  Tb2  1  0.822094  0.821898  0.566113  1
  Tb  Tb3  1  0.321818  0.678861  0.432886  1
  Tb  Tb4  1  0.178416  0.177280  0.066787  1
  Y  Y5  1  0.176815  0.178193  0.434795  1
  Y  Y6  1  0.677257  0.322785  0.565380  1
  Y  Y7  1  0.860156  0.534415  0.248610  1
  Y  Y8  1  0.640222  0.034038  0.249785  1
  Y  Y9  1  0.140876  0.466446  0.750769  1
  Y  Y10  1  0.359320  0.965972  0.750384  1
  Ho  Ho11  1  0.323287  0.677183  0.066616  1
  Ni  Ni12  1  0.058165  0.889538  0.248130  1
  Ni  Ni13  1  0.443185  0.393355  0.248367  1
  Ni  Ni14  1  0.943010  0.107805  0.749576  1
  Ni  Ni15  1  0.556560  0.609417  0.752431  1
