# generated using pymatgen
data_Hf6AlFeSe
_symmetry_space_group_name_H-M   'P 1'
_cell_length_a   3.37822400
_cell_length_b   7.70239191
_cell_length_c   7.70207500
_cell_angle_alpha   60.00733432
_cell_angle_beta   90.00000000
_cell_angle_gamma   90.00000000
_symmetry_Int_Tables_number   1
_chemical_formula_structural   Hf6AlFeSe
_chemical_formula_sum   'Hf6 Al1 Fe1 Se1'
_cell_volume   173.57394025
_cell_formula_units_Z   1
loop_
 _symmetry_equiv_pos_site_id
 _symmetry_equiv_pos_as_xyz
  1  'x, y, z'
loop_
 _atom_site_type_symbol
 _atom_site_label
 _atom_site_symmetry_multiplicity
 _atom_site_fract_x
 _atom_site_fract_y
 _atom_site_fract_z
 _atom_site_occupancy
  Hf  Hf0  1  0.500000  0.593351  0.397692  1
  Hf  Hf1  1  0.500000  0.397651  0.009008  1
  Hf  Hf2  1  0.500000  0.008888  0.593407  1
  Hf  Hf3  1  0.000000  0.249900  0.755351  1
  Hf  Hf4  1  0.000000  0.755391  0.994793  1
  Hf  Hf5  1  0.000000  0.994709  0.249860  1
  Al  Al6  1  0.000000  0.666633  0.666722  1
  Fe  Fe7  1  0.500000  0.000115  0.999888  1
  Se  Se8  1  0.000000  0.333263  0.333381  1
