# generated using pymatgen
data_TiMn5P3
_symmetry_space_group_name_H-M   'P 1'
_cell_length_a   6.10749921
_cell_length_b   6.10749783
_cell_length_c   3.32188300
_cell_angle_alpha   90.00000000
_cell_angle_beta   90.00000000
_cell_angle_gamma   119.85027112
_symmetry_Int_Tables_number   1
_chemical_formula_structural   TiMn5P3
_chemical_formula_sum   'Ti1 Mn5 P3'
_cell_volume   107.47191283
_cell_formula_units_Z   1
loop_
 _symmetry_equiv_pos_site_id
 _symmetry_equiv_pos_as_xyz
  1  'x, y, z'
loop_
 _atom_site_type_symbol
 _atom_site_label
 _atom_site_symmetry_multiplicity
 _atom_site_fract_x
 _atom_site_fract_y
 _atom_site_fract_z
 _atom_site_occupancy
  Ti  Ti0  1  0.593259  0.593259  0.500000  1
  Mn  Mn1  1  0.255681  0.255681  0.000000  1
  Mn  Mn2  1  0.747255  0.000062  0.000000  1
  Mn  Mn3  1  0.000062  0.747255  0.000000  1
  Mn  Mn4  1  0.403953  0.000657  0.500000  1
  Mn  Mn5  1  0.000657  0.403953  0.500000  1
  P  P6  1  0.325540  0.669473  0.000000  1
  P  P7  1  0.004120  0.004120  0.500000  1
  P  P8  1  0.669473  0.325540  0.000000  1
