# generated using pymatgen
data_Tb5Y5(In2Pd)4
_symmetry_space_group_name_H-M   'P 1'
_cell_length_a   3.64027100
_cell_length_b   8.18176224
_cell_length_c   18.35726030
_cell_angle_alpha   90.09022454
_cell_angle_beta   90.00000000
_cell_angle_gamma   90.00000000
_symmetry_Int_Tables_number   1
_chemical_formula_structural   Tb5Y5(In2Pd)4
_chemical_formula_sum   'Tb5 Y5 In8 Pd4'
_cell_volume   546.74887558
_cell_formula_units_Z   1
loop_
 _symmetry_equiv_pos_site_id
 _symmetry_equiv_pos_as_xyz
  1  'x, y, z'
loop_
 _atom_site_type_symbol
 _atom_site_label
 _atom_site_symmetry_multiplicity
 _atom_site_fract_x
 _atom_site_fract_y
 _atom_site_fract_z
 _atom_site_occupancy
  Tb  Tb0  1  0.500000  0.241166  0.780530  1
  Tb  Tb1  1  0.500000  0.758834  0.219470  1
  Tb  Tb2  1  0.500000  0.258805  0.280513  1
  Tb  Tb3  1  0.500000  0.741195  0.719487  1
  Tb  Tb4  1  0.500000  0.000000  0.000000  1
  Y  Y5  1  0.500000  0.118998  0.583013  1
  Y  Y6  1  0.500000  0.881002  0.416987  1
  Y  Y7  1  0.500000  0.380256  0.082823  1
  Y  Y8  1  0.500000  0.619744  0.917177  1
  Y  Y9  1  0.500000  0.500000  0.500000  1
  In  In10  1  0.000000  0.079583  0.150618  1
  In  In11  1  0.000000  0.920417  0.849382  1
  In  In12  1  0.000000  0.420402  0.650510  1
  In  In13  1  0.000000  0.579598  0.349490  1
  In  In14  1  0.000000  0.206603  0.432243  1
  In  In15  1  0.000000  0.793397  0.567757  1
  In  In16  1  0.000000  0.293467  0.931973  1
  In  In17  1  0.000000  0.706533  0.068027  1
  Pd  Pd18  1  0.000000  0.024341  0.695859  1
  Pd  Pd19  1  0.000000  0.975659  0.304141  1
  Pd  Pd20  1  0.000000  0.475593  0.195962  1
  Pd  Pd21  1  0.000000  0.524407  0.804038  1
