# generated using pymatgen
data_Ho7Tm3(SiBi2)2
_symmetry_space_group_name_H-M   'P 1'
_cell_length_a   8.00660500
_cell_length_b   9.09412108
_cell_length_c   12.00995800
_cell_angle_alpha   90.00000000
_cell_angle_beta   90.00000000
_cell_angle_gamma   89.99264124
_symmetry_Int_Tables_number   1
_chemical_formula_structural   Ho7Tm3(SiBi2)2
_chemical_formula_sum   'Ho14 Tm6 Si4 Bi8'
_cell_volume   874.48148823
_cell_formula_units_Z   2
loop_
 _symmetry_equiv_pos_site_id
 _symmetry_equiv_pos_as_xyz
  1  'x, y, z'
loop_
 _atom_site_type_symbol
 _atom_site_label
 _atom_site_symmetry_multiplicity
 _atom_site_fract_x
 _atom_site_fract_y
 _atom_site_fract_z
 _atom_site_occupancy
  Ho  Ho0  1  0.819009  0.946244  0.062756  1
  Ho  Ho1  1  0.680991  0.553756  0.562756  1
  Ho  Ho2  1  0.157606  0.749761  0.210843  1
  Ho  Ho3  1  0.342394  0.750239  0.710843  1
  Ho  Ho4  1  0.842561  0.249971  0.789198  1
  Ho  Ho5  1  0.657439  0.250029  0.289198  1
  Ho  Ho6  1  0.460369  0.750018  0.000123  1
  Ho  Ho7  1  0.039631  0.749982  0.500123  1
  Ho  Ho8  1  0.539251  0.250066  0.999790  1
  Ho  Ho9  1  0.960749  0.249934  0.499790  1
  Ho  Ho10  1  0.633382  0.749881  0.293403  1
  Ho  Ho11  1  0.866618  0.750119  0.793403  1
  Ho  Ho12  1  0.366292  0.250005  0.706747  1
  Ho  Ho13  1  0.133708  0.249995  0.206747  1
  Tm  Tm14  1  0.819605  0.554470  0.062670  1
  Tm  Tm15  1  0.680395  0.945530  0.562670  1
  Tm  Tm16  1  0.180444  0.054824  0.937328  1
  Tm  Tm17  1  0.319556  0.445176  0.437328  1
  Tm  Tm18  1  0.180550  0.445336  0.937415  1
  Tm  Tm19  1  0.319450  0.054664  0.437415  1
  Si  Si20  1  0.412788  0.750546  0.477911  1
  Si  Si21  1  0.087212  0.749454  0.977911  1
  Si  Si22  1  0.586360  0.248914  0.521788  1
  Si  Si23  1  0.913640  0.251086  0.021788  1
  Bi  Bi24  1  0.926008  0.509685  0.326442  1
  Bi  Bi25  1  0.573992  0.990315  0.826442  1
  Bi  Bi26  1  0.073994  0.009843  0.673402  1
  Bi  Bi27  1  0.426006  0.490157  0.173402  1
  Bi  Bi28  1  0.074077  0.490292  0.673501  1
  Bi  Bi29  1  0.425923  0.009708  0.173501  1
  Bi  Bi30  1  0.926240  0.990284  0.326684  1
  Bi  Bi31  1  0.573760  0.509716  0.826684  1
