# generated using pymatgen
data_Ac2Ga5Rh3
_symmetry_space_group_name_H-M   'P 1'
_cell_length_a   8.86247138
_cell_length_b   8.86247268
_cell_length_c   8.86247148
_cell_angle_alpha   140.74475895
_cell_angle_beta   107.37763097
_cell_angle_gamma   85.81351127
_symmetry_Int_Tables_number   1
_chemical_formula_structural   Ac2Ga5Rh3
_chemical_formula_sum   'Ac4 Ga10 Rh6'
_cell_volume   405.67118641
_cell_formula_units_Z   2
loop_
 _symmetry_equiv_pos_site_id
 _symmetry_equiv_pos_as_xyz
  1  'x, y, z'
loop_
 _atom_site_type_symbol
 _atom_site_label
 _atom_site_symmetry_multiplicity
 _atom_site_fract_x
 _atom_site_fract_y
 _atom_site_fract_z
 _atom_site_occupancy
  Ac  Ac0  1  0.363341  0.136732  0.226610  1
  Ac  Ac1  1  0.636659  0.863268  0.773390  1
  Ac  Ac2  1  0.089879  0.363268  0.726610  1
  Ac  Ac3  1  0.910121  0.636732  0.273390  1
  Ga  Ga4  1  0.000000  0.250000  0.250000  1
  Ga  Ga5  1  0.000000  0.750000  0.750000  1
  Ga  Ga6  1  0.709719  0.959719  0.250000  1
  Ga  Ga7  1  0.290281  0.540281  0.250000  1
  Ga  Ga8  1  0.290281  0.040281  0.750000  1
  Ga  Ga9  1  0.709719  0.459719  0.750000  1
  Ga  Ga10  1  0.568205  0.406076  0.162128  1
  Ga  Ga11  1  0.243948  0.906076  0.337872  1
  Ga  Ga12  1  0.756052  0.093924  0.662128  1
  Ga  Ga13  1  0.431795  0.593924  0.837872  1
  Rh  Rh14  1  0.952564  0.855216  0.097348  1
  Rh  Rh15  1  0.500000  0.750000  0.250000  1
  Rh  Rh16  1  0.757868  0.355216  0.402652  1
  Rh  Rh17  1  0.242132  0.644784  0.597348  1
  Rh  Rh18  1  0.047436  0.144784  0.902652  1
  Rh  Rh19  1  0.500000  0.250000  0.750000  1
