# generated using pymatgen
data_Lu8Tc3B24Ir
_symmetry_space_group_name_H-M   'P 1'
_cell_length_a   3.61164400
_cell_length_b   9.05058487
_cell_length_c   11.41160225
_cell_angle_alpha   89.89934513
_cell_angle_beta   90.00000000
_cell_angle_gamma   90.00000000
_symmetry_Int_Tables_number   1
_chemical_formula_structural   Lu8Tc3B24Ir
_chemical_formula_sum   'Lu8 Tc3 B24 Ir1'
_cell_volume   373.01606466
_cell_formula_units_Z   1
loop_
 _symmetry_equiv_pos_site_id
 _symmetry_equiv_pos_as_xyz
  1  'x, y, z'
loop_
 _atom_site_type_symbol
 _atom_site_label
 _atom_site_symmetry_multiplicity
 _atom_site_fract_x
 _atom_site_fract_y
 _atom_site_fract_z
 _atom_site_occupancy
  Lu  Lu0  1  0.000000  0.322560  0.412820  1
  Lu  Lu1  1  0.000000  0.673505  0.580733  1
  Lu  Lu2  1  0.000000  0.820989  0.091487  1
  Lu  Lu3  1  0.000000  0.182720  0.916176  1
  Lu  Lu4  1  0.000000  0.943041  0.370969  1
  Lu  Lu5  1  0.000000  0.059846  0.627886  1
  Lu  Lu6  1  0.000000  0.443774  0.129645  1
  Lu  Lu7  1  0.000000  0.555087  0.870520  1
  Tc  Tc8  1  0.000000  0.638520  0.320840  1
  Tc  Tc9  1  0.000000  0.361587  0.680460  1
  Tc  Tc10  1  0.000000  0.137211  0.177590  1
  B  B11  1  0.500000  0.552730  0.433414  1
  B  B12  1  0.500000  0.446910  0.566125  1
  B  B13  1  0.500000  0.053156  0.065726  1
  B  B14  1  0.500000  0.946244  0.934419  1
  B  B15  1  0.500000  0.749424  0.419653  1
  B  B16  1  0.500000  0.250231  0.580425  1
  B  B17  1  0.500000  0.250567  0.080308  1
  B  B18  1  0.500000  0.749715  0.920680  1
  B  B19  1  0.500000  0.792422  0.265064  1
  B  B20  1  0.500000  0.207332  0.735962  1
  B  B21  1  0.500000  0.292213  0.235028  1
  B  B22  1  0.500000  0.707781  0.764214  1
  B  B23  1  0.500000  0.630867  0.184538  1
  B  B24  1  0.500000  0.369513  0.816115  1
  B  B25  1  0.500000  0.130166  0.315115  1
  B  B26  1  0.500000  0.869008  0.683192  1
  B  B27  1  0.500000  0.980565  0.212115  1
  B  B28  1  0.500000  0.018595  0.787820  1
  B  B29  1  0.500000  0.481154  0.287329  1
  B  B30  1  0.500000  0.518767  0.712163  1
  B  B31  1  0.500000  0.603135  0.027958  1
  B  B32  1  0.500000  0.399096  0.971887  1
  B  B33  1  0.500000  0.101969  0.471907  1
  B  B34  1  0.500000  0.897649  0.528830  1
  Ir  Ir35  1  0.000000  0.861947  0.820887  1
