# generated using pymatgen
data_DyHo3(Al3Pt4)2
_symmetry_space_group_name_H-M   'P 1'
_cell_length_a   8.12045052
_cell_length_b   8.12045125
_cell_length_c   7.63591004
_cell_angle_alpha   89.98962898
_cell_angle_beta   90.01037245
_cell_angle_gamma   140.00653394
_symmetry_Int_Tables_number   1
_chemical_formula_structural   DyHo3(Al3Pt4)2
_chemical_formula_sum   'Dy1 Ho3 Al6 Pt8'
_cell_volume   323.61567498
_cell_formula_units_Z   1
loop_
 _symmetry_equiv_pos_site_id
 _symmetry_equiv_pos_as_xyz
  1  'x, y, z'
loop_
 _atom_site_type_symbol
 _atom_site_label
 _atom_site_symmetry_multiplicity
 _atom_site_fract_x
 _atom_site_fract_y
 _atom_site_fract_z
 _atom_site_occupancy
  Dy  Dy0  1  0.106831  0.893169  0.407992  1
  Ho  Ho1  1  0.893109  0.106891  0.591974  1
  Ho  Ho2  1  0.393182  0.606818  0.907991  1
  Ho  Ho3  1  0.606830  0.393170  0.091854  1
  Al  Al4  1  0.999975  0.000025  0.000020  1
  Al  Al5  1  0.499910  0.500090  0.500052  1
  Al  Al6  1  0.023403  0.476466  0.249907  1
  Al  Al7  1  0.476705  0.023384  0.750036  1
  Al  Al8  1  0.976616  0.523295  0.750036  1
  Al  Al9  1  0.523534  0.976597  0.249907  1
  Pt  Pt10  1  0.191537  0.308609  0.249895  1
  Pt  Pt11  1  0.308507  0.191739  0.750277  1
  Pt  Pt12  1  0.808261  0.691493  0.750277  1
  Pt  Pt13  1  0.691391  0.808463  0.249895  1
  Pt  Pt14  1  0.184396  0.815604  0.028470  1
  Pt  Pt15  1  0.815648  0.184352  0.971379  1
  Pt  Pt16  1  0.315685  0.684315  0.528624  1
  Pt  Pt17  1  0.684479  0.315521  0.471414  1
