# generated using pymatgen
data_Tb2TiMoO8
_symmetry_space_group_name_H-M   'P 1'
_cell_length_a   5.48991500
_cell_length_b   5.10403821
_cell_length_c   5.33171863
_cell_angle_alpha   82.67841497
_cell_angle_beta   90.00000000
_cell_angle_gamma   90.00000000
_symmetry_Int_Tables_number   1
_chemical_formula_structural   Tb2TiMoO8
_chemical_formula_sum   'Tb2 Ti1 Mo1 O8'
_cell_volume   148.18055815
_cell_formula_units_Z   1
loop_
 _symmetry_equiv_pos_site_id
 _symmetry_equiv_pos_as_xyz
  1  'x, y, z'
loop_
 _atom_site_type_symbol
 _atom_site_label
 _atom_site_symmetry_multiplicity
 _atom_site_fract_x
 _atom_site_fract_y
 _atom_site_fract_z
 _atom_site_occupancy
  Tb  Tb0  1  0.765995  0.000000  0.750000  1
  Tb  Tb1  1  0.243927  0.000000  0.250000  1
  Ti  Ti2  1  0.296097  0.500000  0.750000  1
  Mo  Mo3  1  0.679849  0.500000  0.250000  1
  O  O4  1  0.568723  0.262739  0.018781  1
  O  O5  1  0.568723  0.737261  0.481219  1
  O  O6  1  0.439893  0.725911  0.994764  1
  O  O7  1  0.439893  0.274089  0.505236  1
  O  O8  1  0.089692  0.753217  0.606967  1
  O  O9  1  0.089692  0.246783  0.893033  1
  O  O10  1  0.908758  0.260999  0.388453  1
  O  O11  1  0.908758  0.739001  0.111547  1
