# generated using pymatgen
data_CaYb(SiRu)2
_symmetry_space_group_name_H-M   'P 1'
_cell_length_a   4.27451300
_cell_length_b   4.27451300
_cell_length_c   6.57015300
_cell_angle_alpha   90.00000000
_cell_angle_beta   90.00000000
_cell_angle_gamma   90.00000000
_symmetry_Int_Tables_number   1
_chemical_formula_structural   CaYb(SiRu)2
_chemical_formula_sum   'Ca1 Yb1 Si2 Ru2'
_cell_volume   120.04629685
_cell_formula_units_Z   1
loop_
 _symmetry_equiv_pos_site_id
 _symmetry_equiv_pos_as_xyz
  1  'x, y, z'
loop_
 _atom_site_type_symbol
 _atom_site_label
 _atom_site_symmetry_multiplicity
 _atom_site_fract_x
 _atom_site_fract_y
 _atom_site_fract_z
 _atom_site_occupancy
  Ca  Ca0  1  0.000000  0.500000  0.324489  1
  Yb  Yb1  1  0.500000  0.000000  0.686840  1
  Si  Si2  1  0.500000  0.000000  0.170166  1
  Si  Si3  1  0.000000  0.500000  0.824358  1
  Ru  Ru4  1  0.000000  0.000000  0.997074  1
  Ru  Ru5  1  0.500000  0.500000  0.997074  1
