# generated using pymatgen
data_Sc12Co3Si12Au
_symmetry_space_group_name_H-M   'P 1'
_cell_length_a   4.01126400
_cell_length_b   10.12630004
_cell_length_c   11.70091566
_cell_angle_alpha   89.76894541
_cell_angle_beta   90.00000000
_cell_angle_gamma   90.00000000
_symmetry_Int_Tables_number   1
_chemical_formula_structural   Sc12Co3Si12Au
_chemical_formula_sum   'Sc12 Co3 Si12 Au1'
_cell_volume   475.27870342
_cell_formula_units_Z   1
loop_
 _symmetry_equiv_pos_site_id
 _symmetry_equiv_pos_as_xyz
  1  'x, y, z'
loop_
 _atom_site_type_symbol
 _atom_site_label
 _atom_site_symmetry_multiplicity
 _atom_site_fract_x
 _atom_site_fract_y
 _atom_site_fract_z
 _atom_site_occupancy
  Sc  Sc0  1  0.250000  0.880986  0.027168  1
  Sc  Sc1  1  0.250000  0.617934  0.521576  1
  Sc  Sc2  1  0.750000  0.126547  0.980257  1
  Sc  Sc3  1  0.750000  0.380550  0.473143  1
  Sc  Sc4  1  0.250000  0.919123  0.598805  1
  Sc  Sc5  1  0.250000  0.579930  0.101788  1
  Sc  Sc6  1  0.750000  0.079705  0.400725  1
  Sc  Sc7  1  0.750000  0.421342  0.904672  1
  Sc  Sc8  1  0.250000  0.648092  0.799971  1
  Sc  Sc9  1  0.250000  0.842561  0.300783  1
  Sc  Sc10  1  0.750000  0.343295  0.199258  1
  Sc  Sc11  1  0.750000  0.170415  0.696555  1
  Co  Co12  1  0.250000  0.387693  0.676138  1
  Co  Co13  1  0.250000  0.111714  0.178674  1
  Co  Co14  1  0.750000  0.610691  0.322445  1
  Si  Si15  1  0.250000  0.027336  0.824689  1
  Si  Si16  1  0.250000  0.494255  0.321133  1
  Si  Si17  1  0.750000  0.994984  0.177735  1
  Si  Si18  1  0.750000  0.499595  0.677937  1
  Si  Si19  1  0.250000  0.259875  0.838087  1
  Si  Si20  1  0.250000  0.247994  0.336463  1
  Si  Si21  1  0.750000  0.748473  0.164251  1
  Si  Si22  1  0.750000  0.737947  0.651100  1
  Si  Si23  1  0.250000  0.199128  0.543065  1
  Si  Si24  1  0.250000  0.302059  0.047221  1
  Si  Si25  1  0.750000  0.799755  0.451394  1
  Si  Si26  1  0.750000  0.683607  0.963237  1
  Au  Au27  1  0.750000  0.884416  0.821730  1
