# generated using pymatgen
data_Er5VOsO12
_symmetry_space_group_name_H-M   'P 1'
_cell_length_a   6.74128510
_cell_length_b   6.74128628
_cell_length_c   7.36830104
_cell_angle_alpha   73.97294605
_cell_angle_beta   73.97295268
_cell_angle_gamma   50.24515925
_symmetry_Int_Tables_number   1
_chemical_formula_structural   Er5VOsO12
_chemical_formula_sum   'Er5 V1 Os1 O12'
_cell_volume   245.16928085
_cell_formula_units_Z   1
loop_
 _symmetry_equiv_pos_site_id
 _symmetry_equiv_pos_as_xyz
  1  'x, y, z'
loop_
 _atom_site_type_symbol
 _atom_site_label
 _atom_site_symmetry_multiplicity
 _atom_site_fract_x
 _atom_site_fract_y
 _atom_site_fract_z
 _atom_site_occupancy
  Er  Er0  1  0.697597  0.694532  0.640593  1
  Er  Er1  1  0.305468  0.302403  0.359407  1
  Er  Er2  1  0.685639  0.689245  0.174235  1
  Er  Er3  1  0.310755  0.314361  0.825765  1
  Er  Er4  1  0.998999  0.001001  0.500000  1
  V  V5  1  0.781584  0.218416  0.000000  1
  Os  Os6  1  0.231172  0.768828  0.000000  1
  O  O7  1  0.996962  0.005369  0.197925  1
  O  O8  1  0.994631  0.003038  0.802075  1
  O  O9  1  0.584407  0.096713  0.082042  1
  O  O10  1  0.424460  0.911347  0.915121  1
  O  O11  1  0.903287  0.415593  0.917958  1
  O  O12  1  0.088653  0.575540  0.084879  1
  O  O13  1  0.497505  0.501388  0.180274  1
  O  O14  1  0.498612  0.502495  0.819726  1
  O  O15  1  0.405496  0.902031  0.425422  1
  O  O16  1  0.595270  0.098468  0.573580  1
  O  O17  1  0.097969  0.594504  0.574578  1
  O  O18  1  0.901532  0.404730  0.426420  1
