# generated using pymatgen
data_Ba4ScSbO8
_symmetry_space_group_name_H-M   'P 1'
_cell_length_a   7.40350918
_cell_length_b   7.40350937
_cell_length_c   5.88695600
_cell_angle_alpha   90.00000000
_cell_angle_beta   90.00000000
_cell_angle_gamma   133.17806535
_symmetry_Int_Tables_number   1
_chemical_formula_structural   Ba4ScSbO8
_chemical_formula_sum   'Ba4 Sc1 Sb1 O8'
_cell_volume   235.30488722
_cell_formula_units_Z   1
loop_
 _symmetry_equiv_pos_site_id
 _symmetry_equiv_pos_as_xyz
  1  'x, y, z'
loop_
 _atom_site_type_symbol
 _atom_site_label
 _atom_site_symmetry_multiplicity
 _atom_site_fract_x
 _atom_site_fract_y
 _atom_site_fract_z
 _atom_site_occupancy
  Ba  Ba0  1  0.352790  0.647210  0.000000  1
  Ba  Ba1  1  0.854186  0.145814  0.500000  1
  Ba  Ba2  1  0.145814  0.854186  0.500000  1
  Ba  Ba3  1  0.647210  0.352790  0.000000  1
  Sc  Sc4  1  0.000000  0.000000  0.000000  1
  Sb  Sb5  1  0.500000  0.500000  0.500000  1
  O  O6  1  0.255995  0.255995  0.740350  1
  O  O7  1  0.744005  0.744005  0.259650  1
  O  O8  1  0.744005  0.744005  0.740350  1
  O  O9  1  0.255995  0.255995  0.259650  1
  O  O10  1  0.156783  0.843217  0.000000  1
  O  O11  1  0.650622  0.349378  0.500000  1
  O  O12  1  0.349378  0.650622  0.500000  1
  O  O13  1  0.843217  0.156783  0.000000  1
