# generated using pymatgen
data_Pr4Al18HgIr5
_symmetry_space_group_name_H-M   'P 1'
_cell_length_a   7.67639229
_cell_length_b   7.67639101
_cell_length_c   9.66240879
_cell_angle_alpha   89.84911037
_cell_angle_beta   89.84910865
_cell_angle_gamma   119.24367498
_symmetry_Int_Tables_number   1
_chemical_formula_structural   Pr4Al18HgIr5
_chemical_formula_sum   'Pr4 Al18 Hg1 Ir5'
_cell_volume   496.80283007
_cell_formula_units_Z   1
loop_
 _symmetry_equiv_pos_site_id
 _symmetry_equiv_pos_as_xyz
  1  'x, y, z'
loop_
 _atom_site_type_symbol
 _atom_site_label
 _atom_site_symmetry_multiplicity
 _atom_site_fract_x
 _atom_site_fract_y
 _atom_site_fract_z
 _atom_site_occupancy
  Pr  Pr0  1  0.996534  0.678122  0.249993  1
  Pr  Pr1  1  0.003466  0.321878  0.750007  1
  Pr  Pr2  1  0.678122  0.996534  0.249993  1
  Pr  Pr3  1  0.321878  0.003466  0.750007  1
  Al  Al4  1  0.145258  0.145258  0.263293  1
  Al  Al5  1  0.854742  0.854742  0.736707  1
  Al  Al6  1  0.006359  0.352668  0.079239  1
  Al  Al7  1  0.993641  0.647332  0.920761  1
  Al  Al8  1  0.999143  0.662368  0.569900  1
  Al  Al9  1  0.337632  0.000857  0.430100  1
  Al  Al10  1  0.000857  0.337632  0.430100  1
  Al  Al11  1  0.662368  0.999143  0.569900  1
  Al  Al12  1  0.647332  0.993641  0.920761  1
  Al  Al13  1  0.352668  0.006359  0.079239  1
  Al  Al14  1  0.333763  0.333763  0.545075  1
  Al  Al15  1  0.666237  0.666237  0.454925  1
  Al  Al16  1  0.648924  0.648924  0.061468  1
  Al  Al17  1  0.351076  0.351076  0.938532  1
  Al  Al18  1  0.339498  0.551696  0.252663  1
  Al  Al19  1  0.660502  0.448304  0.747337  1
  Al  Al20  1  0.551696  0.339498  0.252663  1
  Al  Al21  1  0.448304  0.660502  0.747337  1
  Hg  Hg22  1  0.000000  0.000000  0.000000  1
  Ir  Ir23  1  0.671215  0.328785  0.000000  1
  Ir  Ir24  1  0.328785  0.671215  0.000000  1
  Ir  Ir25  1  0.329361  0.670639  0.500000  1
  Ir  Ir26  1  0.670639  0.329361  0.500000  1
  Ir  Ir27  1  0.000000  0.000000  0.500000  1
