# generated using pymatgen
data_Cr3NiH4
_symmetry_space_group_name_H-M   'P 1'
_cell_length_a   2.69129377
_cell_length_b   4.28311512
_cell_length_c   4.60901525
_cell_angle_alpha   90.01109650
_cell_angle_beta   90.00665946
_cell_angle_gamma   90.00313362
_symmetry_Int_Tables_number   1
_chemical_formula_structural   Cr3NiH4
_chemical_formula_sum   'Cr3 Ni1 H4'
_cell_volume   53.12867518
_cell_formula_units_Z   1
loop_
 _symmetry_equiv_pos_site_id
 _symmetry_equiv_pos_as_xyz
  1  'x, y, z'
loop_
 _atom_site_type_symbol
 _atom_site_label
 _atom_site_symmetry_multiplicity
 _atom_site_fract_x
 _atom_site_fract_y
 _atom_site_fract_z
 _atom_site_occupancy
  Cr  Cr0  1  0.125499  0.978800  0.987525  1
  Cr  Cr1  1  0.625287  0.978631  0.495780  1
  Cr  Cr2  1  0.625148  0.479005  0.165534  1
  Ni  Ni3  1  0.123773  0.478230  0.658321  1
  H  H4  1  0.125039  0.223881  0.311899  1
  H  H5  1  0.625071  0.733981  0.837036  1
  H  H6  1  0.124917  0.733605  0.311688  1
  H  H7  1  0.625130  0.222772  0.837365  1
