# generated using pymatgen
data_Hf3BeRe(AsRu)2
_symmetry_space_group_name_H-M   'P 1'
_cell_length_a   7.62653426
_cell_length_b   7.62653486
_cell_length_c   7.62653533
_cell_angle_alpha   127.12760166
_cell_angle_beta   124.47364645
_cell_angle_gamma   80.23432241
_symmetry_Int_Tables_number   1
_chemical_formula_structural   Hf3BeRe(AsRu)2
_chemical_formula_sum   'Hf6 Be2 Re2 As4 Ru4'
_cell_volume   281.39827536
_cell_formula_units_Z   2
loop_
 _symmetry_equiv_pos_site_id
 _symmetry_equiv_pos_as_xyz
  1  'x, y, z'
loop_
 _atom_site_type_symbol
 _atom_site_label
 _atom_site_symmetry_multiplicity
 _atom_site_fract_x
 _atom_site_fract_y
 _atom_site_fract_z
 _atom_site_occupancy
  Hf  Hf0  1  0.445615  0.646495  0.700880  1
  Hf  Hf1  1  0.554385  0.255265  0.200880  1
  Hf  Hf2  1  0.749902  0.862583  0.612681  1
  Hf  Hf3  1  0.250098  0.862779  0.112681  1
  Hf  Hf4  1  0.054786  0.255317  0.700532  1
  Hf  Hf5  1  0.945214  0.645746  0.200532  1
  Be  Be6  1  0.250489  0.249496  0.499008  1
  Be  Be7  1  0.749511  0.248519  0.999008  1
  Re  Re8  1  0.500000  0.492482  0.992482  1
  Re  Re9  1  0.000000  0.492482  0.492482  1
  As  As10  1  0.332554  0.587360  0.254551  1
  As  As11  1  0.667446  0.921997  0.254806  1
  As  As12  1  0.167191  0.921997  0.754551  1
  As  As13  1  0.832809  0.587360  0.754806  1
  Ru  Ru14  1  0.119801  0.252808  0.131854  1
  Ru  Ru15  1  0.880199  0.012052  0.133006  1
  Ru  Ru16  1  0.379045  0.012052  0.631854  1
  Ru  Ru17  1  0.620955  0.252808  0.633006  1
