# generated using pymatgen
data_ErHfReB6
_symmetry_space_group_name_H-M   'P 1'
_cell_length_a   3.58725700
_cell_length_b   8.98500900
_cell_length_c   11.35658200
_cell_angle_alpha   90.00000000
_cell_angle_beta   90.00000000
_cell_angle_gamma   90.00000000
_symmetry_Int_Tables_number   1
_chemical_formula_structural   ErHfReB6
_chemical_formula_sum   'Er4 Hf4 Re4 B24'
_cell_volume   366.04008646
_cell_formula_units_Z   4
loop_
 _symmetry_equiv_pos_site_id
 _symmetry_equiv_pos_as_xyz
  1  'x, y, z'
loop_
 _atom_site_type_symbol
 _atom_site_label
 _atom_site_symmetry_multiplicity
 _atom_site_fract_x
 _atom_site_fract_y
 _atom_site_fract_z
 _atom_site_occupancy
  Er  Er0  1  0.000000  0.322068  0.413926  1
  Er  Er1  1  0.000000  0.677932  0.586074  1
  Er  Er2  1  0.000000  0.822068  0.086074  1
  Er  Er3  1  0.000000  0.177932  0.913926  1
  Hf  Hf4  1  0.000000  0.944983  0.372577  1
  Hf  Hf5  1  0.000000  0.055017  0.627423  1
  Hf  Hf6  1  0.000000  0.444983  0.127423  1
  Hf  Hf7  1  0.000000  0.555017  0.872577  1
  Re  Re8  1  0.000000  0.640389  0.318244  1
  Re  Re9  1  0.000000  0.359611  0.681756  1
  Re  Re10  1  0.000000  0.140389  0.181756  1
  Re  Re11  1  0.000000  0.859611  0.818244  1
  B  B12  1  0.500000  0.554365  0.433723  1
  B  B13  1  0.500000  0.445635  0.566277  1
  B  B14  1  0.500000  0.054365  0.066277  1
  B  B15  1  0.500000  0.945635  0.933723  1
  B  B16  1  0.500000  0.752554  0.418667  1
  B  B17  1  0.500000  0.247446  0.581333  1
  B  B18  1  0.500000  0.252554  0.081333  1
  B  B19  1  0.500000  0.747446  0.918667  1
  B  B20  1  0.500000  0.794917  0.264222  1
  B  B21  1  0.500000  0.205083  0.735778  1
  B  B22  1  0.500000  0.294917  0.235778  1
  B  B23  1  0.500000  0.705083  0.764222  1
  B  B24  1  0.500000  0.630114  0.183068  1
  B  B25  1  0.500000  0.369886  0.816932  1
  B  B26  1  0.500000  0.130114  0.316932  1
  B  B27  1  0.500000  0.869886  0.683068  1
  B  B28  1  0.500000  0.981591  0.213316  1
  B  B29  1  0.500000  0.018409  0.786684  1
  B  B30  1  0.500000  0.481591  0.286684  1
  B  B31  1  0.500000  0.518409  0.713316  1
  B  B32  1  0.500000  0.599965  0.026859  1
  B  B33  1  0.500000  0.400035  0.973141  1
  B  B34  1  0.500000  0.099965  0.473141  1
  B  B35  1  0.500000  0.900035  0.526859  1
