# generated using pymatgen
data_Pr12FeOsBr17
_symmetry_space_group_name_H-M   'P 1'
_cell_length_a   9.66457731
_cell_length_b   11.58910085
_cell_length_c   11.71080588
_cell_angle_alpha   93.83081248
_cell_angle_beta   104.68553147
_cell_angle_gamma   114.21518165
_symmetry_Int_Tables_number   1
_chemical_formula_structural   Pr12FeOsBr17
_chemical_formula_sum   'Pr12 Fe1 Os1 Br17'
_cell_volume   1135.27287879
_cell_formula_units_Z   1
loop_
 _symmetry_equiv_pos_site_id
 _symmetry_equiv_pos_as_xyz
  1  'x, y, z'
loop_
 _atom_site_type_symbol
 _atom_site_label
 _atom_site_symmetry_multiplicity
 _atom_site_fract_x
 _atom_site_fract_y
 _atom_site_fract_z
 _atom_site_occupancy
  Pr  Pr0  1  0.056820  0.514064  0.319602  1
  Pr  Pr1  1  0.975659  0.809476  0.570918  1
  Pr  Pr2  1  0.641823  0.238189  0.287081  1
  Pr  Pr3  1  0.022319  0.193568  0.420926  1
  Pr  Pr4  1  0.236275  0.673283  0.002184  1
  Pr  Pr5  1  0.262553  0.003086  0.893156  1
  Pr  Pr6  1  0.360500  0.762203  0.711278  1
  Pr  Pr7  1  0.934502  0.474415  0.677797  1
  Pr  Pr8  1  0.744194  0.009529  0.109199  1
  Pr  Pr9  1  0.155924  0.287515  0.146119  1
  Pr  Pr10  1  0.769560  0.326011  0.006579  1
  Pr  Pr11  1  0.841302  0.711213  0.854480  1
  Fe  Fe12  1  0.896954  0.261010  0.213017  1
  Os  Os13  1  0.103739  0.739325  0.786741  1
  Br  Br14  1  0.793446  0.521949  0.425029  1
  Br  Br15  1  0.650257  0.422820  0.762922  1
  Br  Br16  1  0.850146  0.905782  0.325975  1
  Br  Br17  1  0.320236  0.213881  0.360270  1
  Br  Br18  1  0.148259  0.096490  0.671314  1
  Br  Br19  1  0.583125  0.047865  0.853717  1
  Br  Br20  1  0.763119  0.182731  0.530147  1
  Br  Br21  1  0.542227  0.710055  0.947971  1
  Br  Br22  1  0.349722  0.573899  0.242140  1
  Br  Br23  1  0.202962  0.476323  0.575203  1
  Br  Br24  1  0.054122  0.375090  0.904290  1
  Br  Br25  1  0.461342  0.296141  0.055230  1
  Br  Br26  1  0.999900  0.999476  0.999227  1
  Br  Br27  1  0.232410  0.810726  0.465706  1
  Br  Br28  1  0.418902  0.954109  0.146959  1
  Br  Br29  1  0.679856  0.785651  0.638056  1
  Br  Br30  1  0.947845  0.624127  0.096766  1
