# generated using pymatgen
data_DyErU(GaCo)3
_symmetry_space_group_name_H-M   'P 1'
_cell_length_a   3.54736800
_cell_length_b   7.04821972
_cell_length_c   7.18929383
_cell_angle_alpha   120.62114233
_cell_angle_beta   90.00000000
_cell_angle_gamma   90.00000000
_symmetry_Int_Tables_number   1
_chemical_formula_structural   DyErU(GaCo)3
_chemical_formula_sum   'Dy1 Er1 U1 Ga3 Co3'
_cell_volume   154.68567815
_cell_formula_units_Z   1
loop_
 _symmetry_equiv_pos_site_id
 _symmetry_equiv_pos_as_xyz
  1  'x, y, z'
loop_
 _atom_site_type_symbol
 _atom_site_label
 _atom_site_symmetry_multiplicity
 _atom_site_fract_x
 _atom_site_fract_y
 _atom_site_fract_z
 _atom_site_occupancy
  Dy  Dy0  1  0.500000  0.590567  0.001797  1
  Er  Er1  1  0.500000  0.408865  0.410357  1
  U  U2  1  0.500000  0.999952  0.578984  1
  Ga  Ga3  1  0.000000  0.252862  0.003380  1
  Ga  Ga4  1  0.000000  0.746119  0.748541  1
  Ga  Ga5  1  0.000000  0.001487  0.236520  1
  Co  Co6  1  0.000000  0.281740  0.657826  1
  Co  Co7  1  0.000000  0.717767  0.377066  1
  Co  Co8  1  0.500000  0.000543  0.985532  1
