# generated using pymatgen
data_Nd3(H6Os)2
_symmetry_space_group_name_H-M   'P 1'
_cell_length_a   4.90298900
_cell_length_b   4.90298873
_cell_length_c   8.52301100
_cell_angle_alpha   90.00000000
_cell_angle_beta   90.00000000
_cell_angle_gamma   119.99999511
_symmetry_Int_Tables_number   1
_chemical_formula_structural   Nd3(H6Os)2
_chemical_formula_sum   'Nd3 H12 Os2'
_cell_volume   177.43754317
_cell_formula_units_Z   1
loop_
 _symmetry_equiv_pos_site_id
 _symmetry_equiv_pos_as_xyz
  1  'x, y, z'
loop_
 _atom_site_type_symbol
 _atom_site_label
 _atom_site_symmetry_multiplicity
 _atom_site_fract_x
 _atom_site_fract_y
 _atom_site_fract_z
 _atom_site_occupancy
  Nd  Nd0  1  0.000000  0.000000  0.000000  1
  Nd  Nd1  1  0.666667  0.333333  0.362175  1
  Nd  Nd2  1  0.333333  0.666667  0.637825  1
  H  H3  1  0.171617  0.828383  0.366117  1
  H  H4  1  0.656767  0.828383  0.366117  1
  H  H5  1  0.171617  0.343233  0.366117  1
  H  H6  1  0.828383  0.171617  0.633883  1
  H  H7  1  0.343233  0.171617  0.633883  1
  H  H8  1  0.828383  0.656767  0.633883  1
  H  H9  1  0.503052  0.006104  0.877246  1
  H  H10  1  0.503052  0.496948  0.877246  1
  H  H11  1  0.993896  0.496948  0.877246  1
  H  H12  1  0.496948  0.993896  0.122754  1
  H  H13  1  0.496948  0.503052  0.122754  1
  H  H14  1  0.006104  0.503052  0.122754  1
  Os  Os15  1  0.666667  0.333333  0.758706  1
  Os  Os16  1  0.333333  0.666667  0.241294  1
