# generated using pymatgen
data_TbDy(YSb)3
_symmetry_space_group_name_H-M   'P 1'
_cell_length_a   9.03167800
_cell_length_b   9.03167699
_cell_length_c   6.28813200
_cell_angle_alpha   90.00000000
_cell_angle_beta   90.00000000
_cell_angle_gamma   119.99999637
_symmetry_Int_Tables_number   1
_chemical_formula_structural   TbDy(YSb)3
_chemical_formula_sum   'Tb2 Dy2 Y6 Sb6'
_cell_volume   444.21082749
_cell_formula_units_Z   2
loop_
 _symmetry_equiv_pos_site_id
 _symmetry_equiv_pos_as_xyz
  1  'x, y, z'
loop_
 _atom_site_type_symbol
 _atom_site_label
 _atom_site_symmetry_multiplicity
 _atom_site_fract_x
 _atom_site_fract_y
 _atom_site_fract_z
 _atom_site_occupancy
  Tb  Tb0  1  0.666667  0.333333  0.500000  1
  Tb  Tb1  1  0.333333  0.666667  0.000000  1
  Dy  Dy2  1  0.333333  0.666667  0.500000  1
  Dy  Dy3  1  0.666667  0.333333  0.000000  1
  Y  Y4  1  0.000000  0.752724  0.750000  1
  Y  Y5  1  0.000000  0.247276  0.250000  1
  Y  Y6  1  0.752724  0.752724  0.250000  1
  Y  Y7  1  0.752724  0.000000  0.750000  1
  Y  Y8  1  0.247276  0.247276  0.750000  1
  Y  Y9  1  0.247276  0.000000  0.250000  1
  Sb  Sb10  1  0.387873  0.000000  0.750000  1
  Sb  Sb11  1  0.387873  0.387873  0.250000  1
  Sb  Sb12  1  0.000000  0.612127  0.250000  1
  Sb  Sb13  1  0.000000  0.387873  0.750000  1
  Sb  Sb14  1  0.612127  0.612127  0.750000  1
  Sb  Sb15  1  0.612127  0.000000  0.250000  1
