# generated using pymatgen
data_Ca12Sc7Ti12CrO48
_symmetry_space_group_name_H-M   'P 1'
_cell_length_a   11.06449570
_cell_length_b   11.06449592
_cell_length_c   11.05912700
_cell_angle_alpha   109.46139323
_cell_angle_beta   109.46139364
_cell_angle_gamma   109.48104424
_symmetry_Int_Tables_number   1
_chemical_formula_structural   Ca12Sc7Ti12CrO48
_chemical_formula_sum   'Ca12 Sc7 Ti12 Cr1 O48'
_cell_volume   1042.35313927
_cell_formula_units_Z   1
loop_
 _symmetry_equiv_pos_site_id
 _symmetry_equiv_pos_as_xyz
  1  'x, y, z'
loop_
 _atom_site_type_symbol
 _atom_site_label
 _atom_site_symmetry_multiplicity
 _atom_site_fract_x
 _atom_site_fract_y
 _atom_site_fract_z
 _atom_site_occupancy
  Ca  Ca0  1  0.249770  0.374910  0.125384  1
  Ca  Ca1  1  0.750230  0.625090  0.874616  1
  Ca  Ca2  1  0.748123  0.123453  0.375621  1
  Ca  Ca3  1  0.125139  0.250230  0.375614  1
  Ca  Ca4  1  0.375330  0.751877  0.127498  1
  Ca  Ca5  1  0.251877  0.876547  0.624379  1
  Ca  Ca6  1  0.874861  0.749770  0.624386  1
  Ca  Ca7  1  0.624670  0.248123  0.872502  1
  Ca  Ca8  1  0.376547  0.124670  0.252168  1
  Ca  Ca9  1  0.623453  0.875330  0.747832  1
  Ca  Ca10  1  0.125090  0.374861  0.750474  1
  Ca  Ca11  1  0.874910  0.625139  0.249526  1
  Sc  Sc12  1  0.000000  0.000000  0.000000  1
  Sc  Sc13  1  0.000000  0.500000  0.500000  1
  Sc  Sc14  1  0.500000  0.000000  0.000000  1
  Sc  Sc15  1  0.500000  0.500000  0.000000  1
  Sc  Sc16  1  0.500000  0.500000  0.500000  1
  Sc  Sc17  1  0.000000  0.000000  0.500000  1
  Sc  Sc18  1  0.000000  0.500000  0.000000  1
  Ti  Ti19  1  0.252607  0.628436  0.375483  1
  Ti  Ti20  1  0.747393  0.371564  0.624517  1
  Ti  Ti21  1  0.750007  0.874927  0.125044  1
  Ti  Ti22  1  0.375829  0.247393  0.622876  1
  Ti  Ti23  1  0.624171  0.752607  0.377124  1
  Ti  Ti24  1  0.249993  0.125073  0.874956  1
  Ti  Ti25  1  0.124920  0.749993  0.875038  1
  Ti  Ti26  1  0.875080  0.250007  0.124962  1
  Ti  Ti27  1  0.625073  0.375080  0.250118  1
  Ti  Ti28  1  0.374927  0.624920  0.749882  1
  Ti  Ti29  1  0.871564  0.124171  0.747047  1
  Ti  Ti30  1  0.128436  0.875829  0.252953  1
  Cr  Cr31  1  0.500000  0.000000  0.500000  1
  O  O32  1  0.479469  0.378612  0.293302  1
  O  O33  1  0.520531  0.621388  0.706698  1
  O  O34  1  0.585785  0.186230  0.207414  1
  O  O35  1  0.914642  0.121016  0.600213  1
  O  O36  1  0.295037  0.482472  0.380231  1
  O  O37  1  0.319440  0.917786  0.301293  1
  O  O38  1  0.414215  0.813770  0.792586  1
  O  O39  1  0.085358  0.878984  0.399787  1
  O  O40  1  0.704963  0.517528  0.619769  1
  O  O41  1  0.680560  0.082214  0.698707  1
  O  O42  1  0.017528  0.312564  0.897759  1
  O  O43  1  0.206374  0.585358  0.185571  1
  O  O44  1  0.122435  0.019198  0.206705  1
  O  O45  1  0.982472  0.687436  0.102241  1
  O  O46  1  0.793626  0.414642  0.814429  1
  O  O47  1  0.877565  0.980802  0.793295  1
  O  O48  1  0.600445  0.914215  0.121629  1
  O  O49  1  0.185838  0.479142  0.600812  1
  O  O50  1  0.399555  0.085785  0.878371  1
  O  O51  1  0.814162  0.520858  0.399188  1
  O  O52  1  0.899143  0.020531  0.313832  1
  O  O53  1  0.379259  0.585635  0.899288  1
  O  O54  1  0.100857  0.979469  0.686168  1
  O  O55  1  0.620741  0.414365  0.100712  1
  O  O56  1  0.378984  0.293626  0.479197  1
  O  O57  1  0.582214  0.901655  0.383507  1
  O  O58  1  0.621016  0.706374  0.520803  1
  O  O59  1  0.417786  0.098345  0.616493  1
  O  O60  1  0.121388  0.600857  0.914689  1
  O  O61  1  0.020858  0.206697  0.121671  1
  O  O62  1  0.878612  0.399143  0.085311  1
  O  O63  1  0.979142  0.793303  0.878329  1
  O  O64  1  0.313770  0.899555  0.021184  1
  O  O65  1  0.914365  0.293625  0.313654  1
  O  O66  1  0.686230  0.100445  0.978816  1
  O  O67  1  0.085635  0.706375  0.686346  1
  O  O68  1  0.187436  0.204963  0.585195  1
  O  O69  1  0.480802  0.603237  0.187506  1
  O  O70  1  0.812564  0.795037  0.414805  1
  O  O71  1  0.519198  0.396763  0.812494  1
  O  O72  1  0.293303  0.314162  0.914974  1
  O  O73  1  0.706697  0.685838  0.085026  1
  O  O74  1  0.206375  0.120741  0.020029  1
  O  O75  1  0.793625  0.879259  0.979971  1
  O  O76  1  0.896763  0.377565  0.584270  1
  O  O77  1  0.103237  0.622435  0.415730  1
  O  O78  1  0.598345  0.180560  0.481852  1
  O  O79  1  0.401655  0.819440  0.518148  1
