# generated using pymatgen
data_Sr5PN4O
_symmetry_space_group_name_H-M   'P 1'
_cell_length_a   7.46489147
_cell_length_b   7.46489096
_cell_length_c   8.76071212
_cell_angle_alpha   76.21944810
_cell_angle_beta   76.21945337
_cell_angle_gamma   96.12926943
_symmetry_Int_Tables_number   1
_chemical_formula_structural   Sr5PN4O
_chemical_formula_sum   'Sr10 P2 N8 O2'
_cell_volume   453.51537588
_cell_formula_units_Z   2
loop_
 _symmetry_equiv_pos_site_id
 _symmetry_equiv_pos_as_xyz
  1  'x, y, z'
loop_
 _atom_site_type_symbol
 _atom_site_label
 _atom_site_symmetry_multiplicity
 _atom_site_fract_x
 _atom_site_fract_y
 _atom_site_fract_z
 _atom_site_occupancy
  Sr  Sr0  1  0.393835  0.393835  0.373173  1
  Sr  Sr1  1  0.606165  0.606165  0.626827  1
  Sr  Sr2  1  0.669950  0.669950  0.006450  1
  Sr  Sr3  1  0.330050  0.330050  0.993550  1
  Sr  Sr4  1  0.928671  0.928671  0.199137  1
  Sr  Sr5  1  0.071329  0.071329  0.800863  1
  Sr  Sr6  1  0.561064  0.086872  0.762094  1
  Sr  Sr7  1  0.913128  0.438936  0.237906  1
  Sr  Sr8  1  0.438936  0.913128  0.237906  1
  Sr  Sr9  1  0.086872  0.561064  0.762094  1
  P  P10  1  0.758076  0.241924  0.000000  1
  P  P11  1  0.241924  0.758076  0.000000  1
  N  N12  1  0.721684  0.020490  0.989083  1
  N  N13  1  0.979510  0.278316  0.010917  1
  N  N14  1  0.278316  0.979510  0.010917  1
  N  N15  1  0.020490  0.721684  0.989083  1
  N  N16  1  0.392744  0.727298  0.834221  1
  N  N17  1  0.272702  0.607256  0.165778  1
  N  N18  1  0.607256  0.272702  0.165778  1
  N  N19  1  0.727298  0.392744  0.834221  1
  O  O20  1  0.654008  0.654008  0.325723  1
  O  O21  1  0.345992  0.345992  0.674277  1
