# generated using pymatgen
data_Nd18Y2Si15Os
_symmetry_space_group_name_H-M   'P 1'
_cell_length_a   7.67084100
_cell_length_b   7.99276090
_cell_length_c   15.11450000
_cell_angle_alpha   90.00000000
_cell_angle_beta   90.00000000
_cell_angle_gamma   89.90047583
_symmetry_Int_Tables_number   1
_chemical_formula_structural   Nd18Y2Si15Os
_chemical_formula_sum   'Nd18 Y2 Si15 Os1'
_cell_volume   926.68670415
_cell_formula_units_Z   1
loop_
 _symmetry_equiv_pos_site_id
 _symmetry_equiv_pos_as_xyz
  1  'x, y, z'
loop_
 _atom_site_type_symbol
 _atom_site_label
 _atom_site_symmetry_multiplicity
 _atom_site_fract_x
 _atom_site_fract_y
 _atom_site_fract_z
 _atom_site_occupancy
  Nd  Nd0  1  0.139293  0.516662  0.750000  1
  Nd  Nd1  1  0.811473  0.320628  0.621242  1
  Nd  Nd2  1  0.461635  0.689556  0.900159  1
  Nd  Nd3  1  0.963185  0.812846  0.901748  1
  Nd  Nd4  1  0.198936  0.675784  0.127060  1
  Nd  Nd5  1  0.681415  0.813662  0.124663  1
  Nd  Nd6  1  0.311774  0.181891  0.877884  1
  Nd  Nd7  1  0.198936  0.675784  0.372940  1
  Nd  Nd8  1  0.036250  0.185199  0.099394  1
  Nd  Nd9  1  0.311774  0.181891  0.622116  1
  Nd  Nd10  1  0.531184  0.323600  0.399889  1
  Nd  Nd11  1  0.811473  0.320628  0.878758  1
  Nd  Nd12  1  0.963185  0.812846  0.598252  1
  Nd  Nd13  1  0.461635  0.689556  0.599841  1
  Nd  Nd14  1  0.036250  0.185199  0.400606  1
  Nd  Nd15  1  0.681415  0.813662  0.375337  1
  Nd  Nd16  1  0.638021  0.986370  0.750000  1
  Nd  Nd17  1  0.531184  0.323600  0.100111  1
  Y  Y18  1  0.846633  0.485372  0.250000  1
  Y  Y19  1  0.363570  0.015767  0.250000  1
  Si  Si20  1  0.245677  0.366440  0.250000  1
  Si  Si21  1  0.868317  0.524478  0.457613  1
  Si  Si22  1  0.518824  0.402232  0.750000  1
  Si  Si23  1  0.635567  0.027164  0.960378  1
  Si  Si24  1  0.015745  0.098916  0.750000  1
  Si  Si25  1  0.751473  0.621183  0.750000  1
  Si  Si26  1  0.751608  0.122221  0.250000  1
  Si  Si27  1  0.360039  0.976889  0.458298  1
  Si  Si28  1  0.987882  0.903097  0.250000  1
  Si  Si29  1  0.360039  0.976889  0.041702  1
  Si  Si30  1  0.635567  0.027164  0.539622  1
  Si  Si31  1  0.140655  0.473337  0.961755  1
  Si  Si32  1  0.140655  0.473337  0.538245  1
  Si  Si33  1  0.868317  0.524478  0.042387  1
  Si  Si34  1  0.249922  0.879538  0.750000  1
  Os  Os35  1  0.490497  0.592129  0.250000  1
