# generated using pymatgen
data_Tb3Dy5Re13B12
_symmetry_space_group_name_H-M   'P 1'
_cell_length_a   7.80434409
_cell_length_b   7.80416481
_cell_length_c   7.80434448
_cell_angle_alpha   86.28662863
_cell_angle_beta   86.28056917
_cell_angle_gamma   86.28663230
_symmetry_Int_Tables_number   1
_chemical_formula_structural   Tb3Dy5Re13B12
_chemical_formula_sum   'Tb3 Dy5 Re13 B12'
_cell_volume   472.46112796
_cell_formula_units_Z   1
loop_
 _symmetry_equiv_pos_site_id
 _symmetry_equiv_pos_as_xyz
  1  'x, y, z'
loop_
 _atom_site_type_symbol
 _atom_site_label
 _atom_site_symmetry_multiplicity
 _atom_site_fract_x
 _atom_site_fract_y
 _atom_site_fract_z
 _atom_site_occupancy
  Tb  Tb0  1  0.641262  0.641248  0.641262  1
  Tb  Tb1  1  0.358712  0.358734  0.358712  1
  Tb  Tb2  1  0.811398  0.312565  0.811398  1
  Dy  Dy3  1  0.188776  0.188729  0.687590  1
  Dy  Dy4  1  0.687590  0.188729  0.188776  1
  Dy  Dy5  1  0.188745  0.687618  0.188745  1
  Dy  Dy6  1  0.811244  0.811250  0.312405  1
  Dy  Dy7  1  0.312405  0.811250  0.811244  1
  Re  Re8  1  0.000110  0.999798  0.000110  1
  Re  Re9  1  0.596554  0.063381  0.596554  1
  Re  Re10  1  0.596509  0.596649  0.063488  1
  Re  Re11  1  0.063488  0.596649  0.596509  1
  Re  Re12  1  0.403410  0.936566  0.403410  1
  Re  Re13  1  0.403341  0.403432  0.936599  1
  Re  Re14  1  0.936599  0.403432  0.403341  1
  Re  Re15  1  0.923081  0.922980  0.670757  1
  Re  Re16  1  0.670757  0.922980  0.923081  1
  Re  Re17  1  0.923123  0.670954  0.923123  1
  Re  Re18  1  0.076937  0.076938  0.329232  1
  Re  Re19  1  0.329232  0.076938  0.076937  1
  Re  Re20  1  0.077110  0.329252  0.077110  1
  B  B21  1  0.152127  0.847902  0.500008  1
  B  B22  1  0.499881  0.152065  0.847869  1
  B  B23  1  0.847870  0.500012  0.152094  1
  B  B24  1  0.500008  0.847902  0.152127  1
  B  B25  1  0.152094  0.500012  0.847870  1
  B  B26  1  0.847869  0.152065  0.499881  1
  B  B27  1  0.671808  0.499995  0.328183  1
  B  B28  1  0.328204  0.671808  0.499993  1
  B  B29  1  0.499837  0.328181  0.671742  1
  B  B30  1  0.328183  0.499995  0.671808  1
  B  B31  1  0.671742  0.328181  0.499837  1
  B  B32  1  0.499993  0.671808  0.328204  1
