# generated using pymatgen
data_Th3In2Pd3Au
_symmetry_space_group_name_H-M   'P 1'
_cell_length_a   7.90844069
_cell_length_b   7.68740630
_cell_length_c   4.00952000
_cell_angle_alpha   90.00000000
_cell_angle_beta   90.00000000
_cell_angle_gamma   120.96317470
_symmetry_Int_Tables_number   1
_chemical_formula_structural   Th3In2Pd3Au
_chemical_formula_sum   'Th3 In2 Pd3 Au1'
_cell_volume   209.02405732
_cell_formula_units_Z   1
loop_
 _symmetry_equiv_pos_site_id
 _symmetry_equiv_pos_as_xyz
  1  'x, y, z'
loop_
 _atom_site_type_symbol
 _atom_site_label
 _atom_site_symmetry_multiplicity
 _atom_site_fract_x
 _atom_site_fract_y
 _atom_site_fract_z
 _atom_site_occupancy
  Th  Th0  1  0.421607  0.000046  0.500000  1
  Th  Th1  1  0.989725  0.390279  0.500000  1
  Th  Th2  1  0.599427  0.609776  0.500000  1
  In  In3  1  0.004576  0.747918  0.000000  1
  In  In4  1  0.256491  0.251975  0.000000  1
  Pd  Pd5  1  0.319692  0.656266  0.000000  1
  Pd  Pd6  1  0.663370  0.343744  0.000000  1
  Pd  Pd7  1  0.011425  0.999978  0.500000  1
  Au  Au8  1  0.733688  0.000019  0.000000  1
