# generated using pymatgen
data_TbCe3(B2Os)4
_symmetry_space_group_name_H-M   'P 1'
_cell_length_a   5.38432500
_cell_length_b   5.92812088
_cell_length_c   6.51557696
_cell_angle_alpha   89.88894639
_cell_angle_beta   90.00000000
_cell_angle_gamma   90.00000000
_symmetry_Int_Tables_number   1
_chemical_formula_structural   TbCe3(B2Os)4
_chemical_formula_sum   'Tb1 Ce3 B8 Os4'
_cell_volume   207.96985057
_cell_formula_units_Z   1
loop_
 _symmetry_equiv_pos_site_id
 _symmetry_equiv_pos_as_xyz
  1  'x, y, z'
loop_
 _atom_site_type_symbol
 _atom_site_label
 _atom_site_symmetry_multiplicity
 _atom_site_fract_x
 _atom_site_fract_y
 _atom_site_fract_z
 _atom_site_occupancy
  Tb  Tb0  1  0.750000  0.494563  0.839013  1
  Ce  Ce1  1  0.250000  0.003355  0.339795  1
  Ce  Ce2  1  0.250000  0.504428  0.163661  1
  Ce  Ce3  1  0.750000  0.994614  0.658314  1
  B  B4  1  0.086712  0.371034  0.539379  1
  B  B5  1  0.414925  0.869992  0.961198  1
  B  B6  1  0.586400  0.627659  0.463602  1
  B  B7  1  0.914209  0.131399  0.035953  1
  B  B8  1  0.913600  0.627659  0.463602  1
  B  B9  1  0.585791  0.131399  0.035953  1
  B  B10  1  0.413288  0.371034  0.539379  1
  B  B11  1  0.085075  0.869992  0.961198  1
  Os  Os12  1  0.250000  0.184022  0.813548  1
  Os  Os13  1  0.250000  0.686379  0.685574  1
  Os  Os14  1  0.750000  0.819032  0.188955  1
  Os  Os15  1  0.750000  0.313439  0.310877  1
