# generated using pymatgen
data_Cs(Ti3S4)4
_symmetry_space_group_name_H-M   'P 1'
_cell_length_a   6.78044308
_cell_length_b   9.62419694
_cell_length_c   10.18460220
_cell_angle_alpha   118.19308044
_cell_angle_beta   109.38351680
_cell_angle_gamma   90.01679605
_symmetry_Int_Tables_number   1
_chemical_formula_structural   Cs(Ti3S4)4
_chemical_formula_sum   'Cs1 Ti12 S16'
_cell_volume   542.60546252
_cell_formula_units_Z   1
loop_
 _symmetry_equiv_pos_site_id
 _symmetry_equiv_pos_as_xyz
  1  'x, y, z'
loop_
 _atom_site_type_symbol
 _atom_site_label
 _atom_site_symmetry_multiplicity
 _atom_site_fract_x
 _atom_site_fract_y
 _atom_site_fract_z
 _atom_site_occupancy
  Cs  Cs0  1  0.000000  0.000000  0.000000  1
  Ti  Ti1  1  0.557205  0.355496  0.866242  1
  Ti  Ti2  1  0.058975  0.354427  0.865803  1
  Ti  Ti3  1  0.370783  0.133934  0.490213  1
  Ti  Ti4  1  0.866632  0.134706  0.486834  1
  Ti  Ti5  1  0.447461  0.512989  0.647836  1
  Ti  Ti6  1  0.947836  0.509645  0.643850  1
  Ti  Ti7  1  0.941025  0.645573  0.134197  1
  Ti  Ti8  1  0.442795  0.644504  0.133758  1
  Ti  Ti9  1  0.133368  0.865294  0.513166  1
  Ti  Ti10  1  0.629217  0.866066  0.509787  1
  Ti  Ti11  1  0.052164  0.490355  0.356150  1
  Ti  Ti12  1  0.552539  0.487011  0.352164  1
  S  S13  1  0.969244  0.051815  0.687714  1
  S  S14  1  0.471810  0.050704  0.692194  1
  S  S15  1  0.805317  0.308207  0.358046  1
  S  S16  1  0.308008  0.312091  0.364164  1
  S  S17  1  0.100744  0.636726  0.947956  1
  S  S18  1  0.600410  0.641523  0.949897  1
  S  S19  1  0.528190  0.949296  0.307806  1
  S  S20  1  0.030756  0.948185  0.312286  1
  S  S21  1  0.691992  0.687909  0.635836  1
  S  S22  1  0.194683  0.691793  0.641954  1
  S  S23  1  0.399590  0.358477  0.050103  1
  S  S24  1  0.899256  0.363274  0.052044  1
  S  S25  1  0.791936  0.667236  0.333836  1
  S  S26  1  0.291616  0.666181  0.332813  1
  S  S27  1  0.708384  0.333819  0.667187  1
  S  S28  1  0.208064  0.332764  0.666164  1
