# generated using pymatgen
data_LiTcO4
_symmetry_space_group_name_H-M   'P 1'
_cell_length_a   6.00772261
_cell_length_b   6.00772376
_cell_length_c   6.00772300
_cell_angle_alpha   59.99999868
_cell_angle_beta   59.99999236
_cell_angle_gamma   60.00000123
_symmetry_Int_Tables_number   1
_chemical_formula_structural   LiTcO4
_chemical_formula_sum   'Li1 Tc1 O4'
_cell_volume   153.32561119
_cell_formula_units_Z   1
loop_
 _symmetry_equiv_pos_site_id
 _symmetry_equiv_pos_as_xyz
  1  'x, y, z'
loop_
 _atom_site_type_symbol
 _atom_site_label
 _atom_site_symmetry_multiplicity
 _atom_site_fract_x
 _atom_site_fract_y
 _atom_site_fract_z
 _atom_site_occupancy
  Li  Li0  1  0.000000  0.000000  0.000000  1
  Tc  Tc1  1  0.250000  0.250000  0.250000  1
  O  O2  1  0.131943  0.131943  0.131943  1
  O  O3  1  0.604172  0.131943  0.131943  1
  O  O4  1  0.131943  0.604172  0.131943  1
  O  O5  1  0.131943  0.131943  0.604172  1
