# generated using pymatgen
data_Tb3Ho5Ti9Si16Mo3
_symmetry_space_group_name_H-M   'P 1'
_cell_length_a   7.00549940
_cell_length_b   7.00663620
_cell_length_c   12.87708233
_cell_angle_alpha   90.02149381
_cell_angle_beta   89.97427473
_cell_angle_gamma   90.01341639
_symmetry_Int_Tables_number   1
_chemical_formula_structural   Tb3Ho5Ti9Si16Mo3
_chemical_formula_sum   'Tb3 Ho5 Ti9 Si16 Mo3'
_cell_volume   632.07127605
_cell_formula_units_Z   1
loop_
 _symmetry_equiv_pos_site_id
 _symmetry_equiv_pos_as_xyz
  1  'x, y, z'
loop_
 _atom_site_type_symbol
 _atom_site_label
 _atom_site_symmetry_multiplicity
 _atom_site_fract_x
 _atom_site_fract_y
 _atom_site_fract_z
 _atom_site_occupancy
  Tb  Tb0  1  0.339422  0.002284  0.466317  1
  Tb  Tb1  1  0.498217  0.841236  0.718433  1
  Tb  Tb2  1  0.500661  0.158993  0.216565  1
  Ho  Ho3  1  0.841546  0.498907  0.281481  1
  Ho  Ho4  1  0.158695  0.499840  0.783607  1
  Ho  Ho5  1  0.659605  0.000223  0.966789  1
  Ho  Ho6  1  0.001601  0.339865  0.533744  1
  Ho  Ho7  1  0.000038  0.659630  0.032992  1
  Ti  Ti8  1  0.674166  0.673505  0.500061  1
  Ti  Ti9  1  0.152253  0.009403  0.876646  1
  Ti  Ti10  1  0.490662  0.652865  0.125470  1
  Ti  Ti11  1  0.508785  0.346263  0.628084  1
  Ti  Ti12  1  0.653075  0.491189  0.874503  1
  Ti  Ti13  1  0.346065  0.507876  0.372105  1
  Ti  Ti14  1  0.847953  0.991050  0.375236  1
  Ti  Ti15  1  0.008699  0.152417  0.123227  1
  Ti  Ti16  1  0.991752  0.847571  0.624851  1
  Si  Si17  1  0.200669  0.130138  0.685011  1
  Si  Si18  1  0.370100  0.700629  0.934553  1
  Si  Si19  1  0.631241  0.299325  0.434920  1
  Si  Si20  1  0.701374  0.370853  0.065279  1
  Si  Si21  1  0.297695  0.628813  0.565203  1
  Si  Si22  1  0.799463  0.869294  0.184440  1
  Si  Si23  1  0.127885  0.202301  0.315041  1
  Si  Si24  1  0.870800  0.798723  0.815691  1
  Si  Si25  1  0.291368  0.952351  0.064539  1
  Si  Si26  1  0.547575  0.789673  0.314911  1
  Si  Si27  1  0.451978  0.209618  0.815915  1
  Si  Si28  1  0.791804  0.546558  0.685079  1
  Si  Si29  1  0.207932  0.452781  0.184208  1
  Si  Si30  1  0.709130  0.048748  0.566111  1
  Si  Si31  1  0.952842  0.292107  0.935173  1
  Si  Si32  1  0.047424  0.706922  0.433825  1
  Mo  Mo33  1  0.326858  0.327317  0.999913  1
  Mo  Mo34  1  0.173585  0.826309  0.248890  1
  Mo  Mo35  1  0.827079  0.174423  0.751186  1
