# generated using pymatgen
data_YTmB24
_symmetry_space_group_name_H-M   'P 1'
_cell_length_a   5.29123582
_cell_length_b   5.29123660
_cell_length_c   9.16381001
_cell_angle_alpha   73.21969080
_cell_angle_beta   106.78030880
_cell_angle_gamma   120.00000412
_symmetry_Int_Tables_number   1
_chemical_formula_structural   YTmB24
_chemical_formula_sum   'Y1 Tm1 B24'
_cell_volume   209.47853628
_cell_formula_units_Z   1
loop_
 _symmetry_equiv_pos_site_id
 _symmetry_equiv_pos_as_xyz
  1  'x, y, z'
loop_
 _atom_site_type_symbol
 _atom_site_label
 _atom_site_symmetry_multiplicity
 _atom_site_fract_x
 _atom_site_fract_y
 _atom_site_fract_z
 _atom_site_occupancy
  Y  Y0  1  0.249893  0.750107  0.749677  1
  Tm  Tm1  1  0.749962  0.250038  0.249889  1
  B  B2  1  0.000064  0.661513  0.000996  1
  B  B3  1  0.662445  0.999936  0.000996  1
  B  B4  1  0.338487  0.337555  0.000996  1
  B  B5  1  0.338487  0.999936  0.000996  1
  B  B6  1  0.662445  0.661513  0.000996  1
  B  B7  1  0.000064  0.337555  0.000996  1
  B  B8  1  0.668882  0.331118  0.668359  1
  B  B9  1  0.330595  0.331118  0.668359  1
  B  B10  1  0.668882  0.669405  0.668359  1
  B  B11  1  0.331066  0.668934  0.330805  1
  B  B12  1  0.668671  0.668934  0.330805  1
  B  B13  1  0.331066  0.331329  0.330805  1
  B  B14  1  0.168954  0.831046  0.169272  1
  B  B15  1  0.831363  0.831046  0.169272  1
  B  B16  1  0.168954  0.168637  0.169272  1
  B  B17  1  0.831118  0.168882  0.831685  1
  B  B18  1  0.169447  0.168882  0.831685  1
  B  B19  1  0.831118  0.830553  0.831685  1
  B  B20  1  0.500008  0.162562  0.499016  1
  B  B21  1  0.161570  0.499992  0.499016  1
  B  B22  1  0.837438  0.838430  0.499016  1
  B  B23  1  0.837438  0.499992  0.499016  1
  B  B24  1  0.161570  0.162562  0.499016  1
  B  B25  1  0.500008  0.838430  0.499016  1
