# generated using pymatgen
data_Ho3Th2Al2Ru3
_symmetry_space_group_name_H-M   'P 1'
_cell_length_a   8.42667131
_cell_length_b   8.44700398
_cell_length_c   8.44284892
_cell_angle_alpha   109.94265702
_cell_angle_beta   109.74863167
_cell_angle_gamma   109.59315528
_symmetry_Int_Tables_number   1
_chemical_formula_structural   Ho3Th2Al2Ru3
_chemical_formula_sum   'Ho6 Th4 Al4 Ru6'
_cell_volume   457.57926090
_cell_formula_units_Z   2
loop_
 _symmetry_equiv_pos_site_id
 _symmetry_equiv_pos_as_xyz
  1  'x, y, z'
loop_
 _atom_site_type_symbol
 _atom_site_label
 _atom_site_symmetry_multiplicity
 _atom_site_fract_x
 _atom_site_fract_y
 _atom_site_fract_z
 _atom_site_occupancy
  Ho  Ho0  1  0.777929  0.775883  0.778371  1
  Ho  Ho1  1  0.312181  0.564567  0.748967  1
  Ho  Ho2  1  0.753091  0.317784  0.565072  1
  Ho  Ho3  1  0.566068  0.744899  0.307764  1
  Ho  Ho4  1  0.719467  0.507598  0.997560  1
  Ho  Ho5  1  0.994006  0.717132  0.504912  1
  Th  Th6  1  0.505306  0.995764  0.708746  1
  Th  Th7  1  0.255519  0.196311  0.943165  1
  Th  Th8  1  0.940142  0.252539  0.191980  1
  Th  Th9  1  0.189071  0.941054  0.249348  1
  Al  Al10  1  0.413046  0.410494  0.411733  1
  Al  Al11  1  0.096512  0.501256  0.999624  1
  Al  Al12  1  0.993471  0.093598  0.500411  1
  Al  Al13  1  0.499699  0.996913  0.096468  1
  Ru  Ru14  1  0.880347  0.121313  0.754917  1
  Ru  Ru15  1  0.752384  0.885818  0.120377  1
  Ru  Ru16  1  0.121154  0.754360  0.889606  1
  Ru  Ru17  1  0.244805  0.621416  0.378035  1
  Ru  Ru18  1  0.369299  0.232955  0.616894  1
  Ru  Ru19  1  0.616502  0.368348  0.236053  1
