# generated using pymatgen
data_LaSn5BiRu4
_symmetry_space_group_name_H-M   'P 1'
_cell_length_a   7.00555968
_cell_length_b   7.02354360
_cell_length_c   7.01281979
_cell_angle_alpha   120.09029200
_cell_angle_beta   120.00551972
_cell_angle_gamma   89.93122744
_symmetry_Int_Tables_number   1
_chemical_formula_structural   LaSn5BiRu4
_chemical_formula_sum   'La1 Sn5 Bi1 Ru4'
_cell_volume   243.78544724
_cell_formula_units_Z   1
loop_
 _symmetry_equiv_pos_site_id
 _symmetry_equiv_pos_as_xyz
  1  'x, y, z'
loop_
 _atom_site_type_symbol
 _atom_site_label
 _atom_site_symmetry_multiplicity
 _atom_site_fract_x
 _atom_site_fract_y
 _atom_site_fract_z
 _atom_site_occupancy
  La  La0  1  0.996333  0.998720  0.000000  1
  Sn  Sn1  1  0.117952  0.475812  0.000000  1
  Sn  Sn2  1  0.882173  0.879029  0.355238  1
  Sn  Sn3  1  0.526935  0.523791  0.644762  1
  Sn  Sn4  1  0.003011  0.502857  0.502515  1
  Sn  Sn5  1  0.500496  0.000342  0.497485  1
  Bi  Bi6  1  0.471286  0.119812  0.000000  1
  Ru  Ru7  1  0.408449  0.746433  0.000000  1
  Ru  Ru8  1  0.750919  0.409197  0.000000  1
  Ru  Ru9  1  0.247677  0.248458  0.652909  1
  Ru  Ru10  1  0.594768  0.595549  0.347091  1
