# generated using pymatgen
data_Hf2Zr2TiSi4W3
_symmetry_space_group_name_H-M   'P 1'
_cell_length_a   3.54452500
_cell_length_b   6.95736906
_cell_length_c   8.27193303
_cell_angle_alpha   90.20838601
_cell_angle_beta   90.00000000
_cell_angle_gamma   90.00000000
_symmetry_Int_Tables_number   1
_chemical_formula_structural   Hf2Zr2TiSi4W3
_chemical_formula_sum   'Hf2 Zr2 Ti1 Si4 W3'
_cell_volume   203.98922240
_cell_formula_units_Z   1
loop_
 _symmetry_equiv_pos_site_id
 _symmetry_equiv_pos_as_xyz
  1  'x, y, z'
loop_
 _atom_site_type_symbol
 _atom_site_label
 _atom_site_symmetry_multiplicity
 _atom_site_fract_x
 _atom_site_fract_y
 _atom_site_fract_z
 _atom_site_occupancy
  Hf  Hf0  1  0.250000  0.543794  0.167498  1
  Hf  Hf1  1  0.250000  0.043328  0.333731  1
  Zr  Zr2  1  0.750000  0.456951  0.833776  1
  Zr  Zr3  1  0.750000  0.961615  0.669356  1
  Ti  Ti4  1  0.250000  0.627448  0.559228  1
  Si  Si5  1  0.250000  0.756774  0.860493  1
  Si  Si6  1  0.250000  0.256718  0.636388  1
  Si  Si7  1  0.750000  0.242828  0.140045  1
  Si  Si8  1  0.750000  0.742838  0.360122  1
  W  W9  1  0.250000  0.131448  0.940643  1
  W  W10  1  0.750000  0.367019  0.437432  1
  W  W11  1  0.750000  0.869238  0.061289  1
