# generated using pymatgen
data_Nd8Er12Ga15As
_symmetry_space_group_name_H-M   'P 1'
_cell_length_a   7.68734758
_cell_length_b   15.05862269
_cell_length_c   7.93235900
_cell_angle_alpha   89.86584472
_cell_angle_beta   89.67119775
_cell_angle_gamma   88.36270964
_symmetry_Int_Tables_number   1
_chemical_formula_structural   Nd8Er12Ga15As
_chemical_formula_sum   'Nd8 Er12 Ga15 As1'
_cell_volume   917.86456495
_cell_formula_units_Z   1
loop_
 _symmetry_equiv_pos_site_id
 _symmetry_equiv_pos_as_xyz
  1  'x, y, z'
loop_
 _atom_site_type_symbol
 _atom_site_label
 _atom_site_symmetry_multiplicity
 _atom_site_fract_x
 _atom_site_fract_y
 _atom_site_fract_z
 _atom_site_occupancy
  Nd  Nd0  1  0.023871  0.093999  0.179382  1
  Nd  Nd1  1  0.018260  0.406310  0.187638  1
  Nd  Nd2  1  0.523286  0.093765  0.320762  1
  Nd  Nd3  1  0.516284  0.405830  0.317746  1
  Nd  Nd4  1  0.480889  0.593402  0.678691  1
  Nd  Nd5  1  0.477443  0.905377  0.679362  1
  Nd  Nd6  1  0.985523  0.593730  0.823655  1
  Nd  Nd7  1  0.977565  0.905262  0.819905  1
  Er  Er8  1  0.342005  0.248883  0.011066  1
  Er  Er9  1  0.327300  0.622802  0.175888  1
  Er  Er10  1  0.322345  0.876142  0.171184  1
  Er  Er11  1  0.826708  0.623105  0.323344  1
  Er  Er12  1  0.823278  0.877093  0.325834  1
  Er  Er13  1  0.840055  0.249962  0.487300  1
  Er  Er14  1  0.158504  0.750409  0.511122  1
  Er  Er15  1  0.177635  0.122576  0.674757  1
  Er  Er16  1  0.171400  0.376367  0.669517  1
  Er  Er17  1  0.679578  0.123368  0.828629  1
  Er  Er18  1  0.671419  0.378904  0.826686  1
  Er  Er19  1  0.660858  0.751192  0.986621  1
  Ga  Ga20  1  0.650574  0.957005  0.030572  1
  Ga  Ga21  1  0.029074  0.749711  0.110055  1
  Ga  Ga22  1  0.725674  0.252749  0.123206  1
  Ga  Ga23  1  0.228831  0.250006  0.376919  1
  Ga  Ga24  1  0.528819  0.748658  0.388601  1
  Ga  Ga25  1  0.154061  0.542269  0.468455  1
  Ga  Ga26  1  0.151904  0.957293  0.467266  1
  Ga  Ga27  1  0.850862  0.042704  0.533244  1
  Ga  Ga28  1  0.842228  0.460875  0.532931  1
  Ga  Ga29  1  0.472355  0.249393  0.611978  1
  Ga  Ga30  1  0.773875  0.747689  0.623166  1
  Ga  Ga31  1  0.276197  0.747198  0.876242  1
  Ga  Ga32  1  0.972517  0.253094  0.891209  1
  Ga  Ga33  1  0.351033  0.042220  0.969023  1
  Ga  Ga34  1  0.329815  0.457667  0.966014  1
  As  As35  1  0.657972  0.542983  0.032029  1
