# generated using pymatgen
data_Ho2Ga7Ni2Au
_symmetry_space_group_name_H-M   'P 1'
_cell_length_a   7.96840935
_cell_length_b   7.96840896
_cell_length_c   6.45981097
_cell_angle_alpha   88.82595756
_cell_angle_beta   91.17404305
_cell_angle_gamma   150.01865396
_symmetry_Int_Tables_number   1
_chemical_formula_structural   Ho2Ga7Ni2Au
_chemical_formula_sum   'Ho2 Ga7 Ni2 Au1'
_cell_volume   204.92283209
_cell_formula_units_Z   1
loop_
 _symmetry_equiv_pos_site_id
 _symmetry_equiv_pos_as_xyz
  1  'x, y, z'
loop_
 _atom_site_type_symbol
 _atom_site_label
 _atom_site_symmetry_multiplicity
 _atom_site_fract_x
 _atom_site_fract_y
 _atom_site_fract_z
 _atom_site_occupancy
  Ho  Ho0  1  0.876738  0.123262  0.263873  1
  Ho  Ho1  1  0.123262  0.876738  0.736127  1
  Ga  Ga2  1  0.314144  0.685856  0.553026  1
  Ga  Ga3  1  0.069105  0.930895  0.235150  1
  Ga  Ga4  1  0.685856  0.314144  0.446974  1
  Ga  Ga5  1  0.500000  0.500000  0.500000  1
  Ga  Ga6  1  0.684038  0.315962  0.044514  1
  Ga  Ga7  1  0.315962  0.684038  0.955486  1
  Ga  Ga8  1  0.930895  0.069105  0.764850  1
  Ni  Ni9  1  0.778373  0.221627  0.751567  1
  Ni  Ni10  1  0.221627  0.778373  0.248433  1
  Au  Au11  1  0.500000  0.500000  0.000000  1
