# generated using pymatgen
data_Nb20Al6Ir3Os
_symmetry_space_group_name_H-M   'P 1'
_cell_length_a   9.94432351
_cell_length_b   9.94282851
_cell_length_c   5.19163600
_cell_angle_alpha   90.00000000
_cell_angle_beta   90.00000000
_cell_angle_gamma   89.96327244
_symmetry_Int_Tables_number   1
_chemical_formula_structural   Nb20Al6Ir3Os
_chemical_formula_sum   'Nb20 Al6 Ir3 Os1'
_cell_volume   513.32136380
_cell_formula_units_Z   1
loop_
 _symmetry_equiv_pos_site_id
 _symmetry_equiv_pos_as_xyz
  1  'x, y, z'
loop_
 _atom_site_type_symbol
 _atom_site_label
 _atom_site_symmetry_multiplicity
 _atom_site_fract_x
 _atom_site_fract_y
 _atom_site_fract_z
 _atom_site_occupancy
  Nb  Nb0  1  0.398122  0.391978  0.000000  1
  Nb  Nb1  1  0.892067  0.102890  0.500000  1
  Nb  Nb2  1  0.107376  0.897411  0.500000  1
  Nb  Nb3  1  0.601837  0.607123  0.000000  1
  Nb  Nb4  1  0.129642  0.464436  0.000000  1
  Nb  Nb5  1  0.964966  0.371025  0.500000  1
  Nb  Nb6  1  0.034866  0.628278  0.500000  1
  Nb  Nb7  1  0.870967  0.535434  0.000000  1
  Nb  Nb8  1  0.374145  0.964954  0.500000  1
  Nb  Nb9  1  0.626636  0.035761  0.500000  1
  Nb  Nb10  1  0.464460  0.125434  0.000000  1
  Nb  Nb11  1  0.534781  0.873647  0.000000  1
  Nb  Nb12  1  0.183349  0.181980  0.248549  1
  Nb  Nb13  1  0.682954  0.317209  0.748836  1
  Nb  Nb14  1  0.316696  0.684434  0.750097  1
  Nb  Nb15  1  0.816322  0.816779  0.249072  1
  Nb  Nb16  1  0.316696  0.684434  0.249903  1
  Nb  Nb17  1  0.682954  0.317209  0.251164  1
  Nb  Nb18  1  0.183349  0.181980  0.751451  1
  Nb  Nb19  1  0.816322  0.816779  0.750928  1
  Al  Al20  1  0.999712  0.999983  0.000000  1
  Al  Al21  1  0.499995  0.500371  0.500000  1
  Al  Al22  1  0.242439  0.432835  0.500000  1
  Al  Al23  1  0.757908  0.566920  0.500000  1
  Al  Al24  1  0.932858  0.257912  0.000000  1
  Al  Al25  1  0.067150  0.742161  0.000000  1
  Ir  Ir26  1  0.433194  0.242579  0.500000  1
  Ir  Ir27  1  0.567545  0.757337  0.500000  1
  Ir  Ir28  1  0.742851  0.067142  0.000000  1
  Os  Os29  1  0.257840  0.933586  0.000000  1
