# generated using pymatgen
data_TbPrTa2Bi2O11
_symmetry_space_group_name_H-M   'P 1'
_cell_length_a   6.62919675
_cell_length_b   7.73234521
_cell_length_c   9.85600303
_cell_angle_alpha   101.30984241
_cell_angle_beta   90.26113851
_cell_angle_gamma   89.96705292
_symmetry_Int_Tables_number   1
_chemical_formula_structural   TbPrTa2Bi2O11
_chemical_formula_sum   'Tb2 Pr2 Ta4 Bi4 O22'
_cell_volume   495.39532685
_cell_formula_units_Z   2
loop_
 _symmetry_equiv_pos_site_id
 _symmetry_equiv_pos_as_xyz
  1  'x, y, z'
loop_
 _atom_site_type_symbol
 _atom_site_label
 _atom_site_symmetry_multiplicity
 _atom_site_fract_x
 _atom_site_fract_y
 _atom_site_fract_z
 _atom_site_occupancy
  Tb  Tb0  1  0.756589  0.872880  0.477415  1
  Tb  Tb1  1  0.243411  0.127120  0.522585  1
  Pr  Pr2  1  0.752291  0.369329  0.492203  1
  Pr  Pr3  1  0.247709  0.630671  0.507797  1
  Ta  Ta4  1  0.914798  0.701318  0.803996  1
  Ta  Ta5  1  0.085202  0.298682  0.196004  1
  Ta  Ta6  1  0.913613  0.201735  0.807953  1
  Ta  Ta7  1  0.086387  0.798265  0.192047  1
  Bi  Bi8  1  0.439050  0.952982  0.815087  1
  Bi  Bi9  1  0.560950  0.047018  0.184913  1
  Bi  Bi10  1  0.388788  0.457717  0.827545  1
  Bi  Bi11  1  0.611212  0.542283  0.172455  1
  O  O12  1  0.216636  0.728053  0.759199  1
  O  O13  1  0.783364  0.271947  0.240801  1
  O  O14  1  0.630081  0.662707  0.836045  1
  O  O15  1  0.369919  0.337293  0.163955  1
  O  O16  1  0.629792  0.256303  0.839754  1
  O  O17  1  0.370208  0.743697  0.160246  1
  O  O18  1  0.891709  0.134926  0.593777  1
  O  O19  1  0.108291  0.865074  0.406223  1
  O  O20  1  0.215734  0.150389  0.760390  1
  O  O21  1  0.784266  0.849611  0.239610  1
  O  O22  1  0.892198  0.661455  0.591058  1
  O  O23  1  0.107802  0.338545  0.408942  1
  O  O24  1  0.033322  0.556603  0.225357  1
  O  O25  1  0.966678  0.443397  0.774643  1
  O  O26  1  0.999898  0.745892  0.999000  1
  O  O27  1  0.000102  0.254108  0.001000  1
  O  O28  1  0.577480  0.601106  0.390010  1
  O  O29  1  0.422520  0.398894  0.609990  1
  O  O30  1  0.156620  0.048620  0.193715  1
  O  O31  1  0.843380  0.951380  0.806285  1
  O  O32  1  0.536688  0.098231  0.401065  1
  O  O33  1  0.463312  0.901769  0.598935  1
