# generated using pymatgen
data_Tb7Er2Th5Rh6
_symmetry_space_group_name_H-M   'P 1'
_cell_length_a   9.85735900
_cell_length_b   9.75407538
_cell_length_c   6.38417616
_cell_angle_alpha   90.32928359
_cell_angle_beta   90.00000000
_cell_angle_gamma   120.35089952
_symmetry_Int_Tables_number   1
_chemical_formula_structural   Tb7Er2Th5Rh6
_chemical_formula_sum   'Tb7 Er2 Th5 Rh6'
_cell_volume   529.69520080
_cell_formula_units_Z   1
loop_
 _symmetry_equiv_pos_site_id
 _symmetry_equiv_pos_as_xyz
  1  'x, y, z'
loop_
 _atom_site_type_symbol
 _atom_site_label
 _atom_site_symmetry_multiplicity
 _atom_site_fract_x
 _atom_site_fract_y
 _atom_site_fract_z
 _atom_site_occupancy
  Tb  Tb0  1  0.873265  0.746531  0.740984  1
  Tb  Tb1  1  0.539484  0.461409  0.442956  1
  Tb  Tb2  1  0.921925  0.461409  0.442956  1
  Tb  Tb3  1  0.539786  0.079572  0.442632  1
  Tb  Tb4  1  0.461763  0.539536  0.940282  1
  Tb  Tb5  1  0.077774  0.539536  0.940282  1
  Tb  Tb6  1  0.460576  0.921151  0.940586  1
  Er  Er7  1  0.333089  0.666178  0.459449  1
  Er  Er8  1  0.666778  0.333555  0.960944  1
  Th  Th9  1  0.126461  0.870727  0.241545  1
  Th  Th10  1  0.744267  0.870727  0.241545  1
  Th  Th11  1  0.127925  0.255850  0.238930  1
  Th  Th12  1  0.869098  0.125546  0.739042  1
  Th  Th13  1  0.256449  0.125546  0.739042  1
  Rh  Rh14  1  0.816086  0.183564  0.196051  1
  Rh  Rh15  1  0.367479  0.183564  0.196051  1
  Rh  Rh16  1  0.815396  0.630789  0.201776  1
  Rh  Rh17  1  0.192679  0.819363  0.691920  1
  Rh  Rh18  1  0.626683  0.819363  0.691920  1
  Rh  Rh19  1  0.183040  0.366081  0.697670  1
