# generated using pymatgen
data_Sc22CoIr2Os5
_symmetry_space_group_name_H-M   'P 1'
_cell_length_a   9.44743144
_cell_length_b   9.44743202
_cell_length_c   9.44163900
_cell_angle_alpha   60.02028542
_cell_angle_beta   60.02028338
_cell_angle_gamma   59.95944487
_symmetry_Int_Tables_number   1
_chemical_formula_structural   Sc22CoIr2Os5
_chemical_formula_sum   'Sc22 Co1 Ir2 Os5'
_cell_volume   595.88113522
_cell_formula_units_Z   1
loop_
 _symmetry_equiv_pos_site_id
 _symmetry_equiv_pos_as_xyz
  1  'x, y, z'
loop_
 _atom_site_type_symbol
 _atom_site_label
 _atom_site_symmetry_multiplicity
 _atom_site_fract_x
 _atom_site_fract_y
 _atom_site_fract_z
 _atom_site_occupancy
  Sc  Sc0  1  0.843194  0.843194  0.845025  1
  Sc  Sc1  1  0.531413  0.154975  0.156806  1
  Sc  Sc2  1  0.156806  0.156806  0.531413  1
  Sc  Sc3  1  0.154975  0.531413  0.156806  1
  Sc  Sc4  1  0.843194  0.843194  0.468587  1
  Sc  Sc5  1  0.845025  0.468587  0.843194  1
  Sc  Sc6  1  0.468587  0.845025  0.843194  1
  Sc  Sc7  1  0.156806  0.156806  0.154975  1
  Sc  Sc8  1  0.198100  0.801900  0.198100  1
  Sc  Sc9  1  0.198100  0.801900  0.801900  1
  Sc  Sc10  1  0.801900  0.198100  0.198100  1
  Sc  Sc11  1  0.801362  0.801362  0.198638  1
  Sc  Sc12  1  0.198638  0.198638  0.801362  1
  Sc  Sc13  1  0.801900  0.198100  0.801900  1
  Sc  Sc14  1  0.383337  0.383337  0.386498  1
  Sc  Sc15  1  0.153174  0.613502  0.616663  1
  Sc  Sc16  1  0.613502  0.153174  0.616663  1
  Sc  Sc17  1  0.616663  0.616663  0.153174  1
  Sc  Sc18  1  0.386498  0.846826  0.383337  1
  Sc  Sc19  1  0.383337  0.383337  0.846826  1
  Sc  Sc20  1  0.846826  0.386498  0.383337  1
  Sc  Sc21  1  0.616663  0.616663  0.613502  1
  Co  Co22  1  0.500000  0.500000  0.500000  1
  Ir  Ir23  1  0.500000  0.500000  0.000000  1
  Ir  Ir24  1  0.000000  0.000000  0.500000  1
  Os  Os25  1  0.500000  0.000000  0.500000  1
  Os  Os26  1  0.000000  0.500000  0.500000  1
  Os  Os27  1  0.500000  0.000000  0.000000  1
  Os  Os28  1  0.000000  0.500000  0.000000  1
  Os  Os29  1  0.000000  0.000000  0.000000  1
