# generated using pymatgen
data_Er3Tm17(Cd3Ru)2
_symmetry_space_group_name_H-M   'P 1'
_cell_length_a   9.46305800
_cell_length_b   9.46305832
_cell_length_c   9.74408100
_cell_angle_alpha   90.00000000
_cell_angle_beta   90.00000000
_cell_angle_gamma   119.99999887
_symmetry_Int_Tables_number   1
_chemical_formula_structural   Er3Tm17(Cd3Ru)2
_chemical_formula_sum   'Er3 Tm17 Cd6 Ru2'
_cell_volume   755.67410598
_cell_formula_units_Z   1
loop_
 _symmetry_equiv_pos_site_id
 _symmetry_equiv_pos_as_xyz
  1  'x, y, z'
loop_
 _atom_site_type_symbol
 _atom_site_label
 _atom_site_symmetry_multiplicity
 _atom_site_fract_x
 _atom_site_fract_y
 _atom_site_fract_z
 _atom_site_occupancy
  Er  Er0  1  0.540987  0.459013  0.250000  1
  Er  Er1  1  0.540987  0.081973  0.250000  1
  Er  Er2  1  0.918027  0.459013  0.250000  1
  Tm  Tm3  1  0.000000  0.000000  0.499962  1
  Tm  Tm4  1  0.000000  0.000000  0.000038  1
  Tm  Tm5  1  0.209902  0.790098  0.440878  1
  Tm  Tm6  1  0.209902  0.419806  0.440878  1
  Tm  Tm7  1  0.580194  0.790098  0.440878  1
  Tm  Tm8  1  0.790111  0.209889  0.559313  1
  Tm  Tm9  1  0.790111  0.580220  0.559313  1
  Tm  Tm10  1  0.419780  0.209889  0.559313  1
  Tm  Tm11  1  0.790111  0.209889  0.940687  1
  Tm  Tm12  1  0.790111  0.580220  0.940687  1
  Tm  Tm13  1  0.419780  0.209889  0.940687  1
  Tm  Tm14  1  0.209902  0.790098  0.059122  1
  Tm  Tm15  1  0.209902  0.419806  0.059122  1
  Tm  Tm16  1  0.580194  0.790098  0.059122  1
  Tm  Tm17  1  0.458944  0.541056  0.750000  1
  Tm  Tm18  1  0.458944  0.917889  0.750000  1
  Tm  Tm19  1  0.082111  0.541056  0.750000  1
  Cd  Cd20  1  0.885629  0.114371  0.250000  1
  Cd  Cd21  1  0.885629  0.771259  0.250000  1
  Cd  Cd22  1  0.228741  0.114371  0.250000  1
  Cd  Cd23  1  0.114471  0.885529  0.750000  1
  Cd  Cd24  1  0.114471  0.228942  0.750000  1
  Cd  Cd25  1  0.771058  0.885529  0.750000  1
  Ru  Ru26  1  0.333333  0.666667  0.250000  1
  Ru  Ru27  1  0.666667  0.333333  0.750000  1
