# generated using pymatgen
data_Nd2Y4IrBr10
_symmetry_space_group_name_H-M   'P 1'
_cell_length_a   7.43824867
_cell_length_b   9.35271465
_cell_length_c   9.41514192
_cell_angle_alpha   107.69163711
_cell_angle_beta   95.71773987
_cell_angle_gamma   106.04247442
_symmetry_Int_Tables_number   1
_chemical_formula_structural   Nd2Y4IrBr10
_chemical_formula_sum   'Nd2 Y4 Ir1 Br10'
_cell_volume   587.53074353
_cell_formula_units_Z   1
loop_
 _symmetry_equiv_pos_site_id
 _symmetry_equiv_pos_as_xyz
  1  'x, y, z'
loop_
 _atom_site_type_symbol
 _atom_site_label
 _atom_site_symmetry_multiplicity
 _atom_site_fract_x
 _atom_site_fract_y
 _atom_site_fract_z
 _atom_site_occupancy
  Nd  Nd0  1  0.871713  0.952104  0.245191  1
  Nd  Nd1  1  0.128287  0.047896  0.754809  1
  Y  Y2  1  0.025785  0.697904  0.904671  1
  Y  Y3  1  0.974215  0.302096  0.095329  1
  Y  Y4  1  0.637132  0.862298  0.823349  1
  Y  Y5  1  0.362868  0.137702  0.176651  1
  Ir  Ir6  1  0.000000  0.000000  0.000000  1
  Br  Br7  1  0.649009  0.548357  0.730542  1
  Br  Br8  1  0.350991  0.451643  0.269458  1
  Br  Br9  1  0.741723  0.916048  0.550828  1
  Br  Br10  1  0.258277  0.083952  0.449172  1
  Br  Br11  1  0.916529  0.624030  0.168581  1
  Br  Br12  1  0.083471  0.375970  0.831419  1
  Br  Br13  1  0.552985  0.176114  0.917715  1
  Br  Br14  1  0.447015  0.823886  0.082285  1
  Br  Br15  1  0.220002  0.738717  0.658480  1
  Br  Br16  1  0.779998  0.261283  0.341520  1
