# generated using pymatgen
data_Nd3Dy(P3Rh4)2
_symmetry_space_group_name_H-M   'P 1'
_cell_length_a   4.02159800
_cell_length_b   11.42307200
_cell_length_c   13.17364700
_cell_angle_alpha   90.00000000
_cell_angle_beta   90.00000000
_cell_angle_gamma   90.00000000
_symmetry_Int_Tables_number   1
_chemical_formula_structural   Nd3Dy(P3Rh4)2
_chemical_formula_sum   'Nd6 Dy2 P12 Rh16'
_cell_volume   605.18421576
_cell_formula_units_Z   2
loop_
 _symmetry_equiv_pos_site_id
 _symmetry_equiv_pos_as_xyz
  1  'x, y, z'
loop_
 _atom_site_type_symbol
 _atom_site_label
 _atom_site_symmetry_multiplicity
 _atom_site_fract_x
 _atom_site_fract_y
 _atom_site_fract_z
 _atom_site_occupancy
  Nd  Nd0  1  0.000000  0.500000  0.523233  1
  Nd  Nd1  1  0.500000  0.000000  0.476767  1
  Nd  Nd2  1  0.500000  0.821672  0.204910  1
  Nd  Nd3  1  0.500000  0.178328  0.204910  1
  Nd  Nd4  1  0.000000  0.678328  0.795090  1
  Nd  Nd5  1  0.000000  0.321672  0.795090  1
  Dy  Dy6  1  0.500000  0.500000  0.159255  1
  Dy  Dy7  1  0.000000  0.000000  0.840745  1
  P  P8  1  0.500000  0.500000  0.883641  1
  P  P9  1  0.000000  0.000000  0.116359  1
  P  P10  1  0.500000  0.500000  0.362622  1
  P  P11  1  0.000000  0.000000  0.637378  1
  P  P12  1  0.500000  0.309116  0.614925  1
  P  P13  1  0.500000  0.690884  0.614925  1
  P  P14  1  0.000000  0.190884  0.385075  1
  P  P15  1  0.000000  0.809116  0.385075  1
  P  P16  1  0.500000  0.839250  0.891285  1
  P  P17  1  0.500000  0.160750  0.891285  1
  P  P18  1  0.000000  0.660750  0.108715  1
  P  P19  1  0.000000  0.339250  0.108715  1
  Rh  Rh20  1  0.500000  0.500000  0.703291  1
  Rh  Rh21  1  0.000000  0.000000  0.296709  1
  Rh  Rh22  1  0.000000  0.500000  0.985267  1
  Rh  Rh23  1  0.500000  0.000000  0.014733  1
  Rh  Rh24  1  0.500000  0.331074  0.991456  1
  Rh  Rh25  1  0.500000  0.668926  0.991456  1
  Rh  Rh26  1  0.000000  0.168926  0.008544  1
  Rh  Rh27  1  0.000000  0.831074  0.008544  1
  Rh  Rh28  1  0.500000  0.290650  0.432989  1
  Rh  Rh29  1  0.500000  0.709350  0.432989  1
  Rh  Rh30  1  0.000000  0.209350  0.567011  1
  Rh  Rh31  1  0.000000  0.790650  0.567011  1
  Rh  Rh32  1  0.500000  0.874259  0.703443  1
  Rh  Rh33  1  0.500000  0.125741  0.703443  1
  Rh  Rh34  1  0.000000  0.625741  0.296557  1
  Rh  Rh35  1  0.000000  0.374259  0.296557  1
