# generated using pymatgen
data_Y2Ho2Si4TcRh3
_symmetry_space_group_name_H-M   'P 1'
_cell_length_a   4.31960900
_cell_length_b   6.96162185
_cell_length_c   7.26936888
_cell_angle_alpha   89.89754395
_cell_angle_beta   90.00000000
_cell_angle_gamma   90.00000000
_symmetry_Int_Tables_number   1
_chemical_formula_structural   Y2Ho2Si4TcRh3
_chemical_formula_sum   'Y2 Ho2 Si4 Tc1 Rh3'
_cell_volume   218.60036338
_cell_formula_units_Z   1
loop_
 _symmetry_equiv_pos_site_id
 _symmetry_equiv_pos_as_xyz
  1  'x, y, z'
loop_
 _atom_site_type_symbol
 _atom_site_label
 _atom_site_symmetry_multiplicity
 _atom_site_fract_x
 _atom_site_fract_y
 _atom_site_fract_z
 _atom_site_occupancy
  Y  Y0  1  0.750000  0.512407  0.311339  1
  Y  Y1  1  0.750000  0.005034  0.184410  1
  Ho  Ho2  1  0.250000  0.490957  0.691456  1
  Ho  Ho3  1  0.250000  0.994974  0.813363  1
  Si  Si4  1  0.250000  0.299602  0.108785  1
  Si  Si5  1  0.750000  0.700317  0.885810  1
  Si  Si6  1  0.250000  0.799037  0.402442  1
  Si  Si7  1  0.750000  0.198978  0.603602  1
  Tc  Tc8  1  0.750000  0.846403  0.569696  1
  Rh  Rh9  1  0.250000  0.155544  0.431787  1
  Rh  Rh10  1  0.750000  0.343862  0.931485  1
  Rh  Rh11  1  0.250000  0.652883  0.065826  1
