# generated using pymatgen
data_Zr9Sc(CdBi3)2
_symmetry_space_group_name_H-M   'P 1'
_cell_length_a   8.97904777
_cell_length_b   8.97904677
_cell_length_c   6.01080900
_cell_angle_alpha   90.00000000
_cell_angle_beta   90.00000000
_cell_angle_gamma   120.07197916
_symmetry_Int_Tables_number   1
_chemical_formula_structural   Zr9Sc(CdBi3)2
_chemical_formula_sum   'Zr9 Sc1 Cd2 Bi6'
_cell_volume   419.38087383
_cell_formula_units_Z   1
loop_
 _symmetry_equiv_pos_site_id
 _symmetry_equiv_pos_as_xyz
  1  'x, y, z'
loop_
 _atom_site_type_symbol
 _atom_site_label
 _atom_site_symmetry_multiplicity
 _atom_site_fract_x
 _atom_site_fract_y
 _atom_site_fract_z
 _atom_site_occupancy
  Zr  Zr0  1  0.667131  0.332612  0.999881  1
  Zr  Zr1  1  0.332612  0.667131  0.999881  1
  Zr  Zr2  1  0.332612  0.667131  0.500119  1
  Zr  Zr3  1  0.667131  0.332612  0.500119  1
  Zr  Zr4  1  0.280242  0.999439  0.750000  1
  Zr  Zr5  1  0.999439  0.280242  0.750000  1
  Zr  Zr6  1  0.281373  0.281373  0.250000  1
  Zr  Zr7  1  0.719444  0.999749  0.250000  1
  Zr  Zr8  1  0.999749  0.719444  0.250000  1
  Sc  Sc9  1  0.720103  0.720103  0.750000  1
  Cd  Cd10  1  0.999246  0.999246  0.998786  1
  Cd  Cd11  1  0.999246  0.999246  0.501214  1
  Bi  Bi12  1  0.381000  0.381000  0.750000  1
  Bi  Bi13  1  0.620412  0.999641  0.750000  1
  Bi  Bi14  1  0.999641  0.620412  0.750000  1
  Bi  Bi15  1  0.620496  0.620496  0.250000  1
  Bi  Bi16  1  0.380235  0.999891  0.250000  1
  Bi  Bi17  1  0.999891  0.380235  0.250000  1
