# generated using pymatgen
data_Tb3Co7NiP6W
_symmetry_space_group_name_H-M   'P 1'
_cell_length_a   3.74513400
_cell_length_b   10.56298800
_cell_length_c   12.27497500
_cell_angle_alpha   90.00000000
_cell_angle_beta   90.00000000
_cell_angle_gamma   90.00000000
_symmetry_Int_Tables_number   1
_chemical_formula_structural   Tb3Co7NiP6W
_chemical_formula_sum   'Tb6 Co14 Ni2 P12 W2'
_cell_volume   485.59562352
_cell_formula_units_Z   2
loop_
 _symmetry_equiv_pos_site_id
 _symmetry_equiv_pos_as_xyz
  1  'x, y, z'
loop_
 _atom_site_type_symbol
 _atom_site_label
 _atom_site_symmetry_multiplicity
 _atom_site_fract_x
 _atom_site_fract_y
 _atom_site_fract_z
 _atom_site_occupancy
  Tb  Tb0  1  0.000000  0.500000  0.522856  1
  Tb  Tb1  1  0.500000  0.000000  0.477144  1
  Tb  Tb2  1  0.500000  0.818269  0.204612  1
  Tb  Tb3  1  0.500000  0.181731  0.204612  1
  Tb  Tb4  1  0.000000  0.681731  0.795388  1
  Tb  Tb5  1  0.000000  0.318269  0.795388  1
  Co  Co6  1  0.000000  0.500000  0.987606  1
  Co  Co7  1  0.500000  0.000000  0.012394  1
  Co  Co8  1  0.500000  0.332714  0.990614  1
  Co  Co9  1  0.500000  0.667286  0.990614  1
  Co  Co10  1  0.000000  0.167286  0.009386  1
  Co  Co11  1  0.000000  0.832714  0.009386  1
  Co  Co12  1  0.500000  0.296749  0.431677  1
  Co  Co13  1  0.500000  0.703251  0.431677  1
  Co  Co14  1  0.000000  0.203251  0.568323  1
  Co  Co15  1  0.000000  0.796749  0.568323  1
  Co  Co16  1  0.500000  0.878727  0.708403  1
  Co  Co17  1  0.500000  0.121273  0.708403  1
  Co  Co18  1  0.000000  0.621273  0.291597  1
  Co  Co19  1  0.000000  0.378727  0.291597  1
  Ni  Ni20  1  0.500000  0.500000  0.701500  1
  Ni  Ni21  1  0.000000  0.000000  0.298500  1
  P  P22  1  0.500000  0.500000  0.882170  1
  P  P23  1  0.000000  0.000000  0.117830  1
  P  P24  1  0.500000  0.500000  0.349270  1
  P  P25  1  0.000000  0.000000  0.650730  1
  P  P26  1  0.500000  0.309875  0.615204  1
  P  P27  1  0.500000  0.690125  0.615204  1
  P  P28  1  0.000000  0.190125  0.384796  1
  P  P29  1  0.000000  0.809875  0.384796  1
  P  P30  1  0.500000  0.844460  0.893117  1
  P  P31  1  0.500000  0.155540  0.893117  1
  P  P32  1  0.000000  0.655540  0.106883  1
  P  P33  1  0.000000  0.344460  0.106883  1
  W  W34  1  0.500000  0.500000  0.155515  1
  W  W35  1  0.000000  0.000000  0.844485  1
