# generated using pymatgen
data_TbPrCo2(B4Os3)2
_symmetry_space_group_name_H-M   'P 1'
_cell_length_a   7.33036378
_cell_length_b   7.55621978
_cell_length_c   3.98790400
_cell_angle_alpha   90.00000000
_cell_angle_beta   90.00000000
_cell_angle_gamma   87.93072672
_symmetry_Int_Tables_number   1
_chemical_formula_structural   TbPrCo2(B4Os3)2
_chemical_formula_sum   'Tb1 Pr1 Co2 B8 Os6'
_cell_volume   220.74532196
_cell_formula_units_Z   1
loop_
 _symmetry_equiv_pos_site_id
 _symmetry_equiv_pos_as_xyz
  1  'x, y, z'
loop_
 _atom_site_type_symbol
 _atom_site_label
 _atom_site_symmetry_multiplicity
 _atom_site_fract_x
 _atom_site_fract_y
 _atom_site_fract_z
 _atom_site_occupancy
  Tb  Tb0  1  0.500000  0.500000  0.595446  1
  Pr  Pr1  1  0.000000  0.000000  0.026462  1
  Co  Co2  1  0.613135  0.869661  0.881528  1
  Co  Co3  1  0.386865  0.130339  0.881528  1
  B  B4  1  0.336197  0.792371  0.882046  1
  B  B5  1  0.663803  0.207629  0.882046  1
  B  B6  1  0.312131  0.159272  0.382296  1
  B  B7  1  0.687869  0.840728  0.382296  1
  B  B8  1  0.166478  0.717038  0.602844  1
  B  B9  1  0.833522  0.282962  0.602844  1
  B  B10  1  0.229028  0.326438  0.101776  1
  B  B11  1  0.770972  0.673562  0.101776  1
  Os  Os12  1  0.845519  0.398395  0.104389  1
  Os  Os13  1  0.154481  0.601605  0.104389  1
  Os  Os14  1  0.886329  0.651872  0.604086  1
  Os  Os15  1  0.113671  0.348128  0.604086  1
  Os  Os16  1  0.628710  0.119755  0.380083  1
  Os  Os17  1  0.371290  0.880245  0.380083  1
