# generated using pymatgen
data_TbY14Pa(CdIr)4
_symmetry_space_group_name_H-M   'P 1'
_cell_length_a   9.70203315
_cell_length_b   9.70194005
_cell_length_c   9.70414893
_cell_angle_alpha   59.61305819
_cell_angle_beta   59.61309705
_cell_angle_gamma   59.60487997
_symmetry_Int_Tables_number   1
_chemical_formula_structural   TbY14Pa(CdIr)4
_chemical_formula_sum   'Tb1 Y14 Pa1 Cd4 Ir4'
_cell_volume   640.17780814
_cell_formula_units_Z   1
loop_
 _symmetry_equiv_pos_site_id
 _symmetry_equiv_pos_as_xyz
  1  'x, y, z'
loop_
 _atom_site_type_symbol
 _atom_site_label
 _atom_site_symmetry_multiplicity
 _atom_site_fract_x
 _atom_site_fract_y
 _atom_site_fract_z
 _atom_site_occupancy
  Tb  Tb0  1  0.350313  0.350318  0.948896  1
  Y  Y1  1  0.350754  0.947919  0.350749  1
  Y  Y2  1  0.947915  0.350760  0.350756  1
  Y  Y3  1  0.810935  0.190271  0.190212  1
  Y  Y4  1  0.189650  0.811037  0.810962  1
  Y  Y5  1  0.190273  0.810934  0.190211  1
  Y  Y6  1  0.811040  0.189645  0.810961  1
  Y  Y7  1  0.190157  0.190153  0.811004  1
  Y  Y8  1  0.811021  0.811016  0.189583  1
  Y  Y9  1  0.940930  0.562644  0.562761  1
  Y  Y10  1  0.561863  0.938316  0.938148  1
  Y  Y11  1  0.562646  0.940924  0.562762  1
  Y  Y12  1  0.938312  0.561862  0.938146  1
  Y  Y13  1  0.562660  0.562661  0.940817  1
  Y  Y14  1  0.938182  0.938183  0.561875  1
  Pa  Pa15  1  0.342166  0.342163  0.342421  1
  Cd  Cd16  1  0.579515  0.579508  0.579225  1
  Cd  Cd17  1  0.578799  0.578797  0.256134  1
  Cd  Cd18  1  0.578843  0.256103  0.578648  1
  Cd  Cd19  1  0.256098  0.578843  0.578650  1
  Ir  Ir20  1  0.142762  0.142773  0.142481  1
  Ir  Ir21  1  0.147789  0.147792  0.569609  1
  Ir  Ir22  1  0.148099  0.569278  0.147496  1
  Ir  Ir23  1  0.569278  0.148100  0.147492  1
