# generated using pymatgen
data_Lu2AlRu2
_symmetry_space_group_name_H-M   'P 1'
_cell_length_a   5.44751914
_cell_length_b   5.44751852
_cell_length_c   5.44751858
_cell_angle_alpha   136.46026852
_cell_angle_beta   116.33656192
_cell_angle_gamma   80.29705198
_symmetry_Int_Tables_number   1
_chemical_formula_structural   Lu2AlRu2
_chemical_formula_sum   'Lu2 Al1 Ru2'
_cell_volume   96.68464170
_cell_formula_units_Z   1
loop_
 _symmetry_equiv_pos_site_id
 _symmetry_equiv_pos_as_xyz
  1  'x, y, z'
loop_
 _atom_site_type_symbol
 _atom_site_label
 _atom_site_symmetry_multiplicity
 _atom_site_fract_x
 _atom_site_fract_y
 _atom_site_fract_z
 _atom_site_occupancy
  Lu  Lu0  1  0.703653  0.203653  0.500000  1
  Lu  Lu1  1  0.296348  0.796347  0.499999  1
  Al  Al2  1  0.000000  0.000000  0.000000  1
  Ru  Ru3  1  0.729558  0.500000  0.229558  1
  Ru  Ru4  1  0.270442  0.499999  0.770441  1
