# generated using pymatgen
data_Pr4CdHg(PdAu)2
_symmetry_space_group_name_H-M   'P 1'
_cell_length_a   8.02231518
_cell_length_b   8.08959018
_cell_length_c   3.92305900
_cell_angle_alpha   90.00000000
_cell_angle_beta   90.00000000
_cell_angle_gamma   89.97598155
_symmetry_Int_Tables_number   1
_chemical_formula_structural   Pr4CdHg(PdAu)2
_chemical_formula_sum   'Pr4 Cd1 Hg1 Pd2 Au2'
_cell_volume   254.59568714
_cell_formula_units_Z   1
loop_
 _symmetry_equiv_pos_site_id
 _symmetry_equiv_pos_as_xyz
  1  'x, y, z'
loop_
 _atom_site_type_symbol
 _atom_site_label
 _atom_site_symmetry_multiplicity
 _atom_site_fract_x
 _atom_site_fract_y
 _atom_site_fract_z
 _atom_site_occupancy
  Pr  Pr0  1  0.324084  0.818952  0.500000  1
  Pr  Pr1  1  0.830118  0.687656  0.500000  1
  Pr  Pr2  1  0.175501  0.334546  0.500000  1
  Pr  Pr3  1  0.680677  0.160686  0.500000  1
  Cd  Cd4  1  0.499476  0.504749  0.000000  1
  Hg  Hg5  1  0.996886  0.993076  0.000000  1
  Pd  Pd6  1  0.127044  0.623198  0.000000  1
  Pd  Pd7  1  0.619309  0.868521  0.000000  1
  Au  Au8  1  0.377881  0.124650  0.000000  1
  Au  Au9  1  0.869024  0.383965  0.000000  1
