# generated using pymatgen
data_DyZn6(Ga2Cu)2
_symmetry_space_group_name_H-M   'P 1'
_cell_length_a   6.73197235
_cell_length_b   6.73659811
_cell_length_c   6.73659800
_cell_angle_alpha   98.73937160
_cell_angle_beta   99.06670678
_cell_angle_gamma   133.71392829
_symmetry_Int_Tables_number   1
_chemical_formula_structural   DyZn6(Ga2Cu)2
_chemical_formula_sum   'Dy1 Zn6 Ga4 Cu2'
_cell_volume   202.98003119
_cell_formula_units_Z   1
loop_
 _symmetry_equiv_pos_site_id
 _symmetry_equiv_pos_as_xyz
  1  'x, y, z'
loop_
 _atom_site_type_symbol
 _atom_site_label
 _atom_site_symmetry_multiplicity
 _atom_site_fract_x
 _atom_site_fract_y
 _atom_site_fract_z
 _atom_site_occupancy
  Dy  Dy0  1  0.000000  0.000000  0.000000  1
  Zn  Zn1  1  0.000000  0.000000  0.500000  1
  Zn  Zn2  1  0.000000  0.500000  0.000000  1
  Zn  Zn3  1  0.500000  0.287006  0.787006  1
  Zn  Zn4  1  0.500000  0.712994  0.212994  1
  Zn  Zn5  1  0.704228  0.491887  0.212341  1
  Zn  Zn6  1  0.295772  0.508113  0.787659  1
  Ga  Ga7  1  0.000000  0.349365  0.349365  1
  Ga  Ga8  1  0.000000  0.650635  0.650635  1
  Ga  Ga9  1  0.634845  0.984381  0.650466  1
  Ga  Ga10  1  0.365155  0.015619  0.349534  1
  Cu  Cu11  1  0.500000  0.500000  0.500000  1
  Cu  Cu12  1  0.500000  0.000000  0.000000  1
