# generated using pymatgen
data_Pr16Y3HoSn16
_symmetry_space_group_name_H-M   'P 1'
_cell_length_a   8.28695425
_cell_length_b   8.45321459
_cell_length_c   16.04508600
_cell_angle_alpha   90.00000000
_cell_angle_beta   90.00000000
_cell_angle_gamma   89.99265841
_symmetry_Int_Tables_number   1
_chemical_formula_structural   Pr16Y3HoSn16
_chemical_formula_sum   'Pr16 Y3 Ho1 Sn16'
_cell_volume   1123.98076957
_cell_formula_units_Z   1
loop_
 _symmetry_equiv_pos_site_id
 _symmetry_equiv_pos_as_xyz
  1  'x, y, z'
loop_
 _atom_site_type_symbol
 _atom_site_label
 _atom_site_symmetry_multiplicity
 _atom_site_fract_x
 _atom_site_fract_y
 _atom_site_fract_z
 _atom_site_occupancy
  Pr  Pr0  1  0.367238  0.837107  0.879413  1
  Pr  Pr1  1  0.867820  0.662509  0.620727  1
  Pr  Pr2  1  0.632809  0.162488  0.379393  1
  Pr  Pr3  1  0.132749  0.337355  0.120978  1
  Pr  Pr4  1  0.632809  0.162488  0.120607  1
  Pr  Pr5  1  0.132749  0.337355  0.379022  1
  Pr  Pr6  1  0.367238  0.837107  0.620587  1
  Pr  Pr7  1  0.867820  0.662509  0.879273  1
  Pr  Pr8  1  0.519114  0.319438  0.901418  1
  Pr  Pr9  1  0.019559  0.180751  0.598495  1
  Pr  Pr10  1  0.480396  0.680615  0.401096  1
  Pr  Pr11  1  0.980479  0.819328  0.098604  1
  Pr  Pr12  1  0.480396  0.680615  0.098904  1
  Pr  Pr13  1  0.980479  0.819328  0.401396  1
  Pr  Pr14  1  0.519114  0.319438  0.598582  1
  Pr  Pr15  1  0.019559  0.180751  0.901505  1
  Y  Y16  1  0.699086  0.998380  0.750000  1
  Y  Y17  1  0.800811  0.498776  0.250000  1
  Y  Y18  1  0.300677  0.001196  0.250000  1
  Ho  Ho19  1  0.199390  0.501293  0.750000  1
  Sn  Sn20  1  0.292144  0.034156  0.044280  1
  Sn  Sn21  1  0.792338  0.465922  0.455783  1
  Sn  Sn22  1  0.707764  0.965957  0.544227  1
  Sn  Sn23  1  0.207633  0.534580  0.956205  1
  Sn  Sn24  1  0.707764  0.965957  0.955773  1
  Sn  Sn25  1  0.207633  0.534580  0.543795  1
  Sn  Sn26  1  0.292144  0.034156  0.455720  1
  Sn  Sn27  1  0.792338  0.465922  0.044217  1
  Sn  Sn28  1  0.564858  0.616516  0.750000  1
  Sn  Sn29  1  0.064731  0.884166  0.750000  1
  Sn  Sn30  1  0.435574  0.383661  0.250000  1
  Sn  Sn31  1  0.935077  0.115902  0.250000  1
  Sn  Sn32  1  0.325719  0.146044  0.750000  1
  Sn  Sn33  1  0.825062  0.353261  0.750000  1
  Sn  Sn34  1  0.674588  0.853778  0.250000  1
  Sn  Sn35  1  0.174342  0.646613  0.250000  1
