# generated using pymatgen
data_Li2HoEr3As4
_symmetry_space_group_name_H-M   'P 1'
_cell_length_a   4.14874700
_cell_length_b   4.14874599
_cell_length_c   14.00563400
_cell_angle_alpha   90.00000000
_cell_angle_beta   90.00000000
_cell_angle_gamma   119.99998410
_symmetry_Int_Tables_number   1
_chemical_formula_structural   Li2HoEr3As4
_chemical_formula_sum   'Li2 Ho1 Er3 As4'
_cell_volume   208.76960606
_cell_formula_units_Z   1
loop_
 _symmetry_equiv_pos_site_id
 _symmetry_equiv_pos_as_xyz
  1  'x, y, z'
loop_
 _atom_site_type_symbol
 _atom_site_label
 _atom_site_symmetry_multiplicity
 _atom_site_fract_x
 _atom_site_fract_y
 _atom_site_fract_z
 _atom_site_occupancy
  Li  Li0  1  0.000000  0.000000  0.249879  1
  Li  Li1  1  0.000000  0.000000  0.749973  1
  Ho  Ho2  1  0.333333  0.666667  0.389412  1
  Er  Er3  1  0.666667  0.333333  0.610553  1
  Er  Er4  1  0.666667  0.333333  0.889458  1
  Er  Er5  1  0.333333  0.666667  0.110505  1
  As  As6  1  0.000000  0.000000  0.500480  1
  As  As7  1  0.000000  0.000000  0.999999  1
  As  As8  1  0.333333  0.666667  0.750075  1
  As  As9  1  0.666667  0.333333  0.249665  1
