# generated using pymatgen
data_Lu2Sc2CrB12Rh
_symmetry_space_group_name_H-M   'P 1'
_cell_length_a   3.47535600
_cell_length_b   8.93547025
_cell_length_c   11.29611467
_cell_angle_alpha   89.89775934
_cell_angle_beta   90.00000000
_cell_angle_gamma   90.00000000
_symmetry_Int_Tables_number   1
_chemical_formula_structural   Lu2Sc2CrB12Rh
_chemical_formula_sum   'Lu4 Sc4 Cr2 B24 Rh2'
_cell_volume   350.78831053
_cell_formula_units_Z   2
loop_
 _symmetry_equiv_pos_site_id
 _symmetry_equiv_pos_as_xyz
  1  'x, y, z'
loop_
 _atom_site_type_symbol
 _atom_site_label
 _atom_site_symmetry_multiplicity
 _atom_site_fract_x
 _atom_site_fract_y
 _atom_site_fract_z
 _atom_site_occupancy
  Lu  Lu0  1  0.000000  0.815441  0.088817  1
  Lu  Lu1  1  0.000000  0.184559  0.911183  1
  Lu  Lu2  1  0.000000  0.324585  0.417071  1
  Lu  Lu3  1  0.000000  0.675415  0.582929  1
  Sc  Sc4  1  0.000000  0.447962  0.128400  1
  Sc  Sc5  1  0.000000  0.552038  0.871600  1
  Sc  Sc6  1  0.000000  0.940291  0.374040  1
  Sc  Sc7  1  0.000000  0.059709  0.625960  1
  Cr  Cr8  1  0.000000  0.640252  0.317991  1
  Cr  Cr9  1  0.000000  0.359748  0.682009  1
  B  B10  1  0.500000  0.054128  0.065479  1
  B  B11  1  0.500000  0.945872  0.934521  1
  B  B12  1  0.500000  0.553507  0.432941  1
  B  B13  1  0.500000  0.446493  0.567059  1
  B  B14  1  0.500000  0.254003  0.079349  1
  B  B15  1  0.500000  0.745997  0.920651  1
  B  B16  1  0.500000  0.750931  0.419109  1
  B  B17  1  0.500000  0.249069  0.580891  1
  B  B18  1  0.500000  0.294622  0.236053  1
  B  B19  1  0.500000  0.705378  0.763947  1
  B  B20  1  0.500000  0.793927  0.264993  1
  B  B21  1  0.500000  0.206073  0.735007  1
  B  B22  1  0.500000  0.129358  0.318575  1
  B  B23  1  0.500000  0.870642  0.681425  1
  B  B24  1  0.500000  0.629346  0.183446  1
  B  B25  1  0.500000  0.370654  0.816554  1
  B  B26  1  0.500000  0.480778  0.286974  1
  B  B27  1  0.500000  0.519222  0.713026  1
  B  B28  1  0.500000  0.979758  0.213993  1
  B  B29  1  0.500000  0.020242  0.786007  1
  B  B30  1  0.500000  0.100702  0.472449  1
  B  B31  1  0.500000  0.899298  0.527551  1
  B  B32  1  0.500000  0.600460  0.026994  1
  B  B33  1  0.500000  0.399540  0.973006  1
  Rh  Rh34  1  0.000000  0.139359  0.180125  1
  Rh  Rh35  1  0.000000  0.860641  0.819875  1
