# generated using pymatgen
data_Tm4Al18PtRh5
_symmetry_space_group_name_H-M   'P 1'
_cell_length_a   7.54176641
_cell_length_b   7.54176666
_cell_length_c   9.42778525
_cell_angle_alpha   89.98677317
_cell_angle_beta   89.98677542
_cell_angle_gamma   119.48374451
_symmetry_Int_Tables_number   1
_chemical_formula_structural   Tm4Al18PtRh5
_chemical_formula_sum   'Tm4 Al18 Pt1 Rh5'
_cell_volume   466.79077903
_cell_formula_units_Z   1
loop_
 _symmetry_equiv_pos_site_id
 _symmetry_equiv_pos_as_xyz
  1  'x, y, z'
loop_
 _atom_site_type_symbol
 _atom_site_label
 _atom_site_symmetry_multiplicity
 _atom_site_fract_x
 _atom_site_fract_y
 _atom_site_fract_z
 _atom_site_occupancy
  Tm  Tm0  1  0.994135  0.670076  0.250217  1
  Tm  Tm1  1  0.004060  0.328354  0.750087  1
  Tm  Tm2  1  0.671646  0.995940  0.249913  1
  Tm  Tm3  1  0.329924  0.005865  0.749783  1
  Al  Al4  1  0.126613  0.125848  0.250298  1
  Al  Al5  1  0.874152  0.873387  0.749702  1
  Al  Al6  1  0.004063  0.335470  0.077127  1
  Al  Al7  1  0.003291  0.668414  0.922878  1
  Al  Al8  1  0.001048  0.664896  0.575491  1
  Al  Al9  1  0.335104  0.998952  0.424509  1
  Al  Al10  1  0.000495  0.335042  0.424207  1
  Al  Al11  1  0.664958  0.999505  0.575793  1
  Al  Al12  1  0.664530  0.995937  0.922873  1
  Al  Al13  1  0.331586  0.996709  0.077122  1
  Al  Al14  1  0.332091  0.332002  0.551604  1
  Al  Al15  1  0.667998  0.667909  0.448396  1
  Al  Al16  1  0.666938  0.670234  0.054391  1
  Al  Al17  1  0.329766  0.333062  0.945609  1
  Al  Al18  1  0.340267  0.551335  0.250415  1
  Al  Al19  1  0.660232  0.453011  0.746764  1
  Al  Al20  1  0.546989  0.339768  0.253236  1
  Al  Al21  1  0.448665  0.659733  0.749585  1
  Pt  Pt22  1  0.672504  0.327496  0.000000  1
  Rh  Rh23  1  0.327970  0.672030  0.000000  1
  Rh  Rh24  1  0.328162  0.671838  0.500000  1
  Rh  Rh25  1  0.672669  0.327331  0.500000  1
  Rh  Rh26  1  0.999967  0.000033  0.000000  1
  Rh  Rh27  1  0.000177  0.999823  0.500000  1
