# generated using pymatgen
data_Ho19InIr12
_symmetry_space_group_name_H-M   'P 1'
_cell_length_a   10.82725500
_cell_length_b   10.82725500
_cell_length_c   6.30158100
_cell_angle_alpha   90.00000000
_cell_angle_beta   90.00000000
_cell_angle_gamma   90.00000000
_symmetry_Int_Tables_number   1
_chemical_formula_structural   Ho19InIr12
_chemical_formula_sum   'Ho19 In1 Ir12'
_cell_volume   738.73088002
_cell_formula_units_Z   1
loop_
 _symmetry_equiv_pos_site_id
 _symmetry_equiv_pos_as_xyz
  1  'x, y, z'
loop_
 _atom_site_type_symbol
 _atom_site_label
 _atom_site_symmetry_multiplicity
 _atom_site_fract_x
 _atom_site_fract_y
 _atom_site_fract_z
 _atom_site_occupancy
  Ho  Ho0  1  0.284805  0.085280  0.379227  1
  Ho  Ho1  1  0.290859  0.911577  0.879587  1
  Ho  Ho2  1  0.709141  0.088423  0.879587  1
  Ho  Ho3  1  0.715195  0.914720  0.379227  1
  Ho  Ho4  1  0.588145  0.791689  0.880403  1
  Ho  Ho5  1  0.588205  0.208067  0.377083  1
  Ho  Ho6  1  0.411795  0.791933  0.377083  1
  Ho  Ho7  1  0.411855  0.208311  0.880403  1
  Ho  Ho8  1  0.208067  0.411795  0.622917  1
  Ho  Ho9  1  0.208311  0.588145  0.119597  1
  Ho  Ho10  1  0.791689  0.411855  0.119597  1
  Ho  Ho11  1  0.791933  0.588205  0.622917  1
  Ho  Ho12  1  0.911577  0.709141  0.120413  1
  Ho  Ho13  1  0.914720  0.284805  0.620773  1
  Ho  Ho14  1  0.085280  0.715195  0.620773  1
  Ho  Ho15  1  0.088423  0.290859  0.120413  1
  Ho  Ho16  1  0.000000  0.000000  0.000000  1
  Ho  Ho17  1  0.500000  0.500000  0.000000  1
  Ho  Ho18  1  0.500000  0.500000  0.500000  1
  In  In19  1  0.000000  0.000000  0.500000  1
  Ir  Ir20  1  0.845388  0.155711  0.246109  1
  Ir  Ir21  1  0.844289  0.845388  0.753891  1
  Ir  Ir22  1  0.155711  0.154612  0.753891  1
  Ir  Ir23  1  0.154612  0.844289  0.246109  1
  Ir  Ir24  1  0.654487  0.346403  0.747693  1
  Ir  Ir25  1  0.653597  0.654487  0.252307  1
  Ir  Ir26  1  0.346403  0.345513  0.252307  1
  Ir  Ir27  1  0.345513  0.653597  0.747693  1
  Ir  Ir28  1  0.500000  0.000000  0.124180  1
  Ir  Ir29  1  0.500000  0.000000  0.620589  1
  Ir  Ir30  1  0.000000  0.500000  0.875820  1
  Ir  Ir31  1  0.000000  0.500000  0.379411  1
