# generated using pymatgen
data_Tb2DySn3HgRh2
_symmetry_space_group_name_H-M   'P 1'
_cell_length_a   7.72121001
_cell_length_b   7.72610605
_cell_length_c   3.93313400
_cell_angle_alpha   90.00000000
_cell_angle_beta   90.00000000
_cell_angle_gamma   119.97232944
_symmetry_Int_Tables_number   1
_chemical_formula_structural   Tb2DySn3HgRh2
_chemical_formula_sum   'Tb2 Dy1 Sn3 Hg1 Rh2'
_cell_volume   203.25275008
_cell_formula_units_Z   1
loop_
 _symmetry_equiv_pos_site_id
 _symmetry_equiv_pos_as_xyz
  1  'x, y, z'
loop_
 _atom_site_type_symbol
 _atom_site_label
 _atom_site_symmetry_multiplicity
 _atom_site_fract_x
 _atom_site_fract_y
 _atom_site_fract_z
 _atom_site_occupancy
  Tb  Tb0  1  0.391262  0.412138  0.500000  1
  Tb  Tb1  1  0.587809  0.979302  0.500000  1
  Dy  Dy2  1  0.021171  0.608999  0.500000  1
  Sn  Sn3  1  0.743740  0.751036  0.000000  1
  Sn  Sn4  1  0.248739  0.992209  0.000000  1
  Sn  Sn5  1  0.007572  0.256595  0.000000  1
  Hg  Hg6  1  0.667080  0.333665  0.000000  1
  Rh  Rh7  1  0.332688  0.666394  0.000000  1
  Rh  Rh8  1  0.999938  0.999662  0.500000  1
