# generated using pymatgen
data_Nb6Fe3Si3C
_symmetry_space_group_name_H-M   'P 1'
_cell_length_a   8.00472923
_cell_length_b   8.00476127
_cell_length_c   7.95036116
_cell_angle_alpha   60.20559456
_cell_angle_beta   60.20558343
_cell_angle_gamma   60.12873331
_symmetry_Int_Tables_number   1
_chemical_formula_structural   Nb6Fe3Si3C
_chemical_formula_sum   'Nb12 Fe6 Si6 C2'
_cell_volume   361.68695055
_cell_formula_units_Z   2
loop_
 _symmetry_equiv_pos_site_id
 _symmetry_equiv_pos_as_xyz
  1  'x, y, z'
loop_
 _atom_site_type_symbol
 _atom_site_label
 _atom_site_symmetry_multiplicity
 _atom_site_fract_x
 _atom_site_fract_y
 _atom_site_fract_z
 _atom_site_occupancy
  Nb  Nb0  1  0.303165  0.697050  0.697103  1
  Nb  Nb1  1  0.302948  0.302953  0.699191  1
  Nb  Nb2  1  0.553006  0.946478  0.553125  1
  Nb  Nb3  1  0.946477  0.553004  0.553122  1
  Nb  Nb4  1  0.553180  0.946697  0.947265  1
  Nb  Nb5  1  0.696845  0.303538  0.302681  1
  Nb  Nb6  1  0.946703  0.553165  0.947265  1
  Nb  Nb7  1  0.303541  0.696845  0.302675  1
  Nb  Nb8  1  0.553638  0.553641  0.945562  1
  Nb  Nb9  1  0.697036  0.303169  0.697112  1
  Nb  Nb10  1  0.696383  0.696380  0.302852  1
  Nb  Nb11  1  0.947041  0.947033  0.555412  1
  Fe  Fe12  1  0.327683  0.327645  0.017834  1
  Fe  Fe13  1  0.127227  0.127240  0.619656  1
  Fe  Fe14  1  0.922420  0.922450  0.923127  1
  Fe  Fe15  1  0.125007  0.624954  0.123304  1
  Fe  Fe16  1  0.123002  0.123005  0.123989  1
  Fe  Fe17  1  0.624960  0.125021  0.123326  1
  Si  Si18  1  0.918750  0.246236  0.914220  1
  Si  Si19  1  0.331248  0.003657  0.329671  1
  Si  Si20  1  0.333546  0.333528  0.330196  1
  Si  Si21  1  0.003657  0.331221  0.329685  1
  Si  Si22  1  0.916315  0.916334  0.247257  1
  Si  Si23  1  0.246238  0.918774  0.914207  1
  C  C24  1  0.750910  0.750903  0.749144  1
  C  C25  1  0.499072  0.499079  0.501019  1
