# generated using pymatgen
data_TaTi(Be4Re)2
_symmetry_space_group_name_H-M   'P 1'
_cell_length_a   4.45515700
_cell_length_b   4.45515713
_cell_length_c   7.29669100
_cell_angle_alpha   90.00000000
_cell_angle_beta   90.00000000
_cell_angle_gamma   120.00000647
_symmetry_Int_Tables_number   1
_chemical_formula_structural   TaTi(Be4Re)2
_chemical_formula_sum   'Ta1 Ti1 Be8 Re2'
_cell_volume   125.42456328
_cell_formula_units_Z   1
loop_
 _symmetry_equiv_pos_site_id
 _symmetry_equiv_pos_as_xyz
  1  'x, y, z'
loop_
 _atom_site_type_symbol
 _atom_site_label
 _atom_site_symmetry_multiplicity
 _atom_site_fract_x
 _atom_site_fract_y
 _atom_site_fract_z
 _atom_site_occupancy
  Ta  Ta0  1  0.666667  0.333333  0.563676  1
  Ti  Ti1  1  0.333333  0.666667  0.065677  1
  Be  Be2  1  0.000000  0.000000  0.998799  1
  Be  Be3  1  0.000000  0.000000  0.494395  1
  Be  Be4  1  0.829823  0.659644  0.247477  1
  Be  Be5  1  0.169905  0.830095  0.753840  1
  Be  Be6  1  0.660191  0.830095  0.753840  1
  Be  Be7  1  0.340356  0.170177  0.247477  1
  Be  Be8  1  0.829823  0.170177  0.247477  1
  Be  Be9  1  0.169905  0.339809  0.753840  1
  Re  Re10  1  0.666667  0.333333  0.936128  1
  Re  Re11  1  0.333333  0.666667  0.437374  1
