# generated using pymatgen
data_HfZr4Sc3(V3Si4)4
_symmetry_space_group_name_H-M   'P 1'
_cell_length_a   6.62928337
_cell_length_b   6.62879571
_cell_length_c   12.28536863
_cell_angle_alpha   89.98210676
_cell_angle_beta   89.99844327
_cell_angle_gamma   89.97710211
_symmetry_Int_Tables_number   1
_chemical_formula_structural   HfZr4Sc3(V3Si4)4
_chemical_formula_sum   'Hf1 Zr4 Sc3 V12 Si16'
_cell_volume   539.87019847
_cell_formula_units_Z   1
loop_
 _symmetry_equiv_pos_site_id
 _symmetry_equiv_pos_as_xyz
  1  'x, y, z'
loop_
 _atom_site_type_symbol
 _atom_site_label
 _atom_site_symmetry_multiplicity
 _atom_site_fract_x
 _atom_site_fract_y
 _atom_site_fract_z
 _atom_site_occupancy
  Hf  Hf0  1  0.496539  0.161894  0.219674  1
  Zr  Zr1  1  0.002975  0.661221  0.030388  1
  Zr  Zr2  1  0.837524  0.502735  0.280765  1
  Zr  Zr3  1  0.161757  0.497106  0.780409  1
  Zr  Zr4  1  0.502553  0.838083  0.718932  1
  Sc  Sc5  1  0.998046  0.337690  0.529280  1
  Sc  Sc6  1  0.662553  0.001626  0.970854  1
  Sc  Sc7  1  0.337919  0.998404  0.470416  1
  V  V8  1  0.331646  0.333388  0.000329  1
  V  V9  1  0.167938  0.833230  0.249818  1
  V  V10  1  0.832715  0.167422  0.749913  1
  V  V11  1  0.667333  0.667136  0.499903  1
  V  V12  1  0.005487  0.159055  0.126565  1
  V  V13  1  0.342172  0.505344  0.375324  1
  V  V14  1  0.658688  0.494433  0.876048  1
  V  V15  1  0.505973  0.341991  0.624241  1
  V  V16  1  0.494272  0.658965  0.123812  1
  V  V17  1  0.994173  0.841299  0.627265  1
  V  V18  1  0.158356  0.005540  0.873321  1
  V  V19  1  0.840727  0.994277  0.372466  1
  Si  Si20  1  0.292983  0.961535  0.063905  1
  Si  Si21  1  0.537799  0.794048  0.315462  1
  Si  Si22  1  0.461278  0.207177  0.815422  1
  Si  Si23  1  0.792994  0.538612  0.684250  1
  Si  Si24  1  0.209366  0.459338  0.186074  1
  Si  Si25  1  0.708936  0.040339  0.563196  1
  Si  Si26  1  0.958087  0.288553  0.935870  1
  Si  Si27  1  0.040393  0.708878  0.436553  1
  Si  Si28  1  0.703226  0.370458  0.070608  1
  Si  Si29  1  0.128919  0.203086  0.320807  1
  Si  Si30  1  0.871148  0.796007  0.821104  1
  Si  Si31  1  0.204061  0.128327  0.678910  1
  Si  Si32  1  0.794220  0.874020  0.179514  1
  Si  Si33  1  0.295537  0.627814  0.569685  1
  Si  Si34  1  0.374166  0.705851  0.929168  1
  Si  Si35  1  0.627542  0.295116  0.429749  1
