# generated using pymatgen
data_NdSm11(Si7Br3)2
_symmetry_space_group_name_H-M   'P 1'
_cell_length_a   4.04647300
_cell_length_b   11.61412800
_cell_length_c   16.32153907
_cell_angle_alpha   90.15583014
_cell_angle_beta   90.00000000
_cell_angle_gamma   90.00000000
_symmetry_Int_Tables_number   1
_chemical_formula_structural   NdSm11(Si7Br3)2
_chemical_formula_sum   'Nd1 Sm11 Si14 Br6'
_cell_volume   767.04838159
_cell_formula_units_Z   1
loop_
 _symmetry_equiv_pos_site_id
 _symmetry_equiv_pos_as_xyz
  1  'x, y, z'
loop_
 _atom_site_type_symbol
 _atom_site_label
 _atom_site_symmetry_multiplicity
 _atom_site_fract_x
 _atom_site_fract_y
 _atom_site_fract_z
 _atom_site_occupancy
  Nd  Nd0  1  0.000000  0.935920  0.379685  1
  Sm  Sm1  1  0.500000  0.342874  0.499955  1
  Sm  Sm2  1  0.000000  0.657521  0.000271  1
  Sm  Sm3  1  0.500000  0.359629  0.757222  1
  Sm  Sm4  1  0.000000  0.640095  0.743305  1
  Sm  Sm5  1  0.500000  0.360314  0.242275  1
  Sm  Sm6  1  0.000000  0.639819  0.257277  1
  Sm  Sm7  1  0.500000  0.065566  0.880240  1
  Sm  Sm8  1  0.000000  0.934218  0.620364  1
  Sm  Sm9  1  0.500000  0.065740  0.119120  1
  Sm  Sm10  1  0.500000  0.355076  0.999870  1
  Sm  Sm11  1  0.000000  0.644021  0.500424  1
  Si  Si12  1  0.000000  0.148839  0.999757  1
  Si  Si13  1  0.500000  0.849946  0.500752  1
  Si  Si14  1  0.500000  0.569988  0.876386  1
  Si  Si15  1  0.000000  0.429761  0.624145  1
  Si  Si16  1  0.500000  0.570251  0.123683  1
  Si  Si17  1  0.000000  0.429496  0.376017  1
  Si  Si18  1  0.000000  0.252117  0.872189  1
  Si  Si19  1  0.500000  0.747436  0.628250  1
  Si  Si20  1  0.000000  0.252229  0.127440  1
  Si  Si21  1  0.500000  0.746533  0.372814  1
  Si  Si22  1  0.000000  0.458301  0.876919  1
  Si  Si23  1  0.500000  0.541311  0.623437  1
  Si  Si24  1  0.500000  0.540978  0.377040  1
  Si  Si25  1  0.000000  0.458518  0.122814  1
  Br  Br26  1  0.500000  0.108586  0.693109  1
  Br  Br27  1  0.000000  0.891173  0.807291  1
  Br  Br28  1  0.000000  0.140871  0.501511  1
  Br  Br29  1  0.500000  0.860351  0.999435  1
  Br  Br30  1  0.500000  0.112134  0.305854  1
  Br  Br31  1  0.000000  0.890385  0.191149  1
