# generated using pymatgen
data_ThCo2(AsRh)3
_symmetry_space_group_name_H-M   'P 1'
_cell_length_a   3.98976500
_cell_length_b   12.55661800
_cell_length_c   11.22870300
_cell_angle_alpha   90.00000000
_cell_angle_beta   90.00000000
_cell_angle_gamma   90.00000000
_symmetry_Int_Tables_number   1
_chemical_formula_structural   ThCo2(AsRh)3
_chemical_formula_sum   'Th4 Co8 As12 Rh12'
_cell_volume   562.53505777
_cell_formula_units_Z   4
loop_
 _symmetry_equiv_pos_site_id
 _symmetry_equiv_pos_as_xyz
  1  'x, y, z'
loop_
 _atom_site_type_symbol
 _atom_site_label
 _atom_site_symmetry_multiplicity
 _atom_site_fract_x
 _atom_site_fract_y
 _atom_site_fract_z
 _atom_site_occupancy
  Th  Th0  1  0.750000  0.702367  0.085432  1
  Th  Th1  1  0.250000  0.297633  0.914568  1
  Th  Th2  1  0.250000  0.797633  0.585432  1
  Th  Th3  1  0.750000  0.202367  0.414568  1
  Co  Co4  1  0.750000  0.929881  0.969607  1
  Co  Co5  1  0.250000  0.070119  0.030393  1
  Co  Co6  1  0.250000  0.570119  0.469607  1
  Co  Co7  1  0.750000  0.429881  0.530393  1
  Co  Co8  1  0.750000  0.986439  0.592645  1
  Co  Co9  1  0.250000  0.013561  0.407355  1
  Co  Co10  1  0.250000  0.513561  0.092645  1
  Co  Co11  1  0.750000  0.486438  0.907355  1
  As  As12  1  0.750000  0.605597  0.580292  1
  As  As13  1  0.250000  0.394403  0.419708  1
  As  As14  1  0.250000  0.894403  0.080292  1
  As  As15  1  0.750000  0.105597  0.919708  1
  As  As16  1  0.750000  0.900209  0.406489  1
  As  As17  1  0.250000  0.099791  0.593511  1
  As  As18  1  0.250000  0.599791  0.906489  1
  As  As19  1  0.750000  0.400209  0.093511  1
  As  As20  1  0.750000  0.878141  0.772026  1
  As  As21  1  0.250000  0.121859  0.227974  1
  As  As22  1  0.250000  0.621859  0.272026  1
  As  As23  1  0.750000  0.378141  0.727974  1
  Rh  Rh24  1  0.750000  0.702764  0.390976  1
  Rh  Rh25  1  0.250000  0.297236  0.609024  1
  Rh  Rh26  1  0.250000  0.797236  0.890976  1
  Rh  Rh27  1  0.750000  0.202764  0.109024  1
  Rh  Rh28  1  0.750000  0.990136  0.214396  1
  Rh  Rh29  1  0.250000  0.009864  0.785604  1
  Rh  Rh30  1  0.250000  0.509864  0.714396  1
  Rh  Rh31  1  0.750000  0.490136  0.285604  1
  Rh  Rh32  1  0.750000  0.677357  0.777465  1
  Rh  Rh33  1  0.250000  0.322643  0.222535  1
  Rh  Rh34  1  0.250000  0.822643  0.277465  1
  Rh  Rh35  1  0.750000  0.177357  0.722535  1
