# generated using pymatgen
data_Ho4Al4Ir3Pt
_symmetry_space_group_name_H-M   'P 1'
_cell_length_a   4.28272000
_cell_length_b   6.83057008
_cell_length_c   7.89657109
_cell_angle_alpha   90.01702227
_cell_angle_beta   90.00000000
_cell_angle_gamma   90.00000000
_symmetry_Int_Tables_number   1
_chemical_formula_structural   Ho4Al4Ir3Pt
_chemical_formula_sum   'Ho4 Al4 Ir3 Pt1'
_cell_volume   231.00169306
_cell_formula_units_Z   1
loop_
 _symmetry_equiv_pos_site_id
 _symmetry_equiv_pos_as_xyz
  1  'x, y, z'
loop_
 _atom_site_type_symbol
 _atom_site_label
 _atom_site_symmetry_multiplicity
 _atom_site_fract_x
 _atom_site_fract_y
 _atom_site_fract_z
 _atom_site_occupancy
  Ho  Ho0  1  0.250000  0.029030  0.677135  1
  Ho  Ho1  1  0.250000  0.536174  0.819080  1
  Ho  Ho2  1  0.750000  0.968787  0.320895  1
  Ho  Ho3  1  0.750000  0.470258  0.182297  1
  Al  Al4  1  0.250000  0.138301  0.063817  1
  Al  Al5  1  0.250000  0.639341  0.438292  1
  Al  Al6  1  0.750000  0.857536  0.938725  1
  Al  Al7  1  0.750000  0.361714  0.559401  1
  Ir  Ir8  1  0.250000  0.266755  0.379963  1
  Ir  Ir9  1  0.250000  0.766700  0.119289  1
  Ir  Ir10  1  0.750000  0.733775  0.621072  1
  Pt  Pt11  1  0.750000  0.231629  0.880034  1
