# generated using pymatgen
data_Er6Ga5Co2Sn7
_symmetry_space_group_name_H-M   'P 1'
_cell_length_a   8.11128948
_cell_length_b   8.11128966
_cell_length_c   12.77725618
_cell_angle_alpha   89.80905616
_cell_angle_beta   90.19094327
_cell_angle_gamma   148.36344261
_symmetry_Int_Tables_number   1
_chemical_formula_structural   Er6Ga5Co2Sn7
_chemical_formula_sum   'Er6 Ga5 Co2 Sn7'
_cell_volume   440.94509157
_cell_formula_units_Z   1
loop_
 _symmetry_equiv_pos_site_id
 _symmetry_equiv_pos_as_xyz
  1  'x, y, z'
loop_
 _atom_site_type_symbol
 _atom_site_label
 _atom_site_symmetry_multiplicity
 _atom_site_fract_x
 _atom_site_fract_y
 _atom_site_fract_z
 _atom_site_occupancy
  Er  Er0  1  0.900245  0.099755  0.104026  1
  Er  Er1  1  0.099290  0.900710  0.604229  1
  Er  Er2  1  0.900312  0.099688  0.748166  1
  Er  Er3  1  0.100564  0.899436  0.895727  1
  Er  Er4  1  0.098770  0.901230  0.251849  1
  Er  Er5  1  0.899399  0.100601  0.398073  1
  Ga  Ga6  1  0.756331  0.243669  0.572790  1
  Ga  Ga7  1  0.737816  0.262184  0.253124  1
  Ga  Ga8  1  0.262302  0.737698  0.738912  1
  Ga  Ga9  1  0.454160  0.545840  0.251291  1
  Ga  Ga10  1  0.546298  0.453702  0.749517  1
  Co  Co11  1  0.300317  0.699683  0.252684  1
  Co  Co12  1  0.700626  0.299374  0.743617  1
  Sn  Sn13  1  0.427632  0.572368  0.579402  1
  Sn  Sn14  1  0.570350  0.429650  0.422831  1
  Sn  Sn15  1  0.240770  0.759230  0.073406  1
  Sn  Sn16  1  0.245546  0.754454  0.435802  1
  Sn  Sn17  1  0.569741  0.430259  0.079698  1
  Sn  Sn18  1  0.758788  0.241212  0.924766  1
  Sn  Sn19  1  0.430744  0.569256  0.920091  1
