# generated using pymatgen
data_Pr4AlFe2CoO12
_symmetry_space_group_name_H-M   'P 1'
_cell_length_a   5.46459082
_cell_length_b   5.53609512
_cell_length_c   7.76378409
_cell_angle_alpha   90.32379586
_cell_angle_beta   90.15772882
_cell_angle_gamma   90.00196654
_symmetry_Int_Tables_number   1
_chemical_formula_structural   Pr4AlFe2CoO12
_chemical_formula_sum   'Pr4 Al1 Fe2 Co1 O12'
_cell_volume   234.86919498
_cell_formula_units_Z   1
loop_
 _symmetry_equiv_pos_site_id
 _symmetry_equiv_pos_as_xyz
  1  'x, y, z'
loop_
 _atom_site_type_symbol
 _atom_site_label
 _atom_site_symmetry_multiplicity
 _atom_site_fract_x
 _atom_site_fract_y
 _atom_site_fract_z
 _atom_site_occupancy
  Pr  Pr0  1  0.007607  0.956290  0.748941  1
  Pr  Pr1  1  0.511385  0.541515  0.250505  1
  Pr  Pr2  1  0.488615  0.458485  0.749495  1
  Pr  Pr3  1  0.992393  0.043710  0.251059  1
  Al  Al4  1  0.500000  0.000000  0.000000  1
  Fe  Fe5  1  0.500000  0.000000  0.500000  1
  Fe  Fe6  1  0.000000  0.500000  0.000000  1
  Co  Co7  1  0.000000  0.500000  0.500000  1
  O  O8  1  0.717379  0.290905  0.459475  1
  O  O9  1  0.207930  0.216531  0.541502  1
  O  O10  1  0.778023  0.792266  0.038295  1
  O  O11  1  0.291421  0.720513  0.960702  1
  O  O12  1  0.282621  0.709095  0.540525  1
  O  O13  1  0.792070  0.783469  0.458498  1
  O  O14  1  0.221977  0.207734  0.961705  1
  O  O15  1  0.708579  0.279487  0.039298  1
  O  O16  1  0.076550  0.484521  0.254645  1
  O  O17  1  0.571654  0.014336  0.756071  1
  O  O18  1  0.428346  0.985664  0.243929  1
  O  O19  1  0.923450  0.515479  0.745355  1
