# generated using pymatgen
data_Lu2AlZnPd2
_symmetry_space_group_name_H-M   'P 1'
_cell_length_a   4.29307000
_cell_length_b   6.71642107
_cell_length_c   7.89519700
_cell_angle_alpha   89.40918731
_cell_angle_beta   90.00000000
_cell_angle_gamma   90.00000000
_symmetry_Int_Tables_number   1
_chemical_formula_structural   Lu2AlZnPd2
_chemical_formula_sum   'Lu4 Al2 Zn2 Pd4'
_cell_volume   227.63852707
_cell_formula_units_Z   2
loop_
 _symmetry_equiv_pos_site_id
 _symmetry_equiv_pos_as_xyz
  1  'x, y, z'
loop_
 _atom_site_type_symbol
 _atom_site_label
 _atom_site_symmetry_multiplicity
 _atom_site_fract_x
 _atom_site_fract_y
 _atom_site_fract_z
 _atom_site_occupancy
  Lu  Lu0  1  0.250000  0.534719  0.179015  1
  Lu  Lu1  1  0.750000  0.465281  0.820985  1
  Lu  Lu2  1  0.750000  0.969108  0.684275  1
  Lu  Lu3  1  0.250000  0.030892  0.315725  1
  Al  Al4  1  0.250000  0.640334  0.557088  1
  Al  Al5  1  0.750000  0.359666  0.442912  1
  Zn  Zn6  1  0.750000  0.856689  0.061336  1
  Zn  Zn7  1  0.250000  0.143311  0.938664  1
  Pd  Pd8  1  0.250000  0.756019  0.869994  1
  Pd  Pd9  1  0.750000  0.243981  0.130006  1
  Pd  Pd10  1  0.750000  0.735973  0.384520  1
  Pd  Pd11  1  0.250000  0.264027  0.615480  1
