# generated using pymatgen
data_Ta5NbCo16Si6P
_symmetry_space_group_name_H-M   'P 1'
_cell_length_a   7.89172898
_cell_length_b   7.88063722
_cell_length_c   7.87984070
_cell_angle_alpha   60.14501906
_cell_angle_beta   59.95501925
_cell_angle_gamma   59.93847355
_symmetry_Int_Tables_number   1
_chemical_formula_structural   Ta5NbCo16Si6P
_chemical_formula_sum   'Ta5 Nb1 Co16 Si6 P1'
_cell_volume   346.62415443
_cell_formula_units_Z   1
loop_
 _symmetry_equiv_pos_site_id
 _symmetry_equiv_pos_as_xyz
  1  'x, y, z'
loop_
 _atom_site_type_symbol
 _atom_site_label
 _atom_site_symmetry_multiplicity
 _atom_site_fract_x
 _atom_site_fract_y
 _atom_site_fract_z
 _atom_site_occupancy
  Ta  Ta0  1  0.201182  0.796681  0.203352  1
  Ta  Ta1  1  0.202143  0.797833  0.798124  1
  Ta  Ta2  1  0.798134  0.201879  0.202182  1
  Ta  Ta3  1  0.798653  0.796134  0.203811  1
  Ta  Ta4  1  0.201635  0.203543  0.796506  1
  Nb  Nb5  1  0.798951  0.202865  0.797071  1
  Co  Co6  1  0.171309  0.162933  0.163004  1
  Co  Co7  1  0.497146  0.837044  0.837111  1
  Co  Co8  1  0.834240  0.497764  0.835103  1
  Co  Co9  1  0.834271  0.834988  0.496780  1
  Co  Co10  1  0.165978  0.503168  0.165039  1
  Co  Co11  1  0.167046  0.164915  0.502184  1
  Co  Co12  1  0.501814  0.162962  0.164184  1
  Co  Co13  1  0.828988  0.835807  0.837038  1
  Co  Co14  1  0.382000  0.380766  0.380611  1
  Co  Co15  1  0.143422  0.619385  0.619239  1
  Co  Co16  1  0.617756  0.145206  0.618063  1
  Co  Co17  1  0.618085  0.618529  0.145230  1
  Co  Co18  1  0.381770  0.854814  0.381444  1
  Co  Co19  1  0.380957  0.381918  0.854815  1
  Co  Co20  1  0.856526  0.381072  0.379835  1
  Co  Co21  1  0.617483  0.620149  0.618924  1
  Si  Si22  1  0.500120  0.499895  0.500067  1
  Si  Si23  1  0.000142  0.499745  0.000210  1
  Si  Si24  1  0.000027  0.499932  0.500029  1
  Si  Si25  1  0.500051  0.999880  0.500167  1
  Si  Si26  1  0.000131  0.000103  0.499848  1
  Si  Si27  1  0.500042  0.500061  0.999982  1
  P  P28  1  0.499994  0.000028  0.000047  1
