# generated using pymatgen
data_Ca6YbPrBi6
_symmetry_space_group_name_H-M   'P 1'
_cell_length_a   8.44219258
_cell_length_b   8.44924783
_cell_length_c   8.37046205
_cell_angle_alpha   109.29544085
_cell_angle_beta   109.29335198
_cell_angle_gamma   109.60854511
_symmetry_Int_Tables_number   1
_chemical_formula_structural   Ca6YbPrBi6
_chemical_formula_sum   'Ca6 Yb1 Pr1 Bi6'
_cell_volume   460.84155089
_cell_formula_units_Z   1
loop_
 _symmetry_equiv_pos_site_id
 _symmetry_equiv_pos_as_xyz
  1  'x, y, z'
loop_
 _atom_site_type_symbol
 _atom_site_label
 _atom_site_symmetry_multiplicity
 _atom_site_fract_x
 _atom_site_fract_y
 _atom_site_fract_z
 _atom_site_occupancy
  Ca  Ca0  1  0.499868  0.999903  0.146239  1
  Ca  Ca1  1  0.646480  0.502712  0.002376  1
  Ca  Ca2  1  0.997289  0.643783  0.499780  1
  Ca  Ca3  1  0.856148  0.853501  0.855889  1
  Ca  Ca4  1  0.000043  0.147177  0.500205  1
  Ca  Ca5  1  0.352894  0.352926  0.352926  1
  Yb  Yb6  1  0.147084  0.499998  0.999972  1
  Pr  Pr7  1  0.499730  0.999899  0.642780  1
  Bi  Bi8  1  0.626428  0.749608  0.376044  1
  Bi  Bi9  1  0.750640  0.377064  0.626802  1
  Bi  Bi10  1  0.251624  0.125194  0.874725  1
  Bi  Bi11  1  0.374937  0.626434  0.749730  1
  Bi  Bi12  1  0.123231  0.873235  0.249631  1
  Bi  Bi13  1  0.873606  0.248566  0.122904  1
