# generated using pymatgen
data_LuGaCo3C
_symmetry_space_group_name_H-M   'P 1'
_cell_length_a   5.10275100
_cell_length_b   5.10275262
_cell_length_c   6.53032100
_cell_angle_alpha   90.00000000
_cell_angle_beta   90.00000000
_cell_angle_gamma   120.00000894
_symmetry_Int_Tables_number   1
_chemical_formula_structural   LuGaCo3C
_chemical_formula_sum   'Lu2 Ga2 Co6 C2'
_cell_volume   147.25634375
_cell_formula_units_Z   2
loop_
 _symmetry_equiv_pos_site_id
 _symmetry_equiv_pos_as_xyz
  1  'x, y, z'
loop_
 _atom_site_type_symbol
 _atom_site_label
 _atom_site_symmetry_multiplicity
 _atom_site_fract_x
 _atom_site_fract_y
 _atom_site_fract_z
 _atom_site_occupancy
  Lu  Lu0  1  0.000000  0.000000  0.000000  1
  Lu  Lu1  1  0.000000  0.000000  0.500000  1
  Ga  Ga2  1  0.666667  0.333333  0.000000  1
  Ga  Ga3  1  0.333333  0.666667  0.000000  1
  Co  Co4  1  0.500000  0.500000  0.694745  1
  Co  Co5  1  0.500000  0.000000  0.694745  1
  Co  Co6  1  0.000000  0.500000  0.694745  1
  Co  Co7  1  0.500000  0.500000  0.305255  1
  Co  Co8  1  0.500000  0.000000  0.305255  1
  Co  Co9  1  0.000000  0.500000  0.305255  1
  C  C10  1  0.666667  0.333333  0.500000  1
  C  C11  1  0.333333  0.666667  0.500000  1
