# generated using pymatgen
data_Dy3Y(TmSb5)4
_symmetry_space_group_name_H-M   'P 1'
_cell_length_a   4.21283300
_cell_length_b   13.17545515
_cell_length_c   14.59501487
_cell_angle_alpha   78.27334416
_cell_angle_beta   90.00000000
_cell_angle_gamma   90.00000000
_symmetry_Int_Tables_number   1
_chemical_formula_structural   Dy3Y(TmSb5)4
_chemical_formula_sum   'Dy3 Y1 Tm4 Sb20'
_cell_volume   793.20244270
_cell_formula_units_Z   1
loop_
 _symmetry_equiv_pos_site_id
 _symmetry_equiv_pos_as_xyz
  1  'x, y, z'
loop_
 _atom_site_type_symbol
 _atom_site_label
 _atom_site_symmetry_multiplicity
 _atom_site_fract_x
 _atom_site_fract_y
 _atom_site_fract_z
 _atom_site_occupancy
  Dy  Dy0  1  0.750000  0.331225  0.423760  1
  Dy  Dy1  1  0.250000  0.953276  0.358670  1
  Dy  Dy2  1  0.750000  0.046723  0.641340  1
  Y  Y3  1  0.250000  0.668785  0.576418  1
  Tm  Tm4  1  0.250000  0.395255  0.771328  1
  Tm  Tm5  1  0.750000  0.604798  0.228707  1
  Tm  Tm6  1  0.250000  0.661453  0.856538  1
  Tm  Tm7  1  0.750000  0.338536  0.143437  1
  Sb  Sb8  1  0.250000  0.144822  0.779026  1
  Sb  Sb9  1  0.750000  0.855168  0.220950  1
  Sb  Sb10  1  0.250000  0.143501  0.482377  1
  Sb  Sb11  1  0.750000  0.856942  0.517480  1
  Sb  Sb12  1  0.250000  0.153758  0.170298  1
  Sb  Sb13  1  0.750000  0.846216  0.829684  1
  Sb  Sb14  1  0.250000  0.420663  0.975392  1
  Sb  Sb15  1  0.750000  0.579314  0.024632  1
  Sb  Sb16  1  0.750000  0.028551  0.909537  1
  Sb  Sb17  1  0.250000  0.971472  0.090460  1
  Sb  Sb18  1  0.750000  0.139834  0.321576  1
  Sb  Sb19  1  0.250000  0.860347  0.678496  1
  Sb  Sb20  1  0.750000  0.279675  0.936774  1
  Sb  Sb21  1  0.250000  0.720324  0.063226  1
  Sb  Sb22  1  0.750000  0.286080  0.653628  1
  Sb  Sb23  1  0.250000  0.713987  0.346162  1
  Sb  Sb24  1  0.750000  0.575224  0.736652  1
  Sb  Sb25  1  0.250000  0.424493  0.263768  1
  Sb  Sb26  1  0.750000  0.571476  0.446223  1
  Sb  Sb27  1  0.250000  0.428102  0.553461  1
