# generated using pymatgen
data_Zr6Zn2IrRh3N2
_symmetry_space_group_name_H-M   'P 1'
_cell_length_a   8.56723261
_cell_length_b   8.56723429
_cell_length_c   8.56854100
_cell_angle_alpha   59.99505066
_cell_angle_beta   59.99515248
_cell_angle_gamma   59.97886829
_symmetry_Int_Tables_number   1
_chemical_formula_structural   Zr6Zn2IrRh3N2
_chemical_formula_sum   'Zr12 Zn4 Ir2 Rh6 N4'
_cell_volume   444.60211947
_cell_formula_units_Z   2
loop_
 _symmetry_equiv_pos_site_id
 _symmetry_equiv_pos_as_xyz
  1  'x, y, z'
loop_
 _atom_site_type_symbol
 _atom_site_label
 _atom_site_symmetry_multiplicity
 _atom_site_fract_x
 _atom_site_fract_y
 _atom_site_fract_z
 _atom_site_occupancy
  Zr  Zr0  1  0.808683  0.192816  0.190043  1
  Zr  Zr1  1  0.192814  0.808679  0.190047  1
  Zr  Zr2  1  0.808792  0.808792  0.191207  1
  Zr  Zr3  1  0.192814  0.808681  0.808459  1
  Zr  Zr4  1  0.808681  0.192813  0.808460  1
  Zr  Zr5  1  0.191716  0.191714  0.808285  1
  Zr  Zr6  1  0.441532  0.058055  0.058021  1
  Zr  Zr7  1  0.058054  0.441533  0.058022  1
  Zr  Zr8  1  0.442173  0.442171  0.057827  1
  Zr  Zr9  1  0.058055  0.441532  0.442389  1
  Zr  Zr10  1  0.441531  0.058052  0.442392  1
  Zr  Zr11  1  0.058267  0.058265  0.441733  1
  Zn  Zn12  1  0.624725  0.624726  0.126694  1
  Zn  Zn13  1  0.624725  0.624725  0.623855  1
  Zn  Zn14  1  0.125426  0.625387  0.624593  1
  Zn  Zn15  1  0.625387  0.125427  0.624593  1
  Ir  Ir16  1  0.494731  0.834411  0.835429  1
  Ir  Ir17  1  0.834410  0.494731  0.835430  1
  Rh  Rh18  1  0.414671  0.414673  0.755791  1
  Rh  Rh19  1  0.414669  0.414673  0.414866  1
  Rh  Rh20  1  0.755686  0.414682  0.414818  1
  Rh  Rh21  1  0.414680  0.755690  0.414817  1
  Rh  Rh22  1  0.834579  0.834576  0.495227  1
  Rh  Rh23  1  0.834580  0.834580  0.835618  1
  N  N24  1  0.124768  0.124769  0.624770  1
  N  N25  1  0.124770  0.124769  0.125692  1
  N  N26  1  0.624506  0.124572  0.125461  1
  N  N27  1  0.124572  0.624506  0.125461  1
