# generated using pymatgen
data_Ba6Nd(RhO6)2
_symmetry_space_group_name_H-M   'P 1'
_cell_length_a   9.37797941
_cell_length_b   9.37797783
_cell_length_c   7.44724200
_cell_angle_alpha   67.87776826
_cell_angle_beta   67.87777218
_cell_angle_gamma   36.77095038
_symmetry_Int_Tables_number   1
_chemical_formula_structural   Ba6Nd(RhO6)2
_chemical_formula_sum   'Ba6 Nd1 Rh2 O12'
_cell_volume   359.87607676
_cell_formula_units_Z   1
loop_
 _symmetry_equiv_pos_site_id
 _symmetry_equiv_pos_as_xyz
  1  'x, y, z'
loop_
 _atom_site_type_symbol
 _atom_site_label
 _atom_site_symmetry_multiplicity
 _atom_site_fract_x
 _atom_site_fract_y
 _atom_site_fract_z
 _atom_site_occupancy
  Ba  Ba0  1  0.877727  0.877727  0.715401  1
  Ba  Ba1  1  0.217516  0.217516  0.707443  1
  Ba  Ba2  1  0.549942  0.549942  0.702165  1
  Ba  Ba3  1  0.450058  0.450058  0.297835  1
  Ba  Ba4  1  0.782484  0.782484  0.292557  1
  Ba  Ba5  1  0.122273  0.122273  0.284599  1
  Nd  Nd6  1  0.000000  0.000000  0.000000  1
  Rh  Rh7  1  0.671416  0.671416  0.999598  1
  Rh  Rh8  1  0.328584  0.328584  0.000402  1
  O  O9  1  0.939296  0.939296  0.342135  1
  O  O10  1  0.281045  0.281045  0.306768  1
  O  O11  1  0.618377  0.618377  0.305219  1
  O  O12  1  0.381623  0.381623  0.694781  1
  O  O13  1  0.718955  0.718955  0.693232  1
  O  O14  1  0.060704  0.060704  0.657865  1
  O  O15  1  0.500000  0.000000  0.000000  1
  O  O16  1  0.821118  0.362881  0.998860  1
  O  O17  1  0.178882  0.637119  0.001140  1
  O  O18  1  0.000000  0.500000  0.000000  1
  O  O19  1  0.362881  0.821118  0.998860  1
  O  O20  1  0.637119  0.178882  0.001140  1
