# generated using pymatgen
data_La3Tm(Si5Pt3)2
_symmetry_space_group_name_H-M   'P 1'
_cell_length_a   8.28359882
_cell_length_b   8.28633773
_cell_length_c   8.28633767
_cell_angle_alpha   136.49042887
_cell_angle_beta   105.42407397
_cell_angle_gamma   90.50823414
_symmetry_Int_Tables_number   1
_chemical_formula_structural   La3Tm(Si5Pt3)2
_chemical_formula_sum   'La3 Tm1 Si10 Pt6'
_cell_volume   359.62139629
_cell_formula_units_Z   1
loop_
 _symmetry_equiv_pos_site_id
 _symmetry_equiv_pos_as_xyz
  1  'x, y, z'
loop_
 _atom_site_type_symbol
 _atom_site_label
 _atom_site_symmetry_multiplicity
 _atom_site_fract_x
 _atom_site_fract_y
 _atom_site_fract_z
 _atom_site_occupancy
  La  La0  1  0.138566  0.370938  0.767628  1
  La  La1  1  0.396413  0.128889  0.267524  1
  La  La2  1  0.604211  0.871091  0.733121  1
  Tm  Tm3  1  0.858461  0.628577  0.229884  1
  Si  Si4  1  0.501276  0.751621  0.251875  1
  Si  Si5  1  0.501276  0.249401  0.749655  1
  Si  Si6  1  0.228539  0.978223  0.748915  1
  Si  Si7  1  0.771019  0.519385  0.751236  1
  Si  Si8  1  0.771019  0.019783  0.251634  1
  Si  Si9  1  0.228539  0.479624  0.250316  1
  Si  Si10  1  0.031827  0.884143  0.147683  1
  Si  Si11  1  0.965625  0.113777  0.851848  1
  Si  Si12  1  0.740949  0.390608  0.350342  1
  Si  Si13  1  0.262788  0.613649  0.649140  1
  Pt  Pt14  1  0.999520  0.750228  0.747606  1
  Pt  Pt15  1  0.999520  0.251914  0.249292  1
  Pt  Pt16  1  0.248368  0.860292  0.388078  1
  Pt  Pt17  1  0.748197  0.135865  0.612331  1
  Pt  Pt18  1  0.476246  0.365940  0.110305  1
  Pt  Pt19  1  0.527639  0.636052  0.891587  1
