# generated using pymatgen
data_Sr7Ca13Sb12
_symmetry_space_group_name_H-M   'P 1'
_cell_length_a   8.48301811
_cell_length_b   9.74718800
_cell_length_c   12.96642076
_cell_angle_alpha   90.00000000
_cell_angle_beta   90.16745016
_cell_angle_gamma   90.00000000
_symmetry_Int_Tables_number   1
_chemical_formula_structural   Sr7Ca13Sb12
_chemical_formula_sum   'Sr7 Ca13 Sb12'
_cell_volume   1072.13134308
_cell_formula_units_Z   1
loop_
 _symmetry_equiv_pos_site_id
 _symmetry_equiv_pos_as_xyz
  1  'x, y, z'
loop_
 _atom_site_type_symbol
 _atom_site_label
 _atom_site_symmetry_multiplicity
 _atom_site_fract_x
 _atom_site_fract_y
 _atom_site_fract_z
 _atom_site_occupancy
  Sr  Sr0  1  0.680971  0.750000  0.227191  1
  Sr  Sr1  1  0.182240  0.250000  0.271446  1
  Sr  Sr2  1  0.317824  0.250000  0.771542  1
  Sr  Sr3  1  0.817055  0.750000  0.728694  1
  Sr  Sr4  1  0.157232  0.750000  0.292610  1
  Sr  Sr5  1  0.657049  0.250000  0.207477  1
  Sr  Sr6  1  0.843206  0.250000  0.707279  1
  Ca  Ca7  1  0.308741  0.959073  0.074817  1
  Ca  Ca8  1  0.809357  0.040298  0.423989  1
  Ca  Ca9  1  0.690426  0.460167  0.923452  1
  Ca  Ca10  1  0.191263  0.541852  0.578498  1
  Ca  Ca11  1  0.690426  0.039833  0.923452  1
  Ca  Ca12  1  0.191263  0.958148  0.578498  1
  Ca  Ca13  1  0.308741  0.540927  0.074817  1
  Ca  Ca14  1  0.809357  0.459702  0.423989  1
  Ca  Ca15  1  0.343953  0.750000  0.792936  1
  Ca  Ca16  1  0.535437  0.750000  0.505455  1
  Ca  Ca17  1  0.036101  0.250000  0.995173  1
  Ca  Ca18  1  0.463982  0.250000  0.496008  1
  Ca  Ca19  1  0.964677  0.750000  0.003668  1
  Sb  Sb20  1  0.942860  0.009552  0.166084  1
  Sb  Sb21  1  0.443716  0.990158  0.333546  1
  Sb  Sb22  1  0.061419  0.512956  0.833346  1
  Sb  Sb23  1  0.554777  0.491943  0.668392  1
  Sb  Sb24  1  0.061419  0.987044  0.833346  1
  Sb  Sb25  1  0.554777  0.008057  0.668392  1
  Sb  Sb26  1  0.942860  0.490448  0.166084  1
  Sb  Sb27  1  0.443716  0.509842  0.333546  1
  Sb  Sb28  1  0.574241  0.750000  0.980437  1
  Sb  Sb29  1  0.080058  0.250000  0.515779  1
  Sb  Sb30  1  0.420579  0.250000  0.015541  1
  Sb  Sb31  1  0.920277  0.750000  0.484518  1
