# generated using pymatgen
data_Pa2Ga2Ni3Pt
_symmetry_space_group_name_H-M   'P 1'
_cell_length_a   4.05518059
_cell_length_b   4.91668854
_cell_length_c   7.06999837
_cell_angle_alpha   89.18038083
_cell_angle_beta   89.75490550
_cell_angle_gamma   109.98343541
_symmetry_Int_Tables_number   1
_chemical_formula_structural   Pa2Ga2Ni3Pt
_chemical_formula_sum   'Pa2 Ga2 Ni3 Pt1'
_cell_volume   132.45507592
_cell_formula_units_Z   1
loop_
 _symmetry_equiv_pos_site_id
 _symmetry_equiv_pos_as_xyz
  1  'x, y, z'
loop_
 _atom_site_type_symbol
 _atom_site_label
 _atom_site_symmetry_multiplicity
 _atom_site_fract_x
 _atom_site_fract_y
 _atom_site_fract_z
 _atom_site_occupancy
  Pa  Pa0  1  0.188893  0.366476  0.629812  1
  Pa  Pa1  1  0.304646  0.631051  0.114159  1
  Ga  Ga2  1  0.624652  0.194159  0.316721  1
  Ga  Ga3  1  0.862002  0.791051  0.821371  1
  Ni  Ni4  1  0.673659  0.262636  0.927891  1
  Ni  Ni5  1  0.420107  0.937685  0.644279  1
  Ni  Ni6  1  0.090933  0.080971  0.121501  1
  Pt  Pt7  1  0.835105  0.735972  0.424266  1
