# generated using pymatgen
data_Nd8Ho11Si16Mo
_symmetry_space_group_name_H-M   'P 1'
_cell_length_a   7.42464310
_cell_length_b   7.72900644
_cell_length_c   14.66709400
_cell_angle_alpha   90.00000000
_cell_angle_beta   90.00000000
_cell_angle_gamma   89.83068080
_symmetry_Int_Tables_number   1
_chemical_formula_structural   Nd8Ho11Si16Mo
_chemical_formula_sum   'Nd8 Ho11 Si16 Mo1'
_cell_volume   841.66919122
_cell_formula_units_Z   1
loop_
 _symmetry_equiv_pos_site_id
 _symmetry_equiv_pos_as_xyz
  1  'x, y, z'
loop_
 _atom_site_type_symbol
 _atom_site_label
 _atom_site_symmetry_multiplicity
 _atom_site_fract_x
 _atom_site_fract_y
 _atom_site_fract_z
 _atom_site_occupancy
  Nd  Nd0  1  0.970814  0.824401  0.101818  1
  Nd  Nd1  1  0.481434  0.685215  0.397755  1
  Nd  Nd2  1  0.524090  0.319693  0.904900  1
  Nd  Nd3  1  0.024737  0.180210  0.596746  1
  Nd  Nd4  1  0.024737  0.180210  0.903254  1
  Nd  Nd5  1  0.524090  0.319693  0.595100  1
  Nd  Nd6  1  0.481434  0.685215  0.102245  1
  Nd  Nd7  1  0.970814  0.824401  0.398182  1
  Ho  Ho8  1  0.148665  0.511625  0.250000  1
  Ho  Ho9  1  0.851131  0.488565  0.750000  1
  Ho  Ho10  1  0.351092  0.011157  0.750000  1
  Ho  Ho11  1  0.681550  0.822920  0.879163  1
  Ho  Ho12  1  0.181899  0.678167  0.621834  1
  Ho  Ho13  1  0.815582  0.318335  0.126479  1
  Ho  Ho14  1  0.320290  0.170207  0.373036  1
  Ho  Ho15  1  0.320290  0.170207  0.126964  1
  Ho  Ho16  1  0.815582  0.318335  0.373521  1
  Ho  Ho17  1  0.181899  0.678167  0.878166  1
  Ho  Ho18  1  0.681550  0.822920  0.620837  1
  Si  Si19  1  0.766820  0.639451  0.250000  1
  Si  Si20  1  0.283258  0.876922  0.250000  1
  Si  Si21  1  0.732462  0.120383  0.750000  1
  Si  Si22  1  0.233898  0.378981  0.750000  1
  Si  Si23  1  0.009664  0.099574  0.250000  1
  Si  Si24  1  0.522616  0.381219  0.250000  1
  Si  Si25  1  0.476857  0.611788  0.750000  1
  Si  Si26  1  0.974461  0.886661  0.750000  1
  Si  Si27  1  0.856900  0.530742  0.962500  1
  Si  Si28  1  0.356759  0.969468  0.538453  1
  Si  Si29  1  0.643621  0.028982  0.048909  1
  Si  Si30  1  0.146391  0.468901  0.458674  1
  Si  Si31  1  0.146391  0.468901  0.041326  1
  Si  Si32  1  0.643621  0.028982  0.451091  1
  Si  Si33  1  0.356759  0.969468  0.961547  1
  Si  Si34  1  0.856900  0.530742  0.537500  1
  Mo  Mo35  1  0.640946  0.999193  0.250000  1
