# generated using pymatgen
data_CsZn4(BiO4)3
_symmetry_space_group_name_H-M   'P 1'
_cell_length_a   7.09678799
_cell_length_b   7.09678790
_cell_length_c   7.09678777
_cell_angle_alpha   107.66695629
_cell_angle_beta   107.66695247
_cell_angle_gamma   107.66696056
_symmetry_Int_Tables_number   1
_chemical_formula_structural   CsZn4(BiO4)3
_chemical_formula_sum   'Cs1 Zn4 Bi3 O12'
_cell_volume   292.08244156
_cell_formula_units_Z   1
loop_
 _symmetry_equiv_pos_site_id
 _symmetry_equiv_pos_as_xyz
  1  'x, y, z'
loop_
 _atom_site_type_symbol
 _atom_site_label
 _atom_site_symmetry_multiplicity
 _atom_site_fract_x
 _atom_site_fract_y
 _atom_site_fract_z
 _atom_site_occupancy
  Cs  Cs0  1  0.496570  0.496570  0.496570  1
  Zn  Zn1  1  0.638442  0.029533  0.513239  1
  Zn  Zn2  1  0.029533  0.513239  0.638442  1
  Zn  Zn3  1  0.513239  0.638442  0.029533  1
  Zn  Zn4  1  0.983608  0.983608  0.983608  1
  Bi  Bi5  1  0.184522  0.069412  0.652110  1
  Bi  Bi6  1  0.652110  0.184522  0.069412  1
  Bi  Bi7  1  0.069412  0.652110  0.184522  1
  O  O8  1  0.665182  0.879942  0.966282  1
  O  O9  1  0.966282  0.665182  0.879942  1
  O  O10  1  0.754093  0.248847  0.408280  1
  O  O11  1  0.408280  0.754093  0.248847  1
  O  O12  1  0.879942  0.966282  0.665182  1
  O  O13  1  0.248847  0.408280  0.754093  1
  O  O14  1  0.112159  0.990171  0.310648  1
  O  O15  1  0.990171  0.310648  0.112159  1
  O  O16  1  0.310648  0.112159  0.990171  1
  O  O17  1  0.153737  0.727417  0.531925  1
  O  O18  1  0.727417  0.531925  0.153737  1
  O  O19  1  0.531925  0.153737  0.727417  1
