# generated using pymatgen
data_Ba3Nb2Si4(W2O13)2
_symmetry_space_group_name_H-M   'P 1'
_cell_length_a   9.14217907
_cell_length_b   9.14217896
_cell_length_c   7.82110299
_cell_angle_alpha   89.94972238
_cell_angle_beta   89.94972142
_cell_angle_gamma   119.76524129
_symmetry_Int_Tables_number   1
_chemical_formula_structural   Ba3Nb2Si4(W2O13)2
_chemical_formula_sum   'Ba3 Nb2 Si4 W4 O26'
_cell_volume   567.43996664
_cell_formula_units_Z   1
loop_
 _symmetry_equiv_pos_site_id
 _symmetry_equiv_pos_as_xyz
  1  'x, y, z'
loop_
 _atom_site_type_symbol
 _atom_site_label
 _atom_site_symmetry_multiplicity
 _atom_site_fract_x
 _atom_site_fract_y
 _atom_site_fract_z
 _atom_site_occupancy
  Ba  Ba0  1  0.600132  0.002216  0.499267  1
  Ba  Ba1  1  0.393288  0.393289  0.501185  1
  Ba  Ba2  1  0.002216  0.600132  0.499267  1
  Nb  Nb3  1  0.234023  0.995312  0.765482  1
  Nb  Nb4  1  0.995312  0.234023  0.765482  1
  Si  Si5  1  0.666736  0.335011  0.205080  1
  Si  Si6  1  0.335012  0.666737  0.205080  1
  Si  Si7  1  0.664330  0.331406  0.791725  1
  Si  Si8  1  0.331407  0.664331  0.791725  1
  W  W9  1  0.239187  0.002470  0.252386  1
  W  W10  1  0.002470  0.239187  0.252386  1
  W  W11  1  0.762474  0.762474  0.245288  1
  W  W12  1  0.755812  0.755812  0.753322  1
  O  O13  1  0.275080  0.999095  0.005742  1
  O  O14  1  0.999095  0.275079  0.005742  1
  O  O15  1  0.666305  0.334632  0.998396  1
  O  O16  1  0.334632  0.666305  0.998396  1
  O  O17  1  0.726382  0.726383  0.991830  1
  O  O18  1  0.821744  0.997245  0.231981  1
  O  O19  1  0.997245  0.821743  0.231981  1
  O  O20  1  0.192061  0.192061  0.232538  1
  O  O21  1  0.691906  0.514474  0.280921  1
  O  O22  1  0.514474  0.691906  0.280921  1
  O  O23  1  0.818677  0.311079  0.284453  1
  O  O24  1  0.311079  0.818677  0.284453  1
  O  O25  1  0.491268  0.184382  0.285316  1
  O  O26  1  0.184382  0.491268  0.285316  1
  O  O27  1  0.224517  0.000065  0.495065  1
  O  O28  1  0.000065  0.224517  0.495065  1
  O  O29  1  0.777492  0.777493  0.505351  1
  O  O30  1  0.487067  0.179621  0.715371  1
  O  O31  1  0.179621  0.487067  0.715371  1
  O  O32  1  0.816898  0.305456  0.713979  1
  O  O33  1  0.305456  0.816898  0.713979  1
  O  O34  1  0.690184  0.507799  0.711185  1
  O  O35  1  0.507799  0.690184  0.711185  1
  O  O36  1  0.178650  0.178650  0.764684  1
  O  O37  1  0.822531  0.003228  0.766550  1
  O  O38  1  0.003228  0.822530  0.766550  1
