# generated using pymatgen
data_Y12Mg3Ag9C4
_symmetry_space_group_name_H-M   'P 1'
_cell_length_a   9.44883592
_cell_length_b   9.44883569
_cell_length_c   9.44883700
_cell_angle_alpha   59.62357626
_cell_angle_beta   59.62357709
_cell_angle_gamma   59.62357994
_symmetry_Int_Tables_number   1
_chemical_formula_structural   Y12Mg3Ag9C4
_chemical_formula_sum   'Y12 Mg3 Ag9 C4'
_cell_volume   591.41025537
_cell_formula_units_Z   1
loop_
 _symmetry_equiv_pos_site_id
 _symmetry_equiv_pos_as_xyz
  1  'x, y, z'
loop_
 _atom_site_type_symbol
 _atom_site_label
 _atom_site_symmetry_multiplicity
 _atom_site_fract_x
 _atom_site_fract_y
 _atom_site_fract_z
 _atom_site_occupancy
  Y  Y0  1  0.440776  0.440776  0.057139  1
  Y  Y1  1  0.061634  0.437725  0.061634  1
  Y  Y2  1  0.437725  0.061634  0.061634  1
  Y  Y3  1  0.061634  0.061634  0.437725  1
  Y  Y4  1  0.440776  0.057139  0.440776  1
  Y  Y5  1  0.057139  0.440776  0.440776  1
  Y  Y6  1  0.809224  0.809224  0.192861  1
  Y  Y7  1  0.188366  0.812275  0.188366  1
  Y  Y8  1  0.812275  0.188366  0.188366  1
  Y  Y9  1  0.188366  0.188366  0.812275  1
  Y  Y10  1  0.809224  0.192861  0.809224  1
  Y  Y11  1  0.192861  0.809224  0.809224  1
  Mg  Mg12  1  0.625000  0.625000  0.125000  1
  Mg  Mg13  1  0.625000  0.125000  0.625000  1
  Mg  Mg14  1  0.125000  0.625000  0.625000  1
  Ag  Ag15  1  0.832521  0.832521  0.506945  1
  Ag  Ag16  1  0.832521  0.506945  0.832521  1
  Ag  Ag17  1  0.506945  0.832521  0.832521  1
  Ag  Ag18  1  0.832092  0.832092  0.832092  1
  Ag  Ag19  1  0.417479  0.417479  0.743055  1
  Ag  Ag20  1  0.417479  0.743055  0.417479  1
  Ag  Ag21  1  0.743055  0.417479  0.417479  1
  Ag  Ag22  1  0.417908  0.417908  0.417908  1
  Ag  Ag23  1  0.625000  0.625000  0.625000  1
  C  C24  1  0.125000  0.125000  0.625000  1
  C  C25  1  0.125000  0.625000  0.125000  1
  C  C26  1  0.625000  0.125000  0.125000  1
  C  C27  1  0.125000  0.125000  0.125000  1
