# generated using pymatgen
data_Ca3Cd(SiO4)2
_symmetry_space_group_name_H-M   'P 1'
_cell_length_a   5.12279500
_cell_length_b   6.73459716
_cell_length_c   11.42019716
_cell_angle_alpha   90.47748545
_cell_angle_beta   90.00000000
_cell_angle_gamma   90.00000000
_symmetry_Int_Tables_number   1
_chemical_formula_structural   Ca3Cd(SiO4)2
_chemical_formula_sum   'Ca6 Cd2 Si4 O16'
_cell_volume   393.98267153
_cell_formula_units_Z   2
loop_
 _symmetry_equiv_pos_site_id
 _symmetry_equiv_pos_as_xyz
  1  'x, y, z'
loop_
 _atom_site_type_symbol
 _atom_site_label
 _atom_site_symmetry_multiplicity
 _atom_site_fract_x
 _atom_site_fract_y
 _atom_site_fract_z
 _atom_site_occupancy
  Ca  Ca0  1  0.489197  0.749392  0.779467  1
  Ca  Ca1  1  0.989197  0.250608  0.720533  1
  Ca  Ca2  1  0.510803  0.250608  0.220533  1
  Ca  Ca3  1  0.010803  0.749392  0.279467  1
  Ca  Ca4  1  0.500000  0.000000  0.500000  1
  Ca  Ca5  1  0.000000  0.000000  0.000000  1
  Cd  Cd6  1  0.500000  0.500000  0.500000  1
  Cd  Cd7  1  0.000000  0.500000  0.000000  1
  Si  Si8  1  0.924608  0.747022  0.594807  1
  Si  Si9  1  0.424608  0.252978  0.905193  1
  Si  Si10  1  0.075392  0.252978  0.405193  1
  Si  Si11  1  0.575392  0.747022  0.094807  1
  O  O12  1  0.206108  0.448731  0.339395  1
  O  O13  1  0.706108  0.551269  0.160605  1
  O  O14  1  0.793999  0.944363  0.660399  1
  O  O15  1  0.293999  0.055637  0.839601  1
  O  O16  1  0.793892  0.551269  0.660605  1
  O  O17  1  0.293892  0.448731  0.839395  1
  O  O18  1  0.206001  0.055637  0.339601  1
  O  O19  1  0.706001  0.944363  0.160399  1
  O  O20  1  0.797717  0.747477  0.459328  1
  O  O21  1  0.297717  0.252523  0.040672  1
  O  O22  1  0.202283  0.252523  0.540672  1
  O  O23  1  0.702283  0.747477  0.959328  1
  O  O24  1  0.254882  0.751762  0.094171  1
  O  O25  1  0.754882  0.248238  0.405829  1
  O  O26  1  0.745118  0.248238  0.905829  1
  O  O27  1  0.245118  0.751762  0.594171  1
