# generated using pymatgen
data_Tb5Dy15Ir5Rh7
_symmetry_space_group_name_H-M   'P 1'
_cell_length_a   10.89121936
_cell_length_b   10.89265877
_cell_length_c   6.37850802
_cell_angle_alpha   89.99430665
_cell_angle_beta   89.98387389
_cell_angle_gamma   90.04968101
_symmetry_Int_Tables_number   1
_chemical_formula_structural   Tb5Dy15Ir5Rh7
_chemical_formula_sum   'Tb5 Dy15 Ir5 Rh7'
_cell_volume   756.70974635
_cell_formula_units_Z   1
loop_
 _symmetry_equiv_pos_site_id
 _symmetry_equiv_pos_as_xyz
  1  'x, y, z'
loop_
 _atom_site_type_symbol
 _atom_site_label
 _atom_site_symmetry_multiplicity
 _atom_site_fract_x
 _atom_site_fract_y
 _atom_site_fract_z
 _atom_site_occupancy
  Tb  Tb0  1  0.290801  0.088750  0.378602  1
  Tb  Tb1  1  0.290650  0.909433  0.879882  1
  Tb  Tb2  1  0.708710  0.090376  0.879302  1
  Tb  Tb3  1  0.708514  0.909827  0.378699  1
  Tb  Tb4  1  0.588048  0.789723  0.879779  1
  Dy  Dy5  1  0.587721  0.209987  0.379841  1
  Dy  Dy6  1  0.410451  0.790283  0.379899  1
  Dy  Dy7  1  0.411954  0.209934  0.879716  1
  Dy  Dy8  1  0.209854  0.412161  0.619916  1
  Dy  Dy9  1  0.209440  0.589310  0.120022  1
  Dy  Dy10  1  0.790252  0.412392  0.120111  1
  Dy  Dy11  1  0.790411  0.587816  0.620121  1
  Dy  Dy12  1  0.911599  0.708923  0.121175  1
  Dy  Dy13  1  0.910062  0.291646  0.620388  1
  Dy  Dy14  1  0.090372  0.708976  0.619757  1
  Dy  Dy15  1  0.089999  0.291858  0.120994  1
  Dy  Dy16  1  0.000021  0.999784  0.500265  1
  Dy  Dy17  1  0.000223  0.999998  0.000078  1
  Dy  Dy18  1  0.499841  0.499601  0.000291  1
  Dy  Dy19  1  0.500232  0.500065  0.499946  1
  Ir  Ir20  1  0.152974  0.846436  0.250325  1
  Ir  Ir21  1  0.654528  0.345696  0.749881  1
  Ir  Ir22  1  0.654839  0.653983  0.250116  1
  Ir  Ir23  1  0.345649  0.345490  0.250079  1
  Ir  Ir24  1  0.345938  0.653549  0.749750  1
  Rh  Rh25  1  0.847019  0.153460  0.250245  1
  Rh  Rh26  1  0.846451  0.846588  0.750037  1
  Rh  Rh27  1  0.153011  0.154169  0.750367  1
  Rh  Rh28  1  0.500558  0.000470  0.124553  1
  Rh  Rh29  1  0.500374  0.000418  0.624814  1
  Rh  Rh30  1  0.999776  0.499541  0.875195  1
  Rh  Rh31  1  0.999729  0.499359  0.375853  1
