# generated using pymatgen
data_TbHoGe2(Ru2C)2
_symmetry_space_group_name_H-M   'P 1'
_cell_length_a   5.92745170
_cell_length_b   5.92745190
_cell_length_c   7.28394900
_cell_angle_alpha   90.00000000
_cell_angle_beta   90.00000000
_cell_angle_gamma   141.62363340
_symmetry_Int_Tables_number   1
_chemical_formula_structural   TbHoGe2(Ru2C)2
_chemical_formula_sum   'Tb1 Ho1 Ge2 Ru4 C2'
_cell_volume   158.88093416
_cell_formula_units_Z   1
loop_
 _symmetry_equiv_pos_site_id
 _symmetry_equiv_pos_as_xyz
  1  'x, y, z'
loop_
 _atom_site_type_symbol
 _atom_site_label
 _atom_site_symmetry_multiplicity
 _atom_site_fract_x
 _atom_site_fract_y
 _atom_site_fract_z
 _atom_site_occupancy
  Tb  Tb0  1  0.545759  0.454241  0.250000  1
  Ho  Ho1  1  0.454564  0.545436  0.750000  1
  Ge  Ge2  1  0.267055  0.732945  0.250000  1
  Ge  Ge3  1  0.733177  0.266823  0.750000  1
  Ru  Ru4  1  0.838199  0.161801  0.056369  1
  Ru  Ru5  1  0.161658  0.838342  0.942266  1
  Ru  Ru6  1  0.161658  0.838342  0.557734  1
  Ru  Ru7  1  0.838199  0.161801  0.443631  1
  C  C8  1  0.999864  0.000136  0.998345  1
  C  C9  1  0.999864  0.000136  0.501655  1
