# generated using pymatgen
data_Pa6Zn17Au6C
_symmetry_space_group_name_H-M   'P 1'
_cell_length_a   9.02496566
_cell_length_b   9.03959579
_cell_length_c   9.04018700
_cell_angle_alpha   59.99022077
_cell_angle_beta   59.95139884
_cell_angle_gamma   59.95692581
_symmetry_Int_Tables_number   1
_chemical_formula_structural   Pa6Zn17Au6C
_chemical_formula_sum   'Pa6 Zn17 Au6 C1'
_cell_volume   521.10312527
_cell_formula_units_Z   1
loop_
 _symmetry_equiv_pos_site_id
 _symmetry_equiv_pos_as_xyz
  1  'x, y, z'
loop_
 _atom_site_type_symbol
 _atom_site_label
 _atom_site_symmetry_multiplicity
 _atom_site_fract_x
 _atom_site_fract_y
 _atom_site_fract_z
 _atom_site_occupancy
  Pa  Pa0  1  0.696170  0.304733  0.304929  1
  Pa  Pa1  1  0.303727  0.695024  0.695217  1
  Pa  Pa2  1  0.303847  0.694889  0.306121  1
  Pa  Pa3  1  0.696064  0.304857  0.693978  1
  Pa  Pa4  1  0.303664  0.305776  0.695250  1
  Pa  Pa5  1  0.696193  0.693994  0.304882  1
  Zn  Zn6  1  0.634904  0.121838  0.121719  1
  Zn  Zn7  1  0.365149  0.878438  0.878132  1
  Zn  Zn8  1  0.499964  0.000136  0.999871  1
  Zn  Zn9  1  0.000136  0.499965  0.500044  1
  Zn  Zn10  1  0.000118  0.499963  0.999891  1
  Zn  Zn11  1  0.499963  0.000129  0.500054  1
  Zn  Zn12  1  0.000023  0.000046  0.499975  1
  Zn  Zn13  1  0.500035  0.500054  0.999972  1
  Zn  Zn14  1  0.330540  0.327870  0.328013  1
  Zn  Zn15  1  0.669478  0.672174  0.672096  1
  Zn  Zn16  1  0.330461  0.327926  0.013610  1
  Zn  Zn17  1  0.330505  0.013771  0.327903  1
  Zn  Zn18  1  0.669555  0.672092  0.986270  1
  Zn  Zn19  1  0.669311  0.986432  0.672103  1
  Zn  Zn20  1  0.015372  0.328241  0.328170  1
  Zn  Zn21  1  0.984779  0.671648  0.671817  1
  Zn  Zn22  1  0.000058  0.000036  0.999956  1
  Au  Au23  1  0.124222  0.118049  0.117952  1
  Au  Au24  1  0.875824  0.882067  0.881924  1
  Au  Au25  1  0.124334  0.117953  0.639793  1
  Au  Au26  1  0.124385  0.639815  0.117878  1
  Au  Au27  1  0.875725  0.882186  0.360176  1
  Au  Au28  1  0.875706  0.360203  0.882111  1
  C  C29  1  0.499787  0.499700  0.500193  1
