# generated using pymatgen
data_Y3Ho2Tl2(InPd)2
_symmetry_space_group_name_H-M   'P 1'
_cell_length_a   3.64306800
_cell_length_b   8.20519500
_cell_length_c   18.28424100
_cell_angle_alpha   90.00000000
_cell_angle_beta   90.00000000
_cell_angle_gamma   90.00000000
_symmetry_Int_Tables_number   1
_chemical_formula_structural   Y3Ho2Tl2(InPd)2
_chemical_formula_sum   'Y6 Ho4 Tl4 In4 Pd4'
_cell_volume   546.55405575
_cell_formula_units_Z   2
loop_
 _symmetry_equiv_pos_site_id
 _symmetry_equiv_pos_as_xyz
  1  'x, y, z'
loop_
 _atom_site_type_symbol
 _atom_site_label
 _atom_site_symmetry_multiplicity
 _atom_site_fract_x
 _atom_site_fract_y
 _atom_site_fract_z
 _atom_site_occupancy
  Y  Y0  1  0.000000  0.500000  0.500000  1
  Y  Y1  1  0.000000  0.000000  0.000000  1
  Y  Y2  1  0.000000  0.740975  0.282376  1
  Y  Y3  1  0.000000  0.259025  0.717624  1
  Y  Y4  1  0.000000  0.759025  0.782376  1
  Y  Y5  1  0.000000  0.240975  0.217624  1
  Ho  Ho6  1  0.000000  0.615917  0.085467  1
  Ho  Ho7  1  0.000000  0.384083  0.914533  1
  Ho  Ho8  1  0.000000  0.884083  0.585467  1
  Ho  Ho9  1  0.000000  0.115917  0.414533  1
  Tl  Tl10  1  0.500000  0.707293  0.934281  1
  Tl  Tl11  1  0.500000  0.292707  0.065719  1
  Tl  Tl12  1  0.500000  0.792707  0.434281  1
  Tl  Tl13  1  0.500000  0.207293  0.565719  1
  In  In14  1  0.500000  0.583951  0.651331  1
  In  In15  1  0.500000  0.416049  0.348669  1
  In  In16  1  0.500000  0.916049  0.151331  1
  In  In17  1  0.500000  0.083951  0.848669  1
  Pd  Pd18  1  0.500000  0.529008  0.197204  1
  Pd  Pd19  1  0.500000  0.470992  0.802796  1
  Pd  Pd20  1  0.500000  0.970992  0.697204  1
  Pd  Pd21  1  0.500000  0.029008  0.302796  1
