# generated using pymatgen
data_CsHfH5
_symmetry_space_group_name_H-M   'P 1'
_cell_length_a   12.01058800
_cell_length_b   7.66804600
_cell_length_c   5.59680300
_cell_angle_alpha   90.00000000
_cell_angle_beta   90.00000000
_cell_angle_gamma   90.00000000
_symmetry_Int_Tables_number   1
_chemical_formula_structural   CsHfH5
_chemical_formula_sum   'Cs4 Hf4 H20'
_cell_volume   515.45291464
_cell_formula_units_Z   4
loop_
 _symmetry_equiv_pos_site_id
 _symmetry_equiv_pos_as_xyz
  1  'x, y, z'
loop_
 _atom_site_type_symbol
 _atom_site_label
 _atom_site_symmetry_multiplicity
 _atom_site_fract_x
 _atom_site_fract_y
 _atom_site_fract_z
 _atom_site_occupancy
  Cs  Cs0  1  0.675181  0.074986  0.328325  1
  Cs  Cs1  1  0.175181  0.425013  0.328325  1
  Cs  Cs2  1  0.824819  0.574986  0.828325  1
  Cs  Cs3  1  0.324819  0.925014  0.828325  1
  Hf  Hf4  1  0.518114  0.581514  0.308884  1
  Hf  Hf5  1  0.018114  0.918486  0.308884  1
  Hf  Hf6  1  0.981886  0.081513  0.808883  1
  Hf  Hf7  1  0.481886  0.418487  0.808883  1
  H  H8  1  0.333588  0.327253  0.778197  1
  H  H9  1  0.833588  0.172747  0.778197  1
  H  H10  1  0.944321  0.695750  0.286834  1
  H  H11  1  0.444321  0.804249  0.286834  1
  H  H12  1  0.576023  0.392885  0.100520  1
  H  H13  1  0.076022  0.107115  0.100520  1
  H  H14  1  0.398828  0.483467  0.104290  1
  H  H15  1  0.898828  0.016534  0.104290  1
  H  H16  1  0.970294  0.140587  0.459948  1
  H  H17  1  0.470294  0.359414  0.459948  1
  H  H18  1  0.166412  0.827253  0.278196  1
  H  H19  1  0.666412  0.672746  0.278196  1
  H  H20  1  0.555680  0.195750  0.786836  1
  H  H21  1  0.055680  0.304249  0.786836  1
  H  H22  1  0.923978  0.892884  0.600520  1
  H  H23  1  0.423978  0.607116  0.600520  1
  H  H24  1  0.101172  0.983466  0.604290  1
  H  H25  1  0.601172  0.516534  0.604290  1
  H  H26  1  0.529706  0.640587  0.959950  1
  H  H27  1  0.029706  0.859414  0.959950  1
