# generated using pymatgen
data_La3Y9(Er2Bi3)4
_symmetry_space_group_name_H-M   'P 1'
_cell_length_a   8.33308803
_cell_length_b   9.53495401
_cell_length_c   12.19813503
_cell_angle_alpha   90.00026487
_cell_angle_beta   89.99235151
_cell_angle_gamma   89.99524745
_symmetry_Int_Tables_number   1
_chemical_formula_structural   La3Y9(Er2Bi3)4
_chemical_formula_sum   'La3 Y9 Er8 Bi12'
_cell_volume   969.21026054
_cell_formula_units_Z   1
loop_
 _symmetry_equiv_pos_site_id
 _symmetry_equiv_pos_as_xyz
  1  'x, y, z'
loop_
 _atom_site_type_symbol
 _atom_site_label
 _atom_site_symmetry_multiplicity
 _atom_site_fract_x
 _atom_site_fract_y
 _atom_site_fract_z
 _atom_site_occupancy
  La  La0  1  0.183965  0.749883  0.720870  1
  La  La1  1  0.684330  0.750125  0.778943  1
  La  La2  1  0.815665  0.249847  0.279349  1
  Y  Y3  1  0.314110  0.250276  0.218528  1
  Y  Y4  1  0.694059  0.562870  0.060993  1
  Y  Y5  1  0.192513  0.937367  0.438004  1
  Y  Y6  1  0.306387  0.062946  0.940116  1
  Y  Y7  1  0.807511  0.436585  0.560641  1
  Y  Y8  1  0.353188  0.749925  0.216568  1
  Y  Y9  1  0.854034  0.750034  0.282507  1
  Y  Y10  1  0.646340  0.249905  0.784311  1
  Y  Y11  1  0.147641  0.250009  0.716404  1
  Er  Er12  1  0.025824  0.750136  0.989661  1
  Er  Er13  1  0.523946  0.749801  0.510706  1
  Er  Er14  1  0.975323  0.250084  0.012553  1
  Er  Er15  1  0.474669  0.249850  0.488474  1
  Er  Er16  1  0.306792  0.434355  0.940234  1
  Er  Er17  1  0.807866  0.066160  0.560525  1
  Er  Er18  1  0.693497  0.934440  0.060747  1
  Er  Er19  1  0.192100  0.565454  0.438258  1
  Bi  Bi20  1  0.435700  0.009498  0.670642  1
  Bi  Bi21  1  0.935449  0.490170  0.829819  1
  Bi  Bi22  1  0.561262  0.506678  0.328170  1
  Bi  Bi23  1  0.069025  0.993730  0.171606  1
  Bi  Bi24  1  0.561914  0.993155  0.328270  1
  Bi  Bi25  1  0.069606  0.506393  0.171468  1
  Bi  Bi26  1  0.435141  0.490329  0.670522  1
  Bi  Bi27  1  0.934812  0.009926  0.829953  1
  Bi  Bi28  1  0.406103  0.748214  0.963508  1
  Bi  Bi29  1  0.905396  0.751756  0.536035  1
  Bi  Bi30  1  0.589566  0.248384  0.039866  1
  Bi  Bi31  1  0.096266  0.251715  0.461750  1
