# generated using pymatgen
data_CaTbYb2(Al3Pd)6
_symmetry_space_group_name_H-M   'P 1'
_cell_length_a   7.66327631
_cell_length_b   7.65858371
_cell_length_c   9.50652800
_cell_angle_alpha   90.00000000
_cell_angle_beta   90.00000000
_cell_angle_gamma   119.55700956
_symmetry_Int_Tables_number   1
_chemical_formula_structural   CaTbYb2(Al3Pd)6
_chemical_formula_sum   'Ca1 Tb1 Yb2 Al18 Pd6'
_cell_volume   485.32972118
_cell_formula_units_Z   1
loop_
 _symmetry_equiv_pos_site_id
 _symmetry_equiv_pos_as_xyz
  1  'x, y, z'
loop_
 _atom_site_type_symbol
 _atom_site_label
 _atom_site_symmetry_multiplicity
 _atom_site_fract_x
 _atom_site_fract_y
 _atom_site_fract_z
 _atom_site_occupancy
  Ca  Ca0  1  0.672040  0.997049  0.250000  1
  Tb  Tb1  1  0.330057  0.002810  0.750000  1
  Yb  Yb2  1  0.994844  0.669407  0.250000  1
  Yb  Yb3  1  0.003855  0.330179  0.750000  1
  Al  Al4  1  0.132994  0.132029  0.250000  1
  Al  Al5  1  0.871481  0.869560  0.750000  1
  Al  Al6  1  0.001661  0.335222  0.074881  1
  Al  Al7  1  0.998631  0.664378  0.922383  1
  Al  Al8  1  0.998631  0.664378  0.577617  1
  Al  Al9  1  0.334339  0.000237  0.424470  1
  Al  Al10  1  0.001661  0.335222  0.425119  1
  Al  Al11  1  0.665939  0.999858  0.577699  1
  Al  Al12  1  0.665939  0.999858  0.922301  1
  Al  Al13  1  0.334339  0.000237  0.075530  1
  Al  Al14  1  0.332796  0.332514  0.557749  1
  Al  Al15  1  0.666390  0.666311  0.445941  1
  Al  Al16  1  0.666390  0.666311  0.054059  1
  Al  Al17  1  0.332796  0.332514  0.942251  1
  Al  Al18  1  0.338918  0.545723  0.250000  1
  Al  Al19  1  0.656592  0.452445  0.750000  1
  Al  Al20  1  0.544458  0.341175  0.250000  1
  Al  Al21  1  0.455413  0.663002  0.750000  1
  Pd  Pd22  1  0.671594  0.328161  0.999529  1
  Pd  Pd23  1  0.327583  0.671426  0.998991  1
  Pd  Pd24  1  0.327583  0.671426  0.501009  1
  Pd  Pd25  1  0.671594  0.328161  0.500471  1
  Pd  Pd26  1  0.000740  0.000202  0.999239  1
  Pd  Pd27  1  0.000740  0.000202  0.500761  1
