# generated using pymatgen
data_Tb6DyCoBr12
_symmetry_space_group_name_H-M   'P 1'
_cell_length_a   9.23763563
_cell_length_b   9.23763500
_cell_length_c   9.23763635
_cell_angle_alpha   106.63382530
_cell_angle_beta   106.63380626
_cell_angle_gamma   106.63381032
_symmetry_Int_Tables_number   1
_chemical_formula_structural   Tb6DyCoBr12
_chemical_formula_sum   'Tb6 Dy1 Co1 Br12'
_cell_volume   662.93858842
_cell_formula_units_Z   1
loop_
 _symmetry_equiv_pos_site_id
 _symmetry_equiv_pos_as_xyz
  1  'x, y, z'
loop_
 _atom_site_type_symbol
 _atom_site_label
 _atom_site_symmetry_multiplicity
 _atom_site_fract_x
 _atom_site_fract_y
 _atom_site_fract_z
 _atom_site_occupancy
  Tb  Tb0  1  0.979467  0.903009  0.698421  1
  Tb  Tb1  1  0.020533  0.096991  0.301579  1
  Tb  Tb2  1  0.096991  0.301579  0.020533  1
  Tb  Tb3  1  0.301579  0.020533  0.096991  1
  Tb  Tb4  1  0.903009  0.698421  0.979467  1
  Tb  Tb5  1  0.698421  0.979467  0.903009  1
  Dy  Dy6  1  0.500000  0.500000  0.500000  1
  Co  Co7  1  0.000000  0.000000  0.000000  1
  Br  Br8  1  0.539344  0.614956  0.832626  1
  Br  Br9  1  0.460656  0.385044  0.167374  1
  Br  Br10  1  0.322869  0.929588  0.778414  1
  Br  Br11  1  0.385044  0.167374  0.460656  1
  Br  Br12  1  0.929588  0.778414  0.322869  1
  Br  Br13  1  0.677131  0.070412  0.221586  1
  Br  Br14  1  0.070412  0.221586  0.677131  1
  Br  Br15  1  0.778414  0.322869  0.929588  1
  Br  Br16  1  0.221586  0.677131  0.070412  1
  Br  Br17  1  0.832626  0.539344  0.614956  1
  Br  Br18  1  0.167374  0.460656  0.385044  1
  Br  Br19  1  0.614956  0.832626  0.539344  1
