# generated using pymatgen
data_Ti11Nb8Si16Ru
_symmetry_space_group_name_H-M   'P 1'
_cell_length_a   6.47645400
_cell_length_b   6.59704187
_cell_length_c   12.83583400
_cell_angle_alpha   90.00000000
_cell_angle_beta   90.00000000
_cell_angle_gamma   89.85587977
_symmetry_Int_Tables_number   1
_chemical_formula_structural   Ti11Nb8Si16Ru
_chemical_formula_sum   'Ti11 Nb8 Si16 Ru1'
_cell_volume   548.41489747
_cell_formula_units_Z   1
loop_
 _symmetry_equiv_pos_site_id
 _symmetry_equiv_pos_as_xyz
  1  'x, y, z'
loop_
 _atom_site_type_symbol
 _atom_site_label
 _atom_site_symmetry_multiplicity
 _atom_site_fract_x
 _atom_site_fract_y
 _atom_site_fract_z
 _atom_site_occupancy
  Ti  Ti0  1  0.162997  0.493022  0.750000  1
  Ti  Ti1  1  0.836078  0.505014  0.250000  1
  Ti  Ti2  1  0.334256  0.992005  0.250000  1
  Ti  Ti3  1  0.335248  0.170387  0.626783  1
  Ti  Ti4  1  0.660700  0.830396  0.376120  1
  Ti  Ti5  1  0.163473  0.670834  0.374953  1
  Ti  Ti6  1  0.660700  0.830396  0.123880  1
  Ti  Ti7  1  0.840373  0.334755  0.626248  1
  Ti  Ti8  1  0.335248  0.170387  0.873217  1
  Ti  Ti9  1  0.840373  0.334755  0.873752  1
  Ti  Ti10  1  0.163473  0.670834  0.125047  1
  Nb  Nb11  1  0.991992  0.174229  0.092374  1
  Nb  Nb12  1  0.008732  0.824758  0.911715  1
  Nb  Nb13  1  0.503323  0.672455  0.912668  1
  Nb  Nb14  1  0.008732  0.824758  0.588285  1
  Nb  Nb15  1  0.494232  0.325225  0.090920  1
  Nb  Nb16  1  0.991992  0.174229  0.407626  1
  Nb  Nb17  1  0.494232  0.325225  0.409080  1
  Nb  Nb18  1  0.503323  0.672455  0.587332  1
  Si  Si19  1  0.032520  0.101868  0.750000  1
  Si  Si20  1  0.960151  0.889324  0.250000  1
  Si  Si21  1  0.462854  0.609527  0.250000  1
  Si  Si22  1  0.539457  0.395890  0.750000  1
  Si  Si23  1  0.309029  0.854502  0.750000  1
  Si  Si24  1  0.697498  0.142947  0.250000  1
  Si  Si25  1  0.200182  0.356687  0.250000  1
  Si  Si26  1  0.800035  0.654612  0.750000  1
  Si  Si27  1  0.174299  0.461385  0.536726  1
  Si  Si28  1  0.826087  0.536873  0.461572  1
  Si  Si29  1  0.325250  0.963238  0.463265  1
  Si  Si30  1  0.826087  0.536873  0.038428  1
  Si  Si31  1  0.675009  0.038750  0.540653  1
  Si  Si32  1  0.174299  0.461385  0.963274  1
  Si  Si33  1  0.675009  0.038750  0.959347  1
  Si  Si34  1  0.325250  0.963238  0.036735  1
  Ru  Ru35  1  0.667499  0.998035  0.750000  1
