# generated using pymatgen
data_Pr3YO6
_symmetry_space_group_name_H-M   'P 1'
_cell_length_a   7.01880001
_cell_length_b   7.01880036
_cell_length_c   7.01880054
_cell_angle_alpha   91.78993530
_cell_angle_beta   91.78993892
_cell_angle_gamma   91.78993317
_symmetry_Int_Tables_number   1
_chemical_formula_structural   Pr3YO6
_chemical_formula_sum   'Pr6 Y2 O12'
_cell_volume   345.25412980
_cell_formula_units_Z   2
loop_
 _symmetry_equiv_pos_site_id
 _symmetry_equiv_pos_as_xyz
  1  'x, y, z'
loop_
 _atom_site_type_symbol
 _atom_site_label
 _atom_site_symmetry_multiplicity
 _atom_site_fract_x
 _atom_site_fract_y
 _atom_site_fract_z
 _atom_site_occupancy
  Pr  Pr0  1  0.747820  0.936819  0.443772  1
  Pr  Pr1  1  0.443772  0.747820  0.936819  1
  Pr  Pr2  1  0.063181  0.556228  0.252180  1
  Pr  Pr3  1  0.936819  0.443772  0.747820  1
  Pr  Pr4  1  0.556228  0.252180  0.063181  1
  Pr  Pr5  1  0.252180  0.063181  0.556228  1
  Y  Y6  1  0.000000  0.000000  0.000000  1
  Y  Y7  1  0.500000  0.500000  0.500000  1
  O  O8  1  0.067092  0.908477  0.308305  1
  O  O9  1  0.691695  0.932908  0.091523  1
  O  O10  1  0.468247  0.809679  0.597653  1
  O  O11  1  0.091523  0.691695  0.932908  1
  O  O12  1  0.809679  0.597653  0.468247  1
  O  O13  1  0.402347  0.531753  0.190321  1
  O  O14  1  0.597653  0.468247  0.809679  1
  O  O15  1  0.190321  0.402347  0.531753  1
  O  O16  1  0.908477  0.308305  0.067092  1
  O  O17  1  0.531753  0.190321  0.402347  1
  O  O18  1  0.308305  0.067092  0.908477  1
  O  O19  1  0.932908  0.091523  0.691695  1
