# generated using pymatgen
data_Hf2Co3P7Ru9
_symmetry_space_group_name_H-M   'P 1'
_cell_length_a   9.26341700
_cell_length_b   9.26341809
_cell_length_c   3.77013800
_cell_angle_alpha   90.00000000
_cell_angle_beta   90.00000000
_cell_angle_gamma   119.99999252
_symmetry_Int_Tables_number   1
_chemical_formula_structural   Hf2Co3P7Ru9
_chemical_formula_sum   'Hf2 Co3 P7 Ru9'
_cell_volume   280.17565253
_cell_formula_units_Z   1
loop_
 _symmetry_equiv_pos_site_id
 _symmetry_equiv_pos_as_xyz
  1  'x, y, z'
loop_
 _atom_site_type_symbol
 _atom_site_label
 _atom_site_symmetry_multiplicity
 _atom_site_fract_x
 _atom_site_fract_y
 _atom_site_fract_z
 _atom_site_occupancy
  Hf  Hf0  1  0.000000  0.000000  0.000000  1
  Hf  Hf1  1  0.333333  0.666667  0.500000  1
  Co  Co2  1  0.825366  0.607807  0.000000  1
  Co  Co3  1  0.392193  0.217559  0.000000  1
  Co  Co4  1  0.782441  0.174634  0.000000  1
  P  P5  1  0.786247  0.737246  0.500000  1
  P  P6  1  0.262754  0.049001  0.500000  1
  P  P7  1  0.950999  0.213753  0.500000  1
  P  P8  1  0.666667  0.333333  0.000000  1
  P  P9  1  0.078227  0.633080  0.000000  1
  P  P10  1  0.366920  0.445147  0.000000  1
  P  P11  1  0.554853  0.921773  0.000000  1
  Ru  Ru12  1  0.099523  0.402077  0.000000  1
  Ru  Ru13  1  0.597923  0.697446  0.000000  1
  Ru  Ru14  1  0.302554  0.900477  0.000000  1
  Ru  Ru15  1  0.050588  0.774954  0.500000  1
  Ru  Ru16  1  0.225046  0.275636  0.500000  1
  Ru  Ru17  1  0.724364  0.949412  0.500000  1
  Ru  Ru18  1  0.878612  0.421581  0.500000  1
  Ru  Ru19  1  0.578419  0.457031  0.500000  1
  Ru  Ru20  1  0.542969  0.121388  0.500000  1
