# generated using pymatgen
data_La3Th(BiTe)4
_symmetry_space_group_name_H-M   'P 1'
_cell_length_a   4.52605400
_cell_length_b   4.52713339
_cell_length_c   19.18336882
_cell_angle_alpha   90.02037064
_cell_angle_beta   90.00000000
_cell_angle_gamma   90.00000000
_symmetry_Int_Tables_number   1
_chemical_formula_structural   La3Th(BiTe)4
_chemical_formula_sum   'La3 Th1 Bi4 Te4'
_cell_volume   393.06816465
_cell_formula_units_Z   1
loop_
 _symmetry_equiv_pos_site_id
 _symmetry_equiv_pos_as_xyz
  1  'x, y, z'
loop_
 _atom_site_type_symbol
 _atom_site_label
 _atom_site_symmetry_multiplicity
 _atom_site_fract_x
 _atom_site_fract_y
 _atom_site_fract_z
 _atom_site_occupancy
  La  La0  1  0.750000  0.257468  0.358420  1
  La  La1  1  0.250000  0.741936  0.642630  1
  La  La2  1  0.750000  0.243661  0.858771  1
  Th  Th3  1  0.250000  0.755270  0.139007  1
  Bi  Bi4  1  0.250000  0.251571  0.004095  1
  Bi  Bi5  1  0.750000  0.752121  0.498598  1
  Bi  Bi6  1  0.250000  0.248425  0.498895  1
  Bi  Bi7  1  0.750000  0.750987  0.004095  1
  Te  Te8  1  0.750000  0.256383  0.182449  1
  Te  Te9  1  0.250000  0.758246  0.309132  1
  Te  Te10  1  0.750000  0.241363  0.685884  1
  Te  Te11  1  0.250000  0.742571  0.818022  1
