# generated using pymatgen
data_GaPH6
_symmetry_space_group_name_H-M   'P 1'
_cell_length_a   3.90306315
_cell_length_b   3.91986567
_cell_length_c   9.58932314
_cell_angle_alpha   89.18361825
_cell_angle_beta   98.50633590
_cell_angle_gamma   120.12425278
_symmetry_Int_Tables_number   1
_chemical_formula_structural   GaPH6
_chemical_formula_sum   'Ga1 P1 H6'
_cell_volume   125.19176465
_cell_formula_units_Z   1
loop_
 _symmetry_equiv_pos_site_id
 _symmetry_equiv_pos_as_xyz
  1  'x, y, z'
loop_
 _atom_site_type_symbol
 _atom_site_label
 _atom_site_symmetry_multiplicity
 _atom_site_fract_x
 _atom_site_fract_y
 _atom_site_fract_z
 _atom_site_occupancy
  Ga  Ga0  1  0.631763  0.011228  0.669102  1
  P  P1  1  0.337312  0.360998  0.750575  1
  H  H2  1  0.136935  0.766272  0.054420  1
  H  H3  1  0.230394  0.822565  0.130694  1
  H  H4  1  0.467377  0.439906  0.300792  1
  H  H5  1  0.405528  0.388030  0.900582  1
  H  H6  1  0.624471  0.508945  0.253975  1
  H  H7  1  0.553513  0.976957  0.504248  1
