# generated using pymatgen
data_Zr6Fe5Co10Si7Rh
_symmetry_space_group_name_H-M   'P 1'
_cell_length_a   8.11886872
_cell_length_b   8.11886840
_cell_length_c   8.13421342
_cell_angle_alpha   60.06991942
_cell_angle_beta   60.06992403
_cell_angle_gamma   59.97079566
_symmetry_Int_Tables_number   1
_chemical_formula_structural   Zr6Fe5Co10Si7Rh
_chemical_formula_sum   'Zr6 Fe5 Co10 Si7 Rh1'
_cell_volume   379.44918338
_cell_formula_units_Z   1
loop_
 _symmetry_equiv_pos_site_id
 _symmetry_equiv_pos_as_xyz
  1  'x, y, z'
loop_
 _atom_site_type_symbol
 _atom_site_label
 _atom_site_symmetry_multiplicity
 _atom_site_fract_x
 _atom_site_fract_y
 _atom_site_fract_z
 _atom_site_occupancy
  Zr  Zr0  1  0.703575  0.703575  0.295535  1
  Zr  Zr1  1  0.296826  0.704778  0.293848  1
  Zr  Zr2  1  0.704778  0.296826  0.293848  1
  Zr  Zr3  1  0.292673  0.292673  0.708761  1
  Zr  Zr4  1  0.704973  0.294207  0.708022  1
  Zr  Zr5  1  0.294207  0.704973  0.708022  1
  Fe  Fe6  1  0.672510  0.672510  0.677983  1
  Fe  Fe7  1  0.323827  0.323827  0.027648  1
  Fe  Fe8  1  0.323904  0.028689  0.322369  1
  Fe  Fe9  1  0.028689  0.323904  0.322369  1
  Fe  Fe10  1  0.324208  0.324208  0.323238  1
  Co  Co11  1  0.879520  0.357985  0.880578  1
  Co  Co12  1  0.357985  0.879520  0.880578  1
  Co  Co13  1  0.880579  0.880579  0.881454  1
  Co  Co14  1  0.121633  0.121633  0.634800  1
  Co  Co15  1  0.122827  0.636659  0.117438  1
  Co  Co16  1  0.636659  0.122827  0.117438  1
  Co  Co17  1  0.123185  0.123185  0.117160  1
  Co  Co18  1  0.673002  0.673002  0.981896  1
  Co  Co19  1  0.670992  0.983345  0.675459  1
  Co  Co20  1  0.983345  0.670992  0.675459  1
  Si  Si21  1  0.004659  0.004659  0.987050  1
  Si  Si22  1  0.998722  0.998722  0.507006  1
  Si  Si23  1  0.494605  0.999991  0.505808  1
  Si  Si24  1  0.999991  0.494605  0.505808  1
  Si  Si25  1  0.500306  0.500306  0.001447  1
  Si  Si26  1  0.997405  0.501733  0.999145  1
  Si  Si27  1  0.501733  0.997405  0.999145  1
  Rh  Rh28  1  0.882685  0.882685  0.350692  1
