# generated using pymatgen
data_Al5CrCl18
_symmetry_space_group_name_H-M   'P 1'
_cell_length_a   6.02468301
_cell_length_b   6.02466746
_cell_length_c   20.27402201
_cell_angle_alpha   90.00212444
_cell_angle_beta   90.00078083
_cell_angle_gamma   120.00486088
_symmetry_Int_Tables_number   1
_chemical_formula_structural   Al5CrCl18
_chemical_formula_sum   'Al5 Cr1 Cl18'
_cell_volume   637.25984198
_cell_formula_units_Z   1
loop_
 _symmetry_equiv_pos_site_id
 _symmetry_equiv_pos_as_xyz
  1  'x, y, z'
loop_
 _atom_site_type_symbol
 _atom_site_label
 _atom_site_symmetry_multiplicity
 _atom_site_fract_x
 _atom_site_fract_y
 _atom_site_fract_z
 _atom_site_occupancy
  Al  Al0  1  0.221564  0.110874  0.999984  1
  Al  Al1  1  0.888242  0.444174  0.999983  1
  Al  Al2  1  0.555834  0.111747  0.333346  1
  Al  Al3  1  0.889130  0.778421  0.333344  1
  Al  Al4  1  0.889266  0.110725  0.666673  1
  Cr  Cr5  1  0.555864  0.444132  0.666667  1
  Cl  Cl6  1  0.555004  0.413894  0.066005  1
  Cl  Cl7  1  0.191177  0.777661  0.066007  1
  Cl  Cl8  1  0.918750  0.141414  0.066043  1
  Cl  Cl9  1  0.858602  0.081255  0.267291  1
  Cl  Cl10  1  0.222335  0.808814  0.267325  1
  Cl  Cl11  1  0.586107  0.445002  0.267330  1
  Cl  Cl12  1  0.858589  0.445018  0.399390  1
  Cl  Cl13  1  0.586529  0.808989  0.399408  1
  Cl  Cl14  1  0.222531  0.081098  0.399413  1
  Cl  Cl15  1  0.220589  0.137934  0.600650  1
  Cl  Cl16  1  0.585046  0.779455  0.600699  1
  Cl  Cl17  1  0.862284  0.414954  0.600677  1
  Cl  Cl18  1  0.585027  0.137710  0.732657  1
  Cl  Cl19  1  0.220557  0.414959  0.732635  1
  Cl  Cl20  1  0.862071  0.779406  0.732682  1
  Cl  Cl21  1  0.918904  0.777470  0.933920  1
  Cl  Cl22  1  0.191014  0.413481  0.933928  1
  Cl  Cl23  1  0.554993  0.141418  0.933944  1
