# generated using pymatgen
data_Zr10TlIn2Bi4Pb
_symmetry_space_group_name_H-M   'P 1'
_cell_length_a   8.95418631
_cell_length_b   8.97678337
_cell_length_c   6.03030700
_cell_angle_alpha   90.00000000
_cell_angle_beta   90.00000000
_cell_angle_gamma   119.80538139
_symmetry_Int_Tables_number   1
_chemical_formula_structural   Zr10TlIn2Bi4Pb
_chemical_formula_sum   'Zr10 Tl1 In2 Bi4 Pb1'
_cell_volume   420.59614438
_cell_formula_units_Z   1
loop_
 _symmetry_equiv_pos_site_id
 _symmetry_equiv_pos_as_xyz
  1  'x, y, z'
loop_
 _atom_site_type_symbol
 _atom_site_label
 _atom_site_symmetry_multiplicity
 _atom_site_fract_x
 _atom_site_fract_y
 _atom_site_fract_z
 _atom_site_occupancy
  Zr  Zr0  1  0.667128  0.333053  0.002128  1
  Zr  Zr1  1  0.333007  0.666957  0.002182  1
  Zr  Zr2  1  0.333007  0.666957  0.497818  1
  Zr  Zr3  1  0.667128  0.333053  0.497872  1
  Zr  Zr4  1  0.720901  0.720411  0.750000  1
  Zr  Zr5  1  0.280572  0.000241  0.750000  1
  Zr  Zr6  1  0.000620  0.280142  0.750000  1
  Zr  Zr7  1  0.280980  0.280518  0.250000  1
  Zr  Zr8  1  0.717066  0.000429  0.250000  1
  Zr  Zr9  1  0.000834  0.719129  0.250000  1
  Tl  Tl10  1  0.379615  0.000302  0.250000  1
  In  In11  1  0.001138  0.000644  0.002055  1
  In  In12  1  0.001138  0.000644  0.497945  1
  Bi  Bi13  1  0.383114  0.382597  0.750000  1
  Bi  Bi14  1  0.615066  0.000350  0.750000  1
  Bi  Bi15  1  0.000848  0.616311  0.750000  1
  Bi  Bi16  1  0.617119  0.616759  0.250000  1
  Pb  Pb17  1  0.000719  0.381504  0.250000  1
