# generated using pymatgen
data_Y4Co9Si4Tc
_symmetry_space_group_name_H-M   'P 1'
_cell_length_a   11.43798910
_cell_length_b   11.43798907
_cell_length_c   11.43798876
_cell_angle_alpha   26.24137176
_cell_angle_beta   26.24137331
_cell_angle_gamma   26.24136774
_symmetry_Int_Tables_number   1
_chemical_formula_structural   Y4Co9Si4Tc
_chemical_formula_sum   'Y4 Co9 Si4 Tc1'
_cell_volume   257.77791242
_cell_formula_units_Z   1
loop_
 _symmetry_equiv_pos_site_id
 _symmetry_equiv_pos_as_xyz
  1  'x, y, z'
loop_
 _atom_site_type_symbol
 _atom_site_label
 _atom_site_symmetry_multiplicity
 _atom_site_fract_x
 _atom_site_fract_y
 _atom_site_fract_z
 _atom_site_occupancy
  Y  Y0  1  0.949857  0.949857  0.949857  1
  Y  Y1  1  0.852092  0.852092  0.852092  1
  Y  Y2  1  0.147908  0.147908  0.147908  1
  Y  Y3  1  0.050143  0.050143  0.050143  1
  Co  Co4  1  0.607353  0.607353  0.105964  1
  Co  Co5  1  0.894036  0.392647  0.392647  1
  Co  Co6  1  0.500000  0.000000  0.500000  1
  Co  Co7  1  0.392647  0.894036  0.392647  1
  Co  Co8  1  0.500000  0.500000  0.000000  1
  Co  Co9  1  0.105964  0.607353  0.607353  1
  Co  Co10  1  0.000000  0.500000  0.500000  1
  Co  Co11  1  0.392647  0.392647  0.894036  1
  Co  Co12  1  0.607353  0.105964  0.607353  1
  Si  Si13  1  0.280353  0.280353  0.280353  1
  Si  Si14  1  0.387069  0.387069  0.387069  1
  Si  Si15  1  0.719647  0.719647  0.719647  1
  Si  Si16  1  0.612931  0.612931  0.612931  1
  Tc  Tc17  1  0.500000  0.500000  0.500000  1
