# generated using pymatgen
data_Sr5Cd2As5F
_symmetry_space_group_name_H-M   'P 1'
_cell_length_a   10.99582294
_cell_length_b   10.99582279
_cell_length_c   14.16267700
_cell_angle_alpha   90.00000000
_cell_angle_beta   90.00000000
_cell_angle_gamma   156.14404257
_symmetry_Int_Tables_number   1
_chemical_formula_structural   Sr5Cd2As5F
_chemical_formula_sum   'Sr10 Cd4 As10 F2'
_cell_volume   692.55380102
_cell_formula_units_Z   2
loop_
 _symmetry_equiv_pos_site_id
 _symmetry_equiv_pos_as_xyz
  1  'x, y, z'
loop_
 _atom_site_type_symbol
 _atom_site_label
 _atom_site_symmetry_multiplicity
 _atom_site_fract_x
 _atom_site_fract_y
 _atom_site_fract_z
 _atom_site_occupancy
  Sr  Sr0  1  0.903892  0.096108  0.250000  1
  Sr  Sr1  1  0.096108  0.903892  0.750000  1
  Sr  Sr2  1  0.097781  0.902219  0.250000  1
  Sr  Sr3  1  0.902219  0.097781  0.750000  1
  Sr  Sr4  1  0.731282  0.268718  0.617929  1
  Sr  Sr5  1  0.268718  0.731282  0.117929  1
  Sr  Sr6  1  0.268718  0.731282  0.382071  1
  Sr  Sr7  1  0.731282  0.268718  0.882071  1
  Sr  Sr8  1  0.000000  0.000000  0.000000  1
  Sr  Sr9  1  0.000000  0.000000  0.500000  1
  Cd  Cd10  1  0.630865  0.369135  0.083667  1
  Cd  Cd11  1  0.369135  0.630865  0.583667  1
  Cd  Cd12  1  0.369135  0.630865  0.916333  1
  Cd  Cd13  1  0.630865  0.369135  0.416333  1
  As  As14  1  0.507397  0.492603  0.160687  1
  As  As15  1  0.492603  0.507397  0.660687  1
  As  As16  1  0.492603  0.507397  0.839313  1
  As  As17  1  0.507397  0.492603  0.339313  1
  As  As18  1  0.704913  0.295087  0.250000  1
  As  As19  1  0.295087  0.704913  0.750000  1
  As  As20  1  0.851104  0.148896  0.020902  1
  As  As21  1  0.148896  0.851104  0.520902  1
  As  As22  1  0.148896  0.851104  0.979098  1
  As  As23  1  0.851104  0.148896  0.479098  1
  F  F24  1  0.346220  0.653780  0.250000  1
  F  F25  1  0.653780  0.346220  0.750000  1
