# generated using pymatgen
data_Pr5Sn15Ir8
_symmetry_space_group_name_H-M   'P 1'
_cell_length_a   4.52959700
_cell_length_b   7.36348958
_cell_length_c   18.77925664
_cell_angle_alpha   89.89761251
_cell_angle_beta   90.00000000
_cell_angle_gamma   90.00000000
_symmetry_Int_Tables_number   1
_chemical_formula_structural   Pr5Sn15Ir8
_chemical_formula_sum   'Pr5 Sn15 Ir8'
_cell_volume   626.35557077
_cell_formula_units_Z   1
loop_
 _symmetry_equiv_pos_site_id
 _symmetry_equiv_pos_as_xyz
  1  'x, y, z'
loop_
 _atom_site_type_symbol
 _atom_site_label
 _atom_site_symmetry_multiplicity
 _atom_site_fract_x
 _atom_site_fract_y
 _atom_site_fract_z
 _atom_site_occupancy
  Pr  Pr0  1  0.500000  0.001873  0.855992  1
  Pr  Pr1  1  0.500000  0.499442  0.357556  1
  Pr  Pr2  1  0.000000  0.999983  0.143728  1
  Pr  Pr3  1  0.000000  0.501148  0.641953  1
  Pr  Pr4  1  0.500000  0.491285  0.930658  1
  Sn  Sn5  1  0.000000  0.718441  0.805751  1
  Sn  Sn6  1  0.000000  0.779518  0.306545  1
  Sn  Sn7  1  0.500000  0.276930  0.193768  1
  Sn  Sn8  1  0.500000  0.218960  0.692591  1
  Sn  Sn9  1  0.000000  0.854133  0.969307  1
  Sn  Sn10  1  0.000000  0.631264  0.467848  1
  Sn  Sn11  1  0.500000  0.133894  0.032833  1
  Sn  Sn12  1  0.500000  0.366603  0.531746  1
  Sn  Sn13  1  0.000000  0.304308  0.818502  1
  Sn  Sn14  1  0.000000  0.199303  0.317870  1
  Sn  Sn15  1  0.500000  0.697724  0.185806  1
  Sn  Sn16  1  0.500000  0.807801  0.678680  1
  Sn  Sn17  1  0.500000  0.020573  0.433534  1
  Sn  Sn18  1  0.000000  0.513660  0.067573  1
  Sn  Sn19  1  0.000000  0.979788  0.567923  1
  Ir  Ir20  1  0.000000  0.228504  0.964645  1
  Ir  Ir21  1  0.000000  0.248112  0.464427  1
  Ir  Ir22  1  0.500000  0.765668  0.045109  1
  Ir  Ir23  1  0.500000  0.750296  0.533723  1
  Ir  Ir24  1  0.000000  0.018728  0.715941  1
  Ir  Ir25  1  0.000000  0.483196  0.214637  1
  Ir  Ir26  1  0.500000  0.987180  0.288462  1
  Ir  Ir27  1  0.500000  0.521682  0.772890  1
