# generated using pymatgen
data_Ca12Ti5In8Ge7O48
_symmetry_space_group_name_H-M   'P 1'
_cell_length_a   11.11222212
_cell_length_b   11.10595811
_cell_length_c   11.11044825
_cell_angle_alpha   109.45920673
_cell_angle_beta   109.48981102
_cell_angle_gamma   109.47751896
_symmetry_Int_Tables_number   1
_chemical_formula_structural   Ca12Ti5In8Ge7O48
_chemical_formula_sum   'Ca12 Ti5 In8 Ge7 O48'
_cell_volume   1055.35260413
_cell_formula_units_Z   1
loop_
 _symmetry_equiv_pos_site_id
 _symmetry_equiv_pos_as_xyz
  1  'x, y, z'
loop_
 _atom_site_type_symbol
 _atom_site_label
 _atom_site_symmetry_multiplicity
 _atom_site_fract_x
 _atom_site_fract_y
 _atom_site_fract_z
 _atom_site_occupancy
  Ca  Ca0  1  0.249439  0.373994  0.123450  1
  Ca  Ca1  1  0.750636  0.625719  0.876144  1
  Ca  Ca2  1  0.749643  0.125318  0.374663  1
  Ca  Ca3  1  0.124870  0.249846  0.374989  1
  Ca  Ca4  1  0.373444  0.749987  0.123305  1
  Ca  Ca5  1  0.250323  0.874978  0.625641  1
  Ca  Ca6  1  0.875409  0.750526  0.625795  1
  Ca  Ca7  1  0.626362  0.250542  0.876780  1
  Ca  Ca8  1  0.374410  0.124361  0.248897  1
  Ca  Ca9  1  0.626057  0.875537  0.750783  1
  Ca  Ca10  1  0.124522  0.374682  0.749064  1
  Ca  Ca11  1  0.875057  0.624584  0.250439  1
  Ti  Ti12  1  0.249298  0.624544  0.374467  1
  Ti  Ti13  1  0.750702  0.375447  0.625525  1
  Ti  Ti14  1  0.749905  0.875458  0.124740  1
  Ti  Ti15  1  0.375251  0.249917  0.625262  1
  Ti  Ti16  1  0.625126  0.749846  0.374462  1
  In  In17  1  0.000584  0.999948  0.998584  1
  In  In18  1  0.500059  0.999987  0.500036  1
  In  In19  1  0.999936  0.499971  0.499945  1
  In  In20  1  0.498603  0.000607  0.000033  1
  In  In21  1  0.499354  0.497986  0.999409  1
  In  In22  1  0.499960  0.499998  0.500039  1
  In  In23  1  0.001355  0.001363  0.502043  1
  In  In24  1  0.000051  0.500067  0.000004  1
  Ge  Ge25  1  0.249965  0.124598  0.875033  1
  Ge  Ge26  1  0.124656  0.749958  0.874584  1
  Ge  Ge27  1  0.874958  0.249544  0.124916  1
  Ge  Ge28  1  0.624948  0.374688  0.250022  1
  Ge  Ge29  1  0.375041  0.625398  0.750426  1
  Ge  Ge30  1  0.875325  0.125422  0.750371  1
  Ge  Ge31  1  0.124671  0.875059  0.249679  1
  O  O32  1  0.480638  0.377136  0.287133  1
  O  O33  1  0.519137  0.622857  0.713002  1
  O  O34  1  0.588795  0.192563  0.212919  1
  O  O35  1  0.909496  0.122835  0.603372  1
  O  O36  1  0.287851  0.476303  0.374920  1
  O  O37  1  0.306301  0.910128  0.287129  1
  O  O38  1  0.411549  0.807988  0.787944  1
  O  O39  1  0.090214  0.877738  0.396784  1
  O  O40  1  0.712110  0.523654  0.625019  1
  O  O41  1  0.693660  0.090131  0.713072  1
  O  O42  1  0.020239  0.307768  0.896091  1
  O  O43  1  0.212202  0.587453  0.187949  1
  O  O44  1  0.122940  0.019838  0.211992  1
  O  O45  1  0.979969  0.692592  0.104104  1
  O  O46  1  0.787808  0.412518  0.812042  1
  O  O47  1  0.876785  0.980119  0.786509  1
  O  O48  1  0.600433  0.912696  0.124355  1
  O  O49  1  0.193601  0.480761  0.603183  1
  O  O50  1  0.396229  0.088988  0.876103  1
  O  O51  1  0.806443  0.519500  0.397098  1
  O  O52  1  0.898636  0.023270  0.311703  1
  O  O53  1  0.376593  0.588644  0.896228  1
  O  O54  1  0.104453  0.979869  0.692966  1
  O  O55  1  0.623799  0.410262  0.103992  1
  O  O56  1  0.376495  0.287065  0.476494  1
  O  O57  1  0.587121  0.898616  0.375020  1
  O  O58  1  0.623427  0.712786  0.523106  1
  O  O59  1  0.412958  0.100924  0.625095  1
  O  O60  1  0.122527  0.603154  0.909475  1
  O  O61  1  0.019764  0.212030  0.123531  1
  O  O62  1  0.877431  0.396526  0.090274  1
  O  O63  1  0.979938  0.787109  0.875954  1
  O  O64  1  0.306211  0.896374  0.019731  1
  O  O65  1  0.911486  0.287363  0.307146  1
  O  O66  1  0.692368  0.103372  0.980345  1
  O  O67  1  0.088347  0.712458  0.692465  1
  O  O68  1  0.189346  0.213415  0.589088  1
  O  O69  1  0.475927  0.600554  0.187640  1
  O  O70  1  0.812329  0.788368  0.412612  1
  O  O71  1  0.524231  0.399114  0.811639  1
  O  O72  1  0.286560  0.305966  0.909536  1
  O  O73  1  0.712263  0.689631  0.089440  1
  O  O74  1  0.213048  0.124164  0.020284  1
  O  O75  1  0.788441  0.875480  0.975936  1
  O  O76  1  0.899473  0.375074  0.587207  1
  O  O77  1  0.100536  0.624987  0.412817  1
  O  O78  1  0.600292  0.189824  0.476987  1
  O  O79  1  0.399679  0.810152  0.523034  1
