# generated using pymatgen
data_Y8Zn3Si12Pd
_symmetry_space_group_name_H-M   'P 1'
_cell_length_a   8.12474900
_cell_length_b   8.12474872
_cell_length_c   8.10386500
_cell_angle_alpha   90.00000000
_cell_angle_beta   90.00000000
_cell_angle_gamma   119.99999706
_symmetry_Int_Tables_number   1
_chemical_formula_structural   Y8Zn3Si12Pd
_chemical_formula_sum   'Y8 Zn3 Si12 Pd1'
_cell_volume   463.27912688
_cell_formula_units_Z   1
loop_
 _symmetry_equiv_pos_site_id
 _symmetry_equiv_pos_as_xyz
  1  'x, y, z'
loop_
 _atom_site_type_symbol
 _atom_site_label
 _atom_site_symmetry_multiplicity
 _atom_site_fract_x
 _atom_site_fract_y
 _atom_site_fract_z
 _atom_site_occupancy
  Y  Y0  1  0.500914  0.001829  0.248949  1
  Y  Y1  1  0.500056  0.000112  0.751000  1
  Y  Y2  1  0.998171  0.499086  0.248949  1
  Y  Y3  1  0.999888  0.499944  0.751000  1
  Y  Y4  1  0.500914  0.499086  0.248949  1
  Y  Y5  1  0.500056  0.499944  0.751000  1
  Y  Y6  1  0.000000  0.000000  0.250098  1
  Y  Y7  1  0.000000  0.000000  0.749947  1
  Zn  Zn8  1  0.333333  0.666667  0.006348  1
  Zn  Zn9  1  0.666667  0.333333  0.995616  1
  Zn  Zn10  1  0.666667  0.333333  0.499397  1
  Si  Si11  1  0.166467  0.332935  0.996989  1
  Si  Si12  1  0.833073  0.666147  0.002622  1
  Si  Si13  1  0.667065  0.833533  0.996989  1
  Si  Si14  1  0.835322  0.670643  0.502097  1
  Si  Si15  1  0.333853  0.166927  0.002622  1
  Si  Si16  1  0.167754  0.335508  0.497612  1
  Si  Si17  1  0.166467  0.833533  0.996989  1
  Si  Si18  1  0.329357  0.164678  0.502097  1
  Si  Si19  1  0.833073  0.166927  0.002622  1
  Si  Si20  1  0.664492  0.832246  0.497612  1
  Si  Si21  1  0.835322  0.164678  0.502097  1
  Si  Si22  1  0.167754  0.832246  0.497612  1
  Pd  Pd23  1  0.333333  0.666667  0.500788  1
