# generated using pymatgen
data_Ta8GaCoTe8
_symmetry_space_group_name_H-M   'P 1'
_cell_length_a   4.86771300
_cell_length_b   11.01449300
_cell_length_c   19.11388500
_cell_angle_alpha   90.00000000
_cell_angle_beta   90.00000000
_cell_angle_gamma   90.00000000
_symmetry_Int_Tables_number   1
_chemical_formula_structural   Ta8GaCoTe8
_chemical_formula_sum   'Ta16 Ga2 Co2 Te16'
_cell_volume   1024.79841330
_cell_formula_units_Z   2
loop_
 _symmetry_equiv_pos_site_id
 _symmetry_equiv_pos_as_xyz
  1  'x, y, z'
loop_
 _atom_site_type_symbol
 _atom_site_label
 _atom_site_symmetry_multiplicity
 _atom_site_fract_x
 _atom_site_fract_y
 _atom_site_fract_z
 _atom_site_occupancy
  Ta  Ta0  1  0.501198  0.564132  0.383590  1
  Ta  Ta1  1  0.501198  0.435868  0.616410  1
  Ta  Ta2  1  0.498802  0.064132  0.116410  1
  Ta  Ta3  1  0.498802  0.935868  0.883590  1
  Ta  Ta4  1  0.497630  0.703396  0.536348  1
  Ta  Ta5  1  0.497630  0.296604  0.463652  1
  Ta  Ta6  1  0.502370  0.203396  0.963652  1
  Ta  Ta7  1  0.502370  0.796604  0.036348  1
  Ta  Ta8  1  0.002243  0.688912  0.443250  1
  Ta  Ta9  1  0.002243  0.311088  0.556750  1
  Ta  Ta10  1  0.997757  0.188912  0.056750  1
  Ta  Ta11  1  0.997757  0.811088  0.943250  1
  Ta  Ta12  1  0.998807  0.401391  0.391937  1
  Ta  Ta13  1  0.998807  0.598609  0.608063  1
  Ta  Ta14  1  0.001193  0.901391  0.108063  1
  Ta  Ta15  1  0.001193  0.098609  0.891937  1
  Ga  Ga16  1  0.249915  0.500000  0.500000  1
  Ga  Ga17  1  0.750085  0.000000  0.000000  1
  Co  Co18  1  0.749926  0.500000  0.500000  1
  Co  Co19  1  0.250074  0.000000  0.000000  1
  Te  Te20  1  0.992490  0.845465  0.562478  1
  Te  Te21  1  0.992490  0.154535  0.437522  1
  Te  Te22  1  0.007510  0.345465  0.937522  1
  Te  Te23  1  0.007510  0.654535  0.062478  1
  Te  Te24  1  0.504788  0.333380  0.316067  1
  Te  Te25  1  0.504788  0.666620  0.683933  1
  Te  Te26  1  0.495212  0.833380  0.183933  1
  Te  Te27  1  0.495212  0.166620  0.816067  1
  Te  Te28  1  0.507581  0.821226  0.403228  1
  Te  Te29  1  0.507581  0.178774  0.596772  1
  Te  Te30  1  0.492419  0.321226  0.096772  1
  Te  Te31  1  0.492419  0.678774  0.903228  1
  Te  Te32  1  0.995133  0.607511  0.301580  1
  Te  Te33  1  0.995133  0.392489  0.698420  1
  Te  Te34  1  0.004867  0.107511  0.198420  1
  Te  Te35  1  0.004867  0.892489  0.801580  1
