# generated using pymatgen
data_SmMgSiIr2
_symmetry_space_group_name_H-M   'P 1'
_cell_length_a   4.10876900
_cell_length_b   4.10876900
_cell_length_c   11.00542300
_cell_angle_alpha   90.00000000
_cell_angle_beta   90.00000000
_cell_angle_gamma   90.00000000
_symmetry_Int_Tables_number   1
_chemical_formula_structural   SmMgSiIr2
_chemical_formula_sum   'Sm2 Mg2 Si2 Ir4'
_cell_volume   185.79336064
_cell_formula_units_Z   2
loop_
 _symmetry_equiv_pos_site_id
 _symmetry_equiv_pos_as_xyz
  1  'x, y, z'
loop_
 _atom_site_type_symbol
 _atom_site_label
 _atom_site_symmetry_multiplicity
 _atom_site_fract_x
 _atom_site_fract_y
 _atom_site_fract_z
 _atom_site_occupancy
  Sm  Sm0  1  0.000000  0.500000  0.236267  1
  Sm  Sm1  1  0.500000  0.000000  0.763733  1
  Mg  Mg2  1  0.000000  0.000000  0.500000  1
  Mg  Mg3  1  0.500000  0.500000  0.500000  1
  Si  Si4  1  0.000000  0.500000  0.883716  1
  Si  Si5  1  0.500000  0.000000  0.116284  1
  Ir  Ir6  1  0.000000  0.000000  0.000000  1
  Ir  Ir7  1  0.500000  0.500000  0.000000  1
  Ir  Ir8  1  0.000000  0.500000  0.667485  1
  Ir  Ir9  1  0.500000  0.000000  0.332515  1
