# generated using pymatgen
data_Dy2Y8Os3Ru
_symmetry_space_group_name_H-M   'P 1'
_cell_length_a   8.49161523
_cell_length_b   8.49258103
_cell_length_c   7.34737966
_cell_angle_alpha   83.27422947
_cell_angle_beta   83.31943974
_cell_angle_gamma   44.32357457
_symmetry_Int_Tables_number   1
_chemical_formula_structural   Dy2Y8Os3Ru
_chemical_formula_sum   'Dy2 Y8 Os3 Ru1'
_cell_volume   367.26697934
_cell_formula_units_Z   1
loop_
 _symmetry_equiv_pos_site_id
 _symmetry_equiv_pos_as_xyz
  1  'x, y, z'
loop_
 _atom_site_type_symbol
 _atom_site_label
 _atom_site_symmetry_multiplicity
 _atom_site_fract_x
 _atom_site_fract_y
 _atom_site_fract_z
 _atom_site_occupancy
  Dy  Dy0  1  0.576692  0.423649  0.749479  1
  Dy  Dy1  1  0.422921  0.577302  0.250594  1
  Y  Y2  1  0.207840  0.976168  0.584192  1
  Y  Y3  1  0.022590  0.793548  0.915564  1
  Y  Y4  1  0.203423  0.360040  0.316696  1
  Y  Y5  1  0.640583  0.793920  0.185205  1
  Y  Y6  1  0.794820  0.641229  0.684114  1
  Y  Y7  1  0.360240  0.204259  0.815329  1
  Y  Y8  1  0.978117  0.208072  0.083869  1
  Y  Y9  1  0.792628  0.023775  0.414965  1
  Os  Os10  1  0.177952  0.603252  0.575915  1
  Os  Os11  1  0.397593  0.821322  0.924764  1
  Os  Os12  1  0.821543  0.396689  0.424069  1
  Ru  Ru13  1  0.603060  0.176772  0.075244  1
