# generated using pymatgen
data_UPa3Re7Ge6
_symmetry_space_group_name_H-M   'P 1'
_cell_length_a   7.34202557
_cell_length_b   7.29349147
_cell_length_c   7.29349001
_cell_angle_alpha   109.33602925
_cell_angle_beta   109.60607155
_cell_angle_gamma   109.60607589
_symmetry_Int_Tables_number   1
_chemical_formula_structural   UPa3Re7Ge6
_chemical_formula_sum   'U1 Pa3 Re7 Ge6'
_cell_volume   300.15072436
_cell_formula_units_Z   1
loop_
 _symmetry_equiv_pos_site_id
 _symmetry_equiv_pos_as_xyz
  1  'x, y, z'
loop_
 _atom_site_type_symbol
 _atom_site_label
 _atom_site_symmetry_multiplicity
 _atom_site_fract_x
 _atom_site_fract_y
 _atom_site_fract_z
 _atom_site_occupancy
  U  U0  1  0.500000  0.000000  0.000000  1
  Pa  Pa1  1  0.500000  0.500000  0.500000  1
  Pa  Pa2  1  0.000000  0.000000  0.500000  1
  Pa  Pa3  1  0.000000  0.500000  0.000000  1
  Re  Re4  1  0.747560  0.247560  0.495119  1
  Re  Re5  1  0.500000  0.247560  0.752440  1
  Re  Re6  1  0.500000  0.752440  0.247560  1
  Re  Re7  1  0.252440  0.504881  0.752440  1
  Re  Re8  1  0.747560  0.495119  0.247560  1
  Re  Re9  1  0.252440  0.752440  0.504881  1
  Re  Re10  1  0.000000  0.000000  0.000000  1
  Ge  Ge11  1  0.309634  0.308414  0.000000  1
  Ge  Ge12  1  0.998780  0.308414  0.308414  1
  Ge  Ge13  1  0.001220  0.691586  0.691586  1
  Ge  Ge14  1  0.690366  0.000000  0.691586  1
  Ge  Ge15  1  0.309634  0.000000  0.308414  1
  Ge  Ge16  1  0.690366  0.691586  0.000000  1
