# generated using pymatgen
data_Zr17Co4Os3
_symmetry_space_group_name_H-M   'P 1'
_cell_length_a   8.76684461
_cell_length_b   8.76684415
_cell_length_c   8.77528830
_cell_angle_alpha   60.03182095
_cell_angle_beta   60.03183019
_cell_angle_gamma   60.00000268
_symmetry_Int_Tables_number   1
_chemical_formula_structural   Zr17Co4Os3
_chemical_formula_sum   'Zr17 Co4 Os3'
_cell_volume   477.13551783
_cell_formula_units_Z   1
loop_
 _symmetry_equiv_pos_site_id
 _symmetry_equiv_pos_as_xyz
  1  'x, y, z'
loop_
 _atom_site_type_symbol
 _atom_site_label
 _atom_site_symmetry_multiplicity
 _atom_site_fract_x
 _atom_site_fract_y
 _atom_site_fract_z
 _atom_site_occupancy
  Zr  Zr0  1  0.203558  0.597961  0.600521  1
  Zr  Zr1  1  0.597961  0.203558  0.600521  1
  Zr  Zr2  1  0.597961  0.597961  0.600521  1
  Zr  Zr3  1  0.600055  0.600055  0.199835  1
  Zr  Zr4  1  0.454497  0.454497  0.045190  1
  Zr  Zr5  1  0.053954  0.053954  0.447118  1
  Zr  Zr6  1  0.454497  0.045816  0.045190  1
  Zr  Zr7  1  0.053954  0.444974  0.447118  1
  Zr  Zr8  1  0.045816  0.454497  0.045190  1
  Zr  Zr9  1  0.444974  0.053954  0.447118  1
  Zr  Zr10  1  0.815452  0.815452  0.176012  1
  Zr  Zr11  1  0.187014  0.187014  0.811371  1
  Zr  Zr12  1  0.815452  0.193084  0.176012  1
  Zr  Zr13  1  0.187014  0.814599  0.811371  1
  Zr  Zr14  1  0.193084  0.815452  0.176012  1
  Zr  Zr15  1  0.814599  0.187014  0.811371  1
  Zr  Zr16  1  0.823746  0.823746  0.528761  1
  Co  Co17  1  0.829492  0.389238  0.392033  1
  Co  Co18  1  0.389238  0.829492  0.392033  1
  Co  Co19  1  0.389238  0.389238  0.392033  1
  Co  Co20  1  0.390436  0.390436  0.828694  1
  Os  Os21  1  0.493718  0.832145  0.841993  1
  Os  Os22  1  0.832145  0.493718  0.841993  1
  Os  Os23  1  0.832145  0.832145  0.841993  1
