# generated using pymatgen
data_Tb4Gd2GaCo2
_symmetry_space_group_name_H-M   'P 1'
_cell_length_a   8.32980494
_cell_length_b   8.32980480
_cell_length_c   8.32980542
_cell_angle_alpha   112.04365373
_cell_angle_beta   109.14248345
_cell_angle_gamma   107.26362359
_symmetry_Int_Tables_number   1
_chemical_formula_structural   Tb4Gd2GaCo2
_chemical_formula_sum   'Tb8 Gd4 Ga2 Co4'
_cell_volume   444.13077786
_cell_formula_units_Z   2
loop_
 _symmetry_equiv_pos_site_id
 _symmetry_equiv_pos_as_xyz
  1  'x, y, z'
loop_
 _atom_site_type_symbol
 _atom_site_label
 _atom_site_symmetry_multiplicity
 _atom_site_fract_x
 _atom_site_fract_y
 _atom_site_fract_z
 _atom_site_occupancy
  Tb  Tb0  1  0.673871  0.861565  0.187694  1
  Tb  Tb1  1  0.326129  0.513824  0.187694  1
  Tb  Tb2  1  0.326129  0.138435  0.812306  1
  Tb  Tb3  1  0.673871  0.486176  0.812306  1
  Tb  Tb4  1  0.179936  0.218195  0.398131  1
  Tb  Tb5  1  0.820064  0.218195  0.038259  1
  Tb  Tb6  1  0.179936  0.781805  0.961741  1
  Tb  Tb7  1  0.820064  0.781805  0.601869  1
  Gd  Gd8  1  0.036361  0.735230  0.301131  1
  Gd  Gd9  1  0.963639  0.264770  0.698869  1
  Gd  Gd10  1  0.565901  0.264770  0.301131  1
  Gd  Gd11  1  0.434099  0.735230  0.698869  1
  Ga  Ga12  1  0.000000  0.500000  0.500000  1
  Ga  Ga13  1  0.500000  0.000000  0.500000  1
  Co  Co14  1  0.658887  0.500000  0.158887  1
  Co  Co15  1  0.341113  0.500000  0.841113  1
  Co  Co16  1  0.886997  0.886997  0.000000  1
  Co  Co17  1  0.113003  0.113003  0.000000  1
