# generated using pymatgen
data_Y12FeRhI17
_symmetry_space_group_name_H-M   'P 1'
_cell_length_a   9.79189427
_cell_length_b   11.75713688
_cell_length_c   11.75031963
_cell_angle_alpha   93.48998540
_cell_angle_beta   104.82968895
_cell_angle_gamma   114.09233712
_symmetry_Int_Tables_number   1
_chemical_formula_structural   Y12FeRhI17
_chemical_formula_sum   'Y12 Fe1 Rh1 I17'
_cell_volume   1172.63439514
_cell_formula_units_Z   1
loop_
 _symmetry_equiv_pos_site_id
 _symmetry_equiv_pos_as_xyz
  1  'x, y, z'
loop_
 _atom_site_type_symbol
 _atom_site_label
 _atom_site_symmetry_multiplicity
 _atom_site_fract_x
 _atom_site_fract_y
 _atom_site_fract_z
 _atom_site_occupancy
  Y  Y0  1  0.048290  0.499435  0.317179  1
  Y  Y1  1  0.988590  0.809893  0.582632  1
  Y  Y2  1  0.655519  0.241475  0.281669  1
  Y  Y3  1  0.009681  0.194893  0.409656  1
  Y  Y4  1  0.223232  0.670326  0.989062  1
  Y  Y5  1  0.257728  0.984539  0.890868  1
  Y  Y6  1  0.353472  0.759560  0.715411  1
  Y  Y7  1  0.944499  0.490885  0.678197  1
  Y  Y8  1  0.749566  0.025820  0.113681  1
  Y  Y9  1  0.140635  0.285307  0.152392  1
  Y  Y10  1  0.780794  0.326151  0.018550  1
  Y  Y11  1  0.849932  0.712811  0.849754  1
  Fe  Fe12  1  0.895825  0.262004  0.214020  1
  Rh  Rh13  1  0.104175  0.738106  0.785732  1
  I  I14  1  0.783963  0.528058  0.418856  1
  I  I15  1  0.643778  0.419393  0.762293  1
  I  I16  1  0.845269  0.897101  0.329922  1
  I  I17  1  0.328466  0.213593  0.367524  1
  I  I18  1  0.153445  0.103142  0.672546  1
  I  I19  1  0.585545  0.051805  0.844335  1
  I  I20  1  0.760686  0.189045  0.540973  1
  I  I21  1  0.554558  0.711746  0.954819  1
  I  I22  1  0.356518  0.580522  0.238060  1
  I  I23  1  0.215903  0.472529  0.581681  1
  I  I24  1  0.055803  0.368955  0.897410  1
  I  I25  1  0.446040  0.287572  0.044524  1
  I  I26  1  0.999499  0.999200  0.999270  1
  I  I27  1  0.239306  0.810784  0.459159  1
  I  I28  1  0.414687  0.947282  0.155350  1
  I  I29  1  0.669375  0.786691  0.632025  1
  I  I30  1  0.945224  0.631377  0.102454  1
