# generated using pymatgen
data_Er9Tm11(Cd3Co)2
_symmetry_space_group_name_H-M   'P 1'
_cell_length_a   9.46304100
_cell_length_b   9.46304083
_cell_length_c   9.61430500
_cell_angle_alpha   90.00000000
_cell_angle_beta   90.00000000
_cell_angle_gamma   119.99999708
_symmetry_Int_Tables_number   1
_chemical_formula_structural   Er9Tm11(Cd3Co)2
_chemical_formula_sum   'Er9 Tm11 Cd6 Co2'
_cell_volume   745.60699833
_cell_formula_units_Z   1
loop_
 _symmetry_equiv_pos_site_id
 _symmetry_equiv_pos_as_xyz
  1  'x, y, z'
loop_
 _atom_site_type_symbol
 _atom_site_label
 _atom_site_symmetry_multiplicity
 _atom_site_fract_x
 _atom_site_fract_y
 _atom_site_fract_z
 _atom_site_occupancy
  Er  Er0  1  0.542287  0.457713  0.250094  1
  Er  Er1  1  0.542287  0.084574  0.250094  1
  Er  Er2  1  0.915426  0.457713  0.250094  1
  Er  Er3  1  0.457896  0.542104  0.749776  1
  Er  Er4  1  0.457896  0.915792  0.749776  1
  Er  Er5  1  0.084208  0.542104  0.749776  1
  Er  Er6  1  0.211876  0.788124  0.062938  1
  Er  Er7  1  0.211876  0.423753  0.062938  1
  Er  Er8  1  0.576247  0.788124  0.062938  1
  Tm  Tm9  1  0.000000  0.000000  0.499881  1
  Tm  Tm10  1  0.000000  0.000000  0.000014  1
  Tm  Tm11  1  0.212139  0.787861  0.437113  1
  Tm  Tm12  1  0.212139  0.424279  0.437113  1
  Tm  Tm13  1  0.575721  0.787861  0.437113  1
  Tm  Tm14  1  0.787882  0.212118  0.563186  1
  Tm  Tm15  1  0.787882  0.575763  0.563186  1
  Tm  Tm16  1  0.424237  0.212118  0.563186  1
  Tm  Tm17  1  0.787820  0.212180  0.936784  1
  Tm  Tm18  1  0.787820  0.575641  0.936784  1
  Tm  Tm19  1  0.424359  0.212180  0.936784  1
  Cd  Cd20  1  0.885306  0.114694  0.250086  1
  Cd  Cd21  1  0.885306  0.770614  0.250086  1
  Cd  Cd22  1  0.229386  0.114694  0.250086  1
  Cd  Cd23  1  0.114678  0.885322  0.749908  1
  Cd  Cd24  1  0.114678  0.229354  0.749908  1
  Cd  Cd25  1  0.770646  0.885322  0.749908  1
  Co  Co26  1  0.333333  0.666667  0.250451  1
  Co  Co27  1  0.666667  0.333333  0.749998  1
