# generated using pymatgen
data_DyHo3(Tm2Ir)4
_symmetry_space_group_name_H-M   'P 1'
_cell_length_a   6.32745518
_cell_length_b   7.22250531
_cell_length_c   9.05389100
_cell_angle_alpha   90.00000000
_cell_angle_beta   90.00000000
_cell_angle_gamma   89.95200300
_symmetry_Int_Tables_number   1
_chemical_formula_structural   DyHo3(Tm2Ir)4
_chemical_formula_sum   'Dy1 Ho3 Tm8 Ir4'
_cell_volume   413.76338507
_cell_formula_units_Z   1
loop_
 _symmetry_equiv_pos_site_id
 _symmetry_equiv_pos_as_xyz
  1  'x, y, z'
loop_
 _atom_site_type_symbol
 _atom_site_label
 _atom_site_symmetry_multiplicity
 _atom_site_fract_x
 _atom_site_fract_y
 _atom_site_fract_z
 _atom_site_occupancy
  Dy  Dy0  1  0.372428  0.967390  0.750000  1
  Ho  Ho1  1  0.872511  0.532654  0.250000  1
  Ho  Ho2  1  0.627439  0.032922  0.250000  1
  Ho  Ho3  1  0.127688  0.467117  0.750000  1
  Tm  Tm4  1  0.328332  0.677574  0.062013  1
  Tm  Tm5  1  0.171452  0.177777  0.437922  1
  Tm  Tm6  1  0.671578  0.322380  0.561658  1
  Tm  Tm7  1  0.828571  0.822279  0.938581  1
  Tm  Tm8  1  0.671578  0.322380  0.938342  1
  Tm  Tm9  1  0.828571  0.822279  0.561419  1
  Tm  Tm10  1  0.328332  0.677574  0.437987  1
  Tm  Tm11  1  0.171452  0.177777  0.062078  1
  Ir  Ir12  1  0.045621  0.883436  0.250000  1
  Ir  Ir13  1  0.454201  0.383380  0.250000  1
  Ir  Ir14  1  0.954590  0.116527  0.750000  1
  Ir  Ir15  1  0.545655  0.616556  0.750000  1
