# generated using pymatgen
data_Hf3Ga3Re2N
_symmetry_space_group_name_H-M   'P 1'
_cell_length_a   7.77866600
_cell_length_b   7.77866482
_cell_length_c   5.27761000
_cell_angle_alpha   90.00000000
_cell_angle_beta   90.00000000
_cell_angle_gamma   120.00000502
_symmetry_Int_Tables_number   1
_chemical_formula_structural   Hf3Ga3Re2N
_chemical_formula_sum   'Hf6 Ga6 Re4 N2'
_cell_volume   276.55281669
_cell_formula_units_Z   2
loop_
 _symmetry_equiv_pos_site_id
 _symmetry_equiv_pos_as_xyz
  1  'x, y, z'
loop_
 _atom_site_type_symbol
 _atom_site_label
 _atom_site_symmetry_multiplicity
 _atom_site_fract_x
 _atom_site_fract_y
 _atom_site_fract_z
 _atom_site_occupancy
  Hf  Hf0  1  0.234137  0.000000  0.250000  1
  Hf  Hf1  1  0.000000  0.234137  0.250000  1
  Hf  Hf2  1  0.765863  0.765863  0.250000  1
  Hf  Hf3  1  0.765863  0.000000  0.750000  1
  Hf  Hf4  1  0.000000  0.765863  0.750000  1
  Hf  Hf5  1  0.234137  0.234137  0.750000  1
  Ga  Ga6  1  0.590622  0.000000  0.250000  1
  Ga  Ga7  1  0.000000  0.590622  0.250000  1
  Ga  Ga8  1  0.409378  0.409378  0.250000  1
  Ga  Ga9  1  0.409378  0.000000  0.750000  1
  Ga  Ga10  1  0.000000  0.409378  0.750000  1
  Ga  Ga11  1  0.590622  0.590622  0.750000  1
  Re  Re12  1  0.666667  0.333333  0.000000  1
  Re  Re13  1  0.333333  0.666667  0.000000  1
  Re  Re14  1  0.666667  0.333333  0.500000  1
  Re  Re15  1  0.333333  0.666667  0.500000  1
  N  N16  1  0.000000  0.000000  0.000000  1
  N  N17  1  0.000000  0.000000  0.500000  1
