# generated using pymatgen
data_Th2Fe9Ni3P7
_symmetry_space_group_name_H-M   'P 1'
_cell_length_a   9.08639020
_cell_length_b   9.09528075
_cell_length_c   3.71279800
_cell_angle_alpha   90.00000000
_cell_angle_beta   90.00000000
_cell_angle_gamma   119.79682693
_symmetry_Int_Tables_number   1
_chemical_formula_structural   Th2Fe9Ni3P7
_chemical_formula_sum   'Th2 Fe9 Ni3 P7'
_cell_volume   266.27165870
_cell_formula_units_Z   1
loop_
 _symmetry_equiv_pos_site_id
 _symmetry_equiv_pos_as_xyz
  1  'x, y, z'
loop_
 _atom_site_type_symbol
 _atom_site_label
 _atom_site_symmetry_multiplicity
 _atom_site_fract_x
 _atom_site_fract_y
 _atom_site_fract_z
 _atom_site_occupancy
  Th  Th0  1  0.668476  0.335602  0.000000  1
  Th  Th1  1  0.332221  0.661973  0.500000  1
  Fe  Fe2  1  0.364063  0.428344  0.000000  1
  Fe  Fe3  1  0.272904  0.122095  0.000000  1
  Fe  Fe4  1  0.848483  0.729159  0.000000  1
  Fe  Fe5  1  0.878284  0.149762  0.000000  1
  Fe  Fe6  1  0.616863  0.567614  0.500000  1
  Fe  Fe7  1  0.950155  0.383717  0.500000  1
  Fe  Fe8  1  0.096737  0.881677  0.500000  1
  Fe  Fe9  1  0.790977  0.902433  0.500000  1
  Fe  Fe10  1  0.120114  0.219777  0.500000  1
  Ni  Ni11  1  0.061891  0.629811  0.000000  1
  Ni  Ni12  1  0.566478  0.936261  0.000000  1
  Ni  Ni13  1  0.433786  0.051324  0.500000  1
  P  P14  1  0.294950  0.895455  0.000000  1
  P  P15  1  0.594596  0.693454  0.000000  1
  P  P16  1  0.101261  0.397576  0.000000  1
  P  P17  1  0.393749  0.296123  0.500000  1
  P  P18  1  0.890172  0.605493  0.500000  1
  P  P19  1  0.722120  0.111226  0.500000  1
  P  P20  1  0.001719  0.001123  0.000000  1
