# generated using pymatgen
data_Eu5Pa(Ni7B2)2
_symmetry_space_group_name_H-M   'P 1'
_cell_length_a   5.12460600
_cell_length_b   5.12460738
_cell_length_c   14.44169700
_cell_angle_alpha   90.00000000
_cell_angle_beta   90.00000000
_cell_angle_gamma   120.00000398
_symmetry_Int_Tables_number   1
_chemical_formula_structural   Eu5Pa(Ni7B2)2
_chemical_formula_sum   'Eu5 Pa1 Ni14 B4'
_cell_volume   328.45049581
_cell_formula_units_Z   1
loop_
 _symmetry_equiv_pos_site_id
 _symmetry_equiv_pos_as_xyz
  1  'x, y, z'
loop_
 _atom_site_type_symbol
 _atom_site_label
 _atom_site_symmetry_multiplicity
 _atom_site_fract_x
 _atom_site_fract_y
 _atom_site_fract_z
 _atom_site_occupancy
  Eu  Eu0  1  0.333333  0.666667  0.968323  1
  Eu  Eu1  1  0.666667  0.333333  0.031213  1
  Eu  Eu2  1  0.666667  0.333333  0.468787  1
  Eu  Eu3  1  0.333333  0.666667  0.531677  1
  Eu  Eu4  1  0.333333  0.666667  0.750000  1
  Pa  Pa5  1  0.666667  0.333333  0.250000  1
  Ni  Ni6  1  0.164808  0.835192  0.348116  1
  Ni  Ni7  1  0.164808  0.329616  0.348116  1
  Ni  Ni8  1  0.670384  0.835192  0.348116  1
  Ni  Ni9  1  0.835169  0.164831  0.651539  1
  Ni  Ni10  1  0.835169  0.670337  0.651539  1
  Ni  Ni11  1  0.329663  0.164831  0.651539  1
  Ni  Ni12  1  0.835169  0.164831  0.848461  1
  Ni  Ni13  1  0.835169  0.670337  0.848461  1
  Ni  Ni14  1  0.329663  0.164831  0.848461  1
  Ni  Ni15  1  0.164808  0.835192  0.151884  1
  Ni  Ni16  1  0.164808  0.329616  0.151884  1
  Ni  Ni17  1  0.670384  0.835192  0.151884  1
  Ni  Ni18  1  0.000000  0.000000  0.499815  1
  Ni  Ni19  1  0.000000  0.000000  0.000185  1
  B  B20  1  0.333333  0.666667  0.250000  1
  B  B21  1  0.666667  0.333333  0.750000  1
  B  B22  1  0.000000  0.000000  0.250000  1
  B  B23  1  0.000000  0.000000  0.750000  1
