# generated using pymatgen
data_Tb3HoTm4(CdPt)2
_symmetry_space_group_name_H-M   'P 1'
_cell_length_a   9.62132710
_cell_length_b   9.62132751
_cell_length_c   9.60052300
_cell_angle_alpha   60.07150022
_cell_angle_beta   60.07149881
_cell_angle_gamma   60.18803669
_symmetry_Int_Tables_number   1
_chemical_formula_structural   Tb3HoTm4(CdPt)2
_chemical_formula_sum   'Tb6 Ho2 Tm8 Cd4 Pt4'
_cell_volume   629.98917012
_cell_formula_units_Z   2
loop_
 _symmetry_equiv_pos_site_id
 _symmetry_equiv_pos_as_xyz
  1  'x, y, z'
loop_
 _atom_site_type_symbol
 _atom_site_label
 _atom_site_symmetry_multiplicity
 _atom_site_fract_x
 _atom_site_fract_y
 _atom_site_fract_z
 _atom_site_occupancy
  Tb  Tb0  1  0.937159  0.563247  0.563296  1
  Tb  Tb1  1  0.563247  0.937159  0.936298  1
  Tb  Tb2  1  0.563247  0.937159  0.563296  1
  Tb  Tb3  1  0.937159  0.563247  0.936298  1
  Tb  Tb4  1  0.564893  0.564893  0.935107  1
  Tb  Tb5  1  0.938599  0.938599  0.561401  1
  Ho  Ho6  1  0.351900  0.351900  0.350464  1
  Ho  Ho7  1  0.351900  0.351900  0.945736  1
  Tm  Tm8  1  0.354479  0.940613  0.352454  1
  Tm  Tm9  1  0.940613  0.354479  0.352454  1
  Tm  Tm10  1  0.812288  0.188226  0.188385  1
  Tm  Tm11  1  0.188226  0.812288  0.811101  1
  Tm  Tm12  1  0.188226  0.812288  0.188385  1
  Tm  Tm13  1  0.812288  0.188226  0.811101  1
  Tm  Tm14  1  0.188577  0.188577  0.811423  1
  Tm  Tm15  1  0.811936  0.811936  0.188064  1
  Cd  Cd16  1  0.580970  0.580970  0.581208  1
  Cd  Cd17  1  0.580970  0.580970  0.256851  1
  Cd  Cd18  1  0.581150  0.255766  0.581542  1
  Cd  Cd19  1  0.255766  0.581150  0.581542  1
  Pt  Pt20  1  0.142122  0.142122  0.146356  1
  Pt  Pt21  1  0.142122  0.142122  0.569402  1
  Pt  Pt22  1  0.140090  0.572072  0.143920  1
  Pt  Pt23  1  0.572072  0.140090  0.143920  1
