# generated using pymatgen
data_PrTh3Al6(Ga2Ir)6
_symmetry_space_group_name_H-M   'P 1'
_cell_length_a   7.68484188
_cell_length_b   7.68526076
_cell_length_c   9.55607130
_cell_angle_alpha   90.10814515
_cell_angle_beta   89.94435726
_cell_angle_gamma   119.68339742
_symmetry_Int_Tables_number   1
_chemical_formula_structural   PrTh3Al6(Ga2Ir)6
_chemical_formula_sum   'Pr1 Th3 Al6 Ga12 Ir6'
_cell_volume   490.31986609
_cell_formula_units_Z   1
loop_
 _symmetry_equiv_pos_site_id
 _symmetry_equiv_pos_as_xyz
  1  'x, y, z'
loop_
 _atom_site_type_symbol
 _atom_site_label
 _atom_site_symmetry_multiplicity
 _atom_site_fract_x
 _atom_site_fract_y
 _atom_site_fract_z
 _atom_site_occupancy
  Pr  Pr0  1  0.328695  0.002556  0.745618  1
  Th  Th1  1  0.996955  0.668666  0.251794  1
  Th  Th2  1  0.002282  0.331994  0.748322  1
  Th  Th3  1  0.670758  0.997462  0.254855  1
  Al  Al4  1  0.661566  0.994716  0.927188  1
  Al  Al5  1  0.336014  0.004787  0.069606  1
  Al  Al6  1  0.335754  0.333702  0.551402  1
  Al  Al7  1  0.663816  0.663900  0.450362  1
  Al  Al8  1  0.664774  0.664428  0.051156  1
  Al  Al9  1  0.334937  0.333535  0.947175  1
  Ga  Ga10  1  0.135434  0.131894  0.249304  1
  Ga  Ga11  1  0.868497  0.870298  0.750550  1
  Ga  Ga12  1  0.002220  0.333460  0.076681  1
  Ga  Ga13  1  0.000768  0.669545  0.922845  1
  Ga  Ga14  1  0.997985  0.667972  0.578766  1
  Ga  Ga15  1  0.334824  0.003492  0.422093  1
  Ga  Ga16  1  0.005278  0.335326  0.421763  1
  Ga  Ga17  1  0.662453  0.996320  0.581320  1
  Ga  Ga18  1  0.346477  0.545744  0.249617  1
  Ga  Ga19  1  0.653452  0.450898  0.750308  1
  Ga  Ga20  1  0.544373  0.344221  0.249093  1
  Ga  Ga21  1  0.454022  0.655891  0.750886  1
  Ir  Ir22  1  0.669864  0.326923  0.000786  1
  Ir  Ir23  1  0.331961  0.673192  0.002474  1
  Ir  Ir24  1  0.329640  0.667560  0.498863  1
  Ir  Ir25  1  0.672877  0.332611  0.497601  1
  Ir  Ir26  1  0.997369  0.999416  0.002159  1
  Ir  Ir27  1  0.996954  0.999496  0.497414  1
