# generated using pymatgen
data_NdHoPa(Co3P2)3
_symmetry_space_group_name_H-M   'P 1'
_cell_length_a   3.73967900
_cell_length_b   10.56968600
_cell_length_c   12.22062700
_cell_angle_alpha   90.00000000
_cell_angle_beta   90.00000000
_cell_angle_gamma   90.00000000
_symmetry_Int_Tables_number   1
_chemical_formula_structural   NdHoPa(Co3P2)3
_chemical_formula_sum   'Nd2 Ho2 Pa2 Co18 P12'
_cell_volume   483.04756803
_cell_formula_units_Z   2
loop_
 _symmetry_equiv_pos_site_id
 _symmetry_equiv_pos_as_xyz
  1  'x, y, z'
loop_
 _atom_site_type_symbol
 _atom_site_label
 _atom_site_symmetry_multiplicity
 _atom_site_fract_x
 _atom_site_fract_y
 _atom_site_fract_z
 _atom_site_occupancy
  Nd  Nd0  1  0.500000  0.814010  0.205541  1
  Nd  Nd1  1  0.500000  0.185990  0.205541  1
  Ho  Ho2  1  0.000000  0.684658  0.794181  1
  Ho  Ho3  1  0.000000  0.315342  0.794181  1
  Pa  Pa4  1  0.000000  0.500000  0.529484  1
  Pa  Pa5  1  0.500000  0.000000  0.473235  1
  Co  Co6  1  0.000000  0.500000  0.981084  1
  Co  Co7  1  0.500000  0.000000  0.011614  1
  Co  Co8  1  0.500000  0.302845  0.434153  1
  Co  Co9  1  0.500000  0.697155  0.434153  1
  Co  Co10  1  0.000000  0.198768  0.570918  1
  Co  Co11  1  0.000000  0.801232  0.570918  1
  Co  Co12  1  0.500000  0.880144  0.711100  1
  Co  Co13  1  0.500000  0.119856  0.711100  1
  Co  Co14  1  0.000000  0.617564  0.291104  1
  Co  Co15  1  0.000000  0.382436  0.291104  1
  Co  Co16  1  0.500000  0.335586  0.991507  1
  Co  Co17  1  0.500000  0.664414  0.991507  1
  Co  Co18  1  0.000000  0.167338  0.002844  1
  Co  Co19  1  0.000000  0.832662  0.002844  1
  Co  Co20  1  0.500000  0.500000  0.158234  1
  Co  Co21  1  0.000000  0.000000  0.841084  1
  Co  Co22  1  0.500000  0.500000  0.696392  1
  Co  Co23  1  0.000000  0.000000  0.307067  1
  P  P24  1  0.500000  0.307105  0.618217  1
  P  P25  1  0.500000  0.692895  0.618217  1
  P  P26  1  0.000000  0.194918  0.387693  1
  P  P27  1  0.000000  0.805082  0.387693  1
  P  P28  1  0.500000  0.500000  0.877081  1
  P  P29  1  0.000000  0.000000  0.116227  1
  P  P30  1  0.500000  0.846002  0.893596  1
  P  P31  1  0.500000  0.153998  0.893596  1
  P  P32  1  0.000000  0.648978  0.102860  1
  P  P33  1  0.000000  0.351022  0.102860  1
  P  P34  1  0.500000  0.500000  0.343673  1
  P  P35  1  0.000000  0.000000  0.657396  1
