# generated using pymatgen
data_Cs6CrIn(AsBr9)2
_symmetry_space_group_name_H-M   'P 1'
_cell_length_a   7.85613300
_cell_length_b   7.85613346
_cell_length_c   19.99497200
_cell_angle_alpha   90.00000000
_cell_angle_beta   90.00000000
_cell_angle_gamma   120.00000226
_symmetry_Int_Tables_number   1
_chemical_formula_structural   Cs6CrIn(AsBr9)2
_chemical_formula_sum   'Cs6 Cr1 In1 As2 Br18'
_cell_volume   1068.73271096
_cell_formula_units_Z   1
loop_
 _symmetry_equiv_pos_site_id
 _symmetry_equiv_pos_as_xyz
  1  'x, y, z'
loop_
 _atom_site_type_symbol
 _atom_site_label
 _atom_site_symmetry_multiplicity
 _atom_site_fract_x
 _atom_site_fract_y
 _atom_site_fract_z
 _atom_site_occupancy
  Cs  Cs0  1  0.666667  0.333333  0.919481  1
  Cs  Cs1  1  0.333333  0.666667  0.420384  1
  Cs  Cs2  1  0.666667  0.333333  0.565101  1
  Cs  Cs3  1  0.333333  0.666667  0.064541  1
  Cs  Cs4  1  0.000000  0.000000  0.759141  1
  Cs  Cs5  1  0.000000  0.000000  0.258405  1
  Cr  Cr6  1  0.333333  0.666667  0.837084  1
  In  In7  1  0.666667  0.333333  0.340376  1
  As  As8  1  0.333333  0.666667  0.656883  1
  As  As9  1  0.666667  0.333333  0.155622  1
  Br  Br10  1  0.831261  0.662520  0.411412  1
  Br  Br11  1  0.181083  0.362167  0.906369  1
  Br  Br12  1  0.181083  0.818917  0.906369  1
  Br  Br13  1  0.175566  0.351133  0.590381  1
  Br  Br14  1  0.637833  0.818917  0.906369  1
  Br  Br15  1  0.337480  0.168739  0.411412  1
  Br  Br16  1  0.029764  0.514882  0.757917  1
  Br  Br17  1  0.831261  0.168739  0.411412  1
  Br  Br18  1  0.506389  0.012778  0.252080  1
  Br  Br19  1  0.485118  0.514882  0.757917  1
  Br  Br20  1  0.506389  0.493611  0.252080  1
  Br  Br21  1  0.987222  0.493611  0.252080  1
  Br  Br22  1  0.352114  0.176057  0.089501  1
  Br  Br23  1  0.485118  0.970236  0.757917  1
  Br  Br24  1  0.823943  0.647886  0.089501  1
  Br  Br25  1  0.175566  0.824434  0.590381  1
  Br  Br26  1  0.648867  0.824434  0.590381  1
  Br  Br27  1  0.823943  0.176057  0.089501  1
