# generated using pymatgen
data_Tb3Ce2TcBi2
_symmetry_space_group_name_H-M   'P 1'
_cell_length_a   7.96991800
_cell_length_b   9.08482300
_cell_length_c   12.31075700
_cell_angle_alpha   90.00000000
_cell_angle_beta   90.00000000
_cell_angle_gamma   90.00000000
_symmetry_Int_Tables_number   1
_chemical_formula_structural   Tb3Ce2TcBi2
_chemical_formula_sum   'Tb12 Ce8 Tc4 Bi8'
_cell_volume   891.36398431
_cell_formula_units_Z   4
loop_
 _symmetry_equiv_pos_site_id
 _symmetry_equiv_pos_as_xyz
  1  'x, y, z'
loop_
 _atom_site_type_symbol
 _atom_site_label
 _atom_site_symmetry_multiplicity
 _atom_site_fract_x
 _atom_site_fract_y
 _atom_site_fract_z
 _atom_site_occupancy
  Tb  Tb0  1  0.829090  0.750000  0.786166  1
  Tb  Tb1  1  0.170910  0.250000  0.213834  1
  Tb  Tb2  1  0.329090  0.250000  0.713834  1
  Tb  Tb3  1  0.670910  0.750000  0.286166  1
  Tb  Tb4  1  0.359916  0.750000  0.708027  1
  Tb  Tb5  1  0.640084  0.250000  0.291973  1
  Tb  Tb6  1  0.859916  0.250000  0.791973  1
  Tb  Tb7  1  0.140084  0.750000  0.208027  1
  Tb  Tb8  1  0.970754  0.750000  0.499336  1
  Tb  Tb9  1  0.029246  0.250000  0.500664  1
  Tb  Tb10  1  0.470754  0.250000  0.000664  1
  Tb  Tb11  1  0.529246  0.750000  0.999336  1
  Ce  Ce12  1  0.664298  0.027100  0.555728  1
  Ce  Ce13  1  0.335702  0.972900  0.444272  1
  Ce  Ce14  1  0.164298  0.972900  0.944272  1
  Ce  Ce15  1  0.335702  0.527100  0.444272  1
  Ce  Ce16  1  0.835702  0.027100  0.055728  1
  Ce  Ce17  1  0.664298  0.472900  0.555728  1
  Ce  Ce18  1  0.835702  0.472900  0.055728  1
  Ce  Ce19  1  0.164298  0.527100  0.944272  1
  Tc  Tc20  1  0.595908  0.750000  0.525015  1
  Tc  Tc21  1  0.404092  0.250000  0.474985  1
  Tc  Tc22  1  0.095908  0.250000  0.974985  1
  Tc  Tc23  1  0.904092  0.750000  0.025015  1
  Bi  Bi24  1  0.565488  0.491743  0.826606  1
  Bi  Bi25  1  0.434512  0.508257  0.173394  1
  Bi  Bi26  1  0.065488  0.508257  0.673394  1
  Bi  Bi27  1  0.434512  0.991743  0.173394  1
  Bi  Bi28  1  0.934512  0.491743  0.326606  1
  Bi  Bi29  1  0.565488  0.008257  0.826606  1
  Bi  Bi30  1  0.934512  0.008257  0.326606  1
  Bi  Bi31  1  0.065488  0.991743  0.673394  1
