# generated using pymatgen
data_RbHgAsO4
_symmetry_space_group_name_H-M   'P 1'
_cell_length_a   5.86459100
_cell_length_b   9.90991100
_cell_length_c   9.49927800
_cell_angle_alpha   90.00000000
_cell_angle_beta   90.00000000
_cell_angle_gamma   90.00000000
_symmetry_Int_Tables_number   1
_chemical_formula_structural   RbHgAsO4
_chemical_formula_sum   'Rb4 Hg4 As4 O16'
_cell_volume   552.07500029
_cell_formula_units_Z   4
loop_
 _symmetry_equiv_pos_site_id
 _symmetry_equiv_pos_as_xyz
  1  'x, y, z'
loop_
 _atom_site_type_symbol
 _atom_site_label
 _atom_site_symmetry_multiplicity
 _atom_site_fract_x
 _atom_site_fract_y
 _atom_site_fract_z
 _atom_site_occupancy
  Rb  Rb0  1  0.514625  0.302556  0.521780  1
  Rb  Rb1  1  0.014625  0.802556  0.978220  1
  Rb  Rb2  1  0.014625  0.697444  0.478220  1
  Rb  Rb3  1  0.514625  0.197444  0.021780  1
  Hg  Hg4  1  0.550908  0.571497  0.158804  1
  Hg  Hg5  1  0.050908  0.428503  0.841196  1
  Hg  Hg6  1  0.550908  0.928503  0.658804  1
  Hg  Hg7  1  0.050908  0.071497  0.341196  1
  As  As8  1  0.521338  0.581582  0.786837  1
  As  As9  1  0.021338  0.418418  0.213163  1
  As  As10  1  0.021338  0.081582  0.713163  1
  As  As11  1  0.521338  0.918418  0.286837  1
  O  O12  1  0.161065  0.571058  0.206292  1
  O  O13  1  0.161065  0.928942  0.706292  1
  O  O14  1  0.441264  0.856307  0.450456  1
  O  O15  1  0.180146  0.200542  0.798429  1
  O  O16  1  0.441264  0.643693  0.950456  1
  O  O17  1  0.762935  0.046838  0.801409  1
  O  O18  1  0.661065  0.071058  0.293708  1
  O  O19  1  0.661065  0.428942  0.793708  1
  O  O20  1  0.680146  0.799458  0.201571  1
  O  O21  1  0.762935  0.453162  0.301409  1
  O  O22  1  0.262935  0.546838  0.698591  1
  O  O23  1  0.180146  0.299458  0.298429  1
  O  O24  1  0.262935  0.953162  0.198591  1
  O  O25  1  0.941264  0.143693  0.549544  1
  O  O26  1  0.680146  0.700542  0.701571  1
  O  O27  1  0.941264  0.356307  0.049544  1
