# generated using pymatgen
data_Pr12TlCo6
_symmetry_space_group_name_H-M   'P 1'
_cell_length_a   8.83508709
_cell_length_b   8.83508675
_cell_length_c   8.83508700
_cell_angle_alpha   109.47122120
_cell_angle_beta   109.47122043
_cell_angle_gamma   109.47122160
_symmetry_Int_Tables_number   1
_chemical_formula_structural   Pr12TlCo6
_chemical_formula_sum   'Pr12 Tl1 Co6'
_cell_volume   530.89738429
_cell_formula_units_Z   1
loop_
 _symmetry_equiv_pos_site_id
 _symmetry_equiv_pos_as_xyz
  1  'x, y, z'
loop_
 _atom_site_type_symbol
 _atom_site_label
 _atom_site_symmetry_multiplicity
 _atom_site_fract_x
 _atom_site_fract_y
 _atom_site_fract_z
 _atom_site_occupancy
  Pr  Pr0  1  0.809075  0.691183  0.500257  1
  Pr  Pr1  1  0.190925  0.308817  0.499743  1
  Pr  Pr2  1  0.190925  0.691183  0.882108  1
  Pr  Pr3  1  0.809075  0.308817  0.117892  1
  Pr  Pr4  1  0.691183  0.500257  0.809075  1
  Pr  Pr5  1  0.308817  0.499743  0.190925  1
  Pr  Pr6  1  0.691183  0.882108  0.190925  1
  Pr  Pr7  1  0.308817  0.117892  0.809075  1
  Pr  Pr8  1  0.500257  0.809075  0.691183  1
  Pr  Pr9  1  0.499743  0.190925  0.308817  1
  Pr  Pr10  1  0.117892  0.809075  0.308817  1
  Pr  Pr11  1  0.882108  0.190925  0.691183  1
  Tl  Tl12  1  0.000000  0.000000  0.000000  1
  Co  Co13  1  0.890181  0.390181  0.500000  1
  Co  Co14  1  0.109819  0.609819  0.500000  1
  Co  Co15  1  0.390181  0.500000  0.890181  1
  Co  Co16  1  0.609819  0.500000  0.109819  1
  Co  Co17  1  0.500000  0.890181  0.390181  1
  Co  Co18  1  0.500000  0.109819  0.609819  1
