# generated using pymatgen
data_Dy3Er5Cd2IrPt
_symmetry_space_group_name_H-M   'P 1'
_cell_length_a   9.61168965
_cell_length_b   9.61168920
_cell_length_c   9.59466300
_cell_angle_alpha   60.05858379
_cell_angle_beta   60.05858533
_cell_angle_gamma   60.17991123
_symmetry_Int_Tables_number   1
_chemical_formula_structural   Dy3Er5Cd2IrPt
_chemical_formula_sum   'Dy6 Er10 Cd4 Ir2 Pt2'
_cell_volume   628.18311676
_cell_formula_units_Z   2
loop_
 _symmetry_equiv_pos_site_id
 _symmetry_equiv_pos_as_xyz
  1  'x, y, z'
loop_
 _atom_site_type_symbol
 _atom_site_label
 _atom_site_symmetry_multiplicity
 _atom_site_fract_x
 _atom_site_fract_y
 _atom_site_fract_z
 _atom_site_occupancy
  Dy  Dy0  1  0.187581  0.814468  0.811641  1
  Dy  Dy1  1  0.814468  0.187581  0.186309  1
  Dy  Dy2  1  0.814468  0.187581  0.811641  1
  Dy  Dy3  1  0.187581  0.814468  0.186309  1
  Dy  Dy4  1  0.813474  0.813474  0.186526  1
  Dy  Dy5  1  0.187159  0.187159  0.812841  1
  Er  Er6  1  0.600623  0.600623  0.596139  1
  Er  Er7  1  0.600623  0.600623  0.202615  1
  Er  Er8  1  0.605661  0.195054  0.599642  1
  Er  Er9  1  0.195054  0.605661  0.599642  1
  Er  Er10  1  0.057074  0.439594  0.440332  1
  Er  Er11  1  0.439594  0.057074  0.063002  1
  Er  Er12  1  0.439594  0.057074  0.440332  1
  Er  Er13  1  0.057074  0.439594  0.063002  1
  Er  Er14  1  0.440872  0.440872  0.059128  1
  Er  Er15  1  0.061523  0.061523  0.438477  1
  Cd  Cd16  1  0.831151  0.831151  0.831682  1
  Cd  Cd17  1  0.831151  0.831151  0.506016  1
  Cd  Cd18  1  0.830740  0.505855  0.831702  1
  Cd  Cd19  1  0.505855  0.830740  0.831702  1
  Ir  Ir20  1  0.391028  0.823695  0.392639  1
  Ir  Ir21  1  0.823695  0.391028  0.392639  1
  Pt  Pt22  1  0.391977  0.391977  0.394347  1
  Pt  Pt23  1  0.391977  0.391977  0.821699  1
