# generated using pymatgen
data_Y2Tm2CdPd
_symmetry_space_group_name_H-M   'P 1'
_cell_length_a   9.60299276
_cell_length_b   9.60299370
_cell_length_c   9.62779000
_cell_angle_alpha   59.91454658
_cell_angle_beta   59.91454333
_cell_angle_gamma   60.17090982
_symmetry_Int_Tables_number   1
_chemical_formula_structural   Y2Tm2CdPd
_chemical_formula_sum   'Y8 Tm8 Cd4 Pd4'
_cell_volume   627.79672938
_cell_formula_units_Z   4
loop_
 _symmetry_equiv_pos_site_id
 _symmetry_equiv_pos_as_xyz
  1  'x, y, z'
loop_
 _atom_site_type_symbol
 _atom_site_label
 _atom_site_symmetry_multiplicity
 _atom_site_fract_x
 _atom_site_fract_y
 _atom_site_fract_z
 _atom_site_occupancy
  Y  Y0  1  0.188426  0.188426  0.811574  1
  Y  Y1  1  0.811574  0.811574  0.188426  1
  Y  Y2  1  0.935474  0.564526  0.564526  1
  Y  Y3  1  0.564526  0.935474  0.935474  1
  Y  Y4  1  0.564526  0.935474  0.564526  1
  Y  Y5  1  0.935474  0.564526  0.935474  1
  Y  Y6  1  0.564123  0.564123  0.935877  1
  Y  Y7  1  0.935877  0.935877  0.564123  1
  Tm  Tm8  1  0.354009  0.354009  0.354076  1
  Tm  Tm9  1  0.354009  0.354009  0.937906  1
  Tm  Tm10  1  0.354076  0.937906  0.354009  1
  Tm  Tm11  1  0.937906  0.354076  0.354009  1
  Tm  Tm12  1  0.810644  0.189356  0.189356  1
  Tm  Tm13  1  0.189356  0.810644  0.810644  1
  Tm  Tm14  1  0.189356  0.810644  0.189356  1
  Tm  Tm15  1  0.810644  0.189356  0.810644  1
  Cd  Cd16  1  0.581777  0.581777  0.581494  1
  Cd  Cd17  1  0.581777  0.581777  0.254951  1
  Cd  Cd18  1  0.581494  0.254951  0.581777  1
  Cd  Cd19  1  0.254951  0.581494  0.581777  1
  Pd  Pd20  1  0.143692  0.143692  0.148799  1
  Pd  Pd21  1  0.143692  0.143692  0.563815  1
  Pd  Pd22  1  0.148799  0.563815  0.143692  1
  Pd  Pd23  1  0.563815  0.148799  0.143692  1
