# generated using pymatgen
data_Lu6Fe3Si6Ir
_symmetry_space_group_name_H-M   'P 1'
_cell_length_a   5.54189708
_cell_length_b   5.54189953
_cell_length_c   13.39859900
_cell_angle_alpha   89.81123652
_cell_angle_beta   90.18876356
_cell_angle_gamma   136.94364363
_symmetry_Int_Tables_number   1
_chemical_formula_structural   Lu6Fe3Si6Ir
_chemical_formula_sum   'Lu6 Fe3 Si6 Ir1'
_cell_volume   280.94074932
_cell_formula_units_Z   1
loop_
 _symmetry_equiv_pos_site_id
 _symmetry_equiv_pos_as_xyz
  1  'x, y, z'
loop_
 _atom_site_type_symbol
 _atom_site_label
 _atom_site_symmetry_multiplicity
 _atom_site_fract_x
 _atom_site_fract_y
 _atom_site_fract_z
 _atom_site_occupancy
  Lu  Lu0  1  0.638404  0.361596  0.248319  1
  Lu  Lu1  1  0.362305  0.637695  0.750525  1
  Lu  Lu2  1  0.919107  0.080893  0.111736  1
  Lu  Lu3  1  0.079249  0.920751  0.889909  1
  Lu  Lu4  1  0.078929  0.921071  0.614446  1
  Lu  Lu5  1  0.921837  0.078163  0.383419  1
  Fe  Fe6  1  0.212676  0.787324  0.420259  1
  Fe  Fe7  1  0.212769  0.787231  0.081365  1
  Fe  Fe8  1  0.786084  0.213916  0.919376  1
  Si  Si9  1  0.327760  0.672240  0.249287  1
  Si  Si10  1  0.668585  0.331415  0.755083  1
  Si  Si11  1  0.621905  0.378095  0.039429  1
  Si  Si12  1  0.376899  0.623101  0.960993  1
  Si  Si13  1  0.388255  0.611745  0.533848  1
  Si  Si14  1  0.616617  0.383383  0.457458  1
  Ir  Ir15  1  0.788617  0.211383  0.584549  1
