# generated using pymatgen
data_Sc3Ni2Sn3Pt
_symmetry_space_group_name_H-M   'P 1'
_cell_length_a   7.35413100
_cell_length_b   7.35413102
_cell_length_c   7.10439500
_cell_angle_alpha   90.00000000
_cell_angle_beta   90.00000000
_cell_angle_gamma   120.00000442
_symmetry_Int_Tables_number   1
_chemical_formula_structural   Sc3Ni2Sn3Pt
_chemical_formula_sum   'Sc6 Ni4 Sn6 Pt2'
_cell_volume   332.75181790
_cell_formula_units_Z   2
loop_
 _symmetry_equiv_pos_site_id
 _symmetry_equiv_pos_as_xyz
  1  'x, y, z'
loop_
 _atom_site_type_symbol
 _atom_site_label
 _atom_site_symmetry_multiplicity
 _atom_site_fract_x
 _atom_site_fract_y
 _atom_site_fract_z
 _atom_site_occupancy
  Sc  Sc0  1  0.401709  0.011915  0.252351  1
  Sc  Sc1  1  0.610206  0.598291  0.252351  1
  Sc  Sc2  1  0.988085  0.389794  0.252351  1
  Sc  Sc3  1  0.389794  0.988085  0.752351  1
  Sc  Sc4  1  0.598291  0.610206  0.752351  1
  Sc  Sc5  1  0.011915  0.401709  0.752351  1
  Ni  Ni6  1  0.000000  0.000000  0.750044  1
  Ni  Ni7  1  0.000000  0.000000  0.250044  1
  Ni  Ni8  1  0.666667  0.333333  0.966492  1
  Ni  Ni9  1  0.333333  0.666667  0.466492  1
  Sn  Sn10  1  0.271101  0.260316  0.999719  1
  Sn  Sn11  1  0.989215  0.728899  0.999719  1
  Sn  Sn12  1  0.010785  0.739684  0.499719  1
  Sn  Sn13  1  0.728899  0.989215  0.499719  1
  Sn  Sn14  1  0.260316  0.271101  0.499719  1
  Sn  Sn15  1  0.739684  0.010785  0.999719  1
  Pt  Pt16  1  0.333333  0.666667  0.027255  1
  Pt  Pt17  1  0.666667  0.333333  0.527255  1
