# generated using pymatgen
data_Yb2Al20ReIr3
_symmetry_space_group_name_H-M   'P 1'
_cell_length_a   6.87361070
_cell_length_b   6.89067685
_cell_length_c   9.15906389
_cell_angle_alpha   89.95608579
_cell_angle_beta   89.61010479
_cell_angle_gamma   96.45895639
_symmetry_Int_Tables_number   1
_chemical_formula_structural   Yb2Al20ReIr3
_chemical_formula_sum   'Yb2 Al20 Re1 Ir3'
_cell_volume   431.04433904
_cell_formula_units_Z   1
loop_
 _symmetry_equiv_pos_site_id
 _symmetry_equiv_pos_as_xyz
  1  'x, y, z'
loop_
 _atom_site_type_symbol
 _atom_site_label
 _atom_site_symmetry_multiplicity
 _atom_site_fract_x
 _atom_site_fract_y
 _atom_site_fract_z
 _atom_site_occupancy
  Yb  Yb0  1  0.627867  0.374714  0.749320  1
  Yb  Yb1  1  0.372133  0.625286  0.250680  1
  Al  Al2  1  0.278243  0.019040  0.751070  1
  Al  Al3  1  0.019666  0.280332  0.252536  1
  Al  Al4  1  0.721757  0.980960  0.248930  1
  Al  Al5  1  0.980334  0.719668  0.747464  1
  Al  Al6  1  0.877788  0.122562  0.951437  1
  Al  Al7  1  0.122212  0.877438  0.048563  1
  Al  Al8  1  0.878426  0.125324  0.547550  1
  Al  Al9  1  0.121574  0.874676  0.452450  1
  Al  Al10  1  0.646657  0.916046  0.749864  1
  Al  Al11  1  0.916757  0.646292  0.250910  1
  Al  Al12  1  0.353343  0.083954  0.250136  1
  Al  Al13  1  0.083243  0.353708  0.749090  1
  Al  Al14  1  0.344397  0.657596  0.897054  1
  Al  Al15  1  0.655603  0.342404  0.102946  1
  Al  Al16  1  0.342222  0.655636  0.600405  1
  Al  Al17  1  0.657778  0.344364  0.399595  1
  Al  Al18  1  0.723125  0.722896  0.000091  1
  Al  Al19  1  0.723093  0.721447  0.501562  1
  Al  Al20  1  0.276875  0.277104  0.999909  1
  Al  Al21  1  0.276907  0.278553  0.498438  1
  Re  Re22  1  0.000000  0.500000  0.500000  1
  Ir  Ir23  1  0.500000  0.000000  0.000000  1
  Ir  Ir24  1  0.000000  0.500000  0.000000  1
  Ir  Ir25  1  0.500000  0.000000  0.500000  1
