# generated using pymatgen
data_Tb2Dy6Sc12Si15Ir
_symmetry_space_group_name_H-M   'P 1'
_cell_length_a   7.09115961
_cell_length_b   7.44432983
_cell_length_c   13.98521034
_cell_angle_alpha   90.02400583
_cell_angle_beta   89.99166505
_cell_angle_gamma   90.18796357
_symmetry_Int_Tables_number   1
_chemical_formula_structural   Tb2Dy6Sc12Si15Ir
_chemical_formula_sum   'Tb2 Dy6 Sc12 Si15 Ir1'
_cell_volume   738.26025923
_cell_formula_units_Z   1
loop_
 _symmetry_equiv_pos_site_id
 _symmetry_equiv_pos_as_xyz
  1  'x, y, z'
loop_
 _atom_site_type_symbol
 _atom_site_label
 _atom_site_symmetry_multiplicity
 _atom_site_fract_x
 _atom_site_fract_y
 _atom_site_fract_z
 _atom_site_occupancy
  Tb  Tb0  1  0.511280  0.323663  0.403545  1
  Tb  Tb1  1  0.488603  0.676387  0.595647  1
  Dy  Dy2  1  0.011614  0.178673  0.096391  1
  Dy  Dy3  1  0.990640  0.825537  0.904073  1
  Dy  Dy4  1  0.488537  0.676790  0.904179  1
  Dy  Dy5  1  0.990741  0.825633  0.596118  1
  Dy  Dy6  1  0.511273  0.323316  0.096596  1
  Dy  Dy7  1  0.011537  0.178605  0.403454  1
  Sc  Sc8  1  0.157090  0.498904  0.750040  1
  Sc  Sc9  1  0.838034  0.496446  0.249938  1
  Sc  Sc10  1  0.338968  0.004762  0.249922  1
  Sc  Sc11  1  0.668452  0.998774  0.750044  1
  Sc  Sc12  1  0.320226  0.172430  0.626904  1
  Sc  Sc13  1  0.671684  0.825677  0.373678  1
  Sc  Sc14  1  0.171083  0.677599  0.374118  1
  Sc  Sc15  1  0.671560  0.825461  0.126183  1
  Sc  Sc16  1  0.835113  0.320275  0.627020  1
  Sc  Sc17  1  0.320352  0.172622  0.873227  1
  Sc  Sc18  1  0.835139  0.320249  0.873135  1
  Sc  Sc19  1  0.171083  0.677512  0.125713  1
  Si  Si20  1  0.968942  0.884491  0.249904  1
  Si  Si21  1  0.468182  0.615286  0.249837  1
  Si  Si22  1  0.530340  0.387883  0.750214  1
  Si  Si23  1  0.286321  0.868388  0.750245  1
  Si  Si24  1  0.713584  0.129201  0.249791  1
  Si  Si25  1  0.213291  0.372113  0.249762  1
  Si  Si26  1  0.779659  0.625652  0.750263  1
  Si  Si27  1  0.158677  0.467517  0.537378  1
  Si  Si28  1  0.844002  0.536281  0.461407  1
  Si  Si29  1  0.345148  0.965933  0.460238  1
  Si  Si30  1  0.843296  0.535980  0.038595  1
  Si  Si31  1  0.656597  0.034311  0.538304  1
  Si  Si32  1  0.159361  0.467774  0.962564  1
  Si  Si33  1  0.656412  0.034241  0.961711  1
  Si  Si34  1  0.345390  0.966001  0.039780  1
  Ir  Ir35  1  0.027787  0.109634  0.750077  1
