# generated using pymatgen
data_TbY2Er2Bi3
_symmetry_space_group_name_H-M   'P 1'
_cell_length_a   8.26622800
_cell_length_b   9.50593800
_cell_length_c   12.08236700
_cell_angle_alpha   90.00000000
_cell_angle_beta   90.00000000
_cell_angle_gamma   90.00000000
_symmetry_Int_Tables_number   1
_chemical_formula_structural   TbY2Er2Bi3
_chemical_formula_sum   'Tb4 Y8 Er8 Bi12'
_cell_volume   949.41126513
_cell_formula_units_Z   4
loop_
 _symmetry_equiv_pos_site_id
 _symmetry_equiv_pos_as_xyz
  1  'x, y, z'
loop_
 _atom_site_type_symbol
 _atom_site_label
 _atom_site_symmetry_multiplicity
 _atom_site_fract_x
 _atom_site_fract_y
 _atom_site_fract_z
 _atom_site_occupancy
  Tb  Tb0  1  0.186281  0.749848  0.718916  1
  Tb  Tb1  1  0.686281  0.750152  0.781084  1
  Tb  Tb2  1  0.813719  0.249848  0.281084  1
  Tb  Tb3  1  0.313719  0.250152  0.218916  1
  Y  Y4  1  0.693646  0.563063  0.059953  1
  Y  Y5  1  0.193646  0.936937  0.440047  1
  Y  Y6  1  0.306354  0.063063  0.940047  1
  Y  Y7  1  0.806354  0.436937  0.559953  1
  Y  Y8  1  0.354157  0.750029  0.215342  1
  Y  Y9  1  0.854157  0.749971  0.284658  1
  Y  Y10  1  0.645843  0.250029  0.784658  1
  Y  Y11  1  0.145843  0.249971  0.715342  1
  Er  Er12  1  0.025882  0.750206  0.988599  1
  Er  Er13  1  0.525882  0.749794  0.511401  1
  Er  Er14  1  0.974118  0.250206  0.011401  1
  Er  Er15  1  0.474118  0.249794  0.488599  1
  Er  Er16  1  0.306460  0.435458  0.940140  1
  Er  Er17  1  0.806460  0.064542  0.559860  1
  Er  Er18  1  0.693540  0.935458  0.059860  1
  Er  Er19  1  0.193540  0.564542  0.440140  1
  Bi  Bi20  1  0.434079  0.003947  0.673047  1
  Bi  Bi21  1  0.934079  0.496053  0.826953  1
  Bi  Bi22  1  0.565921  0.503947  0.326953  1
  Bi  Bi23  1  0.065921  0.996053  0.173047  1
  Bi  Bi24  1  0.566430  0.995872  0.326980  1
  Bi  Bi25  1  0.066430  0.504128  0.173020  1
  Bi  Bi26  1  0.433570  0.495872  0.673020  1
  Bi  Bi27  1  0.933570  0.004128  0.826980  1
  Bi  Bi28  1  0.408382  0.748969  0.958137  1
  Bi  Bi29  1  0.908382  0.751031  0.541863  1
  Bi  Bi30  1  0.591618  0.248969  0.041863  1
  Bi  Bi31  1  0.091618  0.251031  0.458137  1
