# generated using pymatgen
data_Ac8YTm11Si16
_symmetry_space_group_name_H-M   'P 1'
_cell_length_a   7.90705507
_cell_length_b   7.90811088
_cell_length_c   14.54975900
_cell_angle_alpha   90.04883984
_cell_angle_beta   90.04146977
_cell_angle_gamma   89.99718250
_symmetry_Int_Tables_number   1
_chemical_formula_structural   Ac8YTm11Si16
_chemical_formula_sum   'Ac8 Y1 Tm11 Si16'
_cell_volume   909.79394351
_cell_formula_units_Z   1
loop_
 _symmetry_equiv_pos_site_id
 _symmetry_equiv_pos_as_xyz
  1  'x, y, z'
loop_
 _atom_site_type_symbol
 _atom_site_label
 _atom_site_symmetry_multiplicity
 _atom_site_fract_x
 _atom_site_fract_y
 _atom_site_fract_z
 _atom_site_occupancy
  Ac  Ac0  1  0.647546  0.990320  0.461889  1
  Ac  Ac1  1  0.353357  0.009469  0.960519  1
  Ac  Ac2  1  0.990813  0.647330  0.538986  1
  Ac  Ac3  1  0.490240  0.853325  0.211376  1
  Ac  Ac4  1  0.509475  0.147475  0.711261  1
  Ac  Ac5  1  0.852726  0.490906  0.788147  1
  Ac  Ac6  1  0.146886  0.508907  0.289513  1
  Ac  Ac7  1  0.008731  0.352515  0.038427  1
  Y  Y8  1  0.495304  0.357660  0.125697  1
  Tm  Tm9  1  0.996226  0.142374  0.624074  1
  Tm  Tm10  1  0.858050  0.003791  0.875313  1
  Tm  Tm11  1  0.141705  0.995757  0.376360  1
  Tm  Tm12  1  0.503766  0.642198  0.625952  1
  Tm  Tm13  1  0.357917  0.496172  0.873840  1
  Tm  Tm14  1  0.642242  0.503638  0.374484  1
  Tm  Tm15  1  0.004323  0.857698  0.124425  1
  Tm  Tm16  1  0.319981  0.319979  0.500341  1
  Tm  Tm17  1  0.180284  0.820309  0.749849  1
  Tm  Tm18  1  0.820485  0.179539  0.250228  1
  Tm  Tm19  1  0.680653  0.681337  0.999664  1
  Si  Si20  1  0.286339  0.937991  0.564005  1
  Si  Si21  1  0.714832  0.060090  0.063386  1
  Si  Si22  1  0.937874  0.285883  0.436228  1
  Si  Si23  1  0.437589  0.212782  0.315045  1
  Si  Si24  1  0.561917  0.786241  0.813699  1
  Si  Si25  1  0.213979  0.438054  0.686037  1
  Si  Si26  1  0.787205  0.563342  0.186644  1
  Si  Si27  1  0.062163  0.714005  0.936128  1
  Si  Si28  1  0.796376  0.854043  0.691178  1
  Si  Si29  1  0.201568  0.145581  0.192359  1
  Si  Si30  1  0.853559  0.795767  0.308713  1
  Si  Si31  1  0.353937  0.703755  0.441699  1
  Si  Si32  1  0.646904  0.295950  0.939832  1
  Si  Si33  1  0.703843  0.353871  0.558777  1
  Si  Si34  1  0.294965  0.648121  0.057592  1
  Si  Si35  1  0.146237  0.203826  0.808333  1
