# generated using pymatgen
data_Pr3Si2Rh3
_symmetry_space_group_name_H-M   'P 1'
_cell_length_a   5.79076100
_cell_length_b   7.81618600
_cell_length_c   15.08143300
_cell_angle_alpha   90.00000000
_cell_angle_beta   90.00000000
_cell_angle_gamma   90.00000000
_symmetry_Int_Tables_number   1
_chemical_formula_structural   Pr3Si2Rh3
_chemical_formula_sum   'Pr12 Si8 Rh12'
_cell_volume   682.61076903
_cell_formula_units_Z   4
loop_
 _symmetry_equiv_pos_site_id
 _symmetry_equiv_pos_as_xyz
  1  'x, y, z'
loop_
 _atom_site_type_symbol
 _atom_site_label
 _atom_site_symmetry_multiplicity
 _atom_site_fract_x
 _atom_site_fract_y
 _atom_site_fract_z
 _atom_site_occupancy
  Pr  Pr0  1  0.141570  0.474834  0.890795  1
  Pr  Pr1  1  0.358430  0.974834  0.890795  1
  Pr  Pr2  1  0.618636  0.336835  0.750000  1
  Pr  Pr3  1  0.381364  0.663165  0.250000  1
  Pr  Pr4  1  0.641570  0.025166  0.390795  1
  Pr  Pr5  1  0.858430  0.525166  0.109205  1
  Pr  Pr6  1  0.858430  0.525166  0.390795  1
  Pr  Pr7  1  0.358430  0.974834  0.609205  1
  Pr  Pr8  1  0.881364  0.836835  0.750000  1
  Pr  Pr9  1  0.141570  0.474834  0.609205  1
  Pr  Pr10  1  0.641570  0.025166  0.109205  1
  Pr  Pr11  1  0.118636  0.163165  0.250000  1
  Si  Si12  1  0.365769  0.371644  0.097030  1
  Si  Si13  1  0.634231  0.628356  0.902970  1
  Si  Si14  1  0.865769  0.128356  0.902970  1
  Si  Si15  1  0.365769  0.371644  0.402970  1
  Si  Si16  1  0.865769  0.128356  0.597030  1
  Si  Si17  1  0.634231  0.628356  0.597030  1
  Si  Si18  1  0.134231  0.871644  0.402970  1
  Si  Si19  1  0.134231  0.871644  0.097030  1
  Rh  Rh20  1  0.602480  0.339104  0.962239  1
  Rh  Rh21  1  0.397520  0.660896  0.037761  1
  Rh  Rh22  1  0.570085  0.317160  0.250000  1
  Rh  Rh23  1  0.397520  0.660896  0.462239  1
  Rh  Rh24  1  0.070085  0.182840  0.750000  1
  Rh  Rh25  1  0.102480  0.160896  0.462239  1
  Rh  Rh26  1  0.429915  0.682840  0.750000  1
  Rh  Rh27  1  0.929915  0.817160  0.250000  1
  Rh  Rh28  1  0.102480  0.160896  0.037761  1
  Rh  Rh29  1  0.602480  0.339104  0.537761  1
  Rh  Rh30  1  0.897520  0.839104  0.537761  1
  Rh  Rh31  1  0.897520  0.839104  0.962239  1
