# generated using pymatgen
data_NdCrO4F
_symmetry_space_group_name_H-M   'P 1'
_cell_length_a   6.88690300
_cell_length_b   7.51539200
_cell_length_c   8.77824400
_cell_angle_alpha   90.00000000
_cell_angle_beta   90.00000000
_cell_angle_gamma   90.00000000
_symmetry_Int_Tables_number   1
_chemical_formula_structural   NdCrO4F
_chemical_formula_sum   'Nd4 Cr4 O16 F4'
_cell_volume   454.34238409
_cell_formula_units_Z   4
loop_
 _symmetry_equiv_pos_site_id
 _symmetry_equiv_pos_as_xyz
  1  'x, y, z'
loop_
 _atom_site_type_symbol
 _atom_site_label
 _atom_site_symmetry_multiplicity
 _atom_site_fract_x
 _atom_site_fract_y
 _atom_site_fract_z
 _atom_site_occupancy
  Nd  Nd0  1  0.643658  0.750000  0.457366  1
  Nd  Nd1  1  0.143658  0.250000  0.042634  1
  Nd  Nd2  1  0.356342  0.250000  0.542634  1
  Nd  Nd3  1  0.856342  0.750000  0.957366  1
  Cr  Cr4  1  0.190894  0.750000  0.591704  1
  Cr  Cr5  1  0.690894  0.250000  0.908296  1
  Cr  Cr6  1  0.809106  0.250000  0.408296  1
  Cr  Cr7  1  0.309106  0.750000  0.091704  1
  O  O8  1  0.000219  0.750000  0.479669  1
  O  O9  1  0.500219  0.250000  0.020331  1
  O  O10  1  0.999781  0.250000  0.520331  1
  O  O11  1  0.499781  0.750000  0.979669  1
  O  O12  1  0.383623  0.750000  0.268483  1
  O  O13  1  0.883623  0.250000  0.231517  1
  O  O14  1  0.616377  0.250000  0.731517  1
  O  O15  1  0.116377  0.750000  0.768483  1
  O  O16  1  0.336011  0.927134  0.558666  1
  O  O17  1  0.836011  0.072866  0.941334  1
  O  O18  1  0.663989  0.427134  0.441334  1
  O  O19  1  0.163989  0.572866  0.058666  1
  O  O20  1  0.836011  0.427134  0.941334  1
  O  O21  1  0.336011  0.572866  0.558666  1
  O  O22  1  0.163989  0.927134  0.058666  1
  O  O23  1  0.663989  0.072866  0.441334  1
  F  F24  1  0.716140  0.750000  0.713719  1
  F  F25  1  0.216140  0.250000  0.786281  1
  F  F26  1  0.283860  0.250000  0.286281  1
  F  F27  1  0.783860  0.750000  0.213719  1
