# generated using pymatgen
data_Zr2ZnCo8NiB6
_symmetry_space_group_name_H-M   'P 1'
_cell_length_a   5.68177570
_cell_length_b   5.68177683
_cell_length_c   5.67834079
_cell_angle_alpha   95.74351102
_cell_angle_beta   95.74351614
_cell_angle_gamma   95.37507707
_symmetry_Int_Tables_number   1
_chemical_formula_structural   Zr2ZnCo8NiB6
_chemical_formula_sum   'Zr2 Zn1 Co8 Ni1 B6'
_cell_volume   180.47745010
_cell_formula_units_Z   1
loop_
 _symmetry_equiv_pos_site_id
 _symmetry_equiv_pos_as_xyz
  1  'x, y, z'
loop_
 _atom_site_type_symbol
 _atom_site_label
 _atom_site_symmetry_multiplicity
 _atom_site_fract_x
 _atom_site_fract_y
 _atom_site_fract_z
 _atom_site_occupancy
  Zr  Zr0  1  0.677337  0.677337  0.681181  1
  Zr  Zr1  1  0.322663  0.322663  0.318819  1
  Zn  Zn2  1  0.000000  0.000000  0.000000  1
  Co  Co3  1  0.500000  0.000000  0.000000  1
  Co  Co4  1  0.000000  0.500000  0.000000  1
  Co  Co5  1  0.704726  0.200135  0.703837  1
  Co  Co6  1  0.703741  0.703741  0.201681  1
  Co  Co7  1  0.200135  0.704726  0.703837  1
  Co  Co8  1  0.295274  0.799865  0.296163  1
  Co  Co9  1  0.296259  0.296259  0.798319  1
  Co  Co10  1  0.799865  0.295274  0.296163  1
  Ni  Ni11  1  0.000000  0.000000  0.500000  1
  B  B12  1  0.615855  0.384145  0.000000  1
  B  B13  1  0.000947  0.611706  0.384201  1
  B  B14  1  0.388294  0.999053  0.615799  1
  B  B15  1  0.999053  0.388294  0.615799  1
  B  B16  1  0.611706  0.000947  0.384201  1
  B  B17  1  0.384145  0.615855  0.000000  1
