# generated using pymatgen
data_La3TiAl2Ga3O14
_symmetry_space_group_name_H-M   'P 1'
_cell_length_a   8.26711100
_cell_length_b   8.26711063
_cell_length_c   5.11271500
_cell_angle_alpha   90.00000000
_cell_angle_beta   90.00000000
_cell_angle_gamma   119.99999749
_symmetry_Int_Tables_number   1
_chemical_formula_structural   La3TiAl2Ga3O14
_chemical_formula_sum   'La3 Ti1 Al2 Ga3 O14'
_cell_volume   302.61450790
_cell_formula_units_Z   1
loop_
 _symmetry_equiv_pos_site_id
 _symmetry_equiv_pos_as_xyz
  1  'x, y, z'
loop_
 _atom_site_type_symbol
 _atom_site_label
 _atom_site_symmetry_multiplicity
 _atom_site_fract_x
 _atom_site_fract_y
 _atom_site_fract_z
 _atom_site_occupancy
  La  La0  1  0.576404  0.576404  0.000000  1
  La  La1  1  0.000000  0.423596  0.000000  1
  La  La2  1  0.423596  0.000000  0.000000  1
  Ti  Ti3  1  0.000000  0.000000  0.000000  1
  Al  Al4  1  0.333333  0.666667  0.462656  1
  Al  Al5  1  0.666667  0.333333  0.537344  1
  Ga  Ga6  1  0.243464  0.243464  0.500000  1
  Ga  Ga7  1  0.000000  0.756536  0.500000  1
  Ga  Ga8  1  0.756536  0.000000  0.500000  1
  O  O9  1  0.666667  0.333333  0.195038  1
  O  O10  1  0.333333  0.666667  0.804962  1
  O  O11  1  0.464085  0.312883  0.689489  1
  O  O12  1  0.848799  0.535915  0.689489  1
  O  O13  1  0.687117  0.151201  0.689489  1
  O  O14  1  0.151201  0.687117  0.310511  1
  O  O15  1  0.535915  0.848799  0.310511  1
  O  O16  1  0.312883  0.464085  0.310511  1
  O  O17  1  0.859683  0.780637  0.233060  1
  O  O18  1  0.920955  0.140317  0.233060  1
  O  O19  1  0.219363  0.079045  0.233060  1
  O  O20  1  0.079045  0.219363  0.766940  1
  O  O21  1  0.140317  0.920955  0.766940  1
  O  O22  1  0.780637  0.859683  0.766940  1
