# generated using pymatgen
data_Pr2PdN2
_symmetry_space_group_name_H-M   'P 1'
_cell_length_a   3.68522721
_cell_length_b   3.68523354
_cell_length_c   6.96805537
_cell_angle_alpha   105.30924552
_cell_angle_beta   105.33352391
_cell_angle_gamma   90.00000630
_symmetry_Int_Tables_number   1
_chemical_formula_structural   Pr2PdN2
_chemical_formula_sum   'Pr2 Pd1 N2'
_cell_volume   87.77713773
_cell_formula_units_Z   1
loop_
 _symmetry_equiv_pos_site_id
 _symmetry_equiv_pos_as_xyz
  1  'x, y, z'
loop_
 _atom_site_type_symbol
 _atom_site_label
 _atom_site_symmetry_multiplicity
 _atom_site_fract_x
 _atom_site_fract_y
 _atom_site_fract_z
 _atom_site_occupancy
  Pr  Pr0  1  0.152264  0.152399  0.804527  1
  Pr  Pr1  1  0.847736  0.847601  0.195473  1
  Pd  Pd2  1  0.500000  0.500000  0.500000  1
  N  N3  1  0.663322  0.663125  0.826643  1
  N  N4  1  0.336678  0.336875  0.173357  1
