# generated using pymatgen
data_Th14Tc2Ir3Os
_symmetry_space_group_name_H-M   'P 1'
_cell_length_a   10.02428069
_cell_length_b   10.06683369
_cell_length_c   6.34524166
_cell_angle_alpha   90.00000086
_cell_angle_beta   89.82144587
_cell_angle_gamma   120.14051631
_symmetry_Int_Tables_number   1
_chemical_formula_structural   Th14Tc2Ir3Os
_chemical_formula_sum   'Th14 Tc2 Ir3 Os1'
_cell_volume   553.73938694
_cell_formula_units_Z   1
loop_
 _symmetry_equiv_pos_site_id
 _symmetry_equiv_pos_as_xyz
  1  'x, y, z'
loop_
 _atom_site_type_symbol
 _atom_site_label
 _atom_site_symmetry_multiplicity
 _atom_site_fract_x
 _atom_site_fract_y
 _atom_site_fract_z
 _atom_site_occupancy
  Th  Th0  1  0.462491  0.543220  0.298120  1
  Th  Th1  1  0.077942  0.538971  0.297301  1
  Th  Th2  1  0.915225  0.457612  0.799642  1
  Th  Th3  1  0.256799  0.128400  0.499936  1
  Th  Th4  1  0.544139  0.081989  0.798426  1
  Th  Th5  1  0.751067  0.875533  0.999573  1
  Th  Th6  1  0.667441  0.333720  0.289140  1
  Th  Th7  1  0.122490  0.870050  0.000796  1
  Th  Th8  1  0.462491  0.919272  0.298120  1
  Th  Th9  1  0.544139  0.462148  0.798426  1
  Th  Th10  1  0.872742  0.125332  0.500593  1
  Th  Th11  1  0.122490  0.252440  0.000796  1
  Th  Th12  1  0.872742  0.747410  0.500593  1
  Th  Th13  1  0.335646  0.667824  0.795141  1
  Tc  Tc14  1  0.811732  0.627202  0.047881  1
  Tc  Tc15  1  0.811732  0.184529  0.047881  1
  Ir  Ir16  1  0.371157  0.185578  0.050743  1
  Ir  Ir17  1  0.187370  0.376081  0.553384  1
  Ir  Ir18  1  0.187370  0.811289  0.553384  1
  Os  Os19  1  0.622796  0.811398  0.554119  1
