# generated using pymatgen
data_Li7Ca3ZnSn4
_symmetry_space_group_name_H-M   'P 1'
_cell_length_a   9.64794900
_cell_length_b   9.64795068
_cell_length_c   8.07331300
_cell_angle_alpha   90.00000000
_cell_angle_beta   90.00000000
_cell_angle_gamma   120.00000453
_symmetry_Int_Tables_number   1
_chemical_formula_structural   Li7Ca3ZnSn4
_chemical_formula_sum   'Li14 Ca6 Zn2 Sn8'
_cell_volume   650.80739011
_cell_formula_units_Z   2
loop_
 _symmetry_equiv_pos_site_id
 _symmetry_equiv_pos_as_xyz
  1  'x, y, z'
loop_
 _atom_site_type_symbol
 _atom_site_label
 _atom_site_symmetry_multiplicity
 _atom_site_fract_x
 _atom_site_fract_y
 _atom_site_fract_z
 _atom_site_occupancy
  Li  Li0  1  0.833655  0.667312  0.655987  1
  Li  Li1  1  0.332688  0.166345  0.655987  1
  Li  Li2  1  0.833655  0.166345  0.655987  1
  Li  Li3  1  0.166345  0.332688  0.155987  1
  Li  Li4  1  0.667312  0.833655  0.155987  1
  Li  Li5  1  0.166345  0.833655  0.155987  1
  Li  Li6  1  0.892887  0.785773  0.969093  1
  Li  Li7  1  0.214227  0.107113  0.969093  1
  Li  Li8  1  0.892887  0.107113  0.969093  1
  Li  Li9  1  0.107113  0.214227  0.469093  1
  Li  Li10  1  0.785773  0.892887  0.469093  1
  Li  Li11  1  0.107113  0.892887  0.469093  1
  Li  Li12  1  0.666667  0.333333  0.368569  1
  Li  Li13  1  0.333333  0.666667  0.868569  1
  Ca  Ca14  1  0.477312  0.954622  0.506517  1
  Ca  Ca15  1  0.045378  0.522688  0.506517  1
  Ca  Ca16  1  0.477312  0.522688  0.506517  1
  Ca  Ca17  1  0.522688  0.045378  0.006517  1
  Ca  Ca18  1  0.954622  0.477312  0.006517  1
  Ca  Ca19  1  0.522688  0.477312  0.006517  1
  Zn  Zn20  1  0.000000  0.000000  0.228509  1
  Zn  Zn21  1  0.000000  0.000000  0.728509  1
  Sn  Sn22  1  0.832703  0.665406  0.287753  1
  Sn  Sn23  1  0.334594  0.167297  0.287753  1
  Sn  Sn24  1  0.832703  0.167297  0.287753  1
  Sn  Sn25  1  0.167297  0.334594  0.787753  1
  Sn  Sn26  1  0.665406  0.832703  0.787753  1
  Sn  Sn27  1  0.167297  0.832703  0.787753  1
  Sn  Sn28  1  0.666667  0.333333  0.727593  1
  Sn  Sn29  1  0.333333  0.666667  0.227593  1
