# generated using pymatgen
data_Nd4GePPd28
_symmetry_space_group_name_H-M   'P 1'
_cell_length_a   8.99012600
_cell_length_b   8.99012600
_cell_length_c   7.19567700
_cell_angle_alpha   90.00000000
_cell_angle_beta   90.00000000
_cell_angle_gamma   90.00000000
_symmetry_Int_Tables_number   1
_chemical_formula_structural   Nd4GePPd28
_chemical_formula_sum   'Nd4 Ge1 P1 Pd28'
_cell_volume   581.57163648
_cell_formula_units_Z   1
loop_
 _symmetry_equiv_pos_site_id
 _symmetry_equiv_pos_as_xyz
  1  'x, y, z'
loop_
 _atom_site_type_symbol
 _atom_site_label
 _atom_site_symmetry_multiplicity
 _atom_site_fract_x
 _atom_site_fract_y
 _atom_site_fract_z
 _atom_site_occupancy
  Nd  Nd0  1  0.500000  0.000000  0.936207  1
  Nd  Nd1  1  0.000000  0.500000  0.065382  1
  Nd  Nd2  1  0.000000  0.000000  0.499826  1
  Nd  Nd3  1  0.500000  0.500000  0.499826  1
  Ge  Ge4  1  0.000000  0.500000  0.548672  1
  P  P5  1  0.500000  0.000000  0.449711  1
  Pd  Pd6  1  0.336962  0.836962  0.615133  1
  Pd  Pd7  1  0.336962  0.163038  0.615133  1
  Pd  Pd8  1  0.663038  0.836962  0.615133  1
  Pd  Pd9  1  0.663038  0.163038  0.615133  1
  Pd  Pd10  1  0.170276  0.670276  0.379433  1
  Pd  Pd11  1  0.170276  0.329724  0.379433  1
  Pd  Pd12  1  0.829724  0.670276  0.379433  1
  Pd  Pd13  1  0.829724  0.329724  0.379433  1
  Pd  Pd14  1  0.500000  0.772745  0.259211  1
  Pd  Pd15  1  0.500000  0.227255  0.259211  1
  Pd  Pd16  1  0.272745  0.000000  0.259211  1
  Pd  Pd17  1  0.727255  0.000000  0.259211  1
  Pd  Pd18  1  0.000000  0.733237  0.746732  1
  Pd  Pd19  1  0.000000  0.266763  0.746732  1
  Pd  Pd20  1  0.233237  0.500000  0.746732  1
  Pd  Pd21  1  0.766763  0.500000  0.746732  1
  Pd  Pd22  1  0.500000  0.347968  0.856467  1
  Pd  Pd23  1  0.500000  0.652032  0.856467  1
  Pd  Pd24  1  0.847968  0.000000  0.856467  1
  Pd  Pd25  1  0.152032  0.000000  0.856467  1
  Pd  Pd26  1  0.000000  0.150244  0.143733  1
  Pd  Pd27  1  0.000000  0.849756  0.143733  1
  Pd  Pd28  1  0.650244  0.500000  0.143733  1
  Pd  Pd29  1  0.349756  0.500000  0.143733  1
  Pd  Pd30  1  0.249710  0.749710  0.999386  1
  Pd  Pd31  1  0.249710  0.250290  0.999386  1
  Pd  Pd32  1  0.750290  0.749710  0.999386  1
  Pd  Pd33  1  0.750290  0.250290  0.999386  1
