# generated using pymatgen
data_DyHo7Si12(PtRh)2
_symmetry_space_group_name_H-M   'P 1'
_cell_length_a   8.16817303
_cell_length_b   8.17527799
_cell_length_c   7.91476500
_cell_angle_alpha   90.00000000
_cell_angle_beta   90.00000000
_cell_angle_gamma   120.02877250
_symmetry_Int_Tables_number   1
_chemical_formula_structural   DyHo7Si12(PtRh)2
_chemical_formula_sum   'Dy1 Ho7 Si12 Pt2 Rh2'
_cell_volume   457.58325821
_cell_formula_units_Z   1
loop_
 _symmetry_equiv_pos_site_id
 _symmetry_equiv_pos_as_xyz
  1  'x, y, z'
loop_
 _atom_site_type_symbol
 _atom_site_label
 _atom_site_symmetry_multiplicity
 _atom_site_fract_x
 _atom_site_fract_y
 _atom_site_fract_z
 _atom_site_occupancy
  Dy  Dy0  1  0.981910  0.490955  0.750000  1
  Ho  Ho1  1  0.999957  0.999978  0.250000  1
  Ho  Ho2  1  0.999989  0.999995  0.750000  1
  Ho  Ho3  1  0.012751  0.506375  0.250000  1
  Ho  Ho4  1  0.493781  0.506355  0.250000  1
  Ho  Ho5  1  0.508768  0.017700  0.750000  1
  Ho  Ho6  1  0.493781  0.987425  0.250000  1
  Ho  Ho7  1  0.508768  0.491068  0.750000  1
  Si  Si8  1  0.164470  0.328431  0.000959  1
  Si  Si9  1  0.671927  0.835963  0.000944  1
  Si  Si10  1  0.164470  0.328431  0.499041  1
  Si  Si11  1  0.335140  0.167571  0.998249  1
  Si  Si12  1  0.164470  0.836036  0.000959  1
  Si  Si13  1  0.671927  0.835963  0.499056  1
  Si  Si14  1  0.831985  0.664699  0.998471  1
  Si  Si15  1  0.335140  0.167571  0.501751  1
  Si  Si16  1  0.164470  0.836036  0.499041  1
  Si  Si17  1  0.831985  0.664699  0.501529  1
  Si  Si18  1  0.831985  0.167288  0.998471  1
  Si  Si19  1  0.831985  0.167288  0.501529  1
  Pt  Pt20  1  0.333693  0.666847  0.975428  1
  Pt  Pt21  1  0.333693  0.666847  0.524572  1
  Rh  Rh22  1  0.666479  0.333239  0.035273  1
  Rh  Rh23  1  0.666479  0.333239  0.464727  1
