# generated using pymatgen
data_Zn2P7Ru12
_symmetry_space_group_name_H-M   'P 1'
_cell_length_a   9.49847600
_cell_length_b   9.49847515
_cell_length_c   3.75809200
_cell_angle_alpha   90.00000000
_cell_angle_beta   90.00000000
_cell_angle_gamma   119.99999735
_symmetry_Int_Tables_number   1
_chemical_formula_structural   Zn2P7Ru12
_chemical_formula_sum   'Zn2 P7 Ru12'
_cell_volume   293.63368249
_cell_formula_units_Z   1
loop_
 _symmetry_equiv_pos_site_id
 _symmetry_equiv_pos_as_xyz
  1  'x, y, z'
loop_
 _atom_site_type_symbol
 _atom_site_label
 _atom_site_symmetry_multiplicity
 _atom_site_fract_x
 _atom_site_fract_y
 _atom_site_fract_z
 _atom_site_occupancy
  Zn  Zn0  1  0.666667  0.333333  0.500000  1
  Zn  Zn1  1  0.333333  0.666667  0.000000  1
  P  P2  1  0.613622  0.691523  0.500000  1
  P  P3  1  0.000000  0.000000  0.000000  1
  P  P4  1  0.308477  0.922099  0.500000  1
  P  P5  1  0.077901  0.386378  0.500000  1
  P  P6  1  0.916939  0.612104  0.000000  1
  P  P7  1  0.387896  0.304835  0.000000  1
  P  P8  1  0.695165  0.083061  0.000000  1
  Ru  Ru9  1  0.534796  0.897656  0.500000  1
  Ru  Ru10  1  0.362861  0.465204  0.500000  1
  Ru  Ru11  1  0.867134  0.114780  0.500000  1
  Ru  Ru12  1  0.247646  0.132866  0.500000  1
  Ru  Ru13  1  0.885220  0.752354  0.500000  1
  Ru  Ru14  1  0.730412  0.856802  0.000000  1
  Ru  Ru15  1  0.143198  0.873610  0.000000  1
  Ru  Ru16  1  0.126390  0.269588  0.000000  1
  Ru  Ru17  1  0.465138  0.102728  0.000000  1
  Ru  Ru18  1  0.897272  0.362412  0.000000  1
  Ru  Ru19  1  0.637588  0.534862  0.000000  1
  Ru  Ru20  1  0.102344  0.637139  0.500000  1
