# generated using pymatgen
data_LuSc(Ni2As)4
_symmetry_space_group_name_H-M   'P 1'
_cell_length_a   3.76376900
_cell_length_b   7.12203257
_cell_length_c   7.12203257
_cell_angle_alpha   90.42753722
_cell_angle_beta   90.00000000
_cell_angle_gamma   90.00000000
_symmetry_Int_Tables_number   1
_chemical_formula_structural   LuSc(Ni2As)4
_chemical_formula_sum   'Lu1 Sc1 Ni8 As4'
_cell_volume   190.90564951
_cell_formula_units_Z   1
loop_
 _symmetry_equiv_pos_site_id
 _symmetry_equiv_pos_as_xyz
  1  'x, y, z'
loop_
 _atom_site_type_symbol
 _atom_site_label
 _atom_site_symmetry_multiplicity
 _atom_site_fract_x
 _atom_site_fract_y
 _atom_site_fract_z
 _atom_site_occupancy
  Lu  Lu0  1  0.500000  0.000000  0.000000  1
  Sc  Sc1  1  0.000000  0.500000  0.500000  1
  Ni  Ni2  1  0.500000  0.153952  0.589460  1
  Ni  Ni3  1  0.500000  0.846048  0.410540  1
  Ni  Ni4  1  0.000000  0.345204  0.090127  1
  Ni  Ni5  1  0.000000  0.654796  0.909873  1
  Ni  Ni6  1  0.500000  0.589460  0.153952  1
  Ni  Ni7  1  0.500000  0.410540  0.846048  1
  Ni  Ni8  1  0.000000  0.090127  0.345204  1
  Ni  Ni9  1  0.000000  0.909873  0.654796  1
  As  As10  1  0.500000  0.712709  0.712709  1
  As  As11  1  0.500000  0.287291  0.287291  1
  As  As12  1  0.000000  0.777856  0.222144  1
  As  As13  1  0.000000  0.222144  0.777856  1
