# generated using pymatgen
data_Rb4Ho3Lu(Bi2Se5)4
_symmetry_space_group_name_H-M   'P 1'
_cell_length_a   4.16023500
_cell_length_b   12.38964800
_cell_length_c   22.33631200
_cell_angle_alpha   90.00121577
_cell_angle_beta   90.00000000
_cell_angle_gamma   90.00000000
_symmetry_Int_Tables_number   1
_chemical_formula_structural   Rb4Ho3Lu(Bi2Se5)4
_chemical_formula_sum   'Rb4 Ho3 Lu1 Bi8 Se20'
_cell_volume   1151.29945367
_cell_formula_units_Z   1
loop_
 _symmetry_equiv_pos_site_id
 _symmetry_equiv_pos_as_xyz
  1  'x, y, z'
loop_
 _atom_site_type_symbol
 _atom_site_label
 _atom_site_symmetry_multiplicity
 _atom_site_fract_x
 _atom_site_fract_y
 _atom_site_fract_z
 _atom_site_occupancy
  Rb  Rb0  1  0.250000  0.489163  0.210556  1
  Rb  Rb1  1  0.750000  0.510531  0.789378  1
  Rb  Rb2  1  0.750000  0.989358  0.289256  1
  Rb  Rb3  1  0.250000  0.010696  0.710722  1
  Ho  Ho4  1  0.750000  0.635417  0.976169  1
  Ho  Ho5  1  0.750000  0.863993  0.475920  1
  Ho  Ho6  1  0.250000  0.136011  0.524062  1
  Lu  Lu7  1  0.250000  0.364162  0.023996  1
  Bi  Bi8  1  0.250000  0.802038  0.126245  1
  Bi  Bi9  1  0.750000  0.198309  0.873967  1
  Bi  Bi10  1  0.750000  0.301999  0.373783  1
  Bi  Bi11  1  0.250000  0.698028  0.626195  1
  Bi  Bi12  1  0.250000  0.595981  0.423554  1
  Bi  Bi13  1  0.750000  0.404035  0.576419  1
  Bi  Bi14  1  0.750000  0.096493  0.076157  1
  Bi  Bi15  1  0.250000  0.903928  0.923521  1
  Se  Se16  1  0.250000  0.812550  0.390423  1
  Se  Se17  1  0.750000  0.187460  0.609561  1
  Se  Se18  1  0.750000  0.313844  0.107766  1
  Se  Se19  1  0.250000  0.687490  0.890446  1
  Se  Se20  1  0.250000  0.247233  0.295104  1
  Se  Se21  1  0.750000  0.752778  0.704873  1
  Se  Se22  1  0.750000  0.747228  0.204890  1
  Se  Se23  1  0.250000  0.252969  0.795209  1
  Se  Se24  1  0.250000  0.354757  0.480948  1
  Se  Se25  1  0.750000  0.645253  0.519024  1
  Se  Se26  1  0.750000  0.854599  0.018997  1
  Se  Se27  1  0.250000  0.147684  0.981526  1
  Se  Se28  1  0.250000  0.026440  0.159361  1
  Se  Se29  1  0.750000  0.973333  0.840665  1
  Se  Se30  1  0.750000  0.526639  0.340604  1
  Se  Se31  1  0.250000  0.473357  0.659379  1
  Se  Se32  1  0.250000  0.580746  0.059234  1
  Se  Se33  1  0.750000  0.415489  0.942097  1
  Se  Se34  1  0.750000  0.082910  0.440454  1
  Se  Se35  1  0.250000  0.917101  0.559539  1
