# generated using pymatgen
data_LuZr(CoB4)2
_symmetry_space_group_name_H-M   'P 1'
_cell_length_a   5.81910968
_cell_length_b   11.28150850
_cell_length_c   3.28526500
_cell_angle_alpha   90.00000000
_cell_angle_beta   90.00000000
_cell_angle_gamma   90.07600568
_symmetry_Int_Tables_number   1
_chemical_formula_structural   LuZr(CoB4)2
_chemical_formula_sum   'Lu2 Zr2 Co4 B16'
_cell_volume   215.67198858
_cell_formula_units_Z   2
loop_
 _symmetry_equiv_pos_site_id
 _symmetry_equiv_pos_as_xyz
  1  'x, y, z'
loop_
 _atom_site_type_symbol
 _atom_site_label
 _atom_site_symmetry_multiplicity
 _atom_site_fract_x
 _atom_site_fract_y
 _atom_site_fract_z
 _atom_site_occupancy
  Lu  Lu0  1  0.130245  0.150986  0.000000  1
  Lu  Lu1  1  0.869755  0.849014  0.000000  1
  Zr  Zr2  1  0.626029  0.351165  0.000000  1
  Zr  Zr3  1  0.373971  0.648835  0.000000  1
  Co  Co4  1  0.636844  0.090207  0.000000  1
  Co  Co5  1  0.363156  0.909793  0.000000  1
  Co  Co6  1  0.135740  0.410893  0.000000  1
  Co  Co7  1  0.864260  0.589107  0.000000  1
  B  B8  1  0.785542  0.187056  0.500000  1
  B  B9  1  0.214458  0.812944  0.500000  1
  B  B10  1  0.288605  0.314391  0.500000  1
  B  B11  1  0.711395  0.685609  0.500000  1
  B  B12  1  0.863033  0.031575  0.500000  1
  B  B13  1  0.136967  0.968425  0.500000  1
  B  B14  1  0.366507  0.466381  0.500000  1
  B  B15  1  0.633493  0.533619  0.500000  1
  B  B16  1  0.885749  0.452918  0.500000  1
  B  B17  1  0.114251  0.547082  0.500000  1
  B  B18  1  0.387982  0.047048  0.500000  1
  B  B19  1  0.612018  0.952952  0.500000  1
  B  B20  1  0.976481  0.307952  0.500000  1
  B  B21  1  0.023519  0.692048  0.500000  1
  B  B22  1  0.478818  0.193269  0.500000  1
  B  B23  1  0.521182  0.806731  0.500000  1
