# generated using pymatgen
data_HoZrMn2Co10P7
_symmetry_space_group_name_H-M   'P 1'
_cell_length_a   8.97721814
_cell_length_b   8.99134572
_cell_length_c   3.58192800
_cell_angle_alpha   90.00000000
_cell_angle_beta   90.00000000
_cell_angle_gamma   120.15828784
_symmetry_Int_Tables_number   1
_chemical_formula_structural   HoZrMn2Co10P7
_chemical_formula_sum   'Ho1 Zr1 Mn2 Co10 P7'
_cell_volume   249.98793029
_cell_formula_units_Z   1
loop_
 _symmetry_equiv_pos_site_id
 _symmetry_equiv_pos_as_xyz
  1  'x, y, z'
loop_
 _atom_site_type_symbol
 _atom_site_label
 _atom_site_symmetry_multiplicity
 _atom_site_fract_x
 _atom_site_fract_y
 _atom_site_fract_z
 _atom_site_occupancy
  Ho  Ho0  1  0.333541  0.666324  0.500000  1
  Zr  Zr1  1  0.668181  0.334492  0.000000  1
  Mn  Mn2  1  0.780071  0.877761  0.500000  1
  Mn  Mn3  1  0.123382  0.902225  0.500000  1
  Co  Co4  1  0.057645  0.430303  0.000000  1
  Co  Co5  1  0.567096  0.626177  0.000000  1
  Co  Co6  1  0.373248  0.941800  0.000000  1
  Co  Co7  1  0.276604  0.159015  0.000000  1
  Co  Co8  1  0.842921  0.119157  0.000000  1
  Co  Co9  1  0.882069  0.721426  0.000000  1
  Co  Co10  1  0.437624  0.383735  0.500000  1
  Co  Co11  1  0.616755  0.055608  0.500000  1
  Co  Co12  1  0.944781  0.559539  0.500000  1
  Co  Co13  1  0.094688  0.223615  0.500000  1
  P  P14  1  0.295024  0.408922  0.000000  1
  P  P15  1  0.589435  0.886307  0.000000  1
  P  P16  1  0.114073  0.702041  0.000000  1
  P  P17  1  0.410585  0.120174  0.500000  1
  P  P18  1  0.882832  0.289049  0.500000  1
  P  P19  1  0.709406  0.592066  0.500000  1
  P  P20  1  0.000038  0.000263  0.000000  1
