# generated using pymatgen
data_Li3Dy8Si12Ag
_symmetry_space_group_name_H-M   'P 1'
_cell_length_a   10.63583655
_cell_length_b   8.91156314
_cell_length_c   8.19854024
_cell_angle_alpha   76.74031908
_cell_angle_beta   54.60799239
_cell_angle_gamma   48.63934623
_symmetry_Int_Tables_number   1
_chemical_formula_structural   Li3Dy8Si12Ag
_chemical_formula_sum   'Li3 Dy8 Si12 Ag1'
_cell_volume   460.29124298
_cell_formula_units_Z   1
loop_
 _symmetry_equiv_pos_site_id
 _symmetry_equiv_pos_as_xyz
  1  'x, y, z'
loop_
 _atom_site_type_symbol
 _atom_site_label
 _atom_site_symmetry_multiplicity
 _atom_site_fract_x
 _atom_site_fract_y
 _atom_site_fract_z
 _atom_site_occupancy
  Li  Li0  1  0.832722  0.167140  0.832828  1
  Li  Li1  1  0.166935  0.833174  0.167075  1
  Li  Li2  1  0.416955  0.082970  0.417207  1
  Dy  Dy3  1  0.379144  0.378488  0.618920  1
  Dy  Dy4  1  0.619320  0.623137  0.379814  1
  Dy  Dy5  1  0.872946  0.873326  0.627167  1
  Dy  Dy6  1  0.626959  0.626746  0.872577  1
  Dy  Dy7  1  0.875837  0.878605  0.125660  1
  Dy  Dy8  1  0.124752  0.120979  0.874825  1
  Dy  Dy9  1  0.374533  0.375506  0.126849  1
  Dy  Dy10  1  0.127222  0.122782  0.375119  1
  Si  Si11  1  0.667713  0.332439  0.668137  1
  Si  Si12  1  0.332111  0.668270  0.332064  1
  Si  Si13  1  0.580616  0.919512  0.579817  1
  Si  Si14  1  0.913003  0.586435  0.912724  1
  Si  Si15  1  0.329920  0.663356  0.837305  1
  Si  Si16  1  0.169231  0.836931  0.663547  1
  Si  Si17  1  0.837117  0.168975  0.330137  1
  Si  Si18  1  0.663538  0.330513  0.169629  1
  Si  Si19  1  0.917177  0.594052  0.420435  1
  Si  Si20  1  0.082446  0.407650  0.586412  1
  Si  Si21  1  0.420236  0.068876  0.917143  1
  Si  Si22  1  0.587037  0.922772  0.081532  1
  Ag  Ag23  1  0.082531  0.417365  0.083078  1
