# generated using pymatgen
data_PrTh3(AlZn5)2
_symmetry_space_group_name_H-M   'P 1'
_cell_length_a   8.47907080
_cell_length_b   8.47907214
_cell_length_c   8.94874120
_cell_angle_alpha   90.11527336
_cell_angle_beta   89.88472601
_cell_angle_gamma   149.33170672
_symmetry_Int_Tables_number   1
_chemical_formula_structural   PrTh3(AlZn5)2
_chemical_formula_sum   'Pr1 Th3 Al2 Zn10'
_cell_volume   328.15938534
_cell_formula_units_Z   1
loop_
 _symmetry_equiv_pos_site_id
 _symmetry_equiv_pos_as_xyz
  1  'x, y, z'
loop_
 _atom_site_type_symbol
 _atom_site_label
 _atom_site_symmetry_multiplicity
 _atom_site_fract_x
 _atom_site_fract_y
 _atom_site_fract_z
 _atom_site_occupancy
  Pr  Pr0  1  0.000000  0.000000  0.000000  1
  Th  Th1  1  0.205034  0.794966  0.250202  1
  Th  Th2  1  0.794966  0.205034  0.749798  1
  Th  Th3  1  0.000000  0.000000  0.500000  1
  Al  Al4  1  0.557626  0.442374  0.251628  1
  Al  Al5  1  0.442374  0.557626  0.748372  1
  Zn  Zn6  1  0.813919  0.186081  0.393209  1
  Zn  Zn7  1  0.186081  0.813919  0.606791  1
  Zn  Zn8  1  0.813567  0.186433  0.107115  1
  Zn  Zn9  1  0.186433  0.813567  0.892885  1
  Zn  Zn10  1  0.650766  0.349234  0.479678  1
  Zn  Zn11  1  0.349234  0.650766  0.520322  1
  Zn  Zn12  1  0.650945  0.349055  0.020248  1
  Zn  Zn13  1  0.349055  0.650945  0.979752  1
  Zn  Zn14  1  0.403862  0.596138  0.250787  1
  Zn  Zn15  1  0.596138  0.403862  0.749213  1
