# generated using pymatgen
data_Pr5Nd(TiBi5)2
_symmetry_space_group_name_H-M   'P 1'
_cell_length_a   9.69144900
_cell_length_b   9.69144934
_cell_length_c   6.52131100
_cell_angle_alpha   90.00000000
_cell_angle_beta   90.00000000
_cell_angle_gamma   119.99835446
_symmetry_Int_Tables_number   1
_chemical_formula_structural   Pr5Nd(TiBi5)2
_chemical_formula_sum   'Pr5 Nd1 Ti2 Bi10'
_cell_volume   530.45700594
_cell_formula_units_Z   1
loop_
 _symmetry_equiv_pos_site_id
 _symmetry_equiv_pos_as_xyz
  1  'x, y, z'
loop_
 _atom_site_type_symbol
 _atom_site_label
 _atom_site_symmetry_multiplicity
 _atom_site_fract_x
 _atom_site_fract_y
 _atom_site_fract_z
 _atom_site_occupancy
  Pr  Pr0  1  0.618395  0.000012  0.750000  1
  Pr  Pr1  1  0.381582  0.999970  0.250000  1
  Pr  Pr2  1  0.000012  0.618395  0.750000  1
  Pr  Pr3  1  0.999970  0.381582  0.250000  1
  Pr  Pr4  1  0.381739  0.381739  0.750000  1
  Nd  Nd5  1  0.618585  0.618585  0.250000  1
  Ti  Ti6  1  0.999956  0.999956  0.499968  1
  Ti  Ti7  1  0.999956  0.999956  0.000032  1
  Bi  Bi8  1  0.254461  0.000006  0.750000  1
  Bi  Bi9  1  0.745314  0.999522  0.250000  1
  Bi  Bi10  1  0.000006  0.254461  0.750000  1
  Bi  Bi11  1  0.999522  0.745314  0.250000  1
  Bi  Bi12  1  0.745405  0.745405  0.750000  1
  Bi  Bi13  1  0.254668  0.254668  0.250000  1
  Bi  Bi14  1  0.333575  0.666640  0.499796  1
  Bi  Bi15  1  0.666640  0.333575  0.499796  1
  Bi  Bi16  1  0.666640  0.333575  0.000204  1
  Bi  Bi17  1  0.333575  0.666640  0.000204  1
