# generated using pymatgen
data_YLuPd2F14
_symmetry_space_group_name_H-M   'P 1'
_cell_length_a   5.48995254
_cell_length_b   8.77203508
_cell_length_c   11.85784335
_cell_angle_alpha   62.67145686
_cell_angle_beta   89.84287181
_cell_angle_gamma   90.02648638
_symmetry_Int_Tables_number   1
_chemical_formula_structural   YLuPd2F14
_chemical_formula_sum   'Y2 Lu2 Pd4 F28'
_cell_volume   507.31208157
_cell_formula_units_Z   2
loop_
 _symmetry_equiv_pos_site_id
 _symmetry_equiv_pos_as_xyz
  1  'x, y, z'
loop_
 _atom_site_type_symbol
 _atom_site_label
 _atom_site_symmetry_multiplicity
 _atom_site_fract_x
 _atom_site_fract_y
 _atom_site_fract_z
 _atom_site_occupancy
  Y  Y0  1  0.261854  0.815880  0.264265  1
  Y  Y1  1  0.738146  0.184120  0.735735  1
  Lu  Lu2  1  0.763343  0.187876  0.235518  1
  Lu  Lu3  1  0.236657  0.812124  0.764482  1
  Pd  Pd4  1  0.759162  0.724864  0.042160  1
  Pd  Pd5  1  0.240838  0.275136  0.957840  1
  Pd  Pd6  1  0.259854  0.270354  0.455138  1
  Pd  Pd7  1  0.740146  0.729646  0.544862  1
  F  F8  1  0.934636  0.702055  0.418383  1
  F  F9  1  0.065364  0.297945  0.581617  1
  F  F10  1  0.435694  0.300472  0.084778  1
  F  F11  1  0.564306  0.699528  0.915222  1
  F  F12  1  0.464671  0.722703  0.134146  1
  F  F13  1  0.535329  0.277297  0.865854  1
  F  F14  1  0.966061  0.274587  0.361639  1
  F  F15  1  0.033939  0.725413  0.638361  1
  F  F16  1  0.945876  0.743009  0.175642  1
  F  F17  1  0.054124  0.256991  0.824358  1
  F  F18  1  0.451469  0.251486  0.322852  1
  F  F19  1  0.548531  0.748514  0.677148  1
  F  F20  1  0.775492  0.475493  0.141894  1
  F  F21  1  0.224508  0.524507  0.858106  1
  F  F22  1  0.276897  0.519748  0.356825  1
  F  F23  1  0.723103  0.480252  0.643175  1
  F  F24  1  0.937691  0.279565  0.043534  1
  F  F25  1  0.062309  0.720435  0.956466  1
  F  F26  1  0.440081  0.721923  0.460166  1
  F  F27  1  0.559919  0.278077  0.539834  1
  F  F28  1  0.745613  0.978449  0.450862  1
  F  F29  1  0.254387  0.021551  0.549138  1
  F  F30  1  0.246279  0.026395  0.048761  1
  F  F31  1  0.753721  0.973605  0.951239  1
  F  F32  1  0.589585  0.976213  0.231903  1
  F  F33  1  0.410415  0.023787  0.768097  1
  F  F34  1  0.079917  0.034939  0.267422  1
  F  F35  1  0.920083  0.965061  0.732578  1
