# generated using pymatgen
data_PrSmMn2F14
_symmetry_space_group_name_H-M   'P 1'
_cell_length_a   5.54070900
_cell_length_b   8.98977941
_cell_length_c   12.02564526
_cell_angle_alpha   61.97353949
_cell_angle_beta   90.00000000
_cell_angle_gamma   90.00000000
_symmetry_Int_Tables_number   1
_chemical_formula_structural   PrSmMn2F14
_chemical_formula_sum   'Pr2 Sm2 Mn4 F28'
_cell_volume   528.75074164
_cell_formula_units_Z   2
loop_
 _symmetry_equiv_pos_site_id
 _symmetry_equiv_pos_as_xyz
  1  'x, y, z'
loop_
 _atom_site_type_symbol
 _atom_site_label
 _atom_site_symmetry_multiplicity
 _atom_site_fract_x
 _atom_site_fract_y
 _atom_site_fract_z
 _atom_site_occupancy
  Pr  Pr0  1  0.760335  0.807748  0.764094  1
  Pr  Pr1  1  0.260335  0.192252  0.735906  1
  Sm  Sm2  1  0.238723  0.190037  0.236212  1
  Sm  Sm3  1  0.738723  0.809963  0.263788  1
  Mn  Mn4  1  0.756371  0.272232  0.961314  1
  Mn  Mn5  1  0.256371  0.727768  0.538686  1
  Mn  Mn6  1  0.241311  0.723394  0.046228  1
  Mn  Mn7  1  0.741311  0.276606  0.453772  1
  F  F8  1  0.426888  0.706553  0.925874  1
  F  F9  1  0.926888  0.293447  0.574126  1
  F  F10  1  0.571416  0.290788  0.081025  1
  F  F11  1  0.071416  0.709212  0.418975  1
  F  F12  1  0.461907  0.284294  0.534910  1
  F  F13  1  0.961907  0.715706  0.965090  1
  F  F14  1  0.538828  0.719849  0.458465  1
  F  F15  1  0.038828  0.280151  0.041535  1
  F  F16  1  0.768832  0.503897  0.867969  1
  F  F17  1  0.268832  0.496103  0.632031  1
  F  F18  1  0.231905  0.490929  0.138463  1
  F  F19  1  0.731905  0.509071  0.361537  1
  F  F20  1  0.758684  0.041061  0.048928  1
  F  F21  1  0.258684  0.958939  0.451072  1
  F  F22  1  0.239447  0.954285  0.956043  1
  F  F23  1  0.739447  0.045715  0.543957  1
  F  F24  1  0.980860  0.728464  0.624130  1
  F  F25  1  0.480860  0.271536  0.875870  1
  F  F26  1  0.015948  0.271990  0.368126  1
  F  F27  1  0.515948  0.728010  0.131874  1
  F  F28  1  0.056281  0.739319  0.168998  1
  F  F29  1  0.556281  0.260681  0.331002  1
  F  F30  1  0.938098  0.259527  0.836534  1
  F  F31  1  0.438098  0.740473  0.663466  1
  F  F32  1  0.404942  0.969388  0.227733  1
  F  F33  1  0.904942  0.030612  0.272267  1
  F  F34  1  0.609225  0.036866  0.774571  1
  F  F35  1  0.109225  0.963134  0.725429  1
