# generated using pymatgen
data_La2Tm4PtRh17
_symmetry_space_group_name_H-M   'P 1'
_cell_length_a   5.30415300
_cell_length_b   5.30421431
_cell_length_c   17.49073900
_cell_angle_alpha   90.00022423
_cell_angle_beta   90.00001470
_cell_angle_gamma   119.99994259
_symmetry_Int_Tables_number   1
_chemical_formula_structural   La2Tm4PtRh17
_chemical_formula_sum   'La2 Tm4 Pt1 Rh17'
_cell_volume   426.16339964
_cell_formula_units_Z   1
loop_
 _symmetry_equiv_pos_site_id
 _symmetry_equiv_pos_as_xyz
  1  'x, y, z'
loop_
 _atom_site_type_symbol
 _atom_site_label
 _atom_site_symmetry_multiplicity
 _atom_site_fract_x
 _atom_site_fract_y
 _atom_site_fract_z
 _atom_site_occupancy
  La  La0  1  0.333334  0.666652  0.749228  1
  La  La1  1  0.666666  0.333348  0.250772  1
  Tm  Tm2  1  0.333347  0.666680  0.540755  1
  Tm  Tm3  1  0.666665  0.333325  0.042126  1
  Tm  Tm4  1  0.666653  0.333320  0.459245  1
  Tm  Tm5  1  0.333335  0.666675  0.957874  1
  Pt  Pt6  1  0.000000  0.000000  0.000000  1
  Rh  Rh7  1  0.167721  0.335474  0.124659  1
  Rh  Rh8  1  0.832373  0.664769  0.623492  1
  Rh  Rh9  1  0.664511  0.832229  0.124651  1
  Rh  Rh10  1  0.167754  0.832257  0.124640  1
  Rh  Rh11  1  0.832383  0.167626  0.623480  1
  Rh  Rh12  1  0.335243  0.167621  0.623481  1
  Rh  Rh13  1  0.832279  0.664526  0.875341  1
  Rh  Rh14  1  0.832246  0.167743  0.875360  1
  Rh  Rh15  1  0.335489  0.167771  0.875349  1
  Rh  Rh16  1  0.664757  0.832379  0.376519  1
  Rh  Rh17  1  0.167617  0.832374  0.376520  1
  Rh  Rh18  1  0.167627  0.335231  0.376508  1
  Rh  Rh19  1  0.999977  0.999941  0.250488  1
  Rh  Rh20  1  0.000023  0.000059  0.749512  1
  Rh  Rh21  1  0.333343  0.666692  0.249900  1
  Rh  Rh22  1  0.666657  0.333308  0.750100  1
  Rh  Rh23  1  0.000000  0.000000  0.500000  1
