# generated using pymatgen
data_Ca(GaAu)3
_symmetry_space_group_name_H-M   'P 1'
_cell_length_a   4.51054700
_cell_length_b   7.21896000
_cell_length_c   8.75613500
_cell_angle_alpha   90.00000000
_cell_angle_beta   90.00000000
_cell_angle_gamma   90.00000000
_symmetry_Int_Tables_number   1
_chemical_formula_structural   Ca(GaAu)3
_chemical_formula_sum   'Ca2 Ga6 Au6'
_cell_volume   285.11252529
_cell_formula_units_Z   2
loop_
 _symmetry_equiv_pos_site_id
 _symmetry_equiv_pos_as_xyz
  1  'x, y, z'
loop_
 _atom_site_type_symbol
 _atom_site_label
 _atom_site_symmetry_multiplicity
 _atom_site_fract_x
 _atom_site_fract_y
 _atom_site_fract_z
 _atom_site_occupancy
  Ca  Ca0  1  0.500000  0.000000  0.739816  1
  Ca  Ca1  1  0.000000  0.500000  0.260184  1
  Ga  Ga2  1  0.000000  0.308279  0.889797  1
  Ga  Ga3  1  0.500000  0.191721  0.110203  1
  Ga  Ga4  1  0.000000  0.691721  0.889797  1
  Ga  Ga5  1  0.000000  0.000000  0.378384  1
  Ga  Ga6  1  0.500000  0.808279  0.110203  1
  Ga  Ga7  1  0.500000  0.500000  0.621616  1
  Au  Au8  1  0.000000  0.726297  0.599981  1
  Au  Au9  1  0.500000  0.773703  0.400019  1
  Au  Au10  1  0.500000  0.500000  0.948351  1
  Au  Au11  1  0.000000  0.000000  0.051649  1
  Au  Au12  1  0.500000  0.226297  0.400019  1
  Au  Au13  1  0.000000  0.273703  0.599981  1
