# generated using pymatgen
data_Er6Al24Co2NiOs5
_symmetry_space_group_name_H-M   'P 1'
_cell_length_a   8.75187300
_cell_length_b   8.69894866
_cell_length_c   9.41044167
_cell_angle_alpha   90.29049564
_cell_angle_beta   90.00000000
_cell_angle_gamma   120.20145795
_symmetry_Int_Tables_number   1
_chemical_formula_structural   Er6Al24Co2NiOs5
_chemical_formula_sum   'Er6 Al24 Co2 Ni1 Os5'
_cell_volume   619.17830028
_cell_formula_units_Z   1
loop_
 _symmetry_equiv_pos_site_id
 _symmetry_equiv_pos_as_xyz
  1  'x, y, z'
loop_
 _atom_site_type_symbol
 _atom_site_label
 _atom_site_symmetry_multiplicity
 _atom_site_fract_x
 _atom_site_fract_y
 _atom_site_fract_z
 _atom_site_occupancy
  Er  Er0  1  0.196052  0.392104  0.248273  1
  Er  Er1  1  0.803948  0.607896  0.751727  1
  Er  Er2  1  0.611208  0.801103  0.250576  1
  Er  Er3  1  0.388792  0.198897  0.749424  1
  Er  Er4  1  0.189894  0.801103  0.250576  1
  Er  Er5  1  0.810106  0.198897  0.749424  1
  Al  Al6  1  0.335448  0.670896  0.020177  1
  Al  Al7  1  0.664552  0.329104  0.979823  1
  Al  Al8  1  0.666559  0.333118  0.517995  1
  Al  Al9  1  0.333441  0.666882  0.482005  1
  Al  Al10  1  0.159793  0.319586  0.575214  1
  Al  Al11  1  0.840207  0.680414  0.424786  1
  Al  Al12  1  0.680487  0.841447  0.577301  1
  Al  Al13  1  0.838692  0.677383  0.075817  1
  Al  Al14  1  0.319513  0.158553  0.422699  1
  Al  Al15  1  0.161308  0.322617  0.924183  1
  Al  Al16  1  0.160960  0.841447  0.577301  1
  Al  Al17  1  0.320061  0.160109  0.076236  1
  Al  Al18  1  0.839040  0.158553  0.422699  1
  Al  Al19  1  0.679939  0.839891  0.923764  1
  Al  Al20  1  0.840049  0.160109  0.076236  1
  Al  Al21  1  0.159951  0.839891  0.923764  1
  Al  Al22  1  0.559153  0.118307  0.245227  1
  Al  Al23  1  0.440847  0.881693  0.754773  1
  Al  Al24  1  0.875294  0.436263  0.248509  1
  Al  Al25  1  0.124706  0.563737  0.751491  1
  Al  Al26  1  0.560969  0.436263  0.248509  1
  Al  Al27  1  0.439031  0.563737  0.751491  1
  Al  Al28  1  0.999389  0.998778  0.250340  1
  Al  Al29  1  0.000611  0.001222  0.749660  1
  Co  Co30  1  0.000000  0.000000  0.000000  1
  Co  Co31  1  0.000000  0.000000  0.500000  1
  Ni  Ni32  1  0.500000  0.000000  0.000000  1
  Os  Os33  1  0.000000  0.500000  0.000000  1
  Os  Os34  1  0.500000  0.000000  0.500000  1
  Os  Os35  1  0.500000  0.500000  0.000000  1
  Os  Os36  1  0.000000  0.500000  0.500000  1
  Os  Os37  1  0.500000  0.500000  0.500000  1
