# generated using pymatgen
data_Er6Tm14Cd6CoRu
_symmetry_space_group_name_H-M   'P 1'
_cell_length_a   9.46282000
_cell_length_b   9.46282042
_cell_length_c   9.68071600
_cell_angle_alpha   90.00000000
_cell_angle_beta   90.00000000
_cell_angle_gamma   119.99999852
_symmetry_Int_Tables_number   1
_chemical_formula_structural   Er6Tm14Cd6CoRu
_chemical_formula_sum   'Er6 Tm14 Cd6 Co1 Ru1'
_cell_volume   750.72226316
_cell_formula_units_Z   1
loop_
 _symmetry_equiv_pos_site_id
 _symmetry_equiv_pos_as_xyz
  1  'x, y, z'
loop_
 _atom_site_type_symbol
 _atom_site_label
 _atom_site_symmetry_multiplicity
 _atom_site_fract_x
 _atom_site_fract_y
 _atom_site_fract_z
 _atom_site_occupancy
  Er  Er0  1  0.541307  0.458693  0.250000  1
  Er  Er1  1  0.541307  0.082613  0.250000  1
  Er  Er2  1  0.917387  0.458693  0.250000  1
  Er  Er3  1  0.458632  0.541368  0.750000  1
  Er  Er4  1  0.458632  0.917265  0.750000  1
  Er  Er5  1  0.082735  0.541368  0.750000  1
  Tm  Tm6  1  0.000000  0.000000  0.499486  1
  Tm  Tm7  1  0.000000  0.000000  0.000514  1
  Tm  Tm8  1  0.212287  0.787713  0.436022  1
  Tm  Tm9  1  0.212287  0.424575  0.436022  1
  Tm  Tm10  1  0.575425  0.787713  0.436022  1
  Tm  Tm11  1  0.790364  0.209636  0.558893  1
  Tm  Tm12  1  0.790364  0.580727  0.558893  1
  Tm  Tm13  1  0.419273  0.209636  0.558893  1
  Tm  Tm14  1  0.790364  0.209636  0.941107  1
  Tm  Tm15  1  0.790364  0.580727  0.941107  1
  Tm  Tm16  1  0.419273  0.209636  0.941107  1
  Tm  Tm17  1  0.212287  0.787713  0.063978  1
  Tm  Tm18  1  0.212287  0.424575  0.063978  1
  Tm  Tm19  1  0.575425  0.787713  0.063978  1
  Cd  Cd20  1  0.885802  0.114198  0.250000  1
  Cd  Cd21  1  0.885802  0.771606  0.250000  1
  Cd  Cd22  1  0.228394  0.114198  0.250000  1
  Cd  Cd23  1  0.113981  0.886019  0.750000  1
  Cd  Cd24  1  0.113981  0.227961  0.750000  1
  Cd  Cd25  1  0.772039  0.886019  0.750000  1
  Co  Co26  1  0.333333  0.666667  0.250000  1
  Ru  Ru27  1  0.666667  0.333333  0.750000  1
