# generated using pymatgen
data_MgFe3(AuO2)4
_symmetry_space_group_name_H-M   'P 1'
_cell_length_a   5.34214928
_cell_length_b   6.19177555
_cell_length_c   7.12667402
_cell_angle_alpha   64.25156840
_cell_angle_beta   75.49405548
_cell_angle_gamma   90.01484293
_symmetry_Int_Tables_number   1
_chemical_formula_structural   MgFe3(AuO2)4
_chemical_formula_sum   'Mg1 Fe3 Au4 O8'
_cell_volume   203.94297611
_cell_formula_units_Z   1
loop_
 _symmetry_equiv_pos_site_id
 _symmetry_equiv_pos_as_xyz
  1  'x, y, z'
loop_
 _atom_site_type_symbol
 _atom_site_label
 _atom_site_symmetry_multiplicity
 _atom_site_fract_x
 _atom_site_fract_y
 _atom_site_fract_z
 _atom_site_occupancy
  Mg  Mg0  1  0.500004  0.749903  0.000004  1
  Fe  Fe1  1  0.999953  0.501860  0.000018  1
  Fe  Fe2  1  0.500059  0.250079  0.999989  1
  Fe  Fe3  1  0.999989  0.998091  0.000029  1
  Au  Au4  1  0.001640  0.999522  0.501097  1
  Au  Au5  1  0.998353  0.500605  0.498887  1
  Au  Au6  1  0.499993  0.749949  0.500002  1
  Au  Au7  1  0.500008  0.249961  0.499979  1
  O  O8  1  0.896620  0.833527  0.833087  1
  O  O9  1  0.889506  0.333676  0.832756  1
  O  O10  1  0.385353  0.577047  0.833659  1
  O  O11  1  0.385298  0.089188  0.833692  1
  O  O12  1  0.110484  0.166421  0.167245  1
  O  O13  1  0.103379  0.666618  0.166908  1
  O  O14  1  0.614656  0.922852  0.166329  1
  O  O15  1  0.614707  0.410699  0.166318  1
