# generated using pymatgen
data_Cu2Ag(CO4)2
_symmetry_space_group_name_H-M   'P 1'
_cell_length_a   6.06932200
_cell_length_b   5.10627500
_cell_length_c   10.77704528
_cell_angle_alpha   80.71690720
_cell_angle_beta   90.00000000
_cell_angle_gamma   90.00000000
_symmetry_Int_Tables_number   1
_chemical_formula_structural   Cu2Ag(CO4)2
_chemical_formula_sum   'Cu4 Ag2 C4 O16'
_cell_volume   329.62391587
_cell_formula_units_Z   2
loop_
 _symmetry_equiv_pos_site_id
 _symmetry_equiv_pos_as_xyz
  1  'x, y, z'
loop_
 _atom_site_type_symbol
 _atom_site_label
 _atom_site_symmetry_multiplicity
 _atom_site_fract_x
 _atom_site_fract_y
 _atom_site_fract_z
 _atom_site_occupancy
  Cu  Cu0  1  0.003028  0.751495  0.584491  1
  Cu  Cu1  1  0.503028  0.248505  0.915509  1
  Cu  Cu2  1  0.996972  0.248505  0.415509  1
  Cu  Cu3  1  0.496972  0.751495  0.084491  1
  Ag  Ag4  1  0.500000  0.000000  0.500000  1
  Ag  Ag5  1  0.000000  0.000000  0.000000  1
  C  C6  1  0.811659  0.665828  0.816425  1
  C  C7  1  0.311659  0.334172  0.683575  1
  C  C8  1  0.188341  0.334172  0.183575  1
  C  C9  1  0.688341  0.665828  0.316425  1
  O  O10  1  0.329703  0.949395  0.959256  1
  O  O11  1  0.829703  0.050605  0.540744  1
  O  O12  1  0.670297  0.050605  0.040744  1
  O  O13  1  0.170297  0.949395  0.459256  1
  O  O14  1  0.929534  0.870896  0.827947  1
  O  O15  1  0.429534  0.129104  0.672053  1
  O  O16  1  0.070466  0.129104  0.172053  1
  O  O17  1  0.570466  0.870896  0.327947  1
  O  O18  1  0.702750  0.539927  0.911401  1
  O  O19  1  0.202750  0.460073  0.588599  1
  O  O20  1  0.297250  0.460073  0.088599  1
  O  O21  1  0.797250  0.539927  0.411401  1
  O  O22  1  0.804949  0.583900  0.708789  1
  O  O23  1  0.304949  0.416100  0.791211  1
  O  O24  1  0.195051  0.416100  0.291211  1
  O  O25  1  0.695051  0.583900  0.208789  1
