# generated using pymatgen
data_La4Sm2FeBr10
_symmetry_space_group_name_H-M   'P 1'
_cell_length_a   7.77447967
_cell_length_b   9.59432897
_cell_length_c   9.34886170
_cell_angle_alpha   107.07481175
_cell_angle_beta   96.57559125
_cell_angle_gamma   106.93407916
_symmetry_Int_Tables_number   1
_chemical_formula_structural   La4Sm2FeBr10
_chemical_formula_sum   'La4 Sm2 Fe1 Br10'
_cell_volume   622.25552259
_cell_formula_units_Z   1
loop_
 _symmetry_equiv_pos_site_id
 _symmetry_equiv_pos_as_xyz
  1  'x, y, z'
loop_
 _atom_site_type_symbol
 _atom_site_label
 _atom_site_symmetry_multiplicity
 _atom_site_fract_x
 _atom_site_fract_y
 _atom_site_fract_z
 _atom_site_occupancy
  La  La0  1  0.873340  0.145212  0.690351  1
  La  La1  1  0.126660  0.854788  0.309649  1
  La  La2  1  0.384531  0.954295  0.724602  1
  La  La3  1  0.615469  0.045705  0.275398  1
  Sm  Sm4  1  0.469547  0.299460  0.591316  1
  Sm  Sm5  1  0.530453  0.700540  0.408684  1
  Fe  Fe6  1  0.500000  0.000000  0.500000  1
  Br  Br7  1  0.419631  0.628913  0.671508  1
  Br  Br8  1  0.580369  0.371087  0.328492  1
  Br  Br9  1  0.303804  0.262002  0.846074  1
  Br  Br10  1  0.696196  0.737998  0.153926  1
  Br  Br11  1  0.842606  0.456462  0.769835  1
  Br  Br12  1  0.157394  0.543538  0.230165  1
  Br  Br13  1  0.049859  0.177815  0.414906  1
  Br  Br14  1  0.247035  0.916043  0.039506  1
  Br  Br15  1  0.752965  0.083957  0.960494  1
  Br  Br16  1  0.950141  0.822185  0.585094  1
