# generated using pymatgen
data_Ca2TbDy(ReB4)4
_symmetry_space_group_name_H-M   'P 1'
_cell_length_a   3.60805200
_cell_length_b   5.99505600
_cell_length_c   11.60086661
_cell_angle_alpha   90.02092237
_cell_angle_beta   90.00000000
_cell_angle_gamma   90.00000000
_symmetry_Int_Tables_number   1
_chemical_formula_structural   Ca2TbDy(ReB4)4
_chemical_formula_sum   'Ca2 Tb1 Dy1 Re4 B16'
_cell_volume   250.93222466
_cell_formula_units_Z   1
loop_
 _symmetry_equiv_pos_site_id
 _symmetry_equiv_pos_as_xyz
  1  'x, y, z'
loop_
 _atom_site_type_symbol
 _atom_site_label
 _atom_site_symmetry_multiplicity
 _atom_site_fract_x
 _atom_site_fract_y
 _atom_site_fract_z
 _atom_site_occupancy
  Ca  Ca0  1  0.000000  0.373295  0.650064  1
  Ca  Ca1  1  0.000000  0.127096  0.150579  1
  Tb  Tb2  1  0.000000  0.872736  0.849453  1
  Dy  Dy3  1  0.000000  0.627290  0.349610  1
  Re  Re4  1  0.000000  0.631344  0.084744  1
  Re  Re5  1  0.000000  0.369289  0.915217  1
  Re  Re6  1  0.000000  0.130648  0.415096  1
  Re  Re7  1  0.000000  0.868523  0.584249  1
  B  B8  1  0.500000  0.784651  0.184852  1
  B  B9  1  0.500000  0.214926  0.815570  1
  B  B10  1  0.500000  0.285488  0.315705  1
  B  B11  1  0.500000  0.715400  0.684515  1
  B  B12  1  0.500000  0.863566  0.031978  1
  B  B13  1  0.500000  0.136476  0.968057  1
  B  B14  1  0.500000  0.363618  0.467919  1
  B  B15  1  0.500000  0.636270  0.531716  1
  B  B16  1  0.500000  0.886924  0.452892  1
  B  B17  1  0.500000  0.114448  0.547482  1
  B  B18  1  0.500000  0.385443  0.047679  1
  B  B19  1  0.500000  0.612597  0.953070  1
  B  B20  1  0.500000  0.976521  0.307967  1
  B  B21  1  0.500000  0.022821  0.691689  1
  B  B22  1  0.500000  0.477458  0.192046  1
  B  B23  1  0.500000  0.523170  0.807846  1
