# generated using pymatgen
data_Hf5Sc11Ni5Rh3
_symmetry_space_group_name_H-M   'P 1'
_cell_length_a   8.63908129
_cell_length_b   8.62562749
_cell_length_c   8.63925319
_cell_angle_alpha   60.02185635
_cell_angle_beta   59.99978911
_cell_angle_gamma   59.94819343
_symmetry_Int_Tables_number   1
_chemical_formula_structural   Hf5Sc11Ni5Rh3
_chemical_formula_sum   'Hf5 Sc11 Ni5 Rh3'
_cell_volume   455.11387248
_cell_formula_units_Z   1
loop_
 _symmetry_equiv_pos_site_id
 _symmetry_equiv_pos_as_xyz
  1  'x, y, z'
loop_
 _atom_site_type_symbol
 _atom_site_label
 _atom_site_symmetry_multiplicity
 _atom_site_fract_x
 _atom_site_fract_y
 _atom_site_fract_z
 _atom_site_occupancy
  Hf  Hf0  1  0.110550  0.113629  0.115179  1
  Hf  Hf1  1  0.115788  0.111599  0.656822  1
  Hf  Hf2  1  0.660625  0.113640  0.115185  1
  Hf  Hf3  1  0.114434  0.658674  0.112472  1
  Hf  Hf4  1  0.942868  0.556910  0.557348  1
  Sc  Sc5  1  0.558344  0.943400  0.939908  1
  Sc  Sc6  1  0.562116  0.939293  0.561538  1
  Sc  Sc7  1  0.562225  0.561824  0.937722  1
  Sc  Sc8  1  0.938227  0.561827  0.937727  1
  Sc  Sc9  1  0.937045  0.939287  0.561541  1
  Sc  Sc10  1  0.685357  0.314516  0.686356  1
  Sc  Sc11  1  0.313114  0.687770  0.314108  1
  Sc  Sc12  1  0.314608  0.685269  0.685523  1
  Sc  Sc13  1  0.685021  0.687777  0.314108  1
  Sc  Sc14  1  0.684332  0.315571  0.315789  1
  Sc  Sc15  1  0.313767  0.314526  0.686358  1
  Ni  Ni16  1  0.333324  0.001192  0.332149  1
  Ni  Ni17  1  0.900386  0.901291  0.900172  1
  Ni  Ni18  1  0.901237  0.895175  0.302342  1
  Ni  Ni19  1  0.902499  0.299834  0.895156  1
  Ni  Ni20  1  0.298158  0.901280  0.900173  1
  Rh  Rh21  1  0.333169  0.332944  0.337245  1
  Rh  Rh22  1  0.336159  0.329828  0.997842  1
  Rh  Rh23  1  0.996648  0.332943  0.337238  1
