# generated using pymatgen
data_CaNbBiF12
_symmetry_space_group_name_H-M   'P 1'
_cell_length_a   11.91729211
_cell_length_b   5.95187006
_cell_length_c   5.93481338
_cell_angle_alpha   57.40078699
_cell_angle_beta   57.39384535
_cell_angle_gamma   57.41941348
_symmetry_Int_Tables_number   1
_chemical_formula_structural   CaNbBiF12
_chemical_formula_sum   'Ca1 Nb1 Bi1 F12'
_cell_volume   279.88533183
_cell_formula_units_Z   1
loop_
 _symmetry_equiv_pos_site_id
 _symmetry_equiv_pos_as_xyz
  1  'x, y, z'
loop_
 _atom_site_type_symbol
 _atom_site_label
 _atom_site_symmetry_multiplicity
 _atom_site_fract_x
 _atom_site_fract_y
 _atom_site_fract_z
 _atom_site_occupancy
  Ca  Ca0  1  0.745064  0.499099  0.507801  1
  Nb  Nb1  1  0.485201  0.017618  0.003102  1
  Bi  Bi2  1  0.014117  0.980755  0.999898  1
  F  F3  1  0.173569  0.135862  0.754683  1
  F  F4  1  0.655976  0.143353  0.776968  1
  F  F5  1  0.058420  0.766684  0.361704  1
  F  F6  1  0.574687  0.771120  0.303200  1
  F  F7  1  0.116833  0.644130  0.873957  1
  F  F8  1  0.614920  0.691494  0.855722  1
  F  F9  1  0.442087  0.220071  0.666806  1
  F  F10  1  0.929932  0.232674  0.673267  1
  F  F11  1  0.337773  0.869286  0.233503  1
  F  F12  1  0.832191  0.867373  0.229727  1
  F  F13  1  0.389025  0.330721  0.122644  1
  F  F14  1  0.880205  0.329761  0.137017  1
