# generated using pymatgen
data_HoTmIn2(FeCo)2
_symmetry_space_group_name_H-M   'P 1'
_cell_length_a   3.96304400
_cell_length_b   5.05154300
_cell_length_c   7.23350300
_cell_angle_alpha   90.00000000
_cell_angle_beta   90.00000000
_cell_angle_gamma   90.00000000
_symmetry_Int_Tables_number   1
_chemical_formula_structural   HoTmIn2(FeCo)2
_chemical_formula_sum   'Ho1 Tm1 In2 Fe2 Co2'
_cell_volume   144.81102055
_cell_formula_units_Z   1
loop_
 _symmetry_equiv_pos_site_id
 _symmetry_equiv_pos_as_xyz
  1  'x, y, z'
loop_
 _atom_site_type_symbol
 _atom_site_label
 _atom_site_symmetry_multiplicity
 _atom_site_fract_x
 _atom_site_fract_y
 _atom_site_fract_z
 _atom_site_occupancy
  Ho  Ho0  1  0.500000  0.250000  0.283576  1
  Tm  Tm1  1  0.500000  0.750000  0.719399  1
  In  In2  1  0.000000  0.750000  0.352862  1
  In  In3  1  0.000000  0.250000  0.647695  1
  Fe  Fe4  1  0.000000  0.999694  0.998917  1
  Fe  Fe5  1  0.000000  0.500306  0.998917  1
  Co  Co6  1  0.500000  0.750000  0.087753  1
  Co  Co7  1  0.500000  0.250000  0.910883  1
