# generated using pymatgen
data_Pr8Dy11ScSn16
_symmetry_space_group_name_H-M   'P 1'
_cell_length_a   8.10585003
_cell_length_b   8.30487203
_cell_length_c   15.66291800
_cell_angle_alpha   90.00000000
_cell_angle_beta   90.00000000
_cell_angle_gamma   89.98960297
_symmetry_Int_Tables_number   1
_chemical_formula_structural   Pr8Dy11ScSn16
_chemical_formula_sum   'Pr8 Dy11 Sc1 Sn16'
_cell_volume   1054.39703672
_cell_formula_units_Z   1
loop_
 _symmetry_equiv_pos_site_id
 _symmetry_equiv_pos_as_xyz
  1  'x, y, z'
loop_
 _atom_site_type_symbol
 _atom_site_label
 _atom_site_symmetry_multiplicity
 _atom_site_fract_x
 _atom_site_fract_y
 _atom_site_fract_z
 _atom_site_occupancy
  Pr  Pr0  1  0.512076  0.322683  0.902723  1
  Pr  Pr1  1  0.012968  0.179267  0.597131  1
  Pr  Pr2  1  0.488151  0.678129  0.404150  1
  Pr  Pr3  1  0.988176  0.821665  0.096093  1
  Pr  Pr4  1  0.488151  0.678129  0.095850  1
  Pr  Pr5  1  0.988176  0.821665  0.403907  1
  Pr  Pr6  1  0.512076  0.322683  0.597277  1
  Pr  Pr7  1  0.012968  0.179267  0.902869  1
  Dy  Dy8  1  0.356300  0.835254  0.875688  1
  Dy  Dy9  1  0.857414  0.663588  0.624218  1
  Dy  Dy10  1  0.643322  0.164687  0.376801  1
  Dy  Dy11  1  0.142833  0.335256  0.122453  1
  Dy  Dy12  1  0.643322  0.164687  0.123199  1
  Dy  Dy13  1  0.142833  0.335256  0.377547  1
  Dy  Dy14  1  0.356300  0.835254  0.624312  1
  Dy  Dy15  1  0.857414  0.663588  0.875782  1
  Dy  Dy16  1  0.689945  0.998394  0.750000  1
  Dy  Dy17  1  0.809216  0.498010  0.250000  1
  Dy  Dy18  1  0.309122  0.001894  0.250000  1
  Sc  Sc19  1  0.190871  0.503205  0.750000  1
  Sn  Sn20  1  0.307431  0.040529  0.041302  1
  Sn  Sn21  1  0.806906  0.459255  0.458648  1
  Sn  Sn22  1  0.693168  0.959245  0.542386  1
  Sn  Sn23  1  0.193641  0.539487  0.955192  1
  Sn  Sn24  1  0.693168  0.959245  0.957614  1
  Sn  Sn25  1  0.193641  0.539487  0.544808  1
  Sn  Sn26  1  0.307431  0.040529  0.458698  1
  Sn  Sn27  1  0.806906  0.459255  0.041352  1
  Sn  Sn28  1  0.550558  0.620040  0.750000  1
  Sn  Sn29  1  0.056943  0.874171  0.750000  1
  Sn  Sn30  1  0.443203  0.376444  0.250000  1
  Sn  Sn31  1  0.943832  0.123541  0.250000  1
  Sn  Sn32  1  0.318232  0.147880  0.750000  1
  Sn  Sn33  1  0.824358  0.359279  0.750000  1
  Sn  Sn34  1  0.679332  0.857708  0.250000  1
  Sn  Sn35  1  0.179616  0.641341  0.250000  1
