# generated using pymatgen
data_Tb3Yb3(Si3Ru)8
_symmetry_space_group_name_H-M   'P 1'
_cell_length_a   10.14822202
_cell_length_b   10.14822157
_cell_length_c   8.13577801
_cell_angle_alpha   90.00178886
_cell_angle_beta   90.00179550
_cell_angle_gamma   132.75837359
_symmetry_Int_Tables_number   1
_chemical_formula_structural   Tb3Yb3(Si3Ru)8
_chemical_formula_sum   'Tb3 Yb3 Si24 Ru8'
_cell_volume   615.18700058
_cell_formula_units_Z   1
loop_
 _symmetry_equiv_pos_site_id
 _symmetry_equiv_pos_as_xyz
  1  'x, y, z'
loop_
 _atom_site_type_symbol
 _atom_site_label
 _atom_site_symmetry_multiplicity
 _atom_site_fract_x
 _atom_site_fract_y
 _atom_site_fract_z
 _atom_site_occupancy
  Tb  Tb0  1  0.000101  0.999899  0.000000  1
  Tb  Tb1  1  0.498588  0.998561  0.250292  1
  Tb  Tb2  1  0.001439  0.501412  0.749708  1
  Yb  Yb3  1  0.499930  0.500070  0.500000  1
  Yb  Yb4  1  0.500874  0.000842  0.749777  1
  Yb  Yb5  1  0.999158  0.499126  0.250223  1
  Si  Si6  1  0.795005  0.204995  0.500000  1
  Si  Si7  1  0.294575  0.705425  0.000000  1
  Si  Si8  1  0.205328  0.794672  0.500000  1
  Si  Si9  1  0.705121  0.294879  0.000000  1
  Si  Si10  1  0.333736  0.337653  0.830664  1
  Si  Si11  1  0.662347  0.666264  0.169336  1
  Si  Si12  1  0.169156  0.165288  0.333720  1
  Si  Si13  1  0.834712  0.830844  0.666280  1
  Si  Si14  1  0.123011  0.889039  0.727958  1
  Si  Si15  1  0.110961  0.876989  0.272042  1
  Si  Si16  1  0.609521  0.376915  0.229825  1
  Si  Si17  1  0.623085  0.390479  0.770175  1
  Si  Si18  1  0.876418  0.110137  0.272067  1
  Si  Si19  1  0.889863  0.123582  0.727933  1
  Si  Si20  1  0.389751  0.622755  0.770055  1
  Si  Si21  1  0.377245  0.610249  0.229945  1
  Si  Si22  1  0.346503  0.113098  0.506234  1
  Si  Si23  1  0.886902  0.653497  0.493766  1
  Si  Si24  1  0.389299  0.155093  0.006581  1
  Si  Si25  1  0.844907  0.610701  0.993419  1
  Si  Si26  1  0.653536  0.886529  0.493086  1
  Si  Si27  1  0.113471  0.346464  0.506914  1
  Si  Si28  1  0.610360  0.844879  0.994404  1
  Si  Si29  1  0.155121  0.389640  0.005596  1
  Ru  Ru30  1  0.670717  0.329283  0.500000  1
  Ru  Ru31  1  0.169501  0.830499  0.000000  1
  Ru  Ru32  1  0.329820  0.670180  0.500000  1
  Ru  Ru33  1  0.829941  0.170059  0.000000  1
  Ru  Ru34  1  0.126037  0.126652  0.626205  1
  Ru  Ru35  1  0.873348  0.873963  0.373795  1
  Ru  Ru36  1  0.371784  0.371172  0.124021  1
  Ru  Ru37  1  0.628828  0.628216  0.875979  1
