# generated using pymatgen
data_P4IrSeO14
_symmetry_space_group_name_H-M   'P 1'
_cell_length_a   4.85019067
_cell_length_b   6.93812015
_cell_length_c   8.21201500
_cell_angle_alpha   91.90190363
_cell_angle_beta   92.42420398
_cell_angle_gamma   106.68638069
_symmetry_Int_Tables_number   1
_chemical_formula_structural   P4IrSeO14
_chemical_formula_sum   'P4 Ir1 Se1 O14'
_cell_volume   264.17378928
_cell_formula_units_Z   1
loop_
 _symmetry_equiv_pos_site_id
 _symmetry_equiv_pos_as_xyz
  1  'x, y, z'
loop_
 _atom_site_type_symbol
 _atom_site_label
 _atom_site_symmetry_multiplicity
 _atom_site_fract_x
 _atom_site_fract_y
 _atom_site_fract_z
 _atom_site_occupancy
  P  P0  1  0.529913  0.142482  0.762631  1
  P  P1  1  0.115183  0.746667  0.689237  1
  P  P2  1  0.884817  0.253333  0.310763  1
  P  P3  1  0.470087  0.857518  0.237369  1
  Ir  Ir4  1  0.500000  0.500000  0.500000  1
  Se  Se5  1  0.000000  0.000000  0.000000  1
  O  O6  1  0.374054  0.177948  0.915442  1
  O  O7  1  0.028903  0.750978  0.867366  1
  O  O8  1  0.792864  0.066895  0.801802  1
  O  O9  1  0.299301  0.599244  0.677388  1
  O  O10  1  0.632822  0.325645  0.660887  1
  O  O11  1  0.308726  0.967665  0.646992  1
  O  O12  1  0.865267  0.713888  0.559456  1
  O  O13  1  0.134733  0.286112  0.440544  1
  O  O14  1  0.691274  0.032335  0.353008  1
  O  O15  1  0.367178  0.674355  0.339113  1
  O  O16  1  0.700699  0.400756  0.322612  1
  O  O17  1  0.207136  0.933105  0.198198  1
  O  O18  1  0.971097  0.249022  0.132634  1
  O  O19  1  0.625946  0.822052  0.084558  1
