# generated using pymatgen
data_YSi(GeRh2)3
_symmetry_space_group_name_H-M   'P 1'
_cell_length_a   7.17829300
_cell_length_b   7.17829130
_cell_length_c   3.83987600
_cell_angle_alpha   90.00000000
_cell_angle_beta   90.00000000
_cell_angle_gamma   119.99999400
_symmetry_Int_Tables_number   1
_chemical_formula_structural   YSi(GeRh2)3
_chemical_formula_sum   'Y1 Si1 Ge3 Rh6'
_cell_volume   171.35237082
_cell_formula_units_Z   1
loop_
 _symmetry_equiv_pos_site_id
 _symmetry_equiv_pos_as_xyz
  1  'x, y, z'
loop_
 _atom_site_type_symbol
 _atom_site_label
 _atom_site_symmetry_multiplicity
 _atom_site_fract_x
 _atom_site_fract_y
 _atom_site_fract_z
 _atom_site_occupancy
  Y  Y0  1  0.000000  0.000000  0.000000  1
  Si  Si1  1  0.333333  0.666667  0.000000  1
  Ge  Ge2  1  0.802872  0.197128  0.500000  1
  Ge  Ge3  1  0.802872  0.605745  0.500000  1
  Ge  Ge4  1  0.394255  0.197128  0.500000  1
  Rh  Rh5  1  0.530600  0.469400  0.000000  1
  Rh  Rh6  1  0.530600  0.061199  0.000000  1
  Rh  Rh7  1  0.938801  0.469400  0.000000  1
  Rh  Rh8  1  0.201847  0.798153  0.500000  1
  Rh  Rh9  1  0.201847  0.403694  0.500000  1
  Rh  Rh10  1  0.596306  0.798153  0.500000  1
