# generated using pymatgen
data_Hf18Nb2FeCoRe6
_symmetry_space_group_name_H-M   'P 1'
_cell_length_a   8.65274100
_cell_length_b   8.65273894
_cell_length_c   8.46335000
_cell_angle_alpha   90.00000000
_cell_angle_beta   90.00000000
_cell_angle_gamma   119.99999643
_symmetry_Int_Tables_number   1
_chemical_formula_structural   Hf18Nb2FeCoRe6
_chemical_formula_sum   'Hf18 Nb2 Fe1 Co1 Re6'
_cell_volume   548.75722808
_cell_formula_units_Z   1
loop_
 _symmetry_equiv_pos_site_id
 _symmetry_equiv_pos_as_xyz
  1  'x, y, z'
loop_
 _atom_site_type_symbol
 _atom_site_label
 _atom_site_symmetry_multiplicity
 _atom_site_fract_x
 _atom_site_fract_y
 _atom_site_fract_z
 _atom_site_occupancy
  Hf  Hf0  1  0.201932  0.798068  0.439871  1
  Hf  Hf1  1  0.201932  0.403865  0.439871  1
  Hf  Hf2  1  0.596135  0.798068  0.439871  1
  Hf  Hf3  1  0.798554  0.201446  0.559718  1
  Hf  Hf4  1  0.798554  0.597106  0.559718  1
  Hf  Hf5  1  0.402894  0.201446  0.559718  1
  Hf  Hf6  1  0.798554  0.201446  0.940282  1
  Hf  Hf7  1  0.798554  0.597106  0.940282  1
  Hf  Hf8  1  0.402894  0.201446  0.940282  1
  Hf  Hf9  1  0.201932  0.798068  0.060129  1
  Hf  Hf10  1  0.201932  0.403865  0.060129  1
  Hf  Hf11  1  0.596135  0.798068  0.060129  1
  Hf  Hf12  1  0.541720  0.458280  0.250000  1
  Hf  Hf13  1  0.541720  0.083440  0.250000  1
  Hf  Hf14  1  0.916560  0.458280  0.250000  1
  Hf  Hf15  1  0.457969  0.542031  0.750000  1
  Hf  Hf16  1  0.457969  0.915937  0.750000  1
  Hf  Hf17  1  0.084063  0.542031  0.750000  1
  Nb  Nb18  1  0.000000  0.000000  0.499908  1
  Nb  Nb19  1  0.000000  0.000000  0.000092  1
  Fe  Fe20  1  0.333333  0.666667  0.250000  1
  Co  Co21  1  0.666667  0.333333  0.750000  1
  Re  Re22  1  0.885655  0.114345  0.250000  1
  Re  Re23  1  0.885655  0.771310  0.250000  1
  Re  Re24  1  0.228690  0.114345  0.250000  1
  Re  Re25  1  0.114334  0.885666  0.750000  1
  Re  Re26  1  0.114334  0.228668  0.750000  1
  Re  Re27  1  0.771332  0.885666  0.750000  1
