# generated using pymatgen
data_YHoBC
_symmetry_space_group_name_H-M   'P 1'
_cell_length_a   6.35414524
_cell_length_b   6.35414439
_cell_length_c   9.17197767
_cell_angle_alpha   51.89151291
_cell_angle_beta   51.89151763
_cell_angle_gamma   32.11481706
_symmetry_Int_Tables_number   1
_chemical_formula_structural   YHoBC
_chemical_formula_sum   'Y2 Ho2 B2 C2'
_cell_volume   150.90579418
_cell_formula_units_Z   2
loop_
 _symmetry_equiv_pos_site_id
 _symmetry_equiv_pos_as_xyz
  1  'x, y, z'
loop_
 _atom_site_type_symbol
 _atom_site_label
 _atom_site_symmetry_multiplicity
 _atom_site_fract_x
 _atom_site_fract_y
 _atom_site_fract_z
 _atom_site_occupancy
  Y  Y0  1  0.562514  0.562514  0.640385  1
  Y  Y1  1  0.437486  0.437486  0.359615  1
  Ho  Ho2  1  0.201704  0.201704  0.887783  1
  Ho  Ho3  1  0.798296  0.798296  0.112217  1
  B  B4  1  0.918698  0.918698  0.609256  1
  B  B5  1  0.081302  0.081302  0.390744  1
  C  C6  1  0.127280  0.127280  0.194034  1
  C  C7  1  0.872720  0.872720  0.805966  1
