# generated using pymatgen
data_DyTc4GeP
_symmetry_space_group_name_H-M   'P 1'
_cell_length_a   7.44147515
_cell_length_b   7.44147515
_cell_length_c   4.07628200
_cell_angle_alpha   90.00000000
_cell_angle_beta   90.00000000
_cell_angle_gamma   89.67925302
_symmetry_Int_Tables_number   1
_chemical_formula_structural   DyTc4GeP
_chemical_formula_sum   'Dy2 Tc8 Ge2 P2'
_cell_volume   225.72283059
_cell_formula_units_Z   2
loop_
 _symmetry_equiv_pos_site_id
 _symmetry_equiv_pos_as_xyz
  1  'x, y, z'
loop_
 _atom_site_type_symbol
 _atom_site_label
 _atom_site_symmetry_multiplicity
 _atom_site_fract_x
 _atom_site_fract_y
 _atom_site_fract_z
 _atom_site_occupancy
  Dy  Dy0  1  0.500000  0.500000  0.000000  1
  Dy  Dy1  1  0.000000  0.000000  0.500000  1
  Tc  Tc2  1  0.841843  0.421540  0.500000  1
  Tc  Tc3  1  0.900902  0.651546  0.000000  1
  Tc  Tc4  1  0.348454  0.099098  0.000000  1
  Tc  Tc5  1  0.578460  0.158157  0.500000  1
  Tc  Tc6  1  0.421540  0.841843  0.500000  1
  Tc  Tc7  1  0.099098  0.348454  0.000000  1
  Tc  Tc8  1  0.158157  0.578460  0.500000  1
  Tc  Tc9  1  0.651546  0.900902  0.000000  1
  Ge  Ge10  1  0.789978  0.210022  0.000000  1
  Ge  Ge11  1  0.210022  0.789978  0.000000  1
  P  P12  1  0.703960  0.703960  0.500000  1
  P  P13  1  0.296040  0.296040  0.500000  1
