# generated using pymatgen
data_Li3Ca2LaPd3
_symmetry_space_group_name_H-M   'P 1'
_cell_length_a   7.44471170
_cell_length_b   7.48849661
_cell_length_c   4.12522100
_cell_angle_alpha   90.00000000
_cell_angle_beta   90.00000000
_cell_angle_gamma   120.19473963
_symmetry_Int_Tables_number   1
_chemical_formula_structural   Li3Ca2LaPd3
_chemical_formula_sum   'Li3 Ca2 La1 Pd3'
_cell_volume   198.77638901
_cell_formula_units_Z   1
loop_
 _symmetry_equiv_pos_site_id
 _symmetry_equiv_pos_as_xyz
  1  'x, y, z'
loop_
 _atom_site_type_symbol
 _atom_site_label
 _atom_site_symmetry_multiplicity
 _atom_site_fract_x
 _atom_site_fract_y
 _atom_site_fract_z
 _atom_site_occupancy
  Li  Li0  1  0.750810  0.762251  0.000000  1
  Li  Li1  1  0.249190  0.011441  0.000000  1
  Li  Li2  1  0.000000  0.222448  0.000000  1
  Ca  Ca3  1  0.410119  0.410708  0.500000  1
  Ca  Ca4  1  0.589881  0.000589  0.500000  1
  La  La5  1  0.000000  0.595544  0.500000  1
  Pd  Pd6  1  0.680164  0.345115  0.000000  1
  Pd  Pd7  1  0.319836  0.664952  0.000000  1
  Pd  Pd8  1  0.000000  0.986953  0.500000  1
