# generated using pymatgen
data_UPaAl20Fe3Co
_symmetry_space_group_name_H-M   'P 1'
_cell_length_a   6.75446230
_cell_length_b   6.76778616
_cell_length_c   8.97660709
_cell_angle_alpha   89.79858760
_cell_angle_beta   89.85543481
_cell_angle_gamma   98.00569094
_symmetry_Int_Tables_number   1
_chemical_formula_structural   UPaAl20Fe3Co
_chemical_formula_sum   'U1 Pa1 Al20 Fe3 Co1'
_cell_volume   406.34193453
_cell_formula_units_Z   1
loop_
 _symmetry_equiv_pos_site_id
 _symmetry_equiv_pos_as_xyz
  1  'x, y, z'
loop_
 _atom_site_type_symbol
 _atom_site_label
 _atom_site_symmetry_multiplicity
 _atom_site_fract_x
 _atom_site_fract_y
 _atom_site_fract_z
 _atom_site_occupancy
  U  U0  1  0.876319  0.119876  0.750014  1
  Pa  Pa1  1  0.126220  0.878726  0.250712  1
  Al  Al2  1  0.220354  0.477511  0.748095  1
  Al  Al3  1  0.376200  0.625761  0.048815  1
  Al  Al4  1  0.842407  0.157226  0.401744  1
  Al  Al5  1  0.136142  0.410146  0.250336  1
  Al  Al6  1  0.520765  0.779246  0.749913  1
  Al  Al7  1  0.624908  0.373367  0.949962  1
  Al  Al8  1  0.778911  0.522031  0.251559  1
  Al  Al9  1  0.625651  0.373385  0.549246  1
  Al  Al10  1  0.157242  0.842359  0.599514  1
  Al  Al11  1  0.591167  0.865322  0.250324  1
  Al  Al12  1  0.410226  0.133942  0.749555  1
  Al  Al13  1  0.480030  0.221648  0.249979  1
  Al  Al14  1  0.775967  0.777139  0.500849  1
  Al  Al15  1  0.775097  0.776946  0.999164  1
  Al  Al16  1  0.864420  0.588442  0.749652  1
  Al  Al17  1  0.842536  0.157230  0.098511  1
  Al  Al18  1  0.375324  0.624994  0.452229  1
  Al  Al19  1  0.157673  0.842835  0.900297  1
  Al  Al20  1  0.223884  0.224165  0.999387  1
  Al  Al21  1  0.222970  0.223531  0.500617  1
  Fe  Fe22  1  0.497036  0.999131  0.497803  1
  Fe  Fe23  1  0.000540  0.502695  0.497764  1
  Fe  Fe24  1  0.497445  0.999595  0.001913  1
  Co  Co25  1  0.000569  0.502749  0.002046  1
