# generated using pymatgen
data_HoTm7V4O20
_symmetry_space_group_name_H-M   'P 1'
_cell_length_a   3.67776900
_cell_length_b   10.23708253
_cell_length_c   11.17243201
_cell_angle_alpha   89.93774184
_cell_angle_beta   90.00000000
_cell_angle_gamma   90.00000000
_symmetry_Int_Tables_number   1
_chemical_formula_structural   HoTm7V4O20
_chemical_formula_sum   'Ho1 Tm7 V4 O20'
_cell_volume   420.63762475
_cell_formula_units_Z   1
loop_
 _symmetry_equiv_pos_site_id
 _symmetry_equiv_pos_as_xyz
  1  'x, y, z'
loop_
 _atom_site_type_symbol
 _atom_site_label
 _atom_site_symmetry_multiplicity
 _atom_site_fract_x
 _atom_site_fract_y
 _atom_site_fract_z
 _atom_site_occupancy
  Ho  Ho0  1  0.750000  0.876726  0.727411  1
  Tm  Tm1  1  0.250000  0.124086  0.272278  1
  Tm  Tm2  1  0.250000  0.137138  0.945704  1
  Tm  Tm3  1  0.750000  0.363798  0.444379  1
  Tm  Tm4  1  0.750000  0.375764  0.772206  1
  Tm  Tm5  1  0.250000  0.624251  0.227782  1
  Tm  Tm6  1  0.250000  0.635783  0.554619  1
  Tm  Tm7  1  0.750000  0.863740  0.055628  1
  V  V8  1  0.250000  0.167045  0.615512  1
  V  V9  1  0.750000  0.334019  0.116208  1
  V  V10  1  0.250000  0.665520  0.884634  1
  V  V11  1  0.750000  0.833690  0.383616  1
  O  O12  1  0.750000  0.005117  0.895745  1
  O  O13  1  0.250000  0.001259  0.649792  1
  O  O14  1  0.250000  0.227974  0.453891  1
  O  O15  1  0.750000  0.233905  0.613276  1
  O  O16  1  0.750000  0.246989  0.268330  1
  O  O17  1  0.250000  0.252691  0.768349  1
  O  O18  1  0.250000  0.266761  0.113770  1
  O  O19  1  0.750000  0.273233  0.954447  1
  O  O20  1  0.750000  0.499384  0.152401  1
  O  O21  1  0.250000  0.495975  0.393933  1
  O  O22  1  0.750000  0.503477  0.605605  1
  O  O23  1  0.250000  0.500031  0.848843  1
  O  O24  1  0.250000  0.727590  0.046073  1
  O  O25  1  0.750000  0.733059  0.887625  1
  O  O26  1  0.750000  0.746934  0.231449  1
  O  O27  1  0.250000  0.750652  0.731318  1
  O  O28  1  0.250000  0.766525  0.386063  1
  O  O29  1  0.750000  0.771210  0.544573  1
  O  O30  1  0.750000  0.999451  0.348158  1
  O  O31  1  0.250000  0.996223  0.106381  1
