# generated using pymatgen
data_Pr8Sm9Tm3Sn16
_symmetry_space_group_name_H-M   'P 1'
_cell_length_a   8.11415300
_cell_length_b   8.44950757
_cell_length_c   16.02993400
_cell_angle_alpha   90.00000000
_cell_angle_beta   90.00000000
_cell_angle_gamma   89.95531346
_symmetry_Int_Tables_number   1
_chemical_formula_structural   Pr8Sm9Tm3Sn16
_chemical_formula_sum   'Pr8 Sm9 Tm3 Sn16'
_cell_volume   1099.02151380
_cell_formula_units_Z   1
loop_
 _symmetry_equiv_pos_site_id
 _symmetry_equiv_pos_as_xyz
  1  'x, y, z'
loop_
 _atom_site_type_symbol
 _atom_site_label
 _atom_site_symmetry_multiplicity
 _atom_site_fract_x
 _atom_site_fract_y
 _atom_site_fract_z
 _atom_site_occupancy
  Pr  Pr0  1  0.498448  0.319574  0.902868  1
  Pr  Pr1  1  0.996931  0.178872  0.597060  1
  Pr  Pr2  1  0.501658  0.679779  0.402510  1
  Pr  Pr3  1  0.003085  0.821006  0.097360  1
  Pr  Pr4  1  0.501658  0.679779  0.097490  1
  Pr  Pr5  1  0.003085  0.821006  0.402640  1
  Pr  Pr6  1  0.498448  0.319574  0.597132  1
  Pr  Pr7  1  0.996931  0.178872  0.902940  1
  Sm  Sm8  1  0.337072  0.832466  0.876102  1
  Sm  Sm9  1  0.834950  0.666938  0.623734  1
  Sm  Sm10  1  0.664146  0.167797  0.375666  1
  Sm  Sm11  1  0.164775  0.333734  0.124842  1
  Sm  Sm12  1  0.664146  0.167797  0.124334  1
  Sm  Sm13  1  0.164775  0.333734  0.375158  1
  Sm  Sm14  1  0.337072  0.832466  0.623898  1
  Sm  Sm15  1  0.834950  0.666938  0.876266  1
  Sm  Sm16  1  0.166993  0.498481  0.750000  1
  Tm  Tm17  1  0.668401  0.000320  0.750000  1
  Tm  Tm18  1  0.831626  0.502086  0.250000  1
  Tm  Tm19  1  0.331906  0.998786  0.250000  1
  Sn  Sn20  1  0.322207  0.037603  0.041780  1
  Sn  Sn21  1  0.822607  0.464042  0.457445  1
  Sn  Sn22  1  0.677315  0.962813  0.541151  1
  Sn  Sn23  1  0.177333  0.536775  0.958974  1
  Sn  Sn24  1  0.677315  0.962813  0.958849  1
  Sn  Sn25  1  0.177333  0.536775  0.541026  1
  Sn  Sn26  1  0.322207  0.037603  0.458220  1
  Sn  Sn27  1  0.822607  0.464042  0.042555  1
  Sn  Sn28  1  0.533491  0.617633  0.750000  1
  Sn  Sn29  1  0.029717  0.882789  0.750000  1
  Sn  Sn30  1  0.469587  0.383420  0.250000  1
  Sn  Sn31  1  0.969653  0.116957  0.250000  1
  Sn  Sn32  1  0.300329  0.142266  0.750000  1
  Sn  Sn33  1  0.798012  0.352772  0.750000  1
  Sn  Sn34  1  0.700071  0.854854  0.250000  1
  Sn  Sn35  1  0.199156  0.646838  0.250000  1
