# generated using pymatgen
data_DyEr4GaSb2
_symmetry_space_group_name_H-M   'P 1'
_cell_length_a   8.78484681
_cell_length_b   8.76152057
_cell_length_c   6.37021300
_cell_angle_alpha   90.00000000
_cell_angle_beta   90.00000000
_cell_angle_gamma   119.91219908
_symmetry_Int_Tables_number   1
_chemical_formula_structural   DyEr4GaSb2
_chemical_formula_sum   'Dy2 Er8 Ga2 Sb4'
_cell_volume   424.99304347
_cell_formula_units_Z   2
loop_
 _symmetry_equiv_pos_site_id
 _symmetry_equiv_pos_as_xyz
  1  'x, y, z'
loop_
 _atom_site_type_symbol
 _atom_site_label
 _atom_site_symmetry_multiplicity
 _atom_site_fract_x
 _atom_site_fract_y
 _atom_site_fract_z
 _atom_site_occupancy
  Dy  Dy0  1  0.011196  0.767431  0.750000  1
  Dy  Dy1  1  0.011196  0.243764  0.250000  1
  Er  Er2  1  0.752722  0.753344  0.250000  1
  Er  Er3  1  0.752722  0.999378  0.750000  1
  Er  Er4  1  0.244397  0.233193  0.750000  1
  Er  Er5  1  0.244397  0.011204  0.250000  1
  Er  Er6  1  0.336239  0.668120  0.500000  1
  Er  Er7  1  0.652986  0.326493  0.000000  1
  Er  Er8  1  0.652986  0.326493  0.500000  1
  Er  Er9  1  0.336239  0.668120  0.000000  1
  Ga  Ga10  1  0.395277  0.997578  0.750000  1
  Ga  Ga11  1  0.395277  0.397700  0.250000  1
  Sb  Sb12  1  0.998768  0.607616  0.250000  1
  Sb  Sb13  1  0.998768  0.391152  0.750000  1
  Sb  Sb14  1  0.608416  0.607342  0.750000  1
  Sb  Sb15  1  0.608416  0.001074  0.250000  1
