# generated using pymatgen
data_TbErTi6(BiO4)6
_symmetry_space_group_name_H-M   'P 1'
_cell_length_a   5.38874548
_cell_length_b   5.47762444
_cell_length_c   17.15476142
_cell_angle_alpha   81.10867366
_cell_angle_beta   89.98744531
_cell_angle_gamma   89.85250967
_symmetry_Int_Tables_number   1
_chemical_formula_structural   TbErTi6(BiO4)6
_chemical_formula_sum   'Tb1 Er1 Ti6 Bi6 O24'
_cell_volume   500.27955399
_cell_formula_units_Z   1
loop_
 _symmetry_equiv_pos_site_id
 _symmetry_equiv_pos_as_xyz
  1  'x, y, z'
loop_
 _atom_site_type_symbol
 _atom_site_label
 _atom_site_symmetry_multiplicity
 _atom_site_fract_x
 _atom_site_fract_y
 _atom_site_fract_z
 _atom_site_occupancy
  Tb  Tb0  1  0.266157  0.086082  0.869151  1
  Er  Er1  1  0.733171  0.582859  0.868789  1
  Ti  Ti2  1  0.764072  0.061763  0.986005  1
  Ti  Ti3  1  0.234214  0.562529  0.986065  1
  Ti  Ti4  1  0.761739  0.180985  0.749979  1
  Ti  Ti5  1  0.237377  0.681586  0.749845  1
  Ti  Ti6  1  0.757150  0.918564  0.258649  1
  Ti  Ti7  1  0.242646  0.418599  0.258569  1
  Bi  Bi8  1  0.272899  0.183107  0.589442  1
  Bi  Bi9  1  0.726532  0.682966  0.589530  1
  Bi  Bi10  1  0.262891  0.933612  0.132646  1
  Bi  Bi11  1  0.736484  0.433371  0.132377  1
  Bi  Bi12  1  0.233861  0.776258  0.434833  1
  Bi  Bi13  1  0.765949  0.276422  0.434847  1
  O  O14  1  0.452757  0.322754  0.958264  1
  O  O15  1  0.551454  0.819423  0.957491  1
  O  O16  1  0.506484  0.002938  0.506333  1
  O  O17  1  0.493714  0.502963  0.506428  1
  O  O18  1  0.849120  0.179712  0.875653  1
  O  O19  1  0.144227  0.676299  0.875652  1
  O  O20  1  0.675916  0.248442  0.645542  1
  O  O21  1  0.323394  0.748281  0.645336  1
  O  O22  1  0.457144  0.409467  0.787648  1
  O  O23  1  0.547732  0.905563  0.788079  1
  O  O24  1  0.938325  0.513944  0.747524  1
  O  O25  1  0.063198  0.015037  0.746790  1
  O  O26  1  0.934822  0.397377  0.002727  1
  O  O27  1  0.066732  0.898721  0.002459  1
  O  O28  1  0.993571  0.502759  0.507527  1
  O  O29  1  0.006414  0.002745  0.507625  1
  O  O30  1  0.675639  0.048080  0.098159  1
  O  O31  1  0.323933  0.548463  0.098293  1
  O  O32  1  0.794634  0.868794  0.360497  1
  O  O33  1  0.205479  0.368820  0.360466  1
  O  O34  1  0.012950  0.182807  0.219813  1
  O  O35  1  0.987056  0.682939  0.219716  1
  O  O36  1  0.525290  0.215881  0.236373  1
  O  O37  1  0.474872  0.715888  0.236481  1
