# generated using pymatgen
data_Hf5Th8Nb7Si16
_symmetry_space_group_name_H-M   'P 1'
_cell_length_a   7.28382239
_cell_length_b   7.28396498
_cell_length_c   13.50738742
_cell_angle_alpha   89.91537264
_cell_angle_beta   90.03737672
_cell_angle_gamma   89.99748086
_symmetry_Int_Tables_number   1
_chemical_formula_structural   Hf5Th8Nb7Si16
_chemical_formula_sum   'Hf5 Th8 Nb7 Si16'
_cell_volume   716.63495255
_cell_formula_units_Z   1
loop_
 _symmetry_equiv_pos_site_id
 _symmetry_equiv_pos_as_xyz
  1  'x, y, z'
loop_
 _atom_site_type_symbol
 _atom_site_label
 _atom_site_symmetry_multiplicity
 _atom_site_fract_x
 _atom_site_fract_y
 _atom_site_fract_z
 _atom_site_occupancy
  Hf  Hf0  1  0.156254  0.995229  0.374374  1
  Hf  Hf1  1  0.843421  0.003846  0.874630  1
  Hf  Hf2  1  0.505237  0.655889  0.624266  1
  Hf  Hf3  1  0.341933  0.494563  0.876149  1
  Hf  Hf4  1  0.494593  0.343277  0.124235  1
  Th  Th5  1  0.000028  0.339263  0.217604  1
  Th  Th6  1  0.999287  0.660207  0.716053  1
  Th  Th7  1  0.160362  0.501014  0.466917  1
  Th  Th8  1  0.500231  0.838434  0.034244  1
  Th  Th9  1  0.839932  0.499255  0.967616  1
  Th  Th10  1  0.499547  0.161630  0.532137  1
  Th  Th11  1  0.337592  0.999172  0.782991  1
  Th  Th12  1  0.662164  0.000757  0.283222  1
  Nb  Nb13  1  0.168820  0.167236  0.000239  1
  Nb  Nb14  1  0.830849  0.831208  0.499145  1
  Nb  Nb15  1  0.331393  0.670027  0.249873  1
  Nb  Nb16  1  0.670883  0.328998  0.748236  1
  Nb  Nb17  1  0.658290  0.506751  0.376295  1
  Nb  Nb18  1  0.991909  0.157925  0.625723  1
  Nb  Nb19  1  0.004815  0.842657  0.126655  1
  Si  Si20  1  0.287946  0.039462  0.184325  1
  Si  Si21  1  0.710648  0.961026  0.683903  1
  Si  Si22  1  0.460262  0.788384  0.433912  1
  Si  Si23  1  0.206642  0.545749  0.066091  1
  Si  Si24  1  0.543053  0.207011  0.934396  1
  Si  Si25  1  0.792462  0.455804  0.563046  1
  Si  Si26  1  0.040422  0.291364  0.812942  1
  Si  Si27  1  0.955927  0.707939  0.313539  1
  Si  Si28  1  0.375156  0.301835  0.316318  1
  Si  Si29  1  0.629992  0.700782  0.815036  1
  Si  Si30  1  0.198624  0.875229  0.565855  1
  Si  Si31  1  0.128875  0.798544  0.937455  1
  Si  Si32  1  0.801955  0.125553  0.066515  1
  Si  Si33  1  0.871085  0.205323  0.436135  1
  Si  Si34  1  0.293759  0.369836  0.683605  1
  Si  Si35  1  0.705654  0.628821  0.186323  1
