# generated using pymatgen
data_La2Hf3Ni9P7
_symmetry_space_group_name_H-M   'P 1'
_cell_length_a   9.53886000
_cell_length_b   9.53885956
_cell_length_c   3.81676000
_cell_angle_alpha   90.00000000
_cell_angle_beta   90.00000000
_cell_angle_gamma   120.00000845
_symmetry_Int_Tables_number   1
_chemical_formula_structural   La2Hf3Ni9P7
_chemical_formula_sum   'La2 Hf3 Ni9 P7'
_cell_volume   300.75882291
_cell_formula_units_Z   1
loop_
 _symmetry_equiv_pos_site_id
 _symmetry_equiv_pos_as_xyz
  1  'x, y, z'
loop_
 _atom_site_type_symbol
 _atom_site_label
 _atom_site_symmetry_multiplicity
 _atom_site_fract_x
 _atom_site_fract_y
 _atom_site_fract_z
 _atom_site_occupancy
  La  La0  1  0.333333  0.666667  0.000000  1
  La  La1  1  0.666667  0.333333  0.500000  1
  Hf  Hf2  1  0.226350  0.115624  0.500000  1
  Hf  Hf3  1  0.884376  0.110726  0.500000  1
  Hf  Hf4  1  0.889274  0.773650  0.500000  1
  Ni  Ni5  1  0.129031  0.281633  0.000000  1
  Ni  Ni6  1  0.718367  0.847398  0.000000  1
  Ni  Ni7  1  0.152602  0.870969  0.000000  1
  Ni  Ni8  1  0.425769  0.364368  0.000000  1
  Ni  Ni9  1  0.635632  0.061401  0.000000  1
  Ni  Ni10  1  0.938599  0.574231  0.000000  1
  Ni  Ni11  1  0.053655  0.440742  0.500000  1
  Ni  Ni12  1  0.559258  0.612912  0.500000  1
  Ni  Ni13  1  0.387088  0.946345  0.500000  1
  P  P14  1  0.290645  0.407452  0.500000  1
  P  P15  1  0.592548  0.883192  0.500000  1
  P  P16  1  0.116808  0.709355  0.500000  1
  P  P17  1  0.414250  0.097261  0.000000  1
  P  P18  1  0.902739  0.316989  0.000000  1
  P  P19  1  0.683011  0.585750  0.000000  1
  P  P20  1  0.000000  0.000000  0.000000  1
