# generated using pymatgen
data_Tm7Lu3Ru3Rh
_symmetry_space_group_name_H-M   'P 1'
_cell_length_a   6.22905243
_cell_length_b   7.24354599
_cell_length_c   8.31342415
_cell_angle_alpha   96.83359258
_cell_angle_beta   112.04089925
_cell_angle_gamma   90.09688675
_symmetry_Int_Tables_number   1
_chemical_formula_structural   Tm7Lu3Ru3Rh
_chemical_formula_sum   'Tm7 Lu3 Ru3 Rh1'
_cell_volume   344.78317190
_cell_formula_units_Z   1
loop_
 _symmetry_equiv_pos_site_id
 _symmetry_equiv_pos_as_xyz
  1  'x, y, z'
loop_
 _atom_site_type_symbol
 _atom_site_label
 _atom_site_symmetry_multiplicity
 _atom_site_fract_x
 _atom_site_fract_y
 _atom_site_fract_z
 _atom_site_occupancy
  Tm  Tm0  1  0.524883  0.084240  0.814994  1
  Tm  Tm1  1  0.475507  0.917665  0.183482  1
  Tm  Tm2  1  0.710278  0.415528  0.183663  1
  Tm  Tm3  1  0.289185  0.583550  0.810756  1
  Tm  Tm4  1  0.292679  0.313403  0.436622  1
  Tm  Tm5  1  0.708612  0.684147  0.566430  1
  Tm  Tm6  1  0.855335  0.182776  0.563826  1
  Lu  Lu7  1  0.141439  0.819704  0.437441  1
  Lu  Lu8  1  0.080448  0.248179  0.998353  1
  Lu  Lu9  1  0.918617  0.751012  0.000167  1
  Ru  Ru10  1  0.677546  0.424459  0.781101  1
  Ru  Ru11  1  0.106006  0.922106  0.781390  1
  Ru  Ru12  1  0.897206  0.076663  0.219231  1
  Rh  Rh13  1  0.322257  0.576570  0.222547  1
