# generated using pymatgen
data_Sr3La(BPd4)4
_symmetry_space_group_name_H-M   'P 1'
_cell_length_a   5.58315900
_cell_length_b   6.16190529
_cell_length_c   11.97445045
_cell_angle_alpha   90.09876379
_cell_angle_beta   90.00000000
_cell_angle_gamma   90.00000000
_symmetry_Int_Tables_number   1
_chemical_formula_structural   Sr3La(BPd4)4
_chemical_formula_sum   'Sr3 La1 B4 Pd16'
_cell_volume   411.95517298
_cell_formula_units_Z   1
loop_
 _symmetry_equiv_pos_site_id
 _symmetry_equiv_pos_as_xyz
  1  'x, y, z'
loop_
 _atom_site_type_symbol
 _atom_site_label
 _atom_site_symmetry_multiplicity
 _atom_site_fract_x
 _atom_site_fract_y
 _atom_site_fract_z
 _atom_site_occupancy
  Sr  Sr0  1  0.750000  0.811830  0.341291  1
  Sr  Sr1  1  0.250000  0.687843  0.838905  1
  Sr  Sr2  1  0.250000  0.188242  0.660038  1
  La  La3  1  0.750000  0.311639  0.156246  1
  B  B4  1  0.750000  0.401805  0.552038  1
  B  B5  1  0.750000  0.901640  0.947872  1
  B  B6  1  0.250000  0.596868  0.448085  1
  B  B7  1  0.250000  0.096582  0.051672  1
  Pd  Pd8  1  0.750000  0.386968  0.733737  1
  Pd  Pd9  1  0.750000  0.886926  0.767201  1
  Pd  Pd10  1  0.250000  0.613312  0.266660  1
  Pd  Pd11  1  0.250000  0.116646  0.233372  1
  Pd  Pd12  1  0.750000  0.062780  0.558873  1
  Pd  Pd13  1  0.750000  0.559584  0.943399  1
  Pd  Pd14  1  0.250000  0.937221  0.440665  1
  Pd  Pd15  1  0.250000  0.437604  0.060302  1
  Pd  Pd16  1  0.997241  0.164322  0.915605  1
  Pd  Pd17  1  0.502796  0.663489  0.585190  1
  Pd  Pd18  1  0.498424  0.837035  0.086222  1
  Pd  Pd19  1  0.001185  0.336407  0.412806  1
  Pd  Pd20  1  0.001576  0.837035  0.086222  1
  Pd  Pd21  1  0.498815  0.336407  0.412806  1
  Pd  Pd22  1  0.502759  0.164322  0.915605  1
  Pd  Pd23  1  0.997204  0.663489  0.585190  1
