# generated using pymatgen
data_TbEr2SbO7
_symmetry_space_group_name_H-M   'P 1'
_cell_length_a   6.43913823
_cell_length_b   6.43913897
_cell_length_c   7.50089700
_cell_angle_alpha   90.00000000
_cell_angle_beta   90.00000000
_cell_angle_gamma   109.30386702
_symmetry_Int_Tables_number   1
_chemical_formula_structural   TbEr2SbO7
_chemical_formula_sum   'Tb2 Er4 Sb2 O14'
_cell_volume   293.52080723
_cell_formula_units_Z   2
loop_
 _symmetry_equiv_pos_site_id
 _symmetry_equiv_pos_as_xyz
  1  'x, y, z'
loop_
 _atom_site_type_symbol
 _atom_site_label
 _atom_site_symmetry_multiplicity
 _atom_site_fract_x
 _atom_site_fract_y
 _atom_site_fract_z
 _atom_site_occupancy
  Tb  Tb0  1  0.500000  0.500000  0.500000  1
  Tb  Tb1  1  0.500000  0.500000  0.000000  1
  Er  Er2  1  0.531520  0.000803  0.750000  1
  Er  Er3  1  0.000803  0.531520  0.250000  1
  Er  Er4  1  0.468480  0.999197  0.250000  1
  Er  Er5  1  0.999197  0.468480  0.750000  1
  Sb  Sb6  1  0.000000  0.000000  0.500000  1
  Sb  Sb7  1  0.000000  0.000000  0.000000  1
  O  O8  1  0.676171  0.927984  0.469896  1
  O  O9  1  0.927984  0.676171  0.530104  1
  O  O10  1  0.676171  0.927984  0.030104  1
  O  O11  1  0.927984  0.676171  0.969896  1
  O  O12  1  0.323829  0.072016  0.530104  1
  O  O13  1  0.072016  0.323829  0.469896  1
  O  O14  1  0.323829  0.072016  0.969896  1
  O  O15  1  0.072016  0.323829  0.030104  1
  O  O16  1  0.928781  0.071219  0.750000  1
  O  O17  1  0.071219  0.928781  0.250000  1
  O  O18  1  0.367510  0.632490  0.750000  1
  O  O19  1  0.632490  0.367510  0.250000  1
  O  O20  1  0.639206  0.360794  0.750000  1
  O  O21  1  0.360794  0.639206  0.250000  1
