# generated using pymatgen
data_Pr4Cd2Si3Ge
_symmetry_space_group_name_H-M   'P 1'
_cell_length_a   7.46166556
_cell_length_b   7.46166424
_cell_length_c   4.39045200
_cell_angle_alpha   90.00000000
_cell_angle_beta   90.00000000
_cell_angle_gamma   90.11772213
_symmetry_Int_Tables_number   1
_chemical_formula_structural   Pr4Cd2Si3Ge
_chemical_formula_sum   'Pr4 Cd2 Si3 Ge1'
_cell_volume   244.44423502
_cell_formula_units_Z   1
loop_
 _symmetry_equiv_pos_site_id
 _symmetry_equiv_pos_as_xyz
  1  'x, y, z'
loop_
 _atom_site_type_symbol
 _atom_site_label
 _atom_site_symmetry_multiplicity
 _atom_site_fract_x
 _atom_site_fract_y
 _atom_site_fract_z
 _atom_site_occupancy
  Pr  Pr0  1  0.317519  0.819686  0.500000  1
  Pr  Pr1  1  0.821032  0.678968  0.500000  1
  Pr  Pr2  1  0.179881  0.320119  0.500000  1
  Pr  Pr3  1  0.680314  0.182481  0.500000  1
  Cd  Cd4  1  0.003125  0.001774  0.000000  1
  Cd  Cd5  1  0.498226  0.496875  0.000000  1
  Si  Si6  1  0.383388  0.116612  0.000000  1
  Si  Si7  1  0.886531  0.386142  0.000000  1
  Si  Si8  1  0.113858  0.613469  0.000000  1
  Ge  Ge9  1  0.616128  0.883872  0.000000  1
