# generated using pymatgen
data_Tb2Dy2Ni13Ge
_symmetry_space_group_name_H-M   'P 1'
_cell_length_a   12.51141722
_cell_length_b   12.51141751
_cell_length_c   12.51626800
_cell_angle_alpha   22.66650275
_cell_angle_beta   22.66649955
_cell_angle_gamma   22.83245914
_symmetry_Int_Tables_number   1
_chemical_formula_structural   Tb2Dy2Ni13Ge
_chemical_formula_sum   'Tb2 Dy2 Ni13 Ge1'
_cell_volume   256.45340191
_cell_formula_units_Z   1
loop_
 _symmetry_equiv_pos_site_id
 _symmetry_equiv_pos_as_xyz
  1  'x, y, z'
loop_
 _atom_site_type_symbol
 _atom_site_label
 _atom_site_symmetry_multiplicity
 _atom_site_fract_x
 _atom_site_fract_y
 _atom_site_fract_z
 _atom_site_occupancy
  Tb  Tb0  1  0.852719  0.852719  0.852956  1
  Tb  Tb1  1  0.147281  0.147281  0.147044  1
  Dy  Dy2  1  0.948912  0.948912  0.948553  1
  Dy  Dy3  1  0.051088  0.051088  0.051447  1
  Ni  Ni4  1  0.390765  0.889892  0.390883  1
  Ni  Ni5  1  0.389431  0.389431  0.891316  1
  Ni  Ni6  1  0.889892  0.390765  0.390883  1
  Ni  Ni7  1  0.609235  0.110108  0.609117  1
  Ni  Ni8  1  0.610569  0.610569  0.108684  1
  Ni  Ni9  1  0.110108  0.609235  0.609117  1
  Ni  Ni10  1  0.000000  0.500000  0.500000  1
  Ni  Ni11  1  0.500000  0.000000  0.500000  1
  Ni  Ni12  1  0.721957  0.721957  0.723222  1
  Ni  Ni13  1  0.278043  0.278043  0.276778  1
  Ni  Ni14  1  0.610617  0.610617  0.612142  1
  Ni  Ni15  1  0.389383  0.389383  0.387858  1
  Ni  Ni16  1  0.500000  0.500000  0.500000  1
  Ge  Ge17  1  0.500000  0.500000  0.000000  1
