# generated using pymatgen
data_Tb2Al20TcRh3
_symmetry_space_group_name_H-M   'P 1'
_cell_length_a   6.86773898
_cell_length_b   6.86606088
_cell_length_c   9.18072047
_cell_angle_alpha   89.68388662
_cell_angle_beta   89.69769117
_cell_angle_gamma   97.20237269
_symmetry_Int_Tables_number   1
_chemical_formula_structural   Tb2Al20TcRh3
_chemical_formula_sum   'Tb2 Al20 Tc1 Rh3'
_cell_volume   429.48039107
_cell_formula_units_Z   1
loop_
 _symmetry_equiv_pos_site_id
 _symmetry_equiv_pos_as_xyz
  1  'x, y, z'
loop_
 _atom_site_type_symbol
 _atom_site_label
 _atom_site_symmetry_multiplicity
 _atom_site_fract_x
 _atom_site_fract_y
 _atom_site_fract_z
 _atom_site_occupancy
  Tb  Tb0  1  0.874210  0.131686  0.749447  1
  Tb  Tb1  1  0.125790  0.868314  0.250553  1
  Al  Al2  1  0.623963  0.379690  0.549263  1
  Al  Al3  1  0.376037  0.620310  0.450737  1
  Al  Al4  1  0.377982  0.621523  0.050681  1
  Al  Al5  1  0.622018  0.378477  0.949319  1
  Al  Al6  1  0.221984  0.223132  0.500985  1
  Al  Al7  1  0.778016  0.776868  0.499015  1
  Al  Al8  1  0.776484  0.776285  0.000065  1
  Al  Al9  1  0.223516  0.223715  0.999935  1
  Al  Al10  1  0.843235  0.155312  0.102960  1
  Al  Al11  1  0.156765  0.844688  0.897040  1
  Al  Al12  1  0.154922  0.843675  0.601268  1
  Al  Al13  1  0.845078  0.156325  0.398732  1
  Al  Al14  1  0.858068  0.589817  0.749421  1
  Al  Al15  1  0.141932  0.410183  0.250579  1
  Al  Al16  1  0.409429  0.142315  0.749485  1
  Al  Al17  1  0.590571  0.857685  0.250515  1
  Al  Al18  1  0.223148  0.481051  0.746443  1
  Al  Al19  1  0.776852  0.518949  0.253557  1
  Al  Al20  1  0.519197  0.775958  0.750555  1
  Al  Al21  1  0.480803  0.224042  0.249445  1
  Tc  Tc22  1  0.000000  0.500000  0.500000  1
  Rh  Rh23  1  0.000000  0.500000  0.000000  1
  Rh  Rh24  1  0.500000  0.000000  0.000000  1
  Rh  Rh25  1  0.500000  0.000000  0.500000  1
