# generated using pymatgen
data_Y16In3Hg(IrPt)2
_symmetry_space_group_name_H-M   'P 1'
_cell_length_a   9.69083037
_cell_length_b   9.71645336
_cell_length_c   9.69083102
_cell_angle_alpha   60.21801573
_cell_angle_beta   60.07823329
_cell_angle_gamma   60.21802393
_symmetry_Int_Tables_number   1
_chemical_formula_structural   Y16In3Hg(IrPt)2
_chemical_formula_sum   'Y16 In3 Hg1 Ir2 Pt2'
_cell_volume   647.73283134
_cell_formula_units_Z   1
loop_
 _symmetry_equiv_pos_site_id
 _symmetry_equiv_pos_as_xyz
  1  'x, y, z'
loop_
 _atom_site_type_symbol
 _atom_site_label
 _atom_site_symmetry_multiplicity
 _atom_site_fract_x
 _atom_site_fract_y
 _atom_site_fract_z
 _atom_site_occupancy
  Y  Y0  1  0.808486  0.191420  0.808486  1
  Y  Y1  1  0.935128  0.564938  0.561315  1
  Y  Y2  1  0.562858  0.934964  0.562858  1
  Y  Y3  1  0.811501  0.191872  0.190649  1
  Y  Y4  1  0.190816  0.809032  0.190816  1
  Y  Y5  1  0.352774  0.940924  0.352774  1
  Y  Y6  1  0.938350  0.939868  0.559048  1
  Y  Y7  1  0.559048  0.939868  0.938350  1
  Y  Y8  1  0.190315  0.805935  0.812621  1
  Y  Y9  1  0.349663  0.353749  0.946704  1
  Y  Y10  1  0.561315  0.564938  0.935128  1
  Y  Y11  1  0.347672  0.351926  0.347672  1
  Y  Y12  1  0.190649  0.191872  0.811501  1
  Y  Y13  1  0.812621  0.805935  0.190315  1
  Y  Y14  1  0.939514  0.560633  0.939514  1
  Y  Y15  1  0.946704  0.353749  0.349663  1
  In  In16  1  0.582955  0.251428  0.582955  1
  In  In17  1  0.582935  0.582658  0.251582  1
  In  In18  1  0.251582  0.582658  0.582935  1
  Hg  Hg19  1  0.586743  0.586719  0.586743  1
  Ir  Ir20  1  0.140384  0.574911  0.140384  1
  Ir  Ir21  1  0.143254  0.141134  0.143254  1
  Pt  Pt22  1  0.141420  0.139436  0.573317  1
  Pt  Pt23  1  0.573317  0.139436  0.141420  1
