# generated using pymatgen
data_La12AlGa3(GeRh2)4
_symmetry_space_group_name_H-M   'P 1'
_cell_length_a   5.83071000
_cell_length_b   8.29741299
_cell_length_c   13.64304961
_cell_angle_alpha   90.05576422
_cell_angle_beta   90.00000000
_cell_angle_gamma   90.00000000
_symmetry_Int_Tables_number   1
_chemical_formula_structural   La12AlGa3(GeRh2)4
_chemical_formula_sum   'La12 Al1 Ga3 Ge4 Rh8'
_cell_volume   660.04781992
_cell_formula_units_Z   1
loop_
 _symmetry_equiv_pos_site_id
 _symmetry_equiv_pos_as_xyz
  1  'x, y, z'
loop_
 _atom_site_type_symbol
 _atom_site_label
 _atom_site_symmetry_multiplicity
 _atom_site_fract_x
 _atom_site_fract_y
 _atom_site_fract_z
 _atom_site_occupancy
  La  La0  1  0.645632  0.251641  0.250657  1
  La  La1  1  0.354291  0.748143  0.749612  1
  La  La2  1  0.354291  0.751857  0.250388  1
  La  La3  1  0.645632  0.248359  0.749343  1
  La  La4  1  0.155877  0.397898  0.098403  1
  La  La5  1  0.844240  0.603826  0.902048  1
  La  La6  1  0.843147  0.602940  0.597770  1
  La  La7  1  0.843147  0.897060  0.402230  1
  La  La8  1  0.156770  0.397005  0.402278  1
  La  La9  1  0.156770  0.102995  0.597722  1
  La  La10  1  0.155877  0.102102  0.901597  1
  La  La11  1  0.844240  0.896174  0.097952  1
  Al  Al12  1  0.633626  0.250000  0.000000  1
  Ga  Ga13  1  0.358982  0.750000  0.000000  1
  Ga  Ga14  1  0.358963  0.750000  0.500000  1
  Ga  Ga15  1  0.640940  0.250000  0.500000  1
  Ge  Ge16  1  0.146737  0.105764  0.249855  1
  Ge  Ge17  1  0.853248  0.894223  0.749710  1
  Ge  Ge18  1  0.853248  0.605777  0.250290  1
  Ge  Ge19  1  0.146737  0.394236  0.750145  1
  Rh  Rh20  1  0.382227  0.033448  0.092820  1
  Rh  Rh21  1  0.621618  0.970436  0.907563  1
  Rh  Rh22  1  0.620398  0.968149  0.592892  1
  Rh  Rh23  1  0.620398  0.531851  0.407108  1
  Rh  Rh24  1  0.379560  0.031485  0.407026  1
  Rh  Rh25  1  0.379560  0.468515  0.592974  1
  Rh  Rh26  1  0.382227  0.466552  0.907180  1
  Rh  Rh27  1  0.621618  0.529564  0.092437  1
