# generated using pymatgen
data_TbLuFe(Co2B)3
_symmetry_space_group_name_H-M   'P 1'
_cell_length_a   5.04900403
_cell_length_b   5.04811784
_cell_length_c   12.62398800
_cell_angle_alpha   90.00010403
_cell_angle_beta   90.00015434
_cell_angle_gamma   119.99278920
_symmetry_Int_Tables_number   1
_chemical_formula_structural   TbLuFe(Co2B)3
_chemical_formula_sum   'Tb2 Lu2 Fe2 Co12 B6'
_cell_volume   278.67240023
_cell_formula_units_Z   2
loop_
 _symmetry_equiv_pos_site_id
 _symmetry_equiv_pos_as_xyz
  1  'x, y, z'
loop_
 _atom_site_type_symbol
 _atom_site_label
 _atom_site_symmetry_multiplicity
 _atom_site_fract_x
 _atom_site_fract_y
 _atom_site_fract_z
 _atom_site_occupancy
  Tb  Tb0  1  0.999982  0.999990  0.000963  1
  Tb  Tb1  1  0.999998  0.000001  0.739013  1
  Lu  Lu2  1  0.999982  0.000002  0.499367  1
  Lu  Lu3  1  0.999984  0.999995  0.260732  1
  Fe  Fe4  1  0.333320  0.666676  0.000356  1
  Fe  Fe5  1  0.666660  0.333326  0.000356  1
  Co  Co6  1  0.499975  0.999975  0.156555  1
  Co  Co7  1  0.499974  0.500012  0.156553  1
  Co  Co8  1  0.000018  0.500012  0.156531  1
  Co  Co9  1  0.499985  0.999975  0.844415  1
  Co  Co10  1  0.499984  0.500017  0.844455  1
  Co  Co11  1  0.000026  0.500015  0.844456  1
  Co  Co12  1  0.499990  0.000000  0.384968  1
  Co  Co13  1  0.499991  0.500000  0.384933  1
  Co  Co14  1  0.999991  0.500003  0.384921  1
  Co  Co15  1  0.499998  0.999999  0.614045  1
  Co  Co16  1  0.499995  0.500001  0.614073  1
  Co  Co17  1  0.999995  0.499998  0.614079  1
  B  B18  1  0.333275  0.666596  0.499657  1
  B  B19  1  0.666711  0.333405  0.499657  1
  B  B20  1  0.333410  0.666723  0.268663  1
  B  B21  1  0.666567  0.333277  0.268678  1
  B  B22  1  0.666641  0.333324  0.731279  1
  B  B23  1  0.333347  0.666680  0.731293  1
