# generated using pymatgen
data_TbErTmRuI3
_symmetry_space_group_name_H-M   'P 1'
_cell_length_a   4.19766300
_cell_length_b   8.88307303
_cell_length_c   12.32832526
_cell_angle_alpha   94.34826258
_cell_angle_beta   90.00000000
_cell_angle_gamma   90.00000000
_symmetry_Int_Tables_number   1
_chemical_formula_structural   TbErTmRuI3
_chemical_formula_sum   'Tb2 Er2 Tm2 Ru2 I6'
_cell_volume   458.37721306
_cell_formula_units_Z   2
loop_
 _symmetry_equiv_pos_site_id
 _symmetry_equiv_pos_as_xyz
  1  'x, y, z'
loop_
 _atom_site_type_symbol
 _atom_site_label
 _atom_site_symmetry_multiplicity
 _atom_site_fract_x
 _atom_site_fract_y
 _atom_site_fract_z
 _atom_site_occupancy
  Tb  Tb0  1  0.750000  0.263149  0.602007  1
  Tb  Tb1  1  0.250000  0.736851  0.397993  1
  Er  Er2  1  0.750000  0.897672  0.187766  1
  Er  Er3  1  0.250000  0.102328  0.812234  1
  Tm  Tm4  1  0.750000  0.873327  0.625837  1
  Tm  Tm5  1  0.250000  0.126673  0.374163  1
  Ru  Ru6  1  0.750000  0.946801  0.408534  1
  Ru  Ru7  1  0.250000  0.053199  0.591466  1
  I  I8  1  0.750000  0.422598  0.366181  1
  I  I9  1  0.250000  0.577402  0.633819  1
  I  I10  1  0.750000  0.863767  0.889420  1
  I  I11  1  0.250000  0.136233  0.110580  1
  I  I12  1  0.750000  0.355756  0.864014  1
  I  I13  1  0.250000  0.644244  0.135986  1
