# generated using pymatgen
data_Y4Hf3ScRh4
_symmetry_space_group_name_H-M   'P 1'
_cell_length_a   4.56785300
_cell_length_b   7.01305686
_cell_length_c   8.35357225
_cell_angle_alpha   90.11496135
_cell_angle_beta   90.00000000
_cell_angle_gamma   90.00000000
_symmetry_Int_Tables_number   1
_chemical_formula_structural   Y4Hf3ScRh4
_chemical_formula_sum   'Y4 Hf3 Sc1 Rh4'
_cell_volume   267.60291417
_cell_formula_units_Z   1
loop_
 _symmetry_equiv_pos_site_id
 _symmetry_equiv_pos_as_xyz
  1  'x, y, z'
loop_
 _atom_site_type_symbol
 _atom_site_label
 _atom_site_symmetry_multiplicity
 _atom_site_fract_x
 _atom_site_fract_y
 _atom_site_fract_z
 _atom_site_occupancy
  Y  Y0  1  0.250000  0.986238  0.323113  1
  Y  Y1  1  0.250000  0.483542  0.175449  1
  Y  Y2  1  0.750000  0.017993  0.680304  1
  Y  Y3  1  0.750000  0.513003  0.821104  1
  Hf  Hf4  1  0.250000  0.364811  0.573312  1
  Hf  Hf5  1  0.250000  0.857593  0.927931  1
  Hf  Hf6  1  0.750000  0.643756  0.424847  1
  Sc  Sc7  1  0.750000  0.137128  0.075738  1
  Rh  Rh8  1  0.250000  0.229810  0.901617  1
  Rh  Rh9  1  0.250000  0.734261  0.589351  1
  Rh  Rh10  1  0.750000  0.759244  0.089294  1
  Rh  Rh11  1  0.750000  0.272622  0.417941  1
