# generated using pymatgen
data_Y4Ho2Al24GaOs7
_symmetry_space_group_name_H-M   'P 1'
_cell_length_a   8.87436392
_cell_length_b   8.87436392
_cell_length_c   9.56063841
_cell_angle_alpha   90.10007164
_cell_angle_beta   89.89992793
_cell_angle_gamma   119.86664954
_symmetry_Int_Tables_number   1
_chemical_formula_structural   Y4Ho2Al24GaOs7
_chemical_formula_sum   'Y4 Ho2 Al24 Ga1 Os7'
_cell_volume   652.93976083
_cell_formula_units_Z   1
loop_
 _symmetry_equiv_pos_site_id
 _symmetry_equiv_pos_as_xyz
  1  'x, y, z'
loop_
 _atom_site_type_symbol
 _atom_site_label
 _atom_site_symmetry_multiplicity
 _atom_site_fract_x
 _atom_site_fract_y
 _atom_site_fract_z
 _atom_site_occupancy
  Y  Y0  1  0.191367  0.385101  0.246054  1
  Y  Y1  1  0.808633  0.614899  0.753946  1
  Y  Y2  1  0.614899  0.808633  0.246054  1
  Y  Y3  1  0.385101  0.191367  0.753946  1
  Ho  Ho4  1  0.194616  0.805384  0.255406  1
  Ho  Ho5  1  0.805384  0.194616  0.744594  1
  Al  Al6  1  0.327227  0.672773  0.021812  1
  Al  Al7  1  0.672773  0.327227  0.978188  1
  Al  Al8  1  0.666085  0.333915  0.518389  1
  Al  Al9  1  0.333915  0.666085  0.481611  1
  Al  Al10  1  0.162452  0.325617  0.572159  1
  Al  Al11  1  0.837548  0.674383  0.427841  1
  Al  Al12  1  0.674383  0.837548  0.572159  1
  Al  Al13  1  0.852564  0.678739  0.081865  1
  Al  Al14  1  0.325617  0.162452  0.427841  1
  Al  Al15  1  0.147436  0.321261  0.918135  1
  Al  Al16  1  0.163070  0.836930  0.575732  1
  Al  Al17  1  0.321261  0.147436  0.081865  1
  Al  Al18  1  0.836930  0.163070  0.424268  1
  Al  Al19  1  0.678739  0.852564  0.918135  1
  Al  Al20  1  0.836794  0.163206  0.076872  1
  Al  Al21  1  0.163206  0.836794  0.923128  1
  Al  Al22  1  0.561656  0.121180  0.249515  1
  Al  Al23  1  0.438344  0.878820  0.750485  1
  Al  Al24  1  0.878820  0.438344  0.249515  1
  Al  Al25  1  0.121180  0.561656  0.750485  1
  Al  Al26  1  0.565527  0.434473  0.258006  1
  Al  Al27  1  0.434473  0.565527  0.741994  1
  Al  Al28  1  0.999160  0.000840  0.250745  1
  Al  Al29  1  0.000840  0.999160  0.749255  1
  Ga  Ga30  1  0.500000  0.500000  0.000000  1
  Os  Os31  1  0.500000  0.000000  0.000000  1
  Os  Os32  1  0.000000  0.500000  0.000000  1
  Os  Os33  1  0.500000  0.000000  0.500000  1
  Os  Os34  1  0.000000  0.500000  0.500000  1
  Os  Os35  1  0.500000  0.500000  0.500000  1
  Os  Os36  1  0.000000  0.000000  0.000000  1
  Os  Os37  1  0.000000  0.000000  0.500000  1
