# generated using pymatgen
data_HoErFe14(SiC)3
_symmetry_space_group_name_H-M   'P 1'
_cell_length_a   6.43395144
_cell_length_b   6.43395187
_cell_length_c   6.43395113
_cell_angle_alpha   83.47112294
_cell_angle_beta   83.47112209
_cell_angle_gamma   83.47112659
_symmetry_Int_Tables_number   1
_chemical_formula_structural   HoErFe14(SiC)3
_chemical_formula_sum   'Ho1 Er1 Fe14 Si3 C3'
_cell_volume   261.52102930
_cell_formula_units_Z   1
loop_
 _symmetry_equiv_pos_site_id
 _symmetry_equiv_pos_as_xyz
  1  'x, y, z'
loop_
 _atom_site_type_symbol
 _atom_site_label
 _atom_site_symmetry_multiplicity
 _atom_site_fract_x
 _atom_site_fract_y
 _atom_site_fract_z
 _atom_site_occupancy
  Ho  Ho0  1  0.653661  0.653661  0.653661  1
  Er  Er1  1  0.346221  0.346221  0.346221  1
  Fe  Fe2  1  0.715379  0.284530  0.000123  1
  Fe  Fe3  1  0.000123  0.715379  0.284530  1
  Fe  Fe4  1  0.284530  0.000123  0.715379  1
  Fe  Fe5  1  0.000123  0.284530  0.715379  1
  Fe  Fe6  1  0.715379  0.000123  0.284530  1
  Fe  Fe7  1  0.284530  0.715379  0.000123  1
  Fe  Fe8  1  0.340809  0.861587  0.340809  1
  Fe  Fe9  1  0.340809  0.340809  0.861587  1
  Fe  Fe10  1  0.861587  0.340809  0.340809  1
  Fe  Fe11  1  0.659084  0.138564  0.659084  1
  Fe  Fe12  1  0.659084  0.659084  0.138564  1
  Fe  Fe13  1  0.138564  0.659084  0.659084  1
  Fe  Fe14  1  0.903023  0.903023  0.903023  1
  Fe  Fe15  1  0.097069  0.097069  0.097069  1
  Si  Si16  1  0.000013  0.000013  0.499991  1
  Si  Si17  1  0.499991  0.000013  0.000013  1
  Si  Si18  1  0.000013  0.499991  0.000013  1
  C  C19  1  0.499825  0.499825  0.000360  1
  C  C20  1  0.000360  0.499825  0.499825  1
  C  C21  1  0.499825  0.000360  0.499825  1
