# generated using pymatgen
data_Ce(MoC)4
_symmetry_space_group_name_H-M   'P 1'
_cell_length_a   6.21402867
_cell_length_b   6.21402956
_cell_length_c   6.21402902
_cell_angle_alpha   93.89424042
_cell_angle_beta   93.89425673
_cell_angle_gamma   149.78803170
_symmetry_Int_Tables_number   1
_chemical_formula_structural   Ce(MoC)4
_chemical_formula_sum   'Ce1 Mo4 C4'
_cell_volume   116.57048697
_cell_formula_units_Z   1
loop_
 _symmetry_equiv_pos_site_id
 _symmetry_equiv_pos_as_xyz
  1  'x, y, z'
loop_
 _atom_site_type_symbol
 _atom_site_label
 _atom_site_symmetry_multiplicity
 _atom_site_fract_x
 _atom_site_fract_y
 _atom_site_fract_z
 _atom_site_occupancy
  Ce  Ce0  1  0.000000  0.000000  0.000000  1
  Mo  Mo1  1  0.629136  0.820722  0.449858  1
  Mo  Mo2  1  0.370864  0.179278  0.550142  1
  Mo  Mo3  1  0.820722  0.370864  0.191586  1
  Mo  Mo4  1  0.179278  0.629136  0.808414  1
  C  C5  1  0.268768  0.400425  0.669193  1
  C  C6  1  0.731232  0.599575  0.330807  1
  C  C7  1  0.400425  0.731232  0.131656  1
  C  C8  1  0.599575  0.268768  0.868344  1
