# generated using pymatgen
data_Ce4Pr11Nd(CdIr)4
_symmetry_space_group_name_H-M   'P 1'
_cell_length_a   10.00752021
_cell_length_b   10.00752112
_cell_length_c   10.00603100
_cell_angle_alpha   60.00492876
_cell_angle_beta   60.00492573
_cell_angle_gamma   60.04520133
_symmetry_Int_Tables_number   1
_chemical_formula_structural   Ce4Pr11Nd(CdIr)4
_chemical_formula_sum   'Ce4 Pr11 Nd1 Cd4 Ir4'
_cell_volume   708.89243033
_cell_formula_units_Z   1
loop_
 _symmetry_equiv_pos_site_id
 _symmetry_equiv_pos_as_xyz
  1  'x, y, z'
loop_
 _atom_site_type_symbol
 _atom_site_label
 _atom_site_symmetry_multiplicity
 _atom_site_fract_x
 _atom_site_fract_y
 _atom_site_fract_z
 _atom_site_occupancy
  Ce  Ce0  1  0.345211  0.345211  0.345125  1
  Ce  Ce1  1  0.345211  0.345211  0.964453  1
  Ce  Ce2  1  0.345528  0.963925  0.345273  1
  Ce  Ce3  1  0.963925  0.345528  0.345273  1
  Pr  Pr4  1  0.808356  0.191118  0.192063  1
  Pr  Pr5  1  0.191118  0.808356  0.808464  1
  Pr  Pr6  1  0.191118  0.808356  0.192063  1
  Pr  Pr7  1  0.808356  0.191118  0.808464  1
  Pr  Pr8  1  0.190901  0.190901  0.809099  1
  Pr  Pr9  1  0.807860  0.807860  0.192140  1
  Pr  Pr10  1  0.941381  0.559558  0.559992  1
  Pr  Pr11  1  0.559558  0.941381  0.939069  1
  Pr  Pr12  1  0.559558  0.941381  0.559992  1
  Pr  Pr13  1  0.941381  0.559558  0.939069  1
  Pr  Pr14  1  0.559296  0.559296  0.940704  1
  Nd  Nd15  1  0.940815  0.940815  0.559185  1
  Cd  Cd16  1  0.579313  0.579313  0.579158  1
  Cd  Cd17  1  0.579313  0.579313  0.262214  1
  Cd  Cd18  1  0.580063  0.261533  0.579202  1
  Cd  Cd19  1  0.261533  0.580063  0.579202  1
  Ir  Ir20  1  0.145651  0.145651  0.146200  1
  Ir  Ir21  1  0.145651  0.145651  0.562497  1
  Ir  Ir22  1  0.146002  0.562899  0.145549  1
  Ir  Ir23  1  0.562899  0.146002  0.145549  1
