# generated using pymatgen
data_Ta2Cl8O
_symmetry_space_group_name_H-M   'P 1'
_cell_length_a   6.98862504
_cell_length_b   7.09469164
_cell_length_c   6.96842914
_cell_angle_alpha   90.70958351
_cell_angle_beta   96.65076609
_cell_angle_gamma   97.94545053
_symmetry_Int_Tables_number   1
_chemical_formula_structural   Ta2Cl8O
_chemical_formula_sum   'Ta2 Cl8 O1'
_cell_volume   339.74839564
_cell_formula_units_Z   1
loop_
 _symmetry_equiv_pos_site_id
 _symmetry_equiv_pos_as_xyz
  1  'x, y, z'
loop_
 _atom_site_type_symbol
 _atom_site_label
 _atom_site_symmetry_multiplicity
 _atom_site_fract_x
 _atom_site_fract_y
 _atom_site_fract_z
 _atom_site_occupancy
  Ta  Ta0  1  0.058948  0.399571  0.763196  1
  Ta  Ta1  1  0.941052  0.600429  0.236804  1
  Cl  Cl2  1  0.652924  0.390319  0.220314  1
  Cl  Cl3  1  0.899835  0.669589  0.588645  1
  Cl  Cl4  1  0.249586  0.776831  0.294835  1
  Cl  Cl5  1  0.792476  0.853680  0.136777  1
  Cl  Cl6  1  0.207524  0.146320  0.863223  1
  Cl  Cl7  1  0.347076  0.609681  0.779686  1
  Cl  Cl8  1  0.100165  0.330411  0.411355  1
  Cl  Cl9  1  0.750414  0.223169  0.705165  1
  O  O10  1  0.000000  0.500000  0.000000  1
