# generated using pymatgen
data_Y6Ho6Th4Mg3CdCo4
_symmetry_space_group_name_H-M   'P 1'
_cell_length_a   9.61698190
_cell_length_b   9.61698128
_cell_length_c   9.61698323
_cell_angle_alpha   60.04735994
_cell_angle_beta   60.04736065
_cell_angle_gamma   60.04736418
_symmetry_Int_Tables_number   1
_chemical_formula_structural   Y6Ho6Th4Mg3CdCo4
_chemical_formula_sum   'Y6 Ho6 Th4 Mg3 Cd1 Co4'
_cell_volume   629.60387003
_cell_formula_units_Z   1
loop_
 _symmetry_equiv_pos_site_id
 _symmetry_equiv_pos_as_xyz
  1  'x, y, z'
loop_
 _atom_site_type_symbol
 _atom_site_label
 _atom_site_symmetry_multiplicity
 _atom_site_fract_x
 _atom_site_fract_y
 _atom_site_fract_z
 _atom_site_occupancy
  Y  Y0  1  0.937012  0.563620  0.563620  1
  Y  Y1  1  0.562373  0.937019  0.937019  1
  Y  Y2  1  0.563620  0.937012  0.563620  1
  Y  Y3  1  0.937019  0.562373  0.937019  1
  Y  Y4  1  0.563620  0.563620  0.937012  1
  Y  Y5  1  0.937019  0.937019  0.562373  1
  Ho  Ho6  1  0.813333  0.186590  0.186590  1
  Ho  Ho7  1  0.185496  0.814417  0.814417  1
  Ho  Ho8  1  0.186590  0.813333  0.186590  1
  Ho  Ho9  1  0.814417  0.185496  0.814417  1
  Ho  Ho10  1  0.186590  0.186590  0.813333  1
  Ho  Ho11  1  0.814417  0.814417  0.185496  1
  Th  Th12  1  0.343766  0.343766  0.343766  1
  Th  Th13  1  0.345204  0.345204  0.964958  1
  Th  Th14  1  0.345204  0.964958  0.345204  1
  Th  Th15  1  0.964958  0.345204  0.345204  1
  Mg  Mg16  1  0.579288  0.579288  0.262200  1
  Mg  Mg17  1  0.579288  0.262200  0.579288  1
  Mg  Mg18  1  0.262200  0.579288  0.579288  1
  Cd  Cd19  1  0.580988  0.580988  0.580988  1
  Co  Co20  1  0.144764  0.144764  0.144764  1
  Co  Co21  1  0.144244  0.144244  0.564342  1
  Co  Co22  1  0.144244  0.564342  0.144244  1
  Co  Co23  1  0.564342  0.144244  0.144244  1
