# generated using pymatgen
data_Ho2Tm5Pa(ReB6)4
_symmetry_space_group_name_H-M   'P 1'
_cell_length_a   3.66644300
_cell_length_b   9.11968998
_cell_length_c   11.49259200
_cell_angle_alpha   90.14799040
_cell_angle_beta   90.00000000
_cell_angle_gamma   90.00000000
_symmetry_Int_Tables_number   1
_chemical_formula_structural   Ho2Tm5Pa(ReB6)4
_chemical_formula_sum   'Ho2 Tm5 Pa1 Re4 B24'
_cell_volume   384.27448835
_cell_formula_units_Z   1
loop_
 _symmetry_equiv_pos_site_id
 _symmetry_equiv_pos_as_xyz
  1  'x, y, z'
loop_
 _atom_site_type_symbol
 _atom_site_label
 _atom_site_symmetry_multiplicity
 _atom_site_fract_x
 _atom_site_fract_y
 _atom_site_fract_z
 _atom_site_occupancy
  Ho  Ho0  1  0.000000  0.679773  0.587088  1
  Ho  Ho1  1  0.000000  0.822963  0.085280  1
  Tm  Tm2  1  0.000000  0.175941  0.913519  1
  Tm  Tm3  1  0.000000  0.942796  0.371658  1
  Tm  Tm4  1  0.000000  0.054960  0.629405  1
  Tm  Tm5  1  0.000000  0.443708  0.127464  1
  Tm  Tm6  1  0.000000  0.556932  0.870578  1
  Pa  Pa7  1  0.000000  0.322957  0.414155  1
  Re  Re8  1  0.000000  0.636140  0.321425  1
  Re  Re9  1  0.000000  0.361785  0.676999  1
  Re  Re10  1  0.000000  0.140820  0.181355  1
  Re  Re11  1  0.000000  0.861941  0.820951  1
  B  B12  1  0.500000  0.553199  0.432222  1
  B  B13  1  0.500000  0.445744  0.567322  1
  B  B14  1  0.500000  0.053850  0.066927  1
  B  B15  1  0.500000  0.947080  0.933698  1
  B  B16  1  0.500000  0.749734  0.418743  1
  B  B17  1  0.500000  0.250127  0.581426  1
  B  B18  1  0.500000  0.249341  0.079831  1
  B  B19  1  0.500000  0.750371  0.919206  1
  B  B20  1  0.500000  0.792275  0.265630  1
  B  B21  1  0.500000  0.207430  0.735363  1
  B  B22  1  0.500000  0.292164  0.234162  1
  B  B23  1  0.500000  0.707618  0.765659  1
  B  B24  1  0.500000  0.631090  0.184304  1
  B  B25  1  0.500000  0.369663  0.814876  1
  B  B26  1  0.500000  0.131189  0.314990  1
  B  B27  1  0.500000  0.869102  0.685658  1
  B  B28  1  0.500000  0.982039  0.212241  1
  B  B29  1  0.500000  0.018187  0.788147  1
  B  B30  1  0.500000  0.482747  0.286998  1
  B  B31  1  0.500000  0.518296  0.713225  1
  B  B32  1  0.500000  0.601249  0.027613  1
  B  B33  1  0.500000  0.398553  0.971059  1
  B  B34  1  0.500000  0.102699  0.471629  1
  B  B35  1  0.500000  0.895541  0.529193  1
