# generated using pymatgen
data_LiLaSm5OsBr12
_symmetry_space_group_name_H-M   'P 1'
_cell_length_a   9.39699574
_cell_length_b   9.49830670
_cell_length_c   9.66717982
_cell_angle_alpha   107.73534532
_cell_angle_beta   107.51580580
_cell_angle_gamma   108.67574314
_symmetry_Int_Tables_number   1
_chemical_formula_structural   LiLaSm5OsBr12
_chemical_formula_sum   'Li1 La1 Sm5 Os1 Br12'
_cell_volume   698.52089721
_cell_formula_units_Z   1
loop_
 _symmetry_equiv_pos_site_id
 _symmetry_equiv_pos_as_xyz
  1  'x, y, z'
loop_
 _atom_site_type_symbol
 _atom_site_label
 _atom_site_symmetry_multiplicity
 _atom_site_fract_x
 _atom_site_fract_y
 _atom_site_fract_z
 _atom_site_occupancy
  Li  Li0  1  0.501031  0.499950  0.499489  1
  La  La1  1  0.687157  0.882554  0.966367  1
  Sm  Sm2  1  0.307885  0.116635  0.033311  1
  Sm  Sm3  1  0.035055  0.323624  0.119168  1
  Sm  Sm4  1  0.125361  0.034643  0.331331  1
  Sm  Sm5  1  0.878888  0.966629  0.672161  1
  Sm  Sm6  1  0.961504  0.675596  0.880960  1
  Os  Os7  1  0.990154  0.996610  0.001182  1
  Br  Br8  1  0.687456  0.221437  0.072421  1
  Br  Br9  1  0.382410  0.465102  0.172560  1
  Br  Br10  1  0.069002  0.682674  0.210011  1
  Br  Br11  1  0.793323  0.933452  0.324292  1
  Br  Br12  1  0.465572  0.174274  0.374411  1
  Br  Br13  1  0.176386  0.379309  0.460193  1
  Br  Br14  1  0.827435  0.621848  0.540763  1
  Br  Br15  1  0.533546  0.822977  0.610679  1
  Br  Br16  1  0.217542  0.072250  0.691143  1
  Br  Br17  1  0.933964  0.318258  0.791175  1
  Br  Br18  1  0.615157  0.520540  0.817454  1
  Br  Br19  1  0.311176  0.791641  0.930931  1
