# generated using pymatgen
data_PRh3Se7
_symmetry_space_group_name_H-M   'P 1'
_cell_length_a   5.98520327
_cell_length_b   5.98520344
_cell_length_c   5.98520319
_cell_angle_alpha   89.88583257
_cell_angle_beta   89.88583971
_cell_angle_gamma   89.88584159
_symmetry_Int_Tables_number   1
_chemical_formula_structural   PRh3Se7
_chemical_formula_sum   'P1 Rh3 Se7'
_cell_volume   214.40461885
_cell_formula_units_Z   1
loop_
 _symmetry_equiv_pos_site_id
 _symmetry_equiv_pos_as_xyz
  1  'x, y, z'
loop_
 _atom_site_type_symbol
 _atom_site_label
 _atom_site_symmetry_multiplicity
 _atom_site_fract_x
 _atom_site_fract_y
 _atom_site_fract_z
 _atom_site_occupancy
  P  P0  1  0.616799  0.616799  0.616799  1
  Rh  Rh1  1  0.984071  0.503733  0.504689  1
  Rh  Rh2  1  0.504689  0.984071  0.503733  1
  Rh  Rh3  1  0.503733  0.504689  0.984071  1
  Se  Se4  1  0.384885  0.883182  0.114652  1
  Se  Se5  1  0.114652  0.384885  0.883182  1
  Se  Se6  1  0.883182  0.114652  0.384885  1
  Se  Se7  1  0.621403  0.115524  0.882387  1
  Se  Se8  1  0.882387  0.621403  0.115524  1
  Se  Se9  1  0.115524  0.882387  0.621403  1
  Se  Se10  1  0.388677  0.388677  0.388677  1
