# generated using pymatgen
data_ScSnF7
_symmetry_space_group_name_H-M   'P 1'
_cell_length_a   5.45627000
_cell_length_b   8.66532454
_cell_length_c   11.66012845
_cell_angle_alpha   63.55016271
_cell_angle_beta   90.00000000
_cell_angle_gamma   90.00000000
_symmetry_Int_Tables_number   1
_chemical_formula_structural   ScSnF7
_chemical_formula_sum   'Sc4 Sn4 F28'
_cell_volume   493.58797485
_cell_formula_units_Z   4
loop_
 _symmetry_equiv_pos_site_id
 _symmetry_equiv_pos_as_xyz
  1  'x, y, z'
loop_
 _atom_site_type_symbol
 _atom_site_label
 _atom_site_symmetry_multiplicity
 _atom_site_fract_x
 _atom_site_fract_y
 _atom_site_fract_z
 _atom_site_occupancy
  Sc  Sc0  1  0.256326  0.820475  0.264171  1
  Sc  Sc1  1  0.743674  0.179525  0.735829  1
  Sc  Sc2  1  0.756326  0.179525  0.235829  1
  Sc  Sc3  1  0.243674  0.820475  0.764171  1
  Sn  Sn4  1  0.760211  0.727739  0.043888  1
  Sn  Sn5  1  0.239789  0.272261  0.956112  1
  Sn  Sn6  1  0.260211  0.272261  0.456112  1
  Sn  Sn7  1  0.739789  0.727739  0.543888  1
  F  F8  1  0.955999  0.702037  0.416067  1
  F  F9  1  0.044001  0.297963  0.583933  1
  F  F10  1  0.455999  0.297963  0.083933  1
  F  F11  1  0.544001  0.702037  0.916067  1
  F  F12  1  0.477041  0.732532  0.152177  1
  F  F13  1  0.522959  0.267468  0.847823  1
  F  F14  1  0.977041  0.267468  0.347823  1
  F  F15  1  0.022959  0.732532  0.652177  1
  F  F16  1  0.970199  0.749864  0.178553  1
  F  F17  1  0.029801  0.250136  0.821447  1
  F  F18  1  0.470199  0.250136  0.321447  1
  F  F19  1  0.529801  0.749864  0.678553  1
  F  F20  1  0.783167  0.474744  0.143954  1
  F  F21  1  0.216833  0.525256  0.856046  1
  F  F22  1  0.283167  0.525256  0.356046  1
  F  F23  1  0.716833  0.474744  0.643954  1
  F  F24  1  0.930958  0.268865  0.053493  1
  F  F25  1  0.069042  0.731135  0.946507  1
  F  F26  1  0.430958  0.731135  0.446507  1
  F  F27  1  0.569042  0.268865  0.553493  1
  F  F28  1  0.743222  0.982985  0.445441  1
  F  F29  1  0.256778  0.017015  0.554559  1
  F  F30  1  0.243222  0.017015  0.054559  1
  F  F31  1  0.756778  0.982985  0.945441  1
  F  F32  1  0.569489  0.978978  0.233457  1
  F  F33  1  0.430511  0.021022  0.766543  1
  F  F34  1  0.069489  0.021022  0.266543  1
  F  F35  1  0.930511  0.978978  0.733457  1
