# generated using pymatgen
data_Nd4V3PtF28
_symmetry_space_group_name_H-M   'P 1'
_cell_length_a   5.64865468
_cell_length_b   9.13481797
_cell_length_c   12.16966202
_cell_angle_alpha   62.40945381
_cell_angle_beta   89.88647192
_cell_angle_gamma   89.87641611
_symmetry_Int_Tables_number   1
_chemical_formula_structural   Nd4V3PtF28
_chemical_formula_sum   'Nd4 V3 Pt1 F28'
_cell_volume   556.53581480
_cell_formula_units_Z   1
loop_
 _symmetry_equiv_pos_site_id
 _symmetry_equiv_pos_as_xyz
  1  'x, y, z'
loop_
 _atom_site_type_symbol
 _atom_site_label
 _atom_site_symmetry_multiplicity
 _atom_site_fract_x
 _atom_site_fract_y
 _atom_site_fract_z
 _atom_site_occupancy
  Nd  Nd0  1  0.759029  0.808723  0.766577  1
  Nd  Nd1  1  0.258148  0.191100  0.735626  1
  Nd  Nd2  1  0.239080  0.190871  0.231023  1
  Nd  Nd3  1  0.741921  0.806332  0.268391  1
  V  V4  1  0.753088  0.275094  0.956896  1
  V  V5  1  0.255218  0.724459  0.544846  1
  V  V6  1  0.246489  0.725724  0.043400  1
  Pt  Pt7  1  0.743825  0.271948  0.457293  1
  F  F8  1  0.446749  0.710394  0.923933  1
  F  F9  1  0.929627  0.297403  0.583950  1
  F  F10  1  0.551541  0.291586  0.075502  1
  F  F11  1  0.055728  0.710136  0.424970  1
  F  F12  1  0.446858  0.284858  0.537760  1
  F  F13  1  0.972235  0.713792  0.955563  1
  F  F14  1  0.530602  0.714894  0.456538  1
  F  F15  1  0.028140  0.288140  0.043891  1
  F  F16  1  0.760355  0.501629  0.865455  1
  F  F17  1  0.266348  0.496335  0.634506  1
  F  F18  1  0.238005  0.498809  0.135331  1
  F  F19  1  0.738059  0.513310  0.358189  1
  F  F20  1  0.760851  0.050041  0.047067  1
  F  F21  1  0.259936  0.950114  0.454155  1
  F  F22  1  0.239612  0.952294  0.952080  1
  F  F23  1  0.740047  0.029538  0.549445  1
  F  F24  1  0.988051  0.727073  0.638435  1
  F  F25  1  0.484053  0.266923  0.866377  1
  F  F26  1  0.037281  0.267487  0.371361  1
  F  F27  1  0.514685  0.735858  0.132957  1
  F  F28  1  0.047858  0.746847  0.162524  1
  F  F29  1  0.560164  0.254147  0.326538  1
  F  F30  1  0.952993  0.256893  0.836799  1
  F  F31  1  0.452955  0.740234  0.666201  1
  F  F32  1  0.409978  0.970131  0.228018  1
  F  F33  1  0.909817  0.030981  0.270859  1
  F  F34  1  0.591000  0.033764  0.769064  1
  F  F35  1  0.089674  0.972139  0.728480  1
