# generated using pymatgen
data_Y3Lu7Cd3Pt
_symmetry_space_group_name_H-M   'P 1'
_cell_length_a   9.57594300
_cell_length_b   9.57594420
_cell_length_c   9.63414700
_cell_angle_alpha   90.00000000
_cell_angle_beta   90.00000000
_cell_angle_gamma   119.99999931
_symmetry_Int_Tables_number   1
_chemical_formula_structural   Y3Lu7Cd3Pt
_chemical_formula_sum   'Y6 Lu14 Cd6 Pt2'
_cell_volume   765.08037548
_cell_formula_units_Z   2
loop_
 _symmetry_equiv_pos_site_id
 _symmetry_equiv_pos_as_xyz
  1  'x, y, z'
loop_
 _atom_site_type_symbol
 _atom_site_label
 _atom_site_symmetry_multiplicity
 _atom_site_fract_x
 _atom_site_fract_y
 _atom_site_fract_z
 _atom_site_occupancy
  Y  Y0  1  0.541427  0.458573  0.250000  1
  Y  Y1  1  0.541427  0.082854  0.250000  1
  Y  Y2  1  0.917146  0.458573  0.250000  1
  Y  Y3  1  0.458573  0.541427  0.750000  1
  Y  Y4  1  0.458573  0.917146  0.750000  1
  Y  Y5  1  0.082854  0.541427  0.750000  1
  Lu  Lu6  1  0.000000  0.000000  0.500000  1
  Lu  Lu7  1  0.000000  0.000000  0.000000  1
  Lu  Lu8  1  0.208509  0.791491  0.441696  1
  Lu  Lu9  1  0.208509  0.417020  0.441696  1
  Lu  Lu10  1  0.582980  0.791491  0.441696  1
  Lu  Lu11  1  0.791491  0.208509  0.558304  1
  Lu  Lu12  1  0.791491  0.582980  0.558304  1
  Lu  Lu13  1  0.417020  0.208509  0.558304  1
  Lu  Lu14  1  0.791491  0.208509  0.941696  1
  Lu  Lu15  1  0.791491  0.582980  0.941696  1
  Lu  Lu16  1  0.417020  0.208509  0.941696  1
  Lu  Lu17  1  0.208509  0.791491  0.058304  1
  Lu  Lu18  1  0.208509  0.417020  0.058304  1
  Lu  Lu19  1  0.582980  0.791491  0.058304  1
  Cd  Cd20  1  0.886484  0.113516  0.250000  1
  Cd  Cd21  1  0.886484  0.772969  0.250000  1
  Cd  Cd22  1  0.227031  0.113516  0.250000  1
  Cd  Cd23  1  0.113516  0.886484  0.750000  1
  Cd  Cd24  1  0.113516  0.227031  0.750000  1
  Cd  Cd25  1  0.772969  0.886484  0.750000  1
  Pt  Pt26  1  0.333333  0.666667  0.250000  1
  Pt  Pt27  1  0.666667  0.333333  0.750000  1
