# generated using pymatgen
data_Sm3Co9(SiB2)2
_symmetry_space_group_name_H-M   'P 1'
_cell_length_a   5.18121000
_cell_length_b   5.18120908
_cell_length_c   9.37383300
_cell_angle_alpha   90.00000000
_cell_angle_beta   90.00000000
_cell_angle_gamma   119.99999309
_symmetry_Int_Tables_number   1
_chemical_formula_structural   Sm3Co9(SiB2)2
_chemical_formula_sum   'Sm3 Co9 Si2 B4'
_cell_volume   217.92657189
_cell_formula_units_Z   1
loop_
 _symmetry_equiv_pos_site_id
 _symmetry_equiv_pos_as_xyz
  1  'x, y, z'
loop_
 _atom_site_type_symbol
 _atom_site_label
 _atom_site_symmetry_multiplicity
 _atom_site_fract_x
 _atom_site_fract_y
 _atom_site_fract_z
 _atom_site_occupancy
  Sm  Sm0  1  0.000000  0.000000  0.000000  1
  Sm  Sm1  1  0.000000  0.000000  0.660973  1
  Sm  Sm2  1  0.000000  0.000000  0.339027  1
  Co  Co3  1  0.500000  0.500000  0.500000  1
  Co  Co4  1  0.500000  0.000000  0.500000  1
  Co  Co5  1  0.000000  0.500000  0.500000  1
  Co  Co6  1  0.500000  0.500000  0.803296  1
  Co  Co7  1  0.500000  0.000000  0.803296  1
  Co  Co8  1  0.000000  0.500000  0.803296  1
  Co  Co9  1  0.500000  0.500000  0.196704  1
  Co  Co10  1  0.500000  0.000000  0.196704  1
  Co  Co11  1  0.000000  0.500000  0.196704  1
  Si  Si12  1  0.666667  0.333333  0.000000  1
  Si  Si13  1  0.333333  0.666667  0.000000  1
  B  B14  1  0.666667  0.333333  0.653909  1
  B  B15  1  0.333333  0.666667  0.653909  1
  B  B16  1  0.333333  0.666667  0.346091  1
  B  B17  1  0.666667  0.333333  0.346091  1
