# generated using pymatgen
data_CaTb5HoFeI12
_symmetry_space_group_name_H-M   'P 1'
_cell_length_a   9.74159849
_cell_length_b   9.81676265
_cell_length_c   9.74686826
_cell_angle_alpha   107.09778794
_cell_angle_beta   106.76293075
_cell_angle_gamma   106.78937178
_symmetry_Int_Tables_number   1
_chemical_formula_structural   CaTb5HoFeI12
_chemical_formula_sum   'Ca1 Tb5 Ho1 Fe1 I12'
_cell_volume   778.71404549
_cell_formula_units_Z   1
loop_
 _symmetry_equiv_pos_site_id
 _symmetry_equiv_pos_as_xyz
  1  'x, y, z'
loop_
 _atom_site_type_symbol
 _atom_site_label
 _atom_site_symmetry_multiplicity
 _atom_site_fract_x
 _atom_site_fract_y
 _atom_site_fract_z
 _atom_site_occupancy
  Ca  Ca0  1  0.500011  0.500060  0.499965  1
  Tb  Tb1  1  0.024403  0.093066  0.286998  1
  Tb  Tb2  1  0.286252  0.024327  0.092946  1
  Tb  Tb3  1  0.902330  0.698114  0.975236  1
  Tb  Tb4  1  0.975931  0.907953  0.713164  1
  Tb  Tb5  1  0.713996  0.976185  0.907132  1
  Ho  Ho6  1  0.096877  0.298932  0.024701  1
  Fe  Fe7  1  0.999967  0.999908  0.000158  1
  I  I8  1  0.455048  0.377258  0.148304  1
  I  I9  1  0.148492  0.455242  0.376976  1
  I  I10  1  0.378526  0.150230  0.456372  1
  I  I11  1  0.542927  0.622984  0.850816  1
  I  I12  1  0.851483  0.544805  0.621104  1
  I  I13  1  0.621503  0.849877  0.543688  1
  I  I14  1  0.775699  0.317443  0.927103  1
  I  I15  1  0.927670  0.776977  0.319013  1
  I  I16  1  0.317210  0.926960  0.775114  1
  I  I17  1  0.226176  0.682174  0.073400  1
  I  I18  1  0.072695  0.224354  0.682926  1
  I  I19  1  0.682805  0.073152  0.224883  1
