# generated using pymatgen
data_Sm8Lu12Si15Tc
_symmetry_space_group_name_H-M   'P 1'
_cell_length_a   7.33074358
_cell_length_b   7.71626255
_cell_length_c   14.43439400
_cell_angle_alpha   90.00000000
_cell_angle_beta   90.00000000
_cell_angle_gamma   90.16254343
_symmetry_Int_Tables_number   1
_chemical_formula_structural   Sm8Lu12Si15Tc
_chemical_formula_sum   'Sm8 Lu12 Si15 Tc1'
_cell_volume   816.49181032
_cell_formula_units_Z   1
loop_
 _symmetry_equiv_pos_site_id
 _symmetry_equiv_pos_as_xyz
  1  'x, y, z'
loop_
 _atom_site_type_symbol
 _atom_site_label
 _atom_site_symmetry_multiplicity
 _atom_site_fract_x
 _atom_site_fract_y
 _atom_site_fract_z
 _atom_site_occupancy
  Sm  Sm0  1  0.015343  0.180464  0.096861  1
  Sm  Sm1  1  0.987281  0.828508  0.902724  1
  Sm  Sm2  1  0.484674  0.677024  0.903542  1
  Sm  Sm3  1  0.987281  0.828508  0.597276  1
  Sm  Sm4  1  0.514282  0.321620  0.096941  1
  Sm  Sm5  1  0.015343  0.180464  0.403139  1
  Sm  Sm6  1  0.514282  0.321620  0.403059  1
  Sm  Sm7  1  0.484674  0.677024  0.596458  1
  Lu  Lu8  1  0.155140  0.502611  0.750000  1
  Lu  Lu9  1  0.839432  0.489640  0.250000  1
  Lu  Lu10  1  0.338267  0.011545  0.250000  1
  Lu  Lu11  1  0.666573  0.993576  0.750000  1
  Lu  Lu12  1  0.314650  0.173492  0.626505  1
  Lu  Lu13  1  0.674816  0.825068  0.374978  1
  Lu  Lu14  1  0.174600  0.678412  0.374797  1
  Lu  Lu15  1  0.674816  0.825068  0.125022  1
  Lu  Lu16  1  0.836404  0.315728  0.626584  1
  Lu  Lu17  1  0.314650  0.173492  0.873495  1
  Lu  Lu18  1  0.836404  0.315728  0.873416  1
  Lu  Lu19  1  0.174600  0.678412  0.125203  1
  Si  Si20  1  0.969079  0.885641  0.250000  1
  Si  Si21  1  0.471732  0.612309  0.250000  1
  Si  Si22  1  0.529653  0.392234  0.750000  1
  Si  Si23  1  0.282221  0.870883  0.750000  1
  Si  Si24  1  0.715298  0.127721  0.250000  1
  Si  Si25  1  0.217543  0.371582  0.250000  1
  Si  Si26  1  0.774336  0.624777  0.750000  1
  Si  Si27  1  0.155971  0.472127  0.536799  1
  Si  Si28  1  0.848352  0.534208  0.462031  1
  Si  Si29  1  0.347647  0.966663  0.460404  1
  Si  Si30  1  0.848352  0.534208  0.037969  1
  Si  Si31  1  0.650403  0.032244  0.538033  1
  Si  Si32  1  0.155971  0.472127  0.963201  1
  Si  Si33  1  0.650403  0.032244  0.961967  1
  Si  Si34  1  0.347647  0.966663  0.039596  1
  Tc  Tc35  1  0.031879  0.106365  0.750000  1
