# generated using pymatgen
data_HoEr2Mg3Si2Au
_symmetry_space_group_name_H-M   'P 1'
_cell_length_a   7.20793900
_cell_length_b   7.21361481
_cell_length_c   4.27862100
_cell_angle_alpha   90.00000000
_cell_angle_beta   90.00000000
_cell_angle_gamma   119.97398021
_symmetry_Int_Tables_number   1
_chemical_formula_structural   HoEr2Mg3Si2Au
_chemical_formula_sum   'Ho1 Er2 Mg3 Si2 Au1'
_cell_volume   192.71357602
_cell_formula_units_Z   1
loop_
 _symmetry_equiv_pos_site_id
 _symmetry_equiv_pos_as_xyz
  1  'x, y, z'
loop_
 _atom_site_type_symbol
 _atom_site_label
 _atom_site_symmetry_multiplicity
 _atom_site_fract_x
 _atom_site_fract_y
 _atom_site_fract_z
 _atom_site_occupancy
  Ho  Ho0  1  0.583040  0.000000  0.000000  1
  Er  Er1  1  0.999818  0.583112  0.000000  1
  Er  Er2  1  0.416707  0.416888  0.000000  1
  Mg  Mg3  1  0.247843  0.000000  0.500000  1
  Mg  Mg4  1  0.000147  0.248110  0.500000  1
  Mg  Mg5  1  0.752036  0.751890  0.500000  1
  Si  Si6  1  0.333095  0.666219  0.500000  1
  Si  Si7  1  0.666877  0.333781  0.500000  1
  Au  Au8  1  0.000438  0.000000  0.000000  1
