# generated using pymatgen
data_Lu4Al4Pt3Rh
_symmetry_space_group_name_H-M   'P 1'
_cell_length_a   4.34722100
_cell_length_b   6.72311420
_cell_length_c   7.75626425
_cell_angle_alpha   90.02836184
_cell_angle_beta   90.00000000
_cell_angle_gamma   90.00000000
_symmetry_Int_Tables_number   1
_chemical_formula_structural   Lu4Al4Pt3Rh
_chemical_formula_sum   'Lu4 Al4 Pt3 Rh1'
_cell_volume   226.69124653
_cell_formula_units_Z   1
loop_
 _symmetry_equiv_pos_site_id
 _symmetry_equiv_pos_as_xyz
  1  'x, y, z'
loop_
 _atom_site_type_symbol
 _atom_site_label
 _atom_site_symmetry_multiplicity
 _atom_site_fract_x
 _atom_site_fract_y
 _atom_site_fract_z
 _atom_site_occupancy
  Lu  Lu0  1  0.250000  0.033291  0.676082  1
  Lu  Lu1  1  0.250000  0.531621  0.821778  1
  Lu  Lu2  1  0.750000  0.970709  0.322709  1
  Lu  Lu3  1  0.750000  0.468006  0.179395  1
  Al  Al4  1  0.250000  0.143908  0.060337  1
  Al  Al5  1  0.250000  0.636860  0.439144  1
  Al  Al6  1  0.750000  0.858470  0.940271  1
  Al  Al7  1  0.750000  0.357875  0.558621  1
  Pt  Pt8  1  0.250000  0.768897  0.122615  1
  Pt  Pt9  1  0.750000  0.733395  0.623374  1
  Pt  Pt10  1  0.750000  0.234486  0.876651  1
  Rh  Rh11  1  0.250000  0.262483  0.379023  1
