# generated using pymatgen
data_Cs4CaI6
_symmetry_space_group_name_H-M   'P 1'
_cell_length_a   10.64108155
_cell_length_b   10.64108132
_cell_length_c   10.64108093
_cell_angle_alpha   89.16514815
_cell_angle_beta   89.16514543
_cell_angle_gamma   89.16514990
_symmetry_Int_Tables_number   1
_chemical_formula_structural   Cs4CaI6
_chemical_formula_sum   'Cs8 Ca2 I12'
_cell_volume   1204.53737815
_cell_formula_units_Z   2
loop_
 _symmetry_equiv_pos_site_id
 _symmetry_equiv_pos_as_xyz
  1  'x, y, z'
loop_
 _atom_site_type_symbol
 _atom_site_label
 _atom_site_symmetry_multiplicity
 _atom_site_fract_x
 _atom_site_fract_y
 _atom_site_fract_z
 _atom_site_occupancy
  Cs  Cs0  1  0.250000  0.250000  0.250000  1
  Cs  Cs1  1  0.750000  0.750000  0.750000  1
  Cs  Cs2  1  0.250000  0.626602  0.873398  1
  Cs  Cs3  1  0.873398  0.250000  0.626602  1
  Cs  Cs4  1  0.626602  0.873398  0.250000  1
  Cs  Cs5  1  0.750000  0.373398  0.126602  1
  Cs  Cs6  1  0.126602  0.750000  0.373398  1
  Cs  Cs7  1  0.373398  0.126602  0.750000  1
  Ca  Ca8  1  0.000000  0.000000  0.000000  1
  Ca  Ca9  1  0.500000  0.500000  0.500000  1
  I  I10  1  0.559353  0.215516  0.430601  1
  I  I11  1  0.430601  0.559353  0.215516  1
  I  I12  1  0.215516  0.430601  0.559353  1
  I  I13  1  0.940647  0.069399  0.284484  1
  I  I14  1  0.284484  0.940647  0.069399  1
  I  I15  1  0.069399  0.284484  0.940647  1
  I  I16  1  0.440647  0.784484  0.569399  1
  I  I17  1  0.569399  0.440647  0.784484  1
  I  I18  1  0.784484  0.569399  0.440647  1
  I  I19  1  0.059353  0.930601  0.715516  1
  I  I20  1  0.930601  0.715516  0.059353  1
  I  I21  1  0.715516  0.059353  0.930601  1
