# generated using pymatgen
data_Dy3Ho3Al24(CuRu3)2
_symmetry_space_group_name_H-M   'P 1'
_cell_length_a   8.83330965
_cell_length_b   8.83331016
_cell_length_c   9.48139500
_cell_angle_alpha   90.00000000
_cell_angle_beta   90.00000000
_cell_angle_gamma   119.54015741
_symmetry_Int_Tables_number   1
_chemical_formula_structural   Dy3Ho3Al24(CuRu3)2
_chemical_formula_sum   'Dy3 Ho3 Al24 Cu2 Ru6'
_cell_volume   643.64084324
_cell_formula_units_Z   1
loop_
 _symmetry_equiv_pos_site_id
 _symmetry_equiv_pos_as_xyz
  1  'x, y, z'
loop_
 _atom_site_type_symbol
 _atom_site_label
 _atom_site_symmetry_multiplicity
 _atom_site_fract_x
 _atom_site_fract_y
 _atom_site_fract_z
 _atom_site_occupancy
  Dy  Dy0  1  0.806530  0.193470  0.750000  1
  Dy  Dy1  1  0.811494  0.616384  0.750000  1
  Dy  Dy2  1  0.383616  0.188506  0.750000  1
  Ho  Ho3  1  0.193872  0.806128  0.250000  1
  Ho  Ho4  1  0.188871  0.384339  0.250000  1
  Ho  Ho5  1  0.615661  0.811129  0.250000  1
  Al  Al6  1  0.560567  0.439433  0.250000  1
  Al  Al7  1  0.560002  0.121639  0.250000  1
  Al  Al8  1  0.878361  0.439998  0.250000  1
  Al  Al9  1  0.439241  0.560759  0.750000  1
  Al  Al10  1  0.439701  0.877943  0.750000  1
  Al  Al11  1  0.122057  0.560299  0.750000  1
  Al  Al12  1  0.323860  0.157156  0.422011  1
  Al  Al13  1  0.836407  0.163593  0.423081  1
  Al  Al14  1  0.842844  0.676140  0.422011  1
  Al  Al15  1  0.676028  0.842792  0.577829  1
  Al  Al16  1  0.163645  0.836355  0.576859  1
  Al  Al17  1  0.157208  0.323972  0.577829  1
  Al  Al18  1  0.676028  0.842792  0.922171  1
  Al  Al19  1  0.163645  0.836355  0.923141  1
  Al  Al20  1  0.157208  0.323972  0.922171  1
  Al  Al21  1  0.323860  0.157156  0.077989  1
  Al  Al22  1  0.836407  0.163593  0.076919  1
  Al  Al23  1  0.842844  0.676140  0.077989  1
  Al  Al24  1  0.668004  0.331996  0.519869  1
  Al  Al25  1  0.332002  0.667998  0.479760  1
  Al  Al26  1  0.332002  0.667998  0.020240  1
  Al  Al27  1  0.668004  0.331996  0.980131  1
  Al  Al28  1  0.998105  0.001895  0.250000  1
  Al  Al29  1  0.001911  0.998089  0.750000  1
  Cu  Cu30  1  0.499978  0.500022  0.499960  1
  Cu  Cu31  1  0.499978  0.500022  0.000040  1
  Ru  Ru32  1  0.000019  0.999981  0.499761  1
  Ru  Ru33  1  0.000019  0.999981  0.000239  1
  Ru  Ru34  1  0.499914  0.999905  0.499729  1
  Ru  Ru35  1  0.000095  0.500086  0.499729  1
  Ru  Ru36  1  0.499914  0.999905  0.000271  1
  Ru  Ru37  1  0.000095  0.500086  0.000271  1
