# generated using pymatgen
data_Pr8Hg3Ru
_symmetry_space_group_name_H-M   'P 1'
_cell_length_a   10.68491400
_cell_length_b   10.68491540
_cell_length_c   7.43005400
_cell_angle_alpha   90.00000000
_cell_angle_beta   90.00000000
_cell_angle_gamma   120.00000186
_symmetry_Int_Tables_number   1
_chemical_formula_structural   Pr8Hg3Ru
_chemical_formula_sum   'Pr16 Hg6 Ru2'
_cell_volume   734.62332342
_cell_formula_units_Z   2
loop_
 _symmetry_equiv_pos_site_id
 _symmetry_equiv_pos_as_xyz
  1  'x, y, z'
loop_
 _atom_site_type_symbol
 _atom_site_label
 _atom_site_symmetry_multiplicity
 _atom_site_fract_x
 _atom_site_fract_y
 _atom_site_fract_z
 _atom_site_occupancy
  Pr  Pr0  1  0.171124  0.828876  0.981280  1
  Pr  Pr1  1  0.342245  0.171124  0.481280  1
  Pr  Pr2  1  0.828876  0.657755  0.481280  1
  Pr  Pr3  1  0.171124  0.342245  0.981280  1
  Pr  Pr4  1  0.657755  0.828876  0.981280  1
  Pr  Pr5  1  0.828876  0.171124  0.481280  1
  Pr  Pr6  1  0.333333  0.666667  0.680839  1
  Pr  Pr7  1  0.666667  0.333333  0.180839  1
  Pr  Pr8  1  0.461184  0.538816  0.293410  1
  Pr  Pr9  1  0.922367  0.461184  0.793410  1
  Pr  Pr10  1  0.538816  0.077633  0.793410  1
  Pr  Pr11  1  0.461184  0.922367  0.293410  1
  Pr  Pr12  1  0.077633  0.538816  0.293410  1
  Pr  Pr13  1  0.538816  0.461184  0.793410  1
  Pr  Pr14  1  0.000000  0.000000  0.283410  1
  Pr  Pr15  1  0.000000  0.000000  0.783410  1
  Hg  Hg16  1  0.167680  0.832320  0.540559  1
  Hg  Hg17  1  0.335360  0.167680  0.040559  1
  Hg  Hg18  1  0.832320  0.664640  0.040559  1
  Hg  Hg19  1  0.167680  0.335360  0.540559  1
  Hg  Hg20  1  0.664640  0.832320  0.540559  1
  Hg  Hg21  1  0.832320  0.167680  0.040559  1
  Ru  Ru22  1  0.333333  0.666667  0.053000  1
  Ru  Ru23  1  0.666667  0.333333  0.553000  1
