# generated using pymatgen
data_TmTh3(CdNi2)2
_symmetry_space_group_name_H-M   'P 1'
_cell_length_a   7.57670325
_cell_length_b   7.57670234
_cell_length_c   3.66276800
_cell_angle_alpha   90.00000000
_cell_angle_beta   90.00000000
_cell_angle_gamma   91.32951757
_symmetry_Int_Tables_number   1
_chemical_formula_structural   TmTh3(CdNi2)2
_chemical_formula_sum   'Tm1 Th3 Cd2 Ni4'
_cell_volume   210.20981115
_cell_formula_units_Z   1
loop_
 _symmetry_equiv_pos_site_id
 _symmetry_equiv_pos_as_xyz
  1  'x, y, z'
loop_
 _atom_site_type_symbol
 _atom_site_label
 _atom_site_symmetry_multiplicity
 _atom_site_fract_x
 _atom_site_fract_y
 _atom_site_fract_z
 _atom_site_occupancy
  Tm  Tm0  1  0.828364  0.671636  0.500000  1
  Th  Th1  1  0.674206  0.170155  0.500000  1
  Th  Th2  1  0.329845  0.825794  0.500000  1
  Th  Th3  1  0.167900  0.332100  0.500000  1
  Cd  Cd4  1  0.996521  0.990225  0.000000  1
  Cd  Cd5  1  0.509775  0.503479  0.000000  1
  Ni  Ni6  1  0.126135  0.624437  0.000000  1
  Ni  Ni7  1  0.875563  0.373865  0.000000  1
  Ni  Ni8  1  0.619119  0.880881  0.000000  1
  Ni  Ni9  1  0.372571  0.127429  0.000000  1
