# generated using pymatgen
data_TbY3Al18(OsRh2)2
_symmetry_space_group_name_H-M   'P 1'
_cell_length_a   7.53075338
_cell_length_b   7.52996361
_cell_length_c   9.51039600
_cell_angle_alpha   90.00000000
_cell_angle_beta   90.00000000
_cell_angle_gamma   118.56030906
_symmetry_Int_Tables_number   1
_chemical_formula_structural   TbY3Al18(OsRh2)2
_chemical_formula_sum   'Tb1 Y3 Al18 Os2 Rh4'
_cell_volume   473.67437783
_cell_formula_units_Z   1
loop_
 _symmetry_equiv_pos_site_id
 _symmetry_equiv_pos_as_xyz
  1  'x, y, z'
loop_
 _atom_site_type_symbol
 _atom_site_label
 _atom_site_symmetry_multiplicity
 _atom_site_fract_x
 _atom_site_fract_y
 _atom_site_fract_z
 _atom_site_occupancy
  Tb  Tb0  1  0.993607  0.679791  0.250000  1
  Y  Y1  1  0.007025  0.320760  0.750000  1
  Y  Y2  1  0.679615  0.993736  0.250000  1
  Y  Y3  1  0.320733  0.007033  0.750000  1
  Al  Al4  1  0.134118  0.134068  0.250000  1
  Al  Al5  1  0.866156  0.866204  0.750000  1
  Al  Al6  1  0.002577  0.337501  0.074274  1
  Al  Al7  1  0.997103  0.662228  0.925639  1
  Al  Al8  1  0.997103  0.662228  0.574361  1
  Al  Al9  1  0.337744  0.002718  0.425485  1
  Al  Al10  1  0.002577  0.337501  0.425726  1
  Al  Al11  1  0.662452  0.997260  0.574115  1
  Al  Al12  1  0.662452  0.997260  0.925885  1
  Al  Al13  1  0.337744  0.002718  0.074515  1
  Al  Al14  1  0.331844  0.331805  0.544835  1
  Al  Al15  1  0.667904  0.667970  0.455229  1
  Al  Al16  1  0.667904  0.667970  0.044771  1
  Al  Al17  1  0.331844  0.331805  0.955165  1
  Al  Al18  1  0.340697  0.553580  0.250000  1
  Al  Al19  1  0.659370  0.446658  0.750000  1
  Al  Al20  1  0.553520  0.340805  0.250000  1
  Al  Al21  1  0.446729  0.659419  0.750000  1
  Os  Os22  1  0.999991  0.999916  0.999975  1
  Os  Os23  1  0.999991  0.999916  0.500025  1
  Rh  Rh24  1  0.671433  0.328092  0.999817  1
  Rh  Rh25  1  0.328167  0.671483  0.999873  1
  Rh  Rh26  1  0.328167  0.671483  0.500127  1
  Rh  Rh27  1  0.671433  0.328092  0.500183  1
