# generated using pymatgen
data_Zr2PtRh4Pb
_symmetry_space_group_name_H-M   'P 1'
_cell_length_a   5.71786189
_cell_length_b   5.71786115
_cell_length_c   8.41352500
_cell_angle_alpha   90.00000000
_cell_angle_beta   90.00000000
_cell_angle_gamma   97.85022563
_symmetry_Int_Tables_number   1
_chemical_formula_structural   Zr2PtRh4Pb
_chemical_formula_sum   'Zr4 Pt2 Rh8 Pb2'
_cell_volume   272.49345162
_cell_formula_units_Z   2
loop_
 _symmetry_equiv_pos_site_id
 _symmetry_equiv_pos_as_xyz
  1  'x, y, z'
loop_
 _atom_site_type_symbol
 _atom_site_label
 _atom_site_symmetry_multiplicity
 _atom_site_fract_x
 _atom_site_fract_y
 _atom_site_fract_z
 _atom_site_occupancy
  Zr  Zr0  1  0.780717  0.219283  0.500000  1
  Zr  Zr1  1  0.219283  0.780717  0.000000  1
  Zr  Zr2  1  0.219283  0.780717  0.500000  1
  Zr  Zr3  1  0.780717  0.219283  0.000000  1
  Pt  Pt4  1  0.000228  0.000228  0.250000  1
  Pt  Pt5  1  0.999772  0.999772  0.750000  1
  Rh  Rh6  1  0.736279  0.736279  0.000638  1
  Rh  Rh7  1  0.736279  0.736279  0.499362  1
  Rh  Rh8  1  0.263721  0.263721  0.999362  1
  Rh  Rh9  1  0.263721  0.263721  0.500638  1
  Rh  Rh10  1  0.499922  0.000674  0.750000  1
  Rh  Rh11  1  0.500078  0.999326  0.250000  1
  Rh  Rh12  1  0.000674  0.499922  0.750000  1
  Rh  Rh13  1  0.999326  0.500078  0.250000  1
  Pb  Pb14  1  0.501020  0.501020  0.750000  1
  Pb  Pb15  1  0.498980  0.498980  0.250000  1
