# generated using pymatgen
data_Ba3ErFe2O9
_symmetry_space_group_name_H-M   'P 1'
_cell_length_a   5.90043600
_cell_length_b   5.86679119
_cell_length_c   14.46728000
_cell_angle_alpha   90.00000000
_cell_angle_beta   90.00000000
_cell_angle_gamma   59.81010137
_symmetry_Int_Tables_number   1
_chemical_formula_structural   Ba3ErFe2O9
_chemical_formula_sum   'Ba6 Er2 Fe4 O18'
_cell_volume   432.88050464
_cell_formula_units_Z   2
loop_
 _symmetry_equiv_pos_site_id
 _symmetry_equiv_pos_as_xyz
  1  'x, y, z'
loop_
 _atom_site_type_symbol
 _atom_site_label
 _atom_site_symmetry_multiplicity
 _atom_site_fract_x
 _atom_site_fract_y
 _atom_site_fract_z
 _atom_site_occupancy
  Ba  Ba0  1  0.336658  0.326684  0.100873  1
  Ba  Ba1  1  0.003359  0.993282  0.256706  1
  Ba  Ba2  1  0.330467  0.339067  0.414977  1
  Ba  Ba3  1  0.663342  0.673315  0.600874  1
  Ba  Ba4  1  0.996641  0.006717  0.756707  1
  Ba  Ba5  1  0.669534  0.660933  0.914977  1
  Er  Er6  1  0.003454  0.993094  0.006413  1
  Er  Er7  1  0.996547  0.006906  0.506413  1
  Fe  Fe8  1  0.673319  0.653362  0.164700  1
  Fe  Fe9  1  0.664588  0.670824  0.350393  1
  Fe  Fe10  1  0.326681  0.346639  0.664699  1
  Fe  Fe11  1  0.335412  0.329175  0.850393  1
  O  O12  1  0.359982  0.818055  0.095200  1
  O  O13  1  0.821963  0.818055  0.095200  1
  O  O14  1  0.824471  0.351058  0.092114  1
  O  O15  1  0.528632  0.942738  0.256055  1
  O  O16  1  0.526437  0.508024  0.249931  1
  O  O17  1  0.965540  0.508024  0.249931  1
  O  O18  1  0.338578  0.836495  0.416745  1
  O  O19  1  0.824927  0.836495  0.416745  1
  O  O20  1  0.816369  0.367262  0.420118  1
  O  O21  1  0.178038  0.181944  0.595200  1
  O  O22  1  0.640018  0.181944  0.595200  1
  O  O23  1  0.175529  0.648942  0.592114  1
  O  O24  1  0.471369  0.057262  0.756056  1
  O  O25  1  0.034459  0.491978  0.749929  1
  O  O26  1  0.473562  0.491978  0.749929  1
  O  O27  1  0.175073  0.163504  0.916745  1
  O  O28  1  0.661422  0.163504  0.916745  1
  O  O29  1  0.183631  0.632738  0.920119  1
