# generated using pymatgen
data_Ho3TmMn4F28
_symmetry_space_group_name_H-M   'P 1'
_cell_length_a   5.41702121
_cell_length_b   8.66391958
_cell_length_c   11.64930442
_cell_angle_alpha   62.48347624
_cell_angle_beta   90.02678727
_cell_angle_gamma   89.99738003
_symmetry_Int_Tables_number   1
_chemical_formula_structural   Ho3TmMn4F28
_chemical_formula_sum   'Ho3 Tm1 Mn4 F28'
_cell_volume   484.88480809
_cell_formula_units_Z   1
loop_
 _symmetry_equiv_pos_site_id
 _symmetry_equiv_pos_as_xyz
  1  'x, y, z'
loop_
 _atom_site_type_symbol
 _atom_site_label
 _atom_site_symmetry_multiplicity
 _atom_site_fract_x
 _atom_site_fract_y
 _atom_site_fract_z
 _atom_site_occupancy
  Ho  Ho0  1  0.261836  0.187769  0.735660  1
  Ho  Ho1  1  0.237897  0.189041  0.235493  1
  Ho  Ho2  1  0.737787  0.810729  0.264383  1
  Tm  Tm3  1  0.762837  0.810689  0.764306  1
  Mn  Mn4  1  0.758847  0.275645  0.955686  1
  Mn  Mn5  1  0.259882  0.725787  0.544917  1
  Mn  Mn6  1  0.240570  0.725855  0.042242  1
  Mn  Mn7  1  0.741297  0.273101  0.457290  1
  F  F8  1  0.435113  0.704733  0.921548  1
  F  F9  1  0.934171  0.294948  0.578324  1
  F  F10  1  0.565989  0.296028  0.077201  1
  F  F11  1  0.065464  0.704851  0.424087  1
  F  F12  1  0.455230  0.281105  0.541322  1
  F  F13  1  0.954867  0.718933  0.956900  1
  F  F14  1  0.544128  0.718273  0.459566  1
  F  F15  1  0.044568  0.282852  0.040298  1
  F  F16  1  0.771712  0.515123  0.860407  1
  F  F17  1  0.273584  0.486875  0.639865  1
  F  F18  1  0.226172  0.487144  0.138016  1
  F  F19  1  0.727213  0.512368  0.361767  1
  F  F20  1  0.758679  0.037812  0.046600  1
  F  F21  1  0.258905  0.963526  0.453513  1
  F  F22  1  0.241514  0.963811  0.952068  1
  F  F23  1  0.742150  0.035371  0.548070  1
  F  F24  1  0.983211  0.728205  0.636390  1
  F  F25  1  0.481502  0.272622  0.865392  1
  F  F26  1  0.019242  0.272135  0.366690  1
  F  F27  1  0.517608  0.727481  0.133359  1
  F  F28  1  0.049074  0.742855  0.168214  1
  F  F29  1  0.551037  0.256724  0.330818  1
  F  F30  1  0.949707  0.258379  0.829814  1
  F  F31  1  0.453807  0.743918  0.670013  1
  F  F32  1  0.406682  0.969053  0.228163  1
  F  F33  1  0.906945  0.030685  0.271644  1
  F  F34  1  0.592110  0.027195  0.771241  1
  F  F35  1  0.088664  0.968381  0.728732  1
