# generated using pymatgen
data_Zr10AlGeSb4
_symmetry_space_group_name_H-M   'P 1'
_cell_length_a   5.56528633
_cell_length_b   8.36025512
_cell_length_c   8.36025431
_cell_angle_alpha   96.36049967
_cell_angle_beta   109.44136967
_cell_angle_gamma   70.55863164
_symmetry_Int_Tables_number   1
_chemical_formula_structural   Zr10AlGeSb4
_chemical_formula_sum   'Zr10 Al1 Ge1 Sb4'
_cell_volume   345.88670995
_cell_formula_units_Z   1
loop_
 _symmetry_equiv_pos_site_id
 _symmetry_equiv_pos_as_xyz
  1  'x, y, z'
loop_
 _atom_site_type_symbol
 _atom_site_label
 _atom_site_symmetry_multiplicity
 _atom_site_fract_x
 _atom_site_fract_y
 _atom_site_fract_z
 _atom_site_occupancy
  Zr  Zr0  1  0.425152  0.862539  0.711275  1
  Zr  Zr1  1  0.576416  0.137461  0.288725  1
  Zr  Zr2  1  0.923584  0.288725  0.137461  1
  Zr  Zr3  1  0.074848  0.711275  0.862539  1
  Zr  Zr4  1  0.713876  0.711275  0.137461  1
  Zr  Zr5  1  0.287692  0.288725  0.862539  1
  Zr  Zr6  1  0.786124  0.137461  0.711275  1
  Zr  Zr7  1  0.212308  0.862539  0.288725  1
  Zr  Zr8  1  0.250000  0.500000  0.500000  1
  Zr  Zr9  1  0.750000  0.500000  0.500000  1
  Al  Al10  1  0.750000  0.000000  0.000000  1
  Ge  Ge11  1  0.250000  0.000000  0.000000  1
  Sb  Sb12  1  0.336249  0.500000  0.172499  1
  Sb  Sb13  1  0.663751  0.500000  0.827501  1
  Sb  Sb14  1  0.836249  0.827501  0.500000  1
  Sb  Sb15  1  0.163751  0.172499  0.500000  1
