# generated using pymatgen
data_PrTh3(B10Os)2
_symmetry_space_group_name_H-M   'P 1'
_cell_length_a   4.22037900
_cell_length_b   5.75938917
_cell_length_c   11.48723134
_cell_angle_alpha   90.02800785
_cell_angle_beta   90.00000000
_cell_angle_gamma   90.00000000
_symmetry_Int_Tables_number   1
_chemical_formula_structural   PrTh3(B10Os)2
_chemical_formula_sum   'Pr1 Th3 B20 Os2'
_cell_volume   279.21786020
_cell_formula_units_Z   1
loop_
 _symmetry_equiv_pos_site_id
 _symmetry_equiv_pos_as_xyz
  1  'x, y, z'
loop_
 _atom_site_type_symbol
 _atom_site_label
 _atom_site_symmetry_multiplicity
 _atom_site_fract_x
 _atom_site_fract_y
 _atom_site_fract_z
 _atom_site_occupancy
  Pr  Pr0  1  0.500000  0.284332  0.867976  1
  Th  Th1  1  0.500000  0.720154  0.129498  1
  Th  Th2  1  0.500000  0.783413  0.630235  1
  Th  Th3  1  0.500000  0.217454  0.369369  1
  B  B4  1  0.000000  0.118346  0.542182  1
  B  B5  1  0.000000  0.882141  0.457398  1
  B  B6  1  0.000000  0.617735  0.957064  1
  B  B7  1  0.000000  0.380255  0.043265  1
  B  B8  1  0.000000  0.131801  0.696740  1
  B  B9  1  0.000000  0.868319  0.303304  1
  B  B10  1  0.300138  0.221227  0.119365  1
  B  B11  1  0.299600  0.777376  0.881418  1
  B  B12  1  0.699225  0.721420  0.381038  1
  B  B13  1  0.699889  0.277890  0.618841  1
  B  B14  1  0.700400  0.777376  0.881418  1
  B  B15  1  0.699862  0.221227  0.119365  1
  B  B16  1  0.300111  0.277890  0.618841  1
  B  B17  1  0.300775  0.721420  0.381038  1
  B  B18  1  0.000000  0.059861  0.193785  1
  B  B19  1  0.000000  0.940422  0.807613  1
  B  B20  1  0.000000  0.559865  0.306666  1
  B  B21  1  0.000000  0.441271  0.692485  1
  B  B22  1  0.000000  0.368526  0.196881  1
  B  B23  1  0.000000  0.633397  0.802794  1
  Os  Os24  1  0.000000  0.499929  0.500088  1
  Os  Os25  1  0.000000  0.996954  0.001333  1
