# generated using pymatgen
data_Dy7Ho9CdIn3Ir4
_symmetry_space_group_name_H-M   'P 1'
_cell_length_a   9.63361868
_cell_length_b   9.64242231
_cell_length_c   9.64746000
_cell_angle_alpha   59.98271597
_cell_angle_beta   59.95246056
_cell_angle_gamma   60.01367372
_symmetry_Int_Tables_number   1
_chemical_formula_structural   Dy7Ho9CdIn3Ir4
_chemical_formula_sum   'Dy7 Ho9 Cd1 In3 Ir4'
_cell_volume   633.43988884
_cell_formula_units_Z   1
loop_
 _symmetry_equiv_pos_site_id
 _symmetry_equiv_pos_as_xyz
  1  'x, y, z'
loop_
 _atom_site_type_symbol
 _atom_site_label
 _atom_site_symmetry_multiplicity
 _atom_site_fract_x
 _atom_site_fract_y
 _atom_site_fract_z
 _atom_site_occupancy
  Dy  Dy0  1  0.058262  0.058766  0.441486  1
  Dy  Dy1  1  0.191156  0.810975  0.811071  1
  Dy  Dy2  1  0.811867  0.189153  0.188570  1
  Dy  Dy3  1  0.811867  0.189153  0.810410  1
  Dy  Dy4  1  0.191156  0.810975  0.186798  1
  Dy  Dy5  1  0.813392  0.810439  0.188085  1
  Dy  Dy6  1  0.191620  0.188546  0.809917  1
  Ho  Ho7  1  0.599410  0.598789  0.596820  1
  Ho  Ho8  1  0.599410  0.598789  0.204981  1
  Ho  Ho9  1  0.599833  0.202650  0.598758  1
  Ho  Ho10  1  0.202523  0.599854  0.598812  1
  Ho  Ho11  1  0.058170  0.439980  0.442221  1
  Ho  Ho12  1  0.438526  0.059950  0.060685  1
  Ho  Ho13  1  0.438526  0.059950  0.440839  1
  Ho  Ho14  1  0.058170  0.439980  0.059628  1
  Ho  Ho15  1  0.439846  0.439720  0.060217  1
  Cd  Cd16  1  0.504008  0.831613  0.832189  1
  In  In17  1  0.830618  0.832991  0.833440  1
  In  In18  1  0.830618  0.832991  0.502952  1
  In  In19  1  0.830654  0.502996  0.833176  1
  Ir  Ir20  1  0.391426  0.391693  0.391257  1
  Ir  Ir21  1  0.391426  0.391693  0.825623  1
  Ir  Ir22  1  0.391651  0.826258  0.391045  1
  Ir  Ir23  1  0.825862  0.392095  0.391021  1
