# generated using pymatgen
data_YbDy3(Si5Os3)2
_symmetry_space_group_name_H-M   'P 1'
_cell_length_a   8.15977675
_cell_length_b   8.14484681
_cell_length_c   5.77935927
_cell_angle_alpha   70.55091855
_cell_angle_beta   70.38351751
_cell_angle_gamma   94.03227060
_symmetry_Int_Tables_number   1
_chemical_formula_structural   YbDy3(Si5Os3)2
_chemical_formula_sum   'Yb1 Dy3 Si10 Os6'
_cell_volume   333.91179581
_cell_formula_units_Z   1
loop_
 _symmetry_equiv_pos_site_id
 _symmetry_equiv_pos_as_xyz
  1  'x, y, z'
loop_
 _atom_site_type_symbol
 _atom_site_label
 _atom_site_symmetry_multiplicity
 _atom_site_fract_x
 _atom_site_fract_y
 _atom_site_fract_z
 _atom_site_occupancy
  Yb  Yb0  1  0.867844  0.602292  0.756078  1
  Dy  Dy1  1  0.398433  0.130370  0.746486  1
  Dy  Dy2  1  0.131208  0.399465  0.246474  1
  Dy  Dy3  1  0.602525  0.866971  0.254654  1
  Si  Si4  1  0.068440  0.261570  0.835057  1
  Si  Si5  1  0.737994  0.932528  0.666269  1
  Si  Si6  1  0.932947  0.738282  0.168023  1
  Si  Si7  1  0.262597  0.067199  0.333881  1
  Si  Si8  1  0.205223  0.792273  0.749449  1
  Si  Si9  1  0.791778  0.205447  0.253813  1
  Si  Si10  1  0.513659  0.489681  0.748333  1
  Si  Si11  1  0.488578  0.512087  0.246309  1
  Si  Si12  1  0.774320  0.224923  0.746639  1
  Si  Si13  1  0.223541  0.774684  0.252674  1
  Os  Os14  1  0.256621  0.542183  0.630431  1
  Os  Os15  1  0.454699  0.745029  0.869852  1
  Os  Os16  1  0.742897  0.457163  0.368483  1
  Os  Os17  1  0.544716  0.254711  0.128523  1
  Os  Os18  1  0.002976  0.999869  0.748835  1
  Os  Os19  1  0.999007  0.003276  0.249740  1
