# generated using pymatgen
data_Pr4Ho13(ScBi4)3
_symmetry_space_group_name_H-M   'P 1'
_cell_length_a   8.27458504
_cell_length_b   9.47546500
_cell_length_c   12.09200505
_cell_angle_alpha   90.00000000
_cell_angle_beta   90.01074106
_cell_angle_gamma   90.00000000
_symmetry_Int_Tables_number   1
_chemical_formula_structural   Pr4Ho13(ScBi4)3
_chemical_formula_sum   'Pr4 Ho13 Sc3 Bi12'
_cell_volume   948.08018011
_cell_formula_units_Z   1
loop_
 _symmetry_equiv_pos_site_id
 _symmetry_equiv_pos_as_xyz
  1  'x, y, z'
loop_
 _atom_site_type_symbol
 _atom_site_label
 _atom_site_symmetry_multiplicity
 _atom_site_fract_x
 _atom_site_fract_y
 _atom_site_fract_z
 _atom_site_occupancy
  Pr  Pr0  1  0.171562  0.750000  0.225162  1
  Pr  Pr1  1  0.330763  0.750000  0.726076  1
  Pr  Pr2  1  0.829100  0.250000  0.775656  1
  Pr  Pr3  1  0.669812  0.250000  0.273397  1
  Ho  Ho4  1  0.807290  0.564012  0.062417  1
  Ho  Ho5  1  0.691900  0.935059  0.563521  1
  Ho  Ho6  1  0.192469  0.064097  0.937623  1
  Ho  Ho7  1  0.310476  0.437406  0.435384  1
  Ho  Ho8  1  0.192469  0.435903  0.937623  1
  Ho  Ho9  1  0.310476  0.062594  0.435384  1
  Ho  Ho10  1  0.807290  0.935988  0.062417  1
  Ho  Ho11  1  0.691900  0.564941  0.563521  1
  Ho  Ho12  1  0.976689  0.250000  0.497061  1
  Ho  Ho13  1  0.663859  0.750000  0.287531  1
  Ho  Ho14  1  0.835464  0.750000  0.788649  1
  Ho  Ho15  1  0.334218  0.250000  0.713224  1
  Ho  Ho16  1  0.166026  0.250000  0.210973  1
  Sc  Sc17  1  0.477594  0.750000  0.003208  1
  Sc  Sc18  1  0.021787  0.750000  0.503110  1
  Sc  Sc19  1  0.522120  0.250000  0.996598  1
  Bi  Bi20  1  0.397966  0.750000  0.465159  1
  Bi  Bi21  1  0.101665  0.750000  0.965483  1
  Bi  Bi22  1  0.596658  0.250000  0.535234  1
  Bi  Bi23  1  0.898174  0.250000  0.035443  1
  Bi  Bi24  1  0.935584  0.510054  0.331171  1
  Bi  Bi25  1  0.563909  0.993568  0.834567  1
  Bi  Bi26  1  0.064902  0.002952  0.668968  1
  Bi  Bi27  1  0.436743  0.493507  0.165367  1
  Bi  Bi28  1  0.064902  0.497048  0.668968  1
  Bi  Bi29  1  0.436743  0.006493  0.165367  1
  Bi  Bi30  1  0.935584  0.989946  0.331171  1
  Bi  Bi31  1  0.563909  0.506432  0.834567  1
