# generated using pymatgen
data_Y6Ho4(BiPb)3
_symmetry_space_group_name_H-M   'P 1'
_cell_length_a   9.14293000
_cell_length_b   9.13593545
_cell_length_c   6.48009000
_cell_angle_alpha   90.00000000
_cell_angle_beta   90.00000000
_cell_angle_gamma   120.02532937
_symmetry_Int_Tables_number   1
_chemical_formula_structural   Y6Ho4(BiPb)3
_chemical_formula_sum   'Y6 Ho4 Bi3 Pb3'
_cell_volume   468.63981448
_cell_formula_units_Z   1
loop_
 _symmetry_equiv_pos_site_id
 _symmetry_equiv_pos_as_xyz
  1  'x, y, z'
loop_
 _atom_site_type_symbol
 _atom_site_label
 _atom_site_symmetry_multiplicity
 _atom_site_fract_x
 _atom_site_fract_y
 _atom_site_fract_z
 _atom_site_occupancy
  Y  Y0  1  0.237715  0.000000  0.250000  1
  Y  Y1  1  0.239542  0.236942  0.750000  1
  Y  Y2  1  0.002600  0.763058  0.750000  1
  Y  Y3  1  0.002691  0.241450  0.250000  1
  Y  Y4  1  0.761241  0.758550  0.250000  1
  Y  Y5  1  0.759198  0.000000  0.750000  1
  Ho  Ho6  1  0.332355  0.666447  0.000736  1
  Ho  Ho7  1  0.665910  0.333553  0.499264  1
  Ho  Ho8  1  0.665910  0.333553  0.000736  1
  Ho  Ho9  1  0.332355  0.666447  0.499264  1
  Bi  Bi10  1  0.607575  0.000000  0.250000  1
  Bi  Bi11  1  0.606586  0.607086  0.750000  1
  Bi  Bi12  1  0.999500  0.392914  0.750000  1
  Pb  Pb13  1  0.999543  0.606202  0.250000  1
  Pb  Pb14  1  0.393341  0.393798  0.250000  1
  Pb  Pb15  1  0.393939  0.000000  0.750000  1
