# generated using pymatgen
data_Ho12Re5Si16Ru3
_symmetry_space_group_name_H-M   'P 1'
_cell_length_a   10.49376129
_cell_length_b   10.49256874
_cell_length_c   14.17230187
_cell_angle_alpha   55.42590440
_cell_angle_beta   55.40615522
_cell_angle_gamma   31.00003913
_symmetry_Int_Tables_number   1
_chemical_formula_structural   Ho12Re5Si16Ru3
_chemical_formula_sum   'Ho12 Re5 Si16 Ru3'
_cell_volume   649.47390947
_cell_formula_units_Z   1
loop_
 _symmetry_equiv_pos_site_id
 _symmetry_equiv_pos_as_xyz
  1  'x, y, z'
loop_
 _atom_site_type_symbol
 _atom_site_label
 _atom_site_symmetry_multiplicity
 _atom_site_fract_x
 _atom_site_fract_y
 _atom_site_fract_z
 _atom_site_occupancy
  Ho  Ho0  1  0.748005  0.486900  0.051297  1
  Ho  Ho1  1  0.532726  0.311702  0.154667  1
  Ho  Ho2  1  0.513520  0.249555  0.449091  1
  Ho  Ho3  1  0.466662  0.690025  0.844868  1
  Ho  Ho4  1  0.291747  0.041418  0.136917  1
  Ho  Ho5  1  0.957608  0.708124  0.362534  1
  Ho  Ho6  1  0.709421  0.956986  0.862573  1
  Ho  Ho7  1  0.042590  0.290969  0.637579  1
  Ho  Ho8  1  0.248766  0.513791  0.950098  1
  Ho  Ho9  1  0.485695  0.751074  0.550863  1
  Ho  Ho10  1  0.311039  0.532447  0.654717  1
  Ho  Ho11  1  0.691514  0.466258  0.344794  1
  Re  Re12  1  0.168940  0.360601  0.217262  1
  Re  Re13  1  0.134972  0.915850  0.075117  1
  Re  Re14  1  0.085347  0.865203  0.424548  1
  Re  Re15  1  0.866912  0.083917  0.924527  1
  Re  Re16  1  0.914390  0.133904  0.576464  1
  Si  Si17  1  0.907966  0.092040  0.250205  1
  Si  Si18  1  0.092828  0.907561  0.750074  1
  Si  Si19  1  0.339297  0.660393  0.250281  1
  Si  Si20  1  0.660102  0.339565  0.750450  1
  Si  Si21  1  0.003925  0.229569  0.875505  1
  Si  Si22  1  0.771047  0.995396  0.624593  1
  Si  Si23  1  0.999129  0.770066  0.123093  1
  Si  Si24  1  0.226802  0.006486  0.374984  1
  Si  Si25  1  0.603513  0.048184  0.078805  1
  Si  Si26  1  0.953713  0.393321  0.424145  1
  Si  Si27  1  0.395236  0.953849  0.921851  1
  Si  Si28  1  0.045862  0.605985  0.577163  1
  Si  Si29  1  0.383900  0.159530  0.378163  1
  Si  Si30  1  0.840998  0.616896  0.119483  1
  Si  Si31  1  0.615963  0.841353  0.621415  1
  Si  Si32  1  0.156609  0.385992  0.878831  1
  Ru  Ru33  1  0.636360  0.831934  0.283607  1
  Ru  Ru34  1  0.833676  0.636666  0.781682  1
  Ru  Ru35  1  0.363220  0.166492  0.717756  1
