# generated using pymatgen
data_Sr3NdTi5(Si2O11)2
_symmetry_space_group_name_H-M   'P 1'
_cell_length_a   7.62211301
_cell_length_b   7.62211163
_cell_length_c   12.00367349
_cell_angle_alpha   66.72739150
_cell_angle_beta   113.27260479
_cell_angle_gamma   136.23078355
_symmetry_Int_Tables_number   1
_chemical_formula_structural   Sr3NdTi5(Si2O11)2
_chemical_formula_sum   'Sr3 Nd1 Ti5 Si4 O22'
_cell_volume   436.49616979
_cell_formula_units_Z   1
loop_
 _symmetry_equiv_pos_site_id
 _symmetry_equiv_pos_as_xyz
  1  'x, y, z'
loop_
 _atom_site_type_symbol
 _atom_site_label
 _atom_site_symmetry_multiplicity
 _atom_site_fract_x
 _atom_site_fract_y
 _atom_site_fract_z
 _atom_site_occupancy
  Sr  Sr0  1  0.952338  0.047659  0.259236  1
  Sr  Sr1  1  0.767310  0.232687  0.735983  1
  Sr  Sr2  1  0.233395  0.766602  0.267259  1
  Nd  Nd3  1  0.050253  0.949744  0.746231  1
  Ti  Ti4  1  0.498732  0.501265  0.498618  1
  Ti  Ti5  1  0.240899  0.241677  0.001512  1
  Ti  Ti6  1  0.758324  0.759102  0.001512  1
  Ti  Ti7  1  0.273564  0.726433  0.001945  1
  Ti  Ti8  1  0.722266  0.277731  0.994894  1
  Si  Si9  1  0.845661  0.154335  0.453396  1
  Si  Si10  1  0.157284  0.842713  0.549975  1
  Si  Si11  1  0.408843  0.591154  0.728973  1
  Si  Si12  1  0.593898  0.406098  0.272517  1
  O  O13  1  0.144975  0.855022  0.412044  1
  O  O14  1  0.867219  0.132778  0.595771  1
  O  O15  1  0.281380  0.718617  0.656001  1
  O  O16  1  0.720934  0.279062  0.352195  1
  O  O17  1  0.471969  0.528028  0.643478  1
  O  O18  1  0.531122  0.468875  0.358655  1
  O  O19  1  0.399097  0.600900  0.990299  1
  O  O20  1  0.597912  0.402085  0.005441  1
  O  O21  1  0.093932  0.906065  0.996410  1
  O  O22  1  0.900414  0.099583  0.991990  1
  O  O23  1  0.653373  0.868330  0.414243  1
  O  O24  1  0.873768  0.660176  0.590522  1
  O  O25  1  0.339823  0.126231  0.590522  1
  O  O26  1  0.131668  0.346626  0.414243  1
  O  O27  1  0.542141  0.957931  0.115017  1
  O  O28  1  0.951136  0.555399  0.874510  1
  O  O29  1  0.444599  0.048862  0.874510  1
  O  O30  1  0.042068  0.457858  0.115017  1
  O  O31  1  0.327485  0.202607  0.183733  1
  O  O32  1  0.203715  0.318931  0.814806  1
  O  O33  1  0.681069  0.796285  0.814806  1
  O  O34  1  0.797394  0.672515  0.183733  1
