# generated using pymatgen
data_Li4YTmIn2
_symmetry_space_group_name_H-M   'P 1'
_cell_length_a   4.84169700
_cell_length_b   6.81763700
_cell_length_c   14.50922200
_cell_angle_alpha   90.00002025
_cell_angle_beta   89.99900936
_cell_angle_gamma   89.99997136
_symmetry_Int_Tables_number   1
_chemical_formula_structural   Li4YTmIn2
_chemical_formula_sum   'Li12 Y3 Tm3 In6'
_cell_volume   478.93393119
_cell_formula_units_Z   3
loop_
 _symmetry_equiv_pos_site_id
 _symmetry_equiv_pos_as_xyz
  1  'x, y, z'
loop_
 _atom_site_type_symbol
 _atom_site_label
 _atom_site_symmetry_multiplicity
 _atom_site_fract_x
 _atom_site_fract_y
 _atom_site_fract_z
 _atom_site_occupancy
  Li  Li0  1  0.499998  0.250030  0.000333  1
  Li  Li1  1  0.499997  0.749970  0.000333  1
  Li  Li2  1  0.000568  0.249692  0.166673  1
  Li  Li3  1  0.000568  0.750307  0.166673  1
  Li  Li4  1  0.500547  0.250176  0.333006  1
  Li  Li5  1  0.500547  0.749823  0.333006  1
  Li  Li6  1  0.999998  0.249491  0.499671  1
  Li  Li7  1  0.999997  0.750508  0.499671  1
  Li  Li8  1  0.499439  0.250517  0.666672  1
  Li  Li9  1  0.499439  0.749482  0.666672  1
  Li  Li10  1  0.999438  0.249322  0.833660  1
  Li  Li11  1  0.999437  0.750676  0.833660  1
  Y  Y12  1  0.499997  0.500000  0.500216  1
  Y  Y13  1  0.999408  0.000000  0.666636  1
  Y  Y14  1  0.499410  0.500000  0.833155  1
  Tm  Tm15  1  0.999998  0.000001  0.999795  1
  Tm  Tm16  1  0.500611  0.500000  0.166634  1
  Tm  Tm17  1  0.000615  0.999999  0.333582  1
  In  In18  1  0.999991  0.500000  0.000516  1
  In  In19  1  0.500464  0.000000  0.166536  1
  In  In20  1  0.000443  0.500000  0.332943  1
  In  In21  1  0.499993  0.000000  0.499491  1
  In  In22  1  0.999534  0.500000  0.666539  1
  In  In23  1  0.499568  0.000000  0.833926  1
