# generated using pymatgen
data_TbCoB4Os3
_symmetry_space_group_name_H-M   'P 1'
_cell_length_a   7.48948885
_cell_length_b   7.28407770
_cell_length_c   3.99633100
_cell_angle_alpha   90.00000000
_cell_angle_beta   90.00000000
_cell_angle_gamma   92.27975414
_symmetry_Int_Tables_number   1
_chemical_formula_structural   TbCoB4Os3
_chemical_formula_sum   'Tb2 Co2 B8 Os6'
_cell_volume   217.84335964
_cell_formula_units_Z   2
loop_
 _symmetry_equiv_pos_site_id
 _symmetry_equiv_pos_as_xyz
  1  'x, y, z'
loop_
 _atom_site_type_symbol
 _atom_site_label
 _atom_site_symmetry_multiplicity
 _atom_site_fract_x
 _atom_site_fract_y
 _atom_site_fract_z
 _atom_site_occupancy
  Tb  Tb0  1  0.000000  0.000000  0.967663  1
  Tb  Tb1  1  0.500000  0.500000  0.392496  1
  Co  Co2  1  0.127105  0.615487  0.120798  1
  Co  Co3  1  0.872895  0.384513  0.120798  1
  B  B4  1  0.798077  0.667060  0.119647  1
  B  B5  1  0.201923  0.332940  0.119647  1
  B  B6  1  0.840798  0.312288  0.620517  1
  B  B7  1  0.159202  0.687712  0.620517  1
  B  B8  1  0.720149  0.835052  0.396486  1
  B  B9  1  0.279851  0.164948  0.396486  1
  B  B10  1  0.674928  0.225328  0.899264  1
  B  B11  1  0.325072  0.774672  0.899264  1
  Os  Os12  1  0.396271  0.152358  0.895417  1
  Os  Os13  1  0.603729  0.847642  0.895417  1
  Os  Os14  1  0.346504  0.886130  0.395328  1
  Os  Os15  1  0.653496  0.113870  0.395328  1
  Os  Os16  1  0.120220  0.370909  0.622463  1
  Os  Os17  1  0.879780  0.629091  0.622463  1
