# generated using pymatgen
data_Er20Ir4Rh7Au
_symmetry_space_group_name_H-M   'P 1'
_cell_length_a   10.86733953
_cell_length_b   10.86733953
_cell_length_c   6.30820050
_cell_angle_alpha   89.94472150
_cell_angle_beta   89.94472150
_cell_angle_gamma   89.69574384
_symmetry_Int_Tables_number   1
_chemical_formula_structural   Er20Ir4Rh7Au
_chemical_formula_sum   'Er20 Ir4 Rh7 Au1'
_cell_volume   744.98140936
_cell_formula_units_Z   1
loop_
 _symmetry_equiv_pos_site_id
 _symmetry_equiv_pos_as_xyz
  1  'x, y, z'
loop_
 _atom_site_type_symbol
 _atom_site_label
 _atom_site_symmetry_multiplicity
 _atom_site_fract_x
 _atom_site_fract_y
 _atom_site_fract_z
 _atom_site_occupancy
  Er  Er0  1  0.289396  0.089184  0.376677  1
  Er  Er1  1  0.292898  0.908548  0.876644  1
  Er  Er2  1  0.703286  0.086153  0.866545  1
  Er  Er3  1  0.705037  0.904326  0.380795  1
  Er  Er4  1  0.586895  0.788791  0.879977  1
  Er  Er5  1  0.579318  0.210944  0.378941  1
  Er  Er6  1  0.411467  0.789077  0.379565  1
  Er  Er7  1  0.410006  0.209198  0.879653  1
  Er  Er8  1  0.211209  0.413105  0.620023  1
  Er  Er9  1  0.210923  0.588533  0.120435  1
  Er  Er10  1  0.789056  0.420682  0.121059  1
  Er  Er11  1  0.790802  0.589994  0.620347  1
  Er  Er12  1  0.910816  0.710604  0.123323  1
  Er  Er13  1  0.913847  0.296714  0.633455  1
  Er  Er14  1  0.091452  0.707102  0.623356  1
  Er  Er15  1  0.095674  0.294963  0.119205  1
  Er  Er16  1  0.002211  0.995445  0.501414  1
  Er  Er17  1  0.004555  0.997789  0.998586  1
  Er  Er18  1  0.499304  0.498225  0.999141  1
  Er  Er19  1  0.501775  0.500696  0.500859  1
  Ir  Ir20  1  0.656433  0.343567  0.750000  1
  Ir  Ir21  1  0.655255  0.653552  0.247977  1
  Ir  Ir22  1  0.346448  0.344745  0.252023  1
  Ir  Ir23  1  0.345723  0.654277  0.750000  1
  Rh  Rh24  1  0.847012  0.848076  0.749717  1
  Rh  Rh25  1  0.151924  0.152988  0.750283  1
  Rh  Rh26  1  0.154500  0.845500  0.250000  1
  Rh  Rh27  1  0.499079  0.998815  0.127802  1
  Rh  Rh28  1  0.498816  0.000153  0.624519  1
  Rh  Rh29  1  0.999847  0.501184  0.875481  1
  Rh  Rh30  1  0.001185  0.500921  0.372198  1
  Au  Au31  1  0.843851  0.156149  0.250000  1
