# generated using pymatgen
data_Tb4Ho2TiAl23Ru8
_symmetry_space_group_name_H-M   'P 1'
_cell_length_a   8.82396191
_cell_length_b   8.82396341
_cell_length_c   9.55884900
_cell_angle_alpha   89.99735021
_cell_angle_beta   90.00274952
_cell_angle_gamma   120.05202596
_symmetry_Int_Tables_number   1
_chemical_formula_structural   Tb4Ho2TiAl23Ru8
_chemical_formula_sum   'Tb4 Ho2 Ti1 Al23 Ru8'
_cell_volume   644.22212921
_cell_formula_units_Z   1
loop_
 _symmetry_equiv_pos_site_id
 _symmetry_equiv_pos_as_xyz
  1  'x, y, z'
loop_
 _atom_site_type_symbol
 _atom_site_label
 _atom_site_symmetry_multiplicity
 _atom_site_fract_x
 _atom_site_fract_y
 _atom_site_fract_z
 _atom_site_occupancy
  Tb  Tb0  1  0.193811  0.387616  0.249660  1
  Tb  Tb1  1  0.806723  0.613419  0.748888  1
  Tb  Tb2  1  0.612383  0.806187  0.249660  1
  Tb  Tb3  1  0.386579  0.193276  0.748888  1
  Ho  Ho4  1  0.194035  0.805966  0.249588  1
  Ho  Ho5  1  0.806507  0.193494  0.748845  1
  Ti  Ti6  1  0.333203  0.666797  0.994826  1
  Al  Al7  1  0.666777  0.333225  0.983178  1
  Al  Al8  1  0.666769  0.333231  0.514369  1
  Al  Al9  1  0.333214  0.666786  0.483616  1
  Al  Al10  1  0.161331  0.323136  0.577293  1
  Al  Al11  1  0.838367  0.676335  0.422375  1
  Al  Al12  1  0.676864  0.838669  0.577293  1
  Al  Al13  1  0.837695  0.675065  0.078237  1
  Al  Al14  1  0.323665  0.161634  0.422375  1
  Al  Al15  1  0.158567  0.317473  0.923295  1
  Al  Al16  1  0.161601  0.838400  0.577040  1
  Al  Al17  1  0.324934  0.162305  0.078237  1
  Al  Al18  1  0.838140  0.161859  0.422671  1
  Al  Al19  1  0.682526  0.841432  0.923295  1
  Al  Al20  1  0.837477  0.162524  0.077975  1
  Al  Al21  1  0.158767  0.841233  0.923621  1
  Al  Al22  1  0.561605  0.123602  0.252572  1
  Al  Al23  1  0.440202  0.879979  0.750504  1
  Al  Al24  1  0.876399  0.438396  0.252572  1
  Al  Al25  1  0.120020  0.559799  0.750505  1
  Al  Al26  1  0.561975  0.438024  0.252522  1
  Al  Al27  1  0.439818  0.560184  0.750555  1
  Al  Al28  1  0.000223  0.999777  0.249205  1
  Al  Al29  1  0.999784  0.000216  0.748822  1
  Ru  Ru30  1  0.498200  0.996492  0.002960  1
  Ru  Ru31  1  0.003507  0.501801  0.002962  1
  Ru  Ru32  1  0.499764  0.999421  0.503415  1
  Ru  Ru33  1  0.498287  0.501711  0.002961  1
  Ru  Ru34  1  0.000578  0.500234  0.503417  1
  Ru  Ru35  1  0.499693  0.500307  0.503380  1
  Ru  Ru36  1  0.999991  0.000011  0.999782  1
  Ru  Ru37  1  0.000019  0.999981  0.498638  1
