# generated using pymatgen
data_CaY3Re3B16W
_symmetry_space_group_name_H-M   'P 1'
_cell_length_a   3.61254100
_cell_length_b   6.00944772
_cell_length_c   11.62229738
_cell_angle_alpha   89.95732765
_cell_angle_beta   90.00000000
_cell_angle_gamma   90.00000000
_symmetry_Int_Tables_number   1
_chemical_formula_structural   CaY3Re3B16W
_chemical_formula_sum   'Ca1 Y3 Re3 B16 W1'
_cell_volume   252.31275699
_cell_formula_units_Z   1
loop_
 _symmetry_equiv_pos_site_id
 _symmetry_equiv_pos_as_xyz
  1  'x, y, z'
loop_
 _atom_site_type_symbol
 _atom_site_label
 _atom_site_symmetry_multiplicity
 _atom_site_fract_x
 _atom_site_fract_y
 _atom_site_fract_z
 _atom_site_occupancy
  Ca  Ca0  1  0.000000  0.126770  0.148716  1
  Y  Y1  1  0.000000  0.874288  0.851444  1
  Y  Y2  1  0.000000  0.628676  0.347990  1
  Y  Y3  1  0.000000  0.373906  0.651368  1
  Re  Re4  1  0.000000  0.869747  0.586008  1
  Re  Re5  1  0.000000  0.632109  0.084155  1
  Re  Re6  1  0.000000  0.369413  0.913086  1
  B  B7  1  0.500000  0.477737  0.190854  1
  B  B8  1  0.500000  0.522995  0.808157  1
  B  B9  1  0.500000  0.974460  0.306640  1
  B  B10  1  0.500000  0.022903  0.693549  1
  B  B11  1  0.500000  0.287994  0.313625  1
  B  B12  1  0.500000  0.713573  0.685685  1
  B  B13  1  0.500000  0.784044  0.183373  1
  B  B14  1  0.500000  0.214062  0.816032  1
  B  B15  1  0.500000  0.366438  0.469371  1
  B  B16  1  0.500000  0.635647  0.533045  1
  B  B17  1  0.500000  0.862948  0.030876  1
  B  B18  1  0.500000  0.136755  0.968058  1
  B  B19  1  0.500000  0.384978  0.047028  1
  B  B20  1  0.500000  0.612605  0.952892  1
  B  B21  1  0.500000  0.883435  0.453746  1
  B  B22  1  0.500000  0.112702  0.549181  1
  W  W23  1  0.000000  0.131811  0.415121  1
