# generated using pymatgen
data_Ce2Zn6AsP5
_symmetry_space_group_name_H-M   'P 1'
_cell_length_a   4.06972200
_cell_length_b   4.06972181
_cell_length_c   20.05139900
_cell_angle_alpha   90.00000000
_cell_angle_beta   90.00000000
_cell_angle_gamma   119.99998526
_symmetry_Int_Tables_number   1
_chemical_formula_structural   Ce2Zn6AsP5
_chemical_formula_sum   'Ce2 Zn6 As1 P5'
_cell_volume   287.61057016
_cell_formula_units_Z   1
loop_
 _symmetry_equiv_pos_site_id
 _symmetry_equiv_pos_as_xyz
  1  'x, y, z'
loop_
 _atom_site_type_symbol
 _atom_site_label
 _atom_site_symmetry_multiplicity
 _atom_site_fract_x
 _atom_site_fract_y
 _atom_site_fract_z
 _atom_site_occupancy
  Ce  Ce0  1  0.000000  0.000000  0.000122  1
  Ce  Ce1  1  0.000000  0.000000  0.495626  1
  Zn  Zn2  1  0.333333  0.666667  0.751083  1
  Zn  Zn3  1  0.666667  0.333333  0.249487  1
  Zn  Zn4  1  0.333333  0.666667  0.128345  1
  Zn  Zn5  1  0.666667  0.333333  0.872622  1
  Zn  Zn6  1  0.666667  0.333333  0.631847  1
  Zn  Zn7  1  0.333333  0.666667  0.370392  1
  As  As8  1  0.333333  0.666667  0.586376  1
  P  P9  1  0.666667  0.333333  0.412069  1
  P  P10  1  0.666667  0.333333  0.086255  1
  P  P11  1  0.333333  0.666667  0.914284  1
  P  P12  1  0.333333  0.666667  0.249605  1
  P  P13  1  0.666667  0.333333  0.751888  1
