# generated using pymatgen
data_Pr2Er(LuSn2)2
_symmetry_space_group_name_H-M   'P 1'
_cell_length_a   8.03082700
_cell_length_b   8.24260700
_cell_length_c   15.47321900
_cell_angle_alpha   90.00000000
_cell_angle_beta   90.00000000
_cell_angle_gamma   90.00000000
_symmetry_Int_Tables_number   1
_chemical_formula_structural   Pr2Er(LuSn2)2
_chemical_formula_sum   'Pr8 Er4 Lu8 Sn16'
_cell_volume   1024.24897113
_cell_formula_units_Z   4
loop_
 _symmetry_equiv_pos_site_id
 _symmetry_equiv_pos_as_xyz
  1  'x, y, z'
loop_
 _atom_site_type_symbol
 _atom_site_label
 _atom_site_symmetry_multiplicity
 _atom_site_fract_x
 _atom_site_fract_y
 _atom_site_fract_z
 _atom_site_occupancy
  Pr  Pr0  1  0.509380  0.324517  0.903981  1
  Pr  Pr1  1  0.009380  0.175483  0.596019  1
  Pr  Pr2  1  0.490620  0.675483  0.403981  1
  Pr  Pr3  1  0.990620  0.824517  0.096019  1
  Pr  Pr4  1  0.490258  0.675384  0.096032  1
  Pr  Pr5  1  0.990258  0.824616  0.403968  1
  Pr  Pr6  1  0.509742  0.324616  0.596032  1
  Pr  Pr7  1  0.009742  0.175384  0.903968  1
  Er  Er8  1  0.349143  0.835549  0.875152  1
  Er  Er9  1  0.849143  0.664451  0.624848  1
  Er  Er10  1  0.650857  0.164451  0.375152  1
  Er  Er11  1  0.150857  0.335549  0.124848  1
  Lu  Lu12  1  0.651289  0.164486  0.125072  1
  Lu  Lu13  1  0.151289  0.335514  0.374928  1
  Lu  Lu14  1  0.348711  0.835514  0.625072  1
  Lu  Lu15  1  0.848711  0.664486  0.874928  1
  Lu  Lu16  1  0.181280  0.502749  0.749848  1
  Lu  Lu17  1  0.681280  0.997251  0.750152  1
  Lu  Lu18  1  0.818720  0.497251  0.249848  1
  Lu  Lu19  1  0.318720  0.002749  0.250152  1
  Sn  Sn20  1  0.316287  0.041617  0.042472  1
  Sn  Sn21  1  0.816287  0.458383  0.457528  1
  Sn  Sn22  1  0.683713  0.958383  0.542472  1
  Sn  Sn23  1  0.183713  0.541617  0.957528  1
  Sn  Sn24  1  0.686809  0.958392  0.958421  1
  Sn  Sn25  1  0.186809  0.541608  0.541579  1
  Sn  Sn26  1  0.313191  0.041608  0.458421  1
  Sn  Sn27  1  0.813191  0.458392  0.041579  1
  Sn  Sn28  1  0.545829  0.624448  0.749886  1
  Sn  Sn29  1  0.045829  0.875552  0.750114  1
  Sn  Sn30  1  0.454171  0.375552  0.249886  1
  Sn  Sn31  1  0.954171  0.124448  0.250114  1
  Sn  Sn32  1  0.316151  0.144861  0.749576  1
  Sn  Sn33  1  0.816151  0.355139  0.750424  1
  Sn  Sn34  1  0.683849  0.855139  0.249576  1
  Sn  Sn35  1  0.183849  0.644861  0.250424  1
