# generated using pymatgen
data_La6Nd4Sn20Ir5Rh3
_symmetry_space_group_name_H-M   'P 1'
_cell_length_a   14.25885807
_cell_length_b   14.25616407
_cell_length_c   4.69318400
_cell_angle_alpha   90.00000000
_cell_angle_beta   90.00000000
_cell_angle_gamma   90.01122807
_symmetry_Int_Tables_number   1
_chemical_formula_structural   La6Nd4Sn20Ir5Rh3
_chemical_formula_sum   'La6 Nd4 Sn20 Ir5 Rh3'
_cell_volume   954.01456249
_cell_formula_units_Z   1
loop_
 _symmetry_equiv_pos_site_id
 _symmetry_equiv_pos_as_xyz
  1  'x, y, z'
loop_
 _atom_site_type_symbol
 _atom_site_label
 _atom_site_symmetry_multiplicity
 _atom_site_fract_x
 _atom_site_fract_y
 _atom_site_fract_z
 _atom_site_occupancy
  La  La0  1  0.500027  0.500052  0.000000  1
  La  La1  1  0.999685  0.000109  0.000000  1
  La  La2  1  0.887758  0.387075  0.500000  1
  La  La3  1  0.112151  0.612880  0.500000  1
  La  La4  1  0.387937  0.112976  0.500000  1
  La  La5  1  0.612686  0.887469  0.500000  1
  Nd  Nd6  1  0.677228  0.176829  0.500000  1
  Nd  Nd7  1  0.323672  0.822222  0.500000  1
  Nd  Nd8  1  0.176281  0.322199  0.500000  1
  Nd  Nd9  1  0.823415  0.677549  0.500000  1
  Sn  Sn10  1  0.569743  0.069745  0.000000  1
  Sn  Sn11  1  0.429871  0.930595  0.000000  1
  Sn  Sn12  1  0.070164  0.430680  0.000000  1
  Sn  Sn13  1  0.929734  0.569383  0.000000  1
  Sn  Sn14  1  0.654893  0.697954  0.000000  1
  Sn  Sn15  1  0.344891  0.301895  0.000000  1
  Sn  Sn16  1  0.155003  0.802007  0.000000  1
  Sn  Sn17  1  0.844998  0.198420  0.000000  1
  Sn  Sn18  1  0.301980  0.654327  0.000000  1
  Sn  Sn19  1  0.697955  0.345665  0.000000  1
  Sn  Sn20  1  0.198040  0.154368  0.000000  1
  Sn  Sn21  1  0.801822  0.844991  0.000000  1
  Sn  Sn22  1  0.664421  0.505195  0.500000  1
  Sn  Sn23  1  0.335474  0.494854  0.500000  1
  Sn  Sn24  1  0.164467  0.994784  0.500000  1
  Sn  Sn25  1  0.836379  0.005342  0.500000  1
  Sn  Sn26  1  0.494601  0.663542  0.500000  1
  Sn  Sn27  1  0.505469  0.336329  0.500000  1
  Sn  Sn28  1  0.005324  0.163468  0.500000  1
  Sn  Sn29  1  0.994561  0.836447  0.500000  1
  Ir  Ir30  1  0.753469  0.028313  0.000000  1
  Ir  Ir31  1  0.471602  0.746634  0.000000  1
  Ir  Ir32  1  0.528433  0.253453  0.000000  1
  Ir  Ir33  1  0.028483  0.246681  0.000000  1
  Ir  Ir34  1  0.971566  0.753485  0.000000  1
  Rh  Rh35  1  0.745771  0.528002  0.000000  1
  Rh  Rh36  1  0.254274  0.471997  0.000000  1
  Rh  Rh37  1  0.245769  0.972086  0.000000  1
