# generated using pymatgen
data_Sc2Fe9P7Ru3
_symmetry_space_group_name_H-M   'P 1'
_cell_length_a   8.90660304
_cell_length_b   8.90992875
_cell_length_c   3.68042100
_cell_angle_alpha   90.00000000
_cell_angle_beta   90.00000000
_cell_angle_gamma   119.99844699
_symmetry_Int_Tables_number   1
_chemical_formula_structural   Sc2Fe9P7Ru3
_chemical_formula_sum   'Sc2 Fe9 P7 Ru3'
_cell_volume   252.94217919
_cell_formula_units_Z   1
loop_
 _symmetry_equiv_pos_site_id
 _symmetry_equiv_pos_as_xyz
  1  'x, y, z'
loop_
 _atom_site_type_symbol
 _atom_site_label
 _atom_site_symmetry_multiplicity
 _atom_site_fract_x
 _atom_site_fract_y
 _atom_site_fract_z
 _atom_site_occupancy
  Sc  Sc0  1  0.333158  0.666691  0.000000  1
  Sc  Sc1  1  0.666717  0.333356  0.500001  1
  Fe  Fe2  1  0.159987  0.279057  0.000000  1
  Fe  Fe3  1  0.721011  0.880894  0.000000  1
  Fe  Fe4  1  0.119125  0.840064  0.000000  1
  Fe  Fe5  1  0.561028  0.948653  0.500001  1
  Fe  Fe6  1  0.051352  0.612459  0.500001  1
  Fe  Fe7  1  0.387529  0.438893  0.500001  1
  Fe  Fe8  1  0.630445  0.571846  0.000000  1
  Fe  Fe9  1  0.428093  0.058510  0.000000  1
  Fe  Fe10  1  0.941526  0.369562  0.000000  1
  P  P11  1  0.696551  0.116896  0.000000  1
  P  P12  1  0.883155  0.579673  0.000000  1
  P  P13  1  0.420385  0.303434  0.000000  1
  P  P14  1  0.123402  0.412528  0.500001  1
  P  P15  1  0.587371  0.710749  0.500001  1
  P  P16  1  0.289169  0.876659  0.500001  1
  P  P17  1  0.999988  0.000001  0.000000  1
  Ru  Ru18  1  0.903671  0.121604  0.500001  1
  Ru  Ru19  1  0.878428  0.782129  0.500001  1
  Ru  Ru20  1  0.217909  0.096339  0.500001  1
