# generated using pymatgen
data_DyMgB6Os
_symmetry_space_group_name_H-M   'P 1'
_cell_length_a   3.57615800
_cell_length_b   8.90185900
_cell_length_c   11.27207400
_cell_angle_alpha   90.00000000
_cell_angle_beta   90.00000000
_cell_angle_gamma   90.00000000
_symmetry_Int_Tables_number   1
_chemical_formula_structural   DyMgB6Os
_chemical_formula_sum   'Dy4 Mg4 B24 Os4'
_cell_volume   358.84032437
_cell_formula_units_Z   4
loop_
 _symmetry_equiv_pos_site_id
 _symmetry_equiv_pos_as_xyz
  1  'x, y, z'
loop_
 _atom_site_type_symbol
 _atom_site_label
 _atom_site_symmetry_multiplicity
 _atom_site_fract_x
 _atom_site_fract_y
 _atom_site_fract_z
 _atom_site_occupancy
  Dy  Dy0  1  0.000000  0.323621  0.413576  1
  Dy  Dy1  1  0.000000  0.676379  0.586424  1
  Dy  Dy2  1  0.000000  0.823621  0.086424  1
  Dy  Dy3  1  0.000000  0.176379  0.913576  1
  Mg  Mg4  1  0.000000  0.943980  0.371770  1
  Mg  Mg5  1  0.000000  0.056020  0.628230  1
  Mg  Mg6  1  0.000000  0.443980  0.128230  1
  Mg  Mg7  1  0.000000  0.556020  0.871770  1
  B  B8  1  0.500000  0.555923  0.432130  1
  B  B9  1  0.500000  0.444077  0.567870  1
  B  B10  1  0.500000  0.055923  0.067870  1
  B  B11  1  0.500000  0.944077  0.932130  1
  B  B12  1  0.500000  0.755261  0.418059  1
  B  B13  1  0.500000  0.244739  0.581941  1
  B  B14  1  0.500000  0.255261  0.081941  1
  B  B15  1  0.500000  0.744739  0.918059  1
  B  B16  1  0.500000  0.793598  0.263332  1
  B  B17  1  0.500000  0.206402  0.736667  1
  B  B18  1  0.500000  0.293598  0.236668  1
  B  B19  1  0.500000  0.706402  0.763333  1
  B  B20  1  0.500000  0.627742  0.182382  1
  B  B21  1  0.500000  0.372258  0.817618  1
  B  B22  1  0.500000  0.127742  0.317618  1
  B  B23  1  0.500000  0.872258  0.682382  1
  B  B24  1  0.500000  0.981193  0.213326  1
  B  B25  1  0.500000  0.018807  0.786674  1
  B  B26  1  0.500000  0.481193  0.286674  1
  B  B27  1  0.500000  0.518807  0.713326  1
  B  B28  1  0.500000  0.592430  0.025377  1
  B  B29  1  0.500000  0.407570  0.974623  1
  B  B30  1  0.500000  0.092430  0.474623  1
  B  B31  1  0.500000  0.907570  0.525377  1
  Os  Os32  1  0.000000  0.640950  0.318056  1
  Os  Os33  1  0.000000  0.359050  0.681944  1
  Os  Os34  1  0.000000  0.140950  0.181944  1
  Os  Os35  1  0.000000  0.859050  0.818056  1
