# generated using pymatgen
data_Th6Bi3Sb5Pt6
_symmetry_space_group_name_H-M   'P 1'
_cell_length_a   8.67420763
_cell_length_b   8.67420783
_cell_length_c   8.67420776
_cell_angle_alpha   109.39959055
_cell_angle_beta   109.39959069
_cell_angle_gamma   109.39959355
_symmetry_Int_Tables_number   1
_chemical_formula_structural   Th6Bi3Sb5Pt6
_chemical_formula_sum   'Th6 Bi3 Sb5 Pt6'
_cell_volume   503.74875993
_cell_formula_units_Z   1
loop_
 _symmetry_equiv_pos_site_id
 _symmetry_equiv_pos_as_xyz
  1  'x, y, z'
loop_
 _atom_site_type_symbol
 _atom_site_label
 _atom_site_symmetry_multiplicity
 _atom_site_fract_x
 _atom_site_fract_y
 _atom_site_fract_z
 _atom_site_occupancy
  Th  Th0  1  0.879146  0.248850  0.128100  1
  Th  Th1  1  0.622433  0.750188  0.373957  1
  Th  Th2  1  0.248850  0.128100  0.879146  1
  Th  Th3  1  0.750188  0.373957  0.622433  1
  Th  Th4  1  0.128100  0.879146  0.248850  1
  Th  Th5  1  0.373957  0.622433  0.750188  1
  Bi  Bi6  1  0.676561  0.499351  0.999585  1
  Bi  Bi7  1  0.499351  0.999585  0.676561  1
  Bi  Bi8  1  0.999585  0.676561  0.499351  1
  Sb  Sb9  1  0.827963  0.827963  0.827963  1
  Sb  Sb10  1  0.499623  0.998731  0.171447  1
  Sb  Sb11  1  0.171447  0.499623  0.998731  1
  Sb  Sb12  1  0.998731  0.171447  0.499623  1
  Sb  Sb13  1  0.327782  0.327782  0.327782  1
  Pt  Pt14  1  0.367867  0.250044  0.618120  1
  Pt  Pt15  1  0.126668  0.751698  0.881885  1
  Pt  Pt16  1  0.250044  0.618120  0.367867  1
  Pt  Pt17  1  0.751698  0.881885  0.126668  1
  Pt  Pt18  1  0.618120  0.367867  0.250044  1
  Pt  Pt19  1  0.881885  0.126668  0.751698  1
