# generated using pymatgen
data_Ce5Sm3BeAl8Ru7
_symmetry_space_group_name_H-M   'P 1'
_cell_length_a   4.16141900
_cell_length_b   7.16474324
_cell_length_c   15.78412970
_cell_angle_alpha   90.79437013
_cell_angle_beta   90.00000000
_cell_angle_gamma   90.00000000
_symmetry_Int_Tables_number   1
_chemical_formula_structural   Ce5Sm3BeAl8Ru7
_chemical_formula_sum   'Ce5 Sm3 Be1 Al8 Ru7'
_cell_volume   470.56646760
_cell_formula_units_Z   1
loop_
 _symmetry_equiv_pos_site_id
 _symmetry_equiv_pos_as_xyz
  1  'x, y, z'
loop_
 _atom_site_type_symbol
 _atom_site_label
 _atom_site_symmetry_multiplicity
 _atom_site_fract_x
 _atom_site_fract_y
 _atom_site_fract_z
 _atom_site_occupancy
  Ce  Ce0  1  0.750000  0.958514  0.215926  1
  Ce  Ce1  1  0.750000  0.831927  0.437636  1
  Ce  Ce2  1  0.750000  0.456630  0.282069  1
  Ce  Ce3  1  0.750000  0.331566  0.061828  1
  Ce  Ce4  1  0.250000  0.526532  0.716347  1
  Sm  Sm5  1  0.250000  0.160245  0.559414  1
  Sm  Sm6  1  0.250000  0.662099  0.938939  1
  Sm  Sm7  1  0.250000  0.041047  0.779976  1
  Be  Be8  1  0.750000  0.748746  0.811494  1
  Al  Al9  1  0.750000  0.498559  0.559608  1
  Al  Al10  1  0.750000  0.358236  0.852714  1
  Al  Al11  1  0.750000  0.994373  0.936749  1
  Al  Al12  1  0.750000  0.861564  0.652123  1
  Al  Al13  1  0.250000  0.495039  0.436832  1
  Al  Al14  1  0.250000  0.992674  0.062612  1
  Al  Al15  1  0.250000  0.634450  0.152335  1
  Al  Al16  1  0.250000  0.133663  0.345894  1
  Ru  Ru17  1  0.250000  0.237342  0.941747  1
  Ru  Ru18  1  0.750000  0.272150  0.422991  1
  Ru  Ru19  1  0.250000  0.762103  0.321594  1
  Ru  Ru20  1  0.750000  0.775393  0.078020  1
  Ru  Ru21  1  0.750000  0.267459  0.686528  1
  Ru  Ru22  1  0.250000  0.264832  0.178845  1
  Ru  Ru23  1  0.250000  0.734853  0.567781  1
