# generated using pymatgen
data_Li4La6Pd13
_symmetry_space_group_name_H-M   'P 1'
_cell_length_a   8.48122126
_cell_length_b   8.48122248
_cell_length_c   8.48122200
_cell_angle_alpha   109.47121949
_cell_angle_beta   109.47122240
_cell_angle_gamma   109.47122271
_symmetry_Int_Tables_number   1
_chemical_formula_structural   Li4La6Pd13
_chemical_formula_sum   'Li4 La6 Pd13'
_cell_volume   469.62734321
_cell_formula_units_Z   1
loop_
 _symmetry_equiv_pos_site_id
 _symmetry_equiv_pos_as_xyz
  1  'x, y, z'
loop_
 _atom_site_type_symbol
 _atom_site_label
 _atom_site_symmetry_multiplicity
 _atom_site_fract_x
 _atom_site_fract_y
 _atom_site_fract_z
 _atom_site_occupancy
  Li  Li0  1  0.500000  0.000000  0.000000  1
  Li  Li1  1  0.000000  0.500000  0.000000  1
  Li  Li2  1  0.000000  0.000000  0.500000  1
  Li  Li3  1  0.500000  0.500000  0.500000  1
  La  La4  1  0.307444  0.307444  0.000000  1
  La  La5  1  0.692557  0.692557  0.000000  1
  La  La6  1  0.307444  0.000000  0.307444  1
  La  La7  1  0.000000  0.307444  0.307444  1
  La  La8  1  0.692557  0.000000  0.692557  1
  La  La9  1  0.000000  0.692557  0.692557  1
  Pd  Pd10  1  0.000000  0.000000  0.000000  1
  Pd  Pd11  1  0.664651  0.335349  0.000000  1
  Pd  Pd12  1  0.335349  0.664651  0.000000  1
  Pd  Pd13  1  0.664651  0.664651  0.329302  1
  Pd  Pd14  1  0.670697  0.335349  0.335349  1
  Pd  Pd15  1  0.335349  0.670697  0.335349  1
  Pd  Pd16  1  0.664651  0.000000  0.335349  1
  Pd  Pd17  1  0.000000  0.664651  0.335349  1
  Pd  Pd18  1  0.335349  0.000000  0.664651  1
  Pd  Pd19  1  0.664651  0.329302  0.664651  1
  Pd  Pd20  1  0.000000  0.335349  0.664651  1
  Pd  Pd21  1  0.329302  0.664651  0.664651  1
  Pd  Pd22  1  0.335349  0.335349  0.670697  1
