# generated using pymatgen
data_LiGdPdPb
_symmetry_space_group_name_H-M   'P 1'
_cell_length_a   4.87960311
_cell_length_b   4.87960280
_cell_length_c   4.87960200
_cell_angle_alpha   90.00000000
_cell_angle_beta   59.99999399
_cell_angle_gamma   119.99999809
_symmetry_Int_Tables_number   1
_chemical_formula_structural   LiGdPdPb
_chemical_formula_sum   'Li1 Gd1 Pd1 Pb1'
_cell_volume   82.15582246
_cell_formula_units_Z   1
loop_
 _symmetry_equiv_pos_site_id
 _symmetry_equiv_pos_as_xyz
  1  'x, y, z'
loop_
 _atom_site_type_symbol
 _atom_site_label
 _atom_site_symmetry_multiplicity
 _atom_site_fract_x
 _atom_site_fract_y
 _atom_site_fract_z
 _atom_site_occupancy
  Li  Li0  1  0.500000  0.750000  0.750000  1
  Gd  Gd1  1  0.000000  0.500000  0.500000  1
  Pd  Pd2  1  0.500000  0.250000  0.250000  1
  Pb  Pb3  1  0.000000  0.000000  0.000000  1
