# generated using pymatgen
data_La3Sm2(Sn5Pd2)2
_symmetry_space_group_name_H-M   'P 1'
_cell_length_a   14.34647000
_cell_length_b   14.34647000
_cell_length_c   4.68412400
_cell_angle_alpha   90.00000000
_cell_angle_beta   90.00000000
_cell_angle_gamma   90.00000000
_symmetry_Int_Tables_number   1
_chemical_formula_structural   La3Sm2(Sn5Pd2)2
_chemical_formula_sum   'La6 Sm4 Sn20 Pd8'
_cell_volume   964.09202947
_cell_formula_units_Z   2
loop_
 _symmetry_equiv_pos_site_id
 _symmetry_equiv_pos_as_xyz
  1  'x, y, z'
loop_
 _atom_site_type_symbol
 _atom_site_label
 _atom_site_symmetry_multiplicity
 _atom_site_fract_x
 _atom_site_fract_y
 _atom_site_fract_z
 _atom_site_occupancy
  La  La0  1  0.500000  0.500000  0.000000  1
  La  La1  1  0.000000  0.000000  0.000000  1
  La  La2  1  0.890027  0.390027  0.500000  1
  La  La3  1  0.109973  0.609973  0.500000  1
  La  La4  1  0.390027  0.109973  0.500000  1
  La  La5  1  0.609973  0.890027  0.500000  1
  Sm  Sm6  1  0.677813  0.177813  0.500000  1
  Sm  Sm7  1  0.322187  0.822187  0.500000  1
  Sm  Sm8  1  0.177813  0.322187  0.500000  1
  Sm  Sm9  1  0.822187  0.677813  0.500000  1
  Sn  Sn10  1  0.569364  0.069364  0.000000  1
  Sn  Sn11  1  0.430636  0.930636  0.000000  1
  Sn  Sn12  1  0.069364  0.430636  0.000000  1
  Sn  Sn13  1  0.930636  0.569364  0.000000  1
  Sn  Sn14  1  0.655247  0.699414  0.000000  1
  Sn  Sn15  1  0.344753  0.300586  0.000000  1
  Sn  Sn16  1  0.155247  0.800586  0.000000  1
  Sn  Sn17  1  0.844753  0.199414  0.000000  1
  Sn  Sn18  1  0.300586  0.655247  0.000000  1
  Sn  Sn19  1  0.699414  0.344753  0.000000  1
  Sn  Sn20  1  0.199414  0.155247  0.000000  1
  Sn  Sn21  1  0.800586  0.844753  0.000000  1
  Sn  Sn22  1  0.662816  0.503344  0.500000  1
  Sn  Sn23  1  0.337184  0.496656  0.500000  1
  Sn  Sn24  1  0.162816  0.996656  0.500000  1
  Sn  Sn25  1  0.837184  0.003344  0.500000  1
  Sn  Sn26  1  0.496656  0.662816  0.500000  1
  Sn  Sn27  1  0.503344  0.337184  0.500000  1
  Sn  Sn28  1  0.003344  0.162816  0.500000  1
  Sn  Sn29  1  0.996656  0.837184  0.500000  1
  Pd  Pd30  1  0.745799  0.529561  0.000000  1
  Pd  Pd31  1  0.254201  0.470439  0.000000  1
  Pd  Pd32  1  0.245799  0.970439  0.000000  1
  Pd  Pd33  1  0.754201  0.029561  0.000000  1
  Pd  Pd34  1  0.470439  0.745799  0.000000  1
  Pd  Pd35  1  0.529561  0.254201  0.000000  1
  Pd  Pd36  1  0.029561  0.245799  0.000000  1
  Pd  Pd37  1  0.970439  0.754201  0.000000  1
