# generated using pymatgen
data_Pr3Mg2CdGa2Au
_symmetry_space_group_name_H-M   'P 1'
_cell_length_a   7.57435713
_cell_length_b   7.62059314
_cell_length_c   4.48165500
_cell_angle_alpha   90.00000000
_cell_angle_beta   90.00000000
_cell_angle_gamma   120.20213360
_symmetry_Int_Tables_number   1
_chemical_formula_structural   Pr3Mg2CdGa2Au
_chemical_formula_sum   'Pr3 Mg2 Cd1 Ga2 Au1'
_cell_volume   223.57097115
_cell_formula_units_Z   1
loop_
 _symmetry_equiv_pos_site_id
 _symmetry_equiv_pos_as_xyz
  1  'x, y, z'
loop_
 _atom_site_type_symbol
 _atom_site_label
 _atom_site_symmetry_multiplicity
 _atom_site_fract_x
 _atom_site_fract_y
 _atom_site_fract_z
 _atom_site_occupancy
  Pr  Pr0  1  0.000000  0.420512  0.000000  1
  Pr  Pr1  1  0.587190  0.585842  0.000000  1
  Pr  Pr2  1  0.412810  0.998652  0.000000  1
  Mg  Mg3  1  0.238362  0.236759  0.500000  1
  Mg  Mg4  1  0.761638  0.998397  0.500000  1
  Cd  Cd5  1  0.000000  0.752882  0.500000  1
  Ga  Ga6  1  0.336393  0.665814  0.500000  1
  Ga  Ga7  1  0.663607  0.329420  0.500000  1
  Au  Au8  1  0.000000  0.011722  0.000000  1
