# generated using pymatgen
data_Dy3TaBi3SbO14
_symmetry_space_group_name_H-M   'P 1'
_cell_length_a   6.46798534
_cell_length_b   6.70151168
_cell_length_c   7.64165228
_cell_angle_alpha   106.59834769
_cell_angle_beta   89.42386935
_cell_angle_gamma   98.37829228
_symmetry_Int_Tables_number   1
_chemical_formula_structural   Dy3TaBi3SbO14
_chemical_formula_sum   'Dy3 Ta1 Bi3 Sb1 O14'
_cell_volume   313.86565303
_cell_formula_units_Z   1
loop_
 _symmetry_equiv_pos_site_id
 _symmetry_equiv_pos_as_xyz
  1  'x, y, z'
loop_
 _atom_site_type_symbol
 _atom_site_label
 _atom_site_symmetry_multiplicity
 _atom_site_fract_x
 _atom_site_fract_y
 _atom_site_fract_z
 _atom_site_occupancy
  Dy  Dy0  1  0.546914  0.995732  0.751047  1
  Dy  Dy1  1  0.456859  0.002743  0.252560  1
  Dy  Dy2  1  0.256303  0.532271  0.882299  1
  Ta  Ta3  1  0.003678  0.007572  0.502291  1
  Bi  Bi4  1  0.744740  0.481484  0.118059  1
  Bi  Bi5  1  0.727062  0.460149  0.612345  1
  Bi  Bi6  1  0.262345  0.534531  0.389389  1
  Sb  Sb7  1  0.004292  0.000788  0.999580  1
  O  O8  1  0.441745  0.650792  0.167009  1
  O  O9  1  0.543171  0.345086  0.823233  1
  O  O10  1  0.294542  0.930203  0.951700  1
  O  O11  1  0.708380  0.042973  0.047512  1
  O  O12  1  0.288316  0.926349  0.515739  1
  O  O13  1  0.712464  0.078978  0.487462  1
  O  O14  1  0.527888  0.353607  0.347430  1
  O  O15  1  0.457558  0.645056  0.659569  1
  O  O16  1  0.936827  0.681709  0.955326  1
  O  O17  1  0.085492  0.310981  0.034963  1
  O  O18  1  0.095244  0.311783  0.622402  1
  O  O19  1  0.901155  0.702246  0.379382  1
  O  O20  1  0.906971  0.947889  0.736601  1
  O  O21  1  0.098055  0.057079  0.264100  1
