# generated using pymatgen
data_LaPr3Zn4Pd3Ru
_symmetry_space_group_name_H-M   'P 1'
_cell_length_a   7.23521073
_cell_length_b   4.31141900
_cell_length_c   8.26650321
_cell_angle_alpha   90.00000000
_cell_angle_beta   90.38605269
_cell_angle_gamma   90.00000000
_symmetry_Int_Tables_number   1
_chemical_formula_structural   LaPr3Zn4Pd3Ru
_chemical_formula_sum   'La1 Pr3 Zn4 Pd3 Ru1'
_cell_volume   257.85965465
_cell_formula_units_Z   1
loop_
 _symmetry_equiv_pos_site_id
 _symmetry_equiv_pos_as_xyz
  1  'x, y, z'
loop_
 _atom_site_type_symbol
 _atom_site_label
 _atom_site_symmetry_multiplicity
 _atom_site_fract_x
 _atom_site_fract_y
 _atom_site_fract_z
 _atom_site_occupancy
  La  La0  1  0.459989  0.750000  0.793503  1
  Pr  Pr1  1  0.039640  0.250000  0.317099  1
  Pr  Pr2  1  0.532613  0.250000  0.193567  1
  Pr  Pr3  1  0.974487  0.750000  0.694147  1
  Zn  Zn4  1  0.647719  0.250000  0.565006  1
  Zn  Zn5  1  0.151543  0.250000  0.930280  1
  Zn  Zn6  1  0.346906  0.750000  0.428757  1
  Zn  Zn7  1  0.850742  0.750000  0.070795  1
  Pd  Pd8  1  0.769341  0.250000  0.891822  1
  Pd  Pd9  1  0.731851  0.750000  0.388563  1
  Pd  Pd10  1  0.228832  0.750000  0.110222  1
  Ru  Ru11  1  0.266338  0.250000  0.616241  1
