# generated using pymatgen
data_Ba2Co3F12
_symmetry_space_group_name_H-M   'P 1'
_cell_length_a   5.42229753
_cell_length_b   7.07307058
_cell_length_c   7.51858200
_cell_angle_alpha   66.59022043
_cell_angle_beta   70.25289640
_cell_angle_gamma   72.42736846
_symmetry_Int_Tables_number   1
_chemical_formula_structural   Ba2Co3F12
_chemical_formula_sum   'Ba2 Co3 F12'
_cell_volume   244.31967710
_cell_formula_units_Z   1
loop_
 _symmetry_equiv_pos_site_id
 _symmetry_equiv_pos_as_xyz
  1  'x, y, z'
loop_
 _atom_site_type_symbol
 _atom_site_label
 _atom_site_symmetry_multiplicity
 _atom_site_fract_x
 _atom_site_fract_y
 _atom_site_fract_z
 _atom_site_occupancy
  Ba  Ba0  1  0.282724  0.210494  0.232521  1
  Ba  Ba1  1  0.723307  0.787112  0.770617  1
  Co  Co2  1  0.497406  0.503148  0.502325  1
  Co  Co3  1  0.050242  0.779485  0.164239  1
  Co  Co4  1  0.951499  0.224788  0.826941  1
  F  F5  1  0.541782  0.235654  0.496646  1
  F  F6  1  0.460901  0.774711  0.497461  1
  F  F7  1  0.389453  0.609383  0.240830  1
  F  F8  1  0.595151  0.399970  0.759659  1
  F  F9  1  0.880330  0.531071  0.341206  1
  F  F10  1  0.125445  0.485785  0.654576  1
  F  F11  1  0.835709  0.345199  0.045274  1
  F  F12  1  0.161123  0.657897  0.965504  1
  F  F13  1  0.748331  0.962678  0.047458  1
  F  F14  1  0.252801  0.008338  0.968329  1
  F  F15  1  0.971396  0.901699  0.355928  1
  F  F16  1  0.032400  0.082594  0.630485  1
