# generated using pymatgen
data_Ca2ScPaN4
_symmetry_space_group_name_H-M   'P 1'
_cell_length_a   5.94733850
_cell_length_b   5.94769905
_cell_length_c   4.87221701
_cell_angle_alpha   65.82597761
_cell_angle_beta   65.82411693
_cell_angle_gamma   48.35950722
_symmetry_Int_Tables_number   1
_chemical_formula_structural   Ca2ScPaN4
_chemical_formula_sum   'Ca2 Sc1 Pa1 N4'
_cell_volume   115.09118080
_cell_formula_units_Z   1
loop_
 _symmetry_equiv_pos_site_id
 _symmetry_equiv_pos_as_xyz
  1  'x, y, z'
loop_
 _atom_site_type_symbol
 _atom_site_label
 _atom_site_symmetry_multiplicity
 _atom_site_fract_x
 _atom_site_fract_y
 _atom_site_fract_z
 _atom_site_occupancy
  Ca  Ca0  1  0.247114  0.252886  0.252886  1
  Ca  Ca1  1  0.497203  0.502797  0.502797  1
  Sc  Sc2  1  0.747440  0.752560  0.752560  1
  Pa  Pa3  1  0.997231  0.002769  0.002769  1
  N  N4  1  0.977315  0.982592  0.523980  1
  N  N5  1  0.221805  0.229118  0.777364  1
  N  N6  1  0.516113  0.523980  0.982592  1
  N  N7  1  0.771713  0.777364  0.229118  1
