# generated using pymatgen
data_Lu(Ta3N4)3
_symmetry_space_group_name_H-M   'P 1'
_cell_length_a   5.26630400
_cell_length_b   5.26630482
_cell_length_c   10.47928400
_cell_angle_alpha   90.00000000
_cell_angle_beta   90.00000000
_cell_angle_gamma   119.99999482
_symmetry_Int_Tables_number   1
_chemical_formula_structural   Lu(Ta3N4)3
_chemical_formula_sum   'Lu1 Ta9 N12'
_cell_volume   251.69476539
_cell_formula_units_Z   1
loop_
 _symmetry_equiv_pos_site_id
 _symmetry_equiv_pos_as_xyz
  1  'x, y, z'
loop_
 _atom_site_type_symbol
 _atom_site_label
 _atom_site_symmetry_multiplicity
 _atom_site_fract_x
 _atom_site_fract_y
 _atom_site_fract_z
 _atom_site_occupancy
  Lu  Lu0  1  0.666667  0.333333  0.000000  1
  Ta  Ta1  1  0.677707  0.675736  0.746477  1
  Ta  Ta2  1  0.324264  0.001971  0.746477  1
  Ta  Ta3  1  0.998029  0.322293  0.746477  1
  Ta  Ta4  1  0.324264  0.322293  0.253523  1
  Ta  Ta5  1  0.677707  0.001971  0.253523  1
  Ta  Ta6  1  0.998029  0.675736  0.253523  1
  Ta  Ta7  1  0.333333  0.666667  0.000000  1
  Ta  Ta8  1  0.333333  0.666667  0.500000  1
  Ta  Ta9  1  0.666667  0.333333  0.500000  1
  N  N10  1  0.658829  0.659252  0.381401  1
  N  N11  1  0.340748  0.999578  0.381401  1
  N  N12  1  0.000422  0.341171  0.381401  1
  N  N13  1  0.340748  0.341171  0.618599  1
  N  N14  1  0.658829  0.999578  0.618599  1
  N  N15  1  0.000422  0.659252  0.618599  1
  N  N16  1  0.336376  0.350170  0.871757  1
  N  N17  1  0.649830  0.986206  0.871757  1
  N  N18  1  0.013794  0.663624  0.871757  1
  N  N19  1  0.649830  0.663624  0.128243  1
  N  N20  1  0.336376  0.986206  0.128243  1
  N  N21  1  0.013794  0.350170  0.128243  1
