# generated using pymatgen
data_Ba3CaNpSe6
_symmetry_space_group_name_H-M   'P 1'
_cell_length_a   9.01057785
_cell_length_b   9.01057858
_cell_length_c   9.01057900
_cell_angle_alpha   92.01956093
_cell_angle_beta   92.01955473
_cell_angle_gamma   92.01957000
_symmetry_Int_Tables_number   1
_chemical_formula_structural   Ba3CaNpSe6
_chemical_formula_sum   'Ba6 Ca2 Np2 Se12'
_cell_volume   730.17742223
_cell_formula_units_Z   2
loop_
 _symmetry_equiv_pos_site_id
 _symmetry_equiv_pos_as_xyz
  1  'x, y, z'
loop_
 _atom_site_type_symbol
 _atom_site_label
 _atom_site_symmetry_multiplicity
 _atom_site_fract_x
 _atom_site_fract_y
 _atom_site_fract_z
 _atom_site_occupancy
  Ba  Ba0  1  0.874932  0.625068  0.250000  1
  Ba  Ba1  1  0.250000  0.874932  0.625068  1
  Ba  Ba2  1  0.625068  0.250000  0.874932  1
  Ba  Ba3  1  0.750000  0.125068  0.374932  1
  Ba  Ba4  1  0.374932  0.750000  0.125068  1
  Ba  Ba5  1  0.125068  0.374932  0.750000  1
  Ca  Ca6  1  0.250000  0.250000  0.250000  1
  Ca  Ca7  1  0.750000  0.750000  0.750000  1
  Np  Np8  1  0.500000  0.500000  0.500000  1
  Np  Np9  1  0.000000  0.000000  0.000000  1
  Se  Se10  1  0.200347  0.547210  0.413929  1
  Se  Se11  1  0.413929  0.200347  0.547210  1
  Se  Se12  1  0.547210  0.413929  0.200347  1
  Se  Se13  1  0.913929  0.047210  0.700347  1
  Se  Se14  1  0.700347  0.913929  0.047210  1
  Se  Se15  1  0.047210  0.700347  0.913929  1
  Se  Se16  1  0.799653  0.452790  0.586071  1
  Se  Se17  1  0.586071  0.799653  0.452790  1
  Se  Se18  1  0.452790  0.586071  0.799653  1
  Se  Se19  1  0.086071  0.952790  0.299653  1
  Se  Se20  1  0.299653  0.086071  0.952790  1
  Se  Se21  1  0.952790  0.299653  0.086071  1
