# generated using pymatgen
data_Y3MgZn2Sn2Au
_symmetry_space_group_name_H-M   'P 1'
_cell_length_a   7.21698702
_cell_length_b   7.21698623
_cell_length_c   4.54753100
_cell_angle_alpha   90.00000000
_cell_angle_beta   90.00000000
_cell_angle_gamma   119.53349078
_symmetry_Int_Tables_number   1
_chemical_formula_structural   Y3MgZn2Sn2Au
_chemical_formula_sum   'Y3 Mg1 Zn2 Sn2 Au1'
_cell_volume   206.08221916
_cell_formula_units_Z   1
loop_
 _symmetry_equiv_pos_site_id
 _symmetry_equiv_pos_as_xyz
  1  'x, y, z'
loop_
 _atom_site_type_symbol
 _atom_site_label
 _atom_site_symmetry_multiplicity
 _atom_site_fract_x
 _atom_site_fract_y
 _atom_site_fract_z
 _atom_site_occupancy
  Y  Y0  1  0.583995  0.999053  0.000000  1
  Y  Y1  1  0.999053  0.583995  0.000000  1
  Y  Y2  1  0.405184  0.405184  0.000000  1
  Mg  Mg3  1  0.778870  0.778870  0.500000  1
  Zn  Zn4  1  0.235456  0.003707  0.500000  1
  Zn  Zn5  1  0.003707  0.235456  0.500000  1
  Sn  Sn6  1  0.328629  0.664863  0.500000  1
  Sn  Sn7  1  0.664863  0.328629  0.500000  1
  Au  Au8  1  0.000242  0.000242  0.000000  1
