# generated using pymatgen
data_Ce2Lu3Mn2
_symmetry_space_group_name_H-M   'P 1'
_cell_length_a   6.23761311
_cell_length_b   6.73271624
_cell_length_c   8.60467120
_cell_angle_alpha   95.54000685
_cell_angle_beta   111.25104564
_cell_angle_gamma   89.99999092
_symmetry_Int_Tables_number   1
_chemical_formula_structural   Ce2Lu3Mn2
_chemical_formula_sum   'Ce4 Lu6 Mn4'
_cell_volume   334.97855494
_cell_formula_units_Z   2
loop_
 _symmetry_equiv_pos_site_id
 _symmetry_equiv_pos_as_xyz
  1  'x, y, z'
loop_
 _atom_site_type_symbol
 _atom_site_label
 _atom_site_symmetry_multiplicity
 _atom_site_fract_x
 _atom_site_fract_y
 _atom_site_fract_z
 _atom_site_occupancy
  Ce  Ce0  1  0.527603  0.108963  0.807634  1
  Ce  Ce1  1  0.472397  0.891037  0.192366  1
  Ce  Ce2  1  0.719969  0.391037  0.192366  1
  Ce  Ce3  1  0.280031  0.608963  0.807634  1
  Lu  Lu4  1  0.292681  0.311960  0.430308  1
  Lu  Lu5  1  0.707319  0.688040  0.569692  1
  Lu  Lu6  1  0.862374  0.188040  0.569692  1
  Lu  Lu7  1  0.137626  0.811960  0.430308  1
  Lu  Lu8  1  0.077821  0.250000  0.000000  1
  Lu  Lu9  1  0.922179  0.750000  0.000000  1
  Mn  Mn10  1  0.360525  0.603833  0.221382  1
  Mn  Mn11  1  0.639475  0.396167  0.778618  1
  Mn  Mn12  1  0.139145  0.896167  0.778618  1
  Mn  Mn13  1  0.860855  0.103833  0.221382  1
