# generated using pymatgen
data_BH7
_symmetry_space_group_name_H-M   'P 1'
_cell_length_a   4.39022943
_cell_length_b   4.17576284
_cell_length_c   4.71793670
_cell_angle_alpha   82.84093033
_cell_angle_beta   83.79315361
_cell_angle_gamma   77.29421626
_symmetry_Int_Tables_number   1
_chemical_formula_structural   BH7
_chemical_formula_sum   'B1 H7'
_cell_volume   83.42454094
_cell_formula_units_Z   1
loop_
 _symmetry_equiv_pos_site_id
 _symmetry_equiv_pos_as_xyz
  1  'x, y, z'
loop_
 _atom_site_type_symbol
 _atom_site_label
 _atom_site_symmetry_multiplicity
 _atom_site_fract_x
 _atom_site_fract_y
 _atom_site_fract_z
 _atom_site_occupancy
  B  B0  1  0.287273  0.328964  0.709053  1
  H  H1  1  0.273700  0.489167  0.945715  1
  H  H2  1  0.462755  0.081779  0.797876  1
  H  H3  1  0.392510  0.465909  0.490358  1
  H  H4  1  0.351469  0.598723  0.802525  1
  H  H5  1  0.010520  0.340587  0.718860  1
  H  H6  1  0.915532  0.996615  0.181436  1
  H  H7  1  0.848129  0.932616  0.324396  1
