# generated using pymatgen
data_Y6Ho(LuPb2)3
_symmetry_space_group_name_H-M   'P 1'
_cell_length_a   9.03224800
_cell_length_b   9.03224867
_cell_length_c   6.55666000
_cell_angle_alpha   90.00000000
_cell_angle_beta   90.00000000
_cell_angle_gamma   119.99999753
_symmetry_Int_Tables_number   1
_chemical_formula_structural   Y6Ho(LuPb2)3
_chemical_formula_sum   'Y6 Ho1 Lu3 Pb6'
_cell_volume   463.23892564
_cell_formula_units_Z   1
loop_
 _symmetry_equiv_pos_site_id
 _symmetry_equiv_pos_as_xyz
  1  'x, y, z'
loop_
 _atom_site_type_symbol
 _atom_site_label
 _atom_site_symmetry_multiplicity
 _atom_site_fract_x
 _atom_site_fract_y
 _atom_site_fract_z
 _atom_site_occupancy
  Y  Y0  1  0.761052  0.760995  0.749692  1
  Y  Y1  1  0.239005  0.000057  0.749692  1
  Y  Y2  1  0.999943  0.238948  0.749692  1
  Y  Y3  1  0.239005  0.238948  0.250308  1
  Y  Y4  1  0.761052  0.000057  0.250308  1
  Y  Y5  1  0.999943  0.760995  0.250308  1
  Ho  Ho6  1  0.666667  0.333333  0.000000  1
  Lu  Lu7  1  0.333333  0.666667  0.000000  1
  Lu  Lu8  1  0.333333  0.666667  0.500000  1
  Lu  Lu9  1  0.666667  0.333333  0.500000  1
  Pb  Pb10  1  0.394893  0.395980  0.748249  1
  Pb  Pb11  1  0.604020  0.998913  0.748249  1
  Pb  Pb12  1  0.001087  0.605107  0.748249  1
  Pb  Pb13  1  0.604020  0.605107  0.251751  1
  Pb  Pb14  1  0.394893  0.998913  0.251751  1
  Pb  Pb15  1  0.001087  0.395980  0.251751  1
