# generated using pymatgen
data_K2CdBr4
_symmetry_space_group_name_H-M   'P 1'
_cell_length_a   7.54220000
_cell_length_b   9.60609000
_cell_length_c   16.26135300
_cell_angle_alpha   90.00000000
_cell_angle_beta   90.00000000
_cell_angle_gamma   90.00000000
_symmetry_Int_Tables_number   1
_chemical_formula_structural   K2CdBr4
_chemical_formula_sum   'K8 Cd4 Br16'
_cell_volume   1178.15213176
_cell_formula_units_Z   4
loop_
 _symmetry_equiv_pos_site_id
 _symmetry_equiv_pos_as_xyz
  1  'x, y, z'
loop_
 _atom_site_type_symbol
 _atom_site_label
 _atom_site_symmetry_multiplicity
 _atom_site_fract_x
 _atom_site_fract_y
 _atom_site_fract_z
 _atom_site_occupancy
  K  K0  1  0.000000  0.000000  0.000000  1
  K  K1  1  0.500000  0.000000  0.500000  1
  K  K2  1  0.000000  0.500000  0.000000  1
  K  K3  1  0.500000  0.500000  0.500000  1
  K  K4  1  0.009640  0.750000  0.270514  1
  K  K5  1  0.509640  0.250000  0.229486  1
  K  K6  1  0.990360  0.250000  0.729486  1
  K  K7  1  0.490360  0.750000  0.770514  1
  Cd  Cd8  1  0.593374  0.750000  0.091393  1
  Cd  Cd9  1  0.093374  0.250000  0.408607  1
  Cd  Cd10  1  0.406626  0.250000  0.908607  1
  Cd  Cd11  1  0.906626  0.750000  0.591393  1
  Br  Br12  1  0.246420  0.750000  0.092355  1
  Br  Br13  1  0.746420  0.250000  0.407645  1
  Br  Br14  1  0.753580  0.250000  0.907645  1
  Br  Br15  1  0.253580  0.750000  0.592355  1
  Br  Br16  1  0.767313  0.750000  0.440616  1
  Br  Br17  1  0.267313  0.250000  0.059384  1
  Br  Br18  1  0.232687  0.250000  0.559384  1
  Br  Br19  1  0.732687  0.750000  0.940616  1
  Br  Br20  1  0.740562  0.968533  0.164775  1
  Br  Br21  1  0.240562  0.031467  0.335225  1
  Br  Br22  1  0.259438  0.468533  0.835225  1
  Br  Br23  1  0.759438  0.531467  0.664775  1
  Br  Br24  1  0.259438  0.031467  0.835225  1
  Br  Br25  1  0.759438  0.968533  0.664775  1
  Br  Br26  1  0.740562  0.531467  0.164775  1
  Br  Br27  1  0.240562  0.468533  0.335225  1
