# generated using pymatgen
data_Sm2U4SiNi18P11
_symmetry_space_group_name_H-M   'P 1'
_cell_length_a   3.77697500
_cell_length_b   10.45890600
_cell_length_c   12.40733300
_cell_angle_alpha   89.99943344
_cell_angle_beta   89.99987467
_cell_angle_gamma   90.00056761
_symmetry_Int_Tables_number   1
_chemical_formula_structural   Sm2U4SiNi18P11
_chemical_formula_sum   'Sm2 U4 Si1 Ni18 P11'
_cell_volume   490.12720414
_cell_formula_units_Z   1
loop_
 _symmetry_equiv_pos_site_id
 _symmetry_equiv_pos_as_xyz
  1  'x, y, z'
loop_
 _atom_site_type_symbol
 _atom_site_label
 _atom_site_symmetry_multiplicity
 _atom_site_fract_x
 _atom_site_fract_y
 _atom_site_fract_z
 _atom_site_occupancy
  Sm  Sm0  1  0.752964  0.000040  0.479353  1
  Sm  Sm1  1  0.252963  0.500013  0.520606  1
  U  U2  1  0.251571  0.683162  0.795228  1
  U  U3  1  0.251568  0.316836  0.795219  1
  U  U4  1  0.751559  0.816821  0.204779  1
  U  U5  1  0.751566  0.183163  0.204812  1
  Si  Si6  1  0.252875  0.188722  0.385774  1
  Ni  Ni7  1  0.750243  0.999995  0.012684  1
  Ni  Ni8  1  0.250245  0.500006  0.987325  1
  Ni  Ni9  1  0.253242  0.198266  0.572819  1
  Ni  Ni10  1  0.253243  0.801717  0.572861  1
  Ni  Ni11  1  0.753244  0.301694  0.427119  1
  Ni  Ni12  1  0.753242  0.698287  0.427147  1
  Ni  Ni13  1  0.253162  0.620679  0.291606  1
  Ni  Ni14  1  0.253163  0.379287  0.291620  1
  Ni  Ni15  1  0.753162  0.879284  0.708402  1
  Ni  Ni16  1  0.753162  0.120687  0.708403  1
  Ni  Ni17  1  0.250848  0.169051  0.001382  1
  Ni  Ni18  1  0.250846  0.830941  0.001369  1
  Ni  Ni19  1  0.750845  0.330936  0.998634  1
  Ni  Ni20  1  0.750848  0.669065  0.998632  1
  Ni  Ni21  1  0.248568  0.999998  0.841091  1
  Ni  Ni22  1  0.748567  0.499996  0.158907  1
  Ni  Ni23  1  0.251986  0.000050  0.295869  1
  Ni  Ni24  1  0.751987  0.500038  0.704137  1
  P  P25  1  0.252873  0.811277  0.385810  1
  P  P26  1  0.752872  0.311276  0.614194  1
  P  P27  1  0.752876  0.688722  0.614191  1
  P  P28  1  0.250718  0.999992  0.118127  1
  P  P29  1  0.750716  0.500034  0.881886  1
  P  P30  1  0.250914  0.653848  0.109569  1
  P  P31  1  0.250922  0.346148  0.109567  1
  P  P32  1  0.750918  0.846153  0.890434  1
  P  P33  1  0.750917  0.153802  0.890445  1
  P  P34  1  0.253106  0.000010  0.659697  1
  P  P35  1  0.753106  0.500007  0.340305  1
