# generated using pymatgen
data_Lu2Re(BRu)4
_symmetry_space_group_name_H-M   'P 1'
_cell_length_a   3.06951500
_cell_length_b   8.68347743
_cell_length_c   10.15707790
_cell_angle_alpha   90.22672757
_cell_angle_beta   90.00000000
_cell_angle_gamma   90.00000000
_symmetry_Int_Tables_number   1
_chemical_formula_structural   Lu2Re(BRu)4
_chemical_formula_sum   'Lu4 Re2 B8 Ru8'
_cell_volume   270.72528703
_cell_formula_units_Z   2
loop_
 _symmetry_equiv_pos_site_id
 _symmetry_equiv_pos_as_xyz
  1  'x, y, z'
loop_
 _atom_site_type_symbol
 _atom_site_label
 _atom_site_symmetry_multiplicity
 _atom_site_fract_x
 _atom_site_fract_y
 _atom_site_fract_z
 _atom_site_occupancy
  Lu  Lu0  1  0.500000  0.841333  0.180244  1
  Lu  Lu1  1  0.500000  0.158667  0.819756  1
  Lu  Lu2  1  0.500000  0.659336  0.683203  1
  Lu  Lu3  1  0.500000  0.340664  0.316797  1
  Re  Re4  1  0.000000  0.659735  0.953636  1
  Re  Re5  1  0.000000  0.340265  0.046364  1
  B  B6  1  0.500000  0.966119  0.589391  1
  B  B7  1  0.500000  0.033881  0.410609  1
  B  B8  1  0.500000  0.847438  0.903121  1
  B  B9  1  0.500000  0.152562  0.096879  1
  B  B10  1  0.500000  0.646683  0.398753  1
  B  B11  1  0.500000  0.353317  0.601247  1
  B  B12  1  0.500000  0.464576  0.913082  1
  B  B13  1  0.500000  0.535424  0.086918  1
  Ru  Ru14  1  0.000000  0.841748  0.453943  1
  Ru  Ru15  1  0.000000  0.158252  0.546057  1
  Ru  Ru16  1  0.000000  0.000000  0.000000  1
  Ru  Ru17  1  0.000000  0.405245  0.759639  1
  Ru  Ru18  1  0.000000  0.594755  0.240361  1
  Ru  Ru19  1  0.000000  0.500000  0.500000  1
  Ru  Ru20  1  0.000000  0.907075  0.738300  1
  Ru  Ru21  1  0.000000  0.092925  0.261700  1
