# generated using pymatgen
data_TmPaNi2Sn
_symmetry_space_group_name_H-M   'P 1'
_cell_length_a   7.34413283
_cell_length_b   7.34413283
_cell_length_c   3.59464700
_cell_angle_alpha   90.00000000
_cell_angle_beta   90.00000000
_cell_angle_gamma   93.68733146
_symmetry_Int_Tables_number   1
_chemical_formula_structural   TmPaNi2Sn
_chemical_formula_sum   'Tm2 Pa2 Ni4 Sn2'
_cell_volume   193.48054987
_cell_formula_units_Z   2
loop_
 _symmetry_equiv_pos_site_id
 _symmetry_equiv_pos_as_xyz
  1  'x, y, z'
loop_
 _atom_site_type_symbol
 _atom_site_label
 _atom_site_symmetry_multiplicity
 _atom_site_fract_x
 _atom_site_fract_y
 _atom_site_fract_z
 _atom_site_occupancy
  Tm  Tm0  1  0.172575  0.327425  0.500000  1
  Tm  Tm1  1  0.827425  0.672575  0.500000  1
  Pa  Pa2  1  0.675910  0.175910  0.500000  1
  Pa  Pa3  1  0.324090  0.824090  0.500000  1
  Ni  Ni4  1  0.870110  0.370110  0.000000  1
  Ni  Ni5  1  0.129890  0.629890  0.000000  1
  Ni  Ni6  1  0.382514  0.117486  0.000000  1
  Ni  Ni7  1  0.617486  0.882514  0.000000  1
  Sn  Sn8  1  0.500000  0.500000  0.000000  1
  Sn  Sn9  1  0.000000  0.000000  0.000000  1
