# generated using pymatgen
data_NdGd9Os3Ru
_symmetry_space_group_name_H-M   'P 1'
_cell_length_a   8.63771575
_cell_length_b   8.64662419
_cell_length_c   7.27328700
_cell_angle_alpha   83.70471562
_cell_angle_beta   83.55069049
_cell_angle_gamma   44.06184970
_symmetry_Int_Tables_number   1
_chemical_formula_structural   NdGd9Os3Ru
_chemical_formula_sum   'Nd1 Gd9 Os3 Ru1'
_cell_volume   375.05434621
_cell_formula_units_Z   1
loop_
 _symmetry_equiv_pos_site_id
 _symmetry_equiv_pos_as_xyz
  1  'x, y, z'
loop_
 _atom_site_type_symbol
 _atom_site_label
 _atom_site_symmetry_multiplicity
 _atom_site_fract_x
 _atom_site_fract_y
 _atom_site_fract_z
 _atom_site_occupancy
  Nd  Nd0  1  0.022379  0.793893  0.918836  1
  Gd  Gd1  1  0.206793  0.977929  0.583837  1
  Gd  Gd2  1  0.980344  0.206802  0.083094  1
  Gd  Gd3  1  0.794175  0.023127  0.415204  1
  Gd  Gd4  1  0.360659  0.204636  0.814009  1
  Gd  Gd5  1  0.793251  0.642226  0.684572  1
  Gd  Gd6  1  0.639778  0.792610  0.187672  1
  Gd  Gd7  1  0.205150  0.359000  0.314943  1
  Gd  Gd8  1  0.575071  0.425874  0.747920  1
  Gd  Gd9  1  0.425911  0.573990  0.250908  1
  Os  Os10  1  0.176386  0.601982  0.571780  1
  Os  Os11  1  0.397703  0.823706  0.925278  1
  Os  Os12  1  0.823528  0.395790  0.425144  1
  Ru  Ru13  1  0.598875  0.178435  0.076804  1
