# generated using pymatgen
data_La6YIr3
_symmetry_space_group_name_H-M   'P 1'
_cell_length_a   10.26828500
_cell_length_b   10.26828691
_cell_length_c   6.43302700
_cell_angle_alpha   90.00000000
_cell_angle_beta   90.00000000
_cell_angle_gamma   120.00000352
_symmetry_Int_Tables_number   1
_chemical_formula_structural   La6YIr3
_chemical_formula_sum   'La12 Y2 Ir6'
_cell_volume   587.41076266
_cell_formula_units_Z   2
loop_
 _symmetry_equiv_pos_site_id
 _symmetry_equiv_pos_as_xyz
  1  'x, y, z'
loop_
 _atom_site_type_symbol
 _atom_site_label
 _atom_site_symmetry_multiplicity
 _atom_site_fract_x
 _atom_site_fract_y
 _atom_site_fract_z
 _atom_site_occupancy
  La  La0  1  0.872531  0.745061  0.766676  1
  La  La1  1  0.254939  0.127469  0.766676  1
  La  La2  1  0.872531  0.127469  0.766676  1
  La  La3  1  0.127469  0.254939  0.266676  1
  La  La4  1  0.745061  0.872531  0.266676  1
  La  La5  1  0.127469  0.872531  0.266676  1
  La  La6  1  0.457909  0.915820  0.595940  1
  La  La7  1  0.084180  0.542091  0.595940  1
  La  La8  1  0.457909  0.542091  0.595940  1
  La  La9  1  0.542091  0.084180  0.095940  1
  La  La10  1  0.915820  0.457909  0.095940  1
  La  La11  1  0.542091  0.457909  0.095940  1
  Y  Y12  1  0.666667  0.333333  0.563582  1
  Y  Y13  1  0.333333  0.666667  0.063582  1
  Ir  Ir14  1  0.189768  0.379534  0.852031  1
  Ir  Ir15  1  0.620466  0.810232  0.852031  1
  Ir  Ir16  1  0.189768  0.810232  0.852031  1
  Ir  Ir17  1  0.810232  0.620466  0.352031  1
  Ir  Ir18  1  0.379534  0.189768  0.352031  1
  Ir  Ir19  1  0.810232  0.189768  0.352031  1
