# generated using pymatgen
data_YTm10ThCo4
_symmetry_space_group_name_H-M   'P 1'
_cell_length_a   6.17279612
_cell_length_b   6.87829485
_cell_length_c   9.34924900
_cell_angle_alpha   90.00000000
_cell_angle_beta   90.00000000
_cell_angle_gamma   91.08685291
_symmetry_Int_Tables_number   1
_chemical_formula_structural   YTm10ThCo4
_chemical_formula_sum   'Y1 Tm10 Th1 Co4'
_cell_volume   396.88191323
_cell_formula_units_Z   1
loop_
 _symmetry_equiv_pos_site_id
 _symmetry_equiv_pos_as_xyz
  1  'x, y, z'
loop_
 _atom_site_type_symbol
 _atom_site_label
 _atom_site_symmetry_multiplicity
 _atom_site_fract_x
 _atom_site_fract_y
 _atom_site_fract_z
 _atom_site_occupancy
  Y  Y0  1  0.359603  0.959410  0.750000  1
  Tm  Tm1  1  0.327393  0.674864  0.066504  1
  Tm  Tm2  1  0.174915  0.175326  0.431999  1
  Tm  Tm3  1  0.676582  0.324344  0.568443  1
  Tm  Tm4  1  0.823520  0.827626  0.930836  1
  Tm  Tm5  1  0.676582  0.324344  0.931557  1
  Tm  Tm6  1  0.823520  0.827626  0.569164  1
  Tm  Tm7  1  0.327393  0.674864  0.433496  1
  Tm  Tm8  1  0.174915  0.175326  0.068001  1
  Tm  Tm9  1  0.639016  0.040272  0.250000  1
  Tm  Tm10  1  0.141521  0.456241  0.750000  1
  Th  Th11  1  0.848793  0.552613  0.250000  1
  Co  Co12  1  0.044005  0.873732  0.250000  1
  Co  Co13  1  0.465992  0.386866  0.250000  1
  Co  Co14  1  0.949316  0.115939  0.750000  1
  Co  Co15  1  0.546934  0.610604  0.750000  1
