# generated using pymatgen
data_K3Rb2SiP3
_symmetry_space_group_name_H-M   'P 1'
_cell_length_a   5.26701700
_cell_length_b   14.43878800
_cell_length_c   15.44996600
_cell_angle_alpha   90.00000000
_cell_angle_beta   90.00000000
_cell_angle_gamma   90.00000000
_symmetry_Int_Tables_number   1
_chemical_formula_structural   K3Rb2SiP3
_chemical_formula_sum   'K12 Rb8 Si4 P12'
_cell_volume   1174.95974599
_cell_formula_units_Z   4
loop_
 _symmetry_equiv_pos_site_id
 _symmetry_equiv_pos_as_xyz
  1  'x, y, z'
loop_
 _atom_site_type_symbol
 _atom_site_label
 _atom_site_symmetry_multiplicity
 _atom_site_fract_x
 _atom_site_fract_y
 _atom_site_fract_z
 _atom_site_occupancy
  K  K0  1  0.250000  0.427705  0.564671  1
  K  K1  1  0.750000  0.572295  0.435329  1
  K  K2  1  0.750000  0.927705  0.935329  1
  K  K3  1  0.250000  0.072295  0.064671  1
  K  K4  1  0.250000  0.820500  0.088562  1
  K  K5  1  0.750000  0.179500  0.911438  1
  K  K6  1  0.750000  0.320500  0.411438  1
  K  K7  1  0.250000  0.679500  0.588562  1
  K  K8  1  0.250000  0.233762  0.257374  1
  K  K9  1  0.750000  0.766238  0.742626  1
  K  K10  1  0.750000  0.733762  0.242626  1
  K  K11  1  0.250000  0.266238  0.757374  1
  Rb  Rb12  1  0.250000  0.945488  0.302930  1
  Rb  Rb13  1  0.750000  0.054512  0.697070  1
  Rb  Rb14  1  0.750000  0.445488  0.197070  1
  Rb  Rb15  1  0.250000  0.554512  0.802930  1
  Rb  Rb16  1  0.250000  0.129958  0.512877  1
  Rb  Rb17  1  0.750000  0.870042  0.487123  1
  Rb  Rb18  1  0.750000  0.629958  0.987123  1
  Rb  Rb19  1  0.250000  0.370042  0.012877  1
  Si  Si20  1  0.250000  0.585619  0.288929  1
  Si  Si21  1  0.750000  0.414381  0.711071  1
  Si  Si22  1  0.750000  0.085619  0.211071  1
  Si  Si23  1  0.250000  0.914381  0.788929  1
  P  P24  1  0.250000  0.599901  0.145970  1
  P  P25  1  0.750000  0.400099  0.854030  1
  P  P26  1  0.750000  0.099901  0.354030  1
  P  P27  1  0.250000  0.900099  0.645970  1
  P  P28  1  0.250000  0.447623  0.349769  1
  P  P29  1  0.750000  0.552377  0.650231  1
  P  P30  1  0.750000  0.947623  0.150231  1
  P  P31  1  0.250000  0.052377  0.849769  1
  P  P32  1  0.250000  0.709481  0.373488  1
  P  P33  1  0.750000  0.290519  0.626512  1
  P  P34  1  0.750000  0.209481  0.126512  1
  P  P35  1  0.250000  0.790519  0.873488  1
