# generated using pymatgen
data_Hf18CrRe7POs
_symmetry_space_group_name_H-M   'P 1'
_cell_length_a   8.57075100
_cell_length_b   8.57075153
_cell_length_c   8.56955800
_cell_angle_alpha   90.00000000
_cell_angle_beta   90.00000000
_cell_angle_gamma   119.99999408
_symmetry_Int_Tables_number   1
_chemical_formula_structural   Hf18CrRe7POs
_chemical_formula_sum   'Hf18 Cr1 Re7 P1 Os1'
_cell_volume   545.16361561
_cell_formula_units_Z   1
loop_
 _symmetry_equiv_pos_site_id
 _symmetry_equiv_pos_as_xyz
  1  'x, y, z'
loop_
 _atom_site_type_symbol
 _atom_site_label
 _atom_site_symmetry_multiplicity
 _atom_site_fract_x
 _atom_site_fract_y
 _atom_site_fract_z
 _atom_site_occupancy
  Hf  Hf0  1  0.195660  0.804340  0.447831  1
  Hf  Hf1  1  0.195660  0.391319  0.447831  1
  Hf  Hf2  1  0.608681  0.804340  0.447831  1
  Hf  Hf3  1  0.805703  0.194297  0.549271  1
  Hf  Hf4  1  0.805703  0.611405  0.549271  1
  Hf  Hf5  1  0.388595  0.194297  0.549271  1
  Hf  Hf6  1  0.805329  0.194671  0.950637  1
  Hf  Hf7  1  0.805329  0.610658  0.950637  1
  Hf  Hf8  1  0.389342  0.194671  0.950637  1
  Hf  Hf9  1  0.197020  0.802980  0.052296  1
  Hf  Hf10  1  0.197020  0.394039  0.052296  1
  Hf  Hf11  1  0.605961  0.802980  0.052296  1
  Hf  Hf12  1  0.541149  0.458851  0.249711  1
  Hf  Hf13  1  0.541149  0.082298  0.249711  1
  Hf  Hf14  1  0.917702  0.458851  0.249711  1
  Hf  Hf15  1  0.459428  0.540572  0.750083  1
  Hf  Hf16  1  0.459428  0.918854  0.750083  1
  Hf  Hf17  1  0.081146  0.540572  0.750083  1
  Cr  Cr18  1  0.000000  0.000000  0.497388  1
  Re  Re19  1  0.890338  0.109662  0.254326  1
  Re  Re20  1  0.890338  0.780675  0.254326  1
  Re  Re21  1  0.219325  0.109662  0.254326  1
  Re  Re22  1  0.108459  0.891541  0.746077  1
  Re  Re23  1  0.108459  0.216921  0.746077  1
  Re  Re24  1  0.783079  0.891541  0.746077  1
  Re  Re25  1  0.000000  0.000000  0.001423  1
  P  P26  1  0.666667  0.333333  0.750073  1
  Os  Os27  1  0.333333  0.666667  0.250425  1
