# generated using pymatgen
data_Nd5SiP11Ru9Rh10
_symmetry_space_group_name_H-M   'P 1'
_cell_length_a   12.73345541
_cell_length_b   12.75602010
_cell_length_c   3.97996400
_cell_angle_alpha   90.00000000
_cell_angle_beta   90.00000000
_cell_angle_gamma   120.09476083
_symmetry_Int_Tables_number   1
_chemical_formula_structural   Nd5SiP11Ru9Rh10
_chemical_formula_sum   'Nd5 Si1 P11 Ru9 Rh10'
_cell_volume   559.31408191
_cell_formula_units_Z   1
loop_
 _symmetry_equiv_pos_site_id
 _symmetry_equiv_pos_as_xyz
  1  'x, y, z'
loop_
 _atom_site_type_symbol
 _atom_site_label
 _atom_site_symmetry_multiplicity
 _atom_site_fract_x
 _atom_site_fract_y
 _atom_site_fract_z
 _atom_site_occupancy
  Nd  Nd0  1  0.999373  0.186292  0.500000  1
  Nd  Nd1  1  0.814080  0.813623  0.500000  1
  Nd  Nd2  1  0.185706  0.000168  0.500000  1
  Nd  Nd3  1  0.665819  0.333313  0.000000  1
  Nd  Nd4  1  0.333278  0.666640  0.000000  1
  Si  Si5  1  0.686550  0.165759  0.500000  1
  P  P6  1  0.000403  0.815278  0.000000  1
  P  P7  1  0.184125  0.185493  0.000000  1
  P  P8  1  0.815432  0.999541  0.000000  1
  P  P9  1  0.828880  0.518471  0.500000  1
  P  P10  1  0.480185  0.310271  0.500000  1
  P  P11  1  0.171751  0.690472  0.500000  1
  P  P12  1  0.518858  0.827535  0.500000  1
  P  P13  1  0.309827  0.481400  0.500000  1
  P  P14  1  0.998589  0.372483  0.000000  1
  P  P15  1  0.627351  0.627443  0.000000  1
  P  P16  1  0.374143  0.001314  0.000000  1
  Ru  Ru17  1  0.000311  0.713005  0.500000  1
  Ru  Ru18  1  0.286251  0.287801  0.500000  1
  Ru  Ru19  1  0.714257  0.995513  0.500000  1
  Ru  Ru20  1  0.877714  0.365140  0.500000  1
  Ru  Ru21  1  0.637544  0.512699  0.500000  1
  Ru  Ru22  1  0.479947  0.122645  0.500000  1
  Ru  Ru23  1  0.363871  0.874827  0.500000  1
  Ru  Ru24  1  0.512005  0.636305  0.500000  1
  Ru  Ru25  1  0.125833  0.488760  0.500000  1
  Rh  Rh26  1  0.002322  0.553512  0.000000  1
  Rh  Rh27  1  0.448450  0.448715  0.000000  1
  Rh  Rh28  1  0.555462  0.004501  0.000000  1
  Rh  Rh29  1  0.808463  0.182625  0.000000  1
  Rh  Rh30  1  0.817801  0.623058  0.000000  1
  Rh  Rh31  1  0.375196  0.195689  0.000000  1
  Rh  Rh32  1  0.183485  0.806704  0.000000  1
  Rh  Rh33  1  0.622090  0.815703  0.000000  1
  Rh  Rh34  1  0.193985  0.377379  0.000000  1
  Rh  Rh35  1  0.000662  0.999923  0.000000  1
