# generated using pymatgen
data_Dy(BrO3)3
_symmetry_space_group_name_H-M   'P 1'
_cell_length_a   9.88286400
_cell_length_b   9.88286275
_cell_length_c   5.78057300
_cell_angle_alpha   90.00000000
_cell_angle_beta   90.00000000
_cell_angle_gamma   119.99999079
_symmetry_Int_Tables_number   1
_chemical_formula_structural   Dy(BrO3)3
_chemical_formula_sum   'Dy2 Br6 O18'
_cell_volume   488.95303389
_cell_formula_units_Z   2
loop_
 _symmetry_equiv_pos_site_id
 _symmetry_equiv_pos_as_xyz
  1  'x, y, z'
loop_
 _atom_site_type_symbol
 _atom_site_label
 _atom_site_symmetry_multiplicity
 _atom_site_fract_x
 _atom_site_fract_y
 _atom_site_fract_z
 _atom_site_occupancy
  Dy  Dy0  1  0.666667  0.333333  0.699491  1
  Dy  Dy1  1  0.333333  0.666667  0.199491  1
  Br  Br2  1  0.683825  0.019884  0.364834  1
  Br  Br3  1  0.316175  0.980116  0.864834  1
  Br  Br4  1  0.019884  0.336059  0.864834  1
  Br  Br5  1  0.336059  0.316175  0.364834  1
  Br  Br6  1  0.980116  0.663941  0.364834  1
  Br  Br7  1  0.663941  0.683825  0.864834  1
  O  O8  1  0.771585  0.825482  0.044039  1
  O  O9  1  0.946103  0.771585  0.544039  1
  O  O10  1  0.825482  0.053897  0.544039  1
  O  O11  1  0.174518  0.946103  0.044039  1
  O  O12  1  0.053897  0.228415  0.044039  1
  O  O13  1  0.228415  0.174518  0.544039  1
  O  O14  1  0.708640  0.540015  0.923127  1
  O  O15  1  0.168625  0.708640  0.423127  1
  O  O16  1  0.524030  0.400916  0.467737  1
  O  O17  1  0.123114  0.524030  0.967737  1
  O  O18  1  0.400916  0.876886  0.967737  1
  O  O19  1  0.599084  0.123114  0.467737  1
  O  O20  1  0.876886  0.475970  0.467737  1
  O  O21  1  0.475970  0.599084  0.967737  1
  O  O22  1  0.291360  0.459985  0.423127  1
  O  O23  1  0.831375  0.291360  0.923127  1
  O  O24  1  0.459985  0.168625  0.923127  1
  O  O25  1  0.540015  0.831375  0.423127  1
