# generated using pymatgen
data_Hf4InC2S
_symmetry_space_group_name_H-M   'P 1'
_cell_length_a   3.35148200
_cell_length_b   3.35148189
_cell_length_c   13.47283100
_cell_angle_alpha   90.00000000
_cell_angle_beta   90.00000000
_cell_angle_gamma   119.99998137
_symmetry_Int_Tables_number   1
_chemical_formula_structural   Hf4InC2S
_chemical_formula_sum   'Hf4 In1 C2 S1'
_cell_volume   131.05794180
_cell_formula_units_Z   1
loop_
 _symmetry_equiv_pos_site_id
 _symmetry_equiv_pos_as_xyz
  1  'x, y, z'
loop_
 _atom_site_type_symbol
 _atom_site_label
 _atom_site_symmetry_multiplicity
 _atom_site_fract_x
 _atom_site_fract_y
 _atom_site_fract_z
 _atom_site_occupancy
  Hf  Hf0  1  0.333333  0.666667  0.434798  1
  Hf  Hf1  1  0.666667  0.333333  0.884976  1
  Hf  Hf2  1  0.666667  0.333333  0.615024  1
  Hf  Hf3  1  0.333333  0.666667  0.065202  1
  In  In4  1  0.666667  0.333333  0.250000  1
  C  C5  1  0.000000  0.000000  0.524461  1
  C  C6  1  0.000000  0.000000  0.975539  1
  S  S7  1  0.333333  0.666667  0.750000  1
