# generated using pymatgen
data_Nd5Er8Th3Cd3InIr4
_symmetry_space_group_name_H-M   'P 1'
_cell_length_a   9.76692525
_cell_length_b   9.75908795
_cell_length_c   9.75908800
_cell_angle_alpha   60.01706856
_cell_angle_beta   60.07050153
_cell_angle_gamma   60.07050583
_symmetry_Int_Tables_number   1
_chemical_formula_structural   Nd5Er8Th3Cd3InIr4
_chemical_formula_sum   'Nd5 Er8 Th3 Cd3 In1 Ir4'
_cell_volume   658.53586522
_cell_formula_units_Z   1
loop_
 _symmetry_equiv_pos_site_id
 _symmetry_equiv_pos_as_xyz
  1  'x, y, z'
loop_
 _atom_site_type_symbol
 _atom_site_label
 _atom_site_symmetry_multiplicity
 _atom_site_fract_x
 _atom_site_fract_y
 _atom_site_fract_z
 _atom_site_occupancy
  Nd  Nd0  1  0.558149  0.941723  0.941723  1
  Nd  Nd1  1  0.567506  0.937364  0.563912  1
  Nd  Nd2  1  0.942880  0.559368  0.935566  1
  Nd  Nd3  1  0.567506  0.563912  0.937364  1
  Nd  Nd4  1  0.942880  0.935566  0.559368  1
  Er  Er5  1  0.948351  0.350698  0.350698  1
  Er  Er6  1  0.813949  0.187350  0.187350  1
  Er  Er7  1  0.184966  0.816716  0.816716  1
  Er  Er8  1  0.181823  0.814708  0.187818  1
  Er  Er9  1  0.812802  0.188181  0.812152  1
  Er  Er10  1  0.181823  0.187818  0.814708  1
  Er  Er11  1  0.812802  0.812152  0.188181  1
  Er  Er12  1  0.945542  0.556245  0.556245  1
  Th  Th13  1  0.346802  0.347687  0.347687  1
  Th  Th14  1  0.346722  0.352343  0.952809  1
  Th  Th15  1  0.346722  0.952809  0.352343  1
  Cd  Cd16  1  0.580727  0.578742  0.259505  1
  Cd  Cd17  1  0.580727  0.259505  0.578742  1
  Cd  Cd18  1  0.257415  0.577121  0.577121  1
  In  In19  1  0.584884  0.578724  0.578724  1
  Ir  Ir20  1  0.143660  0.141810  0.141810  1
  Ir  Ir21  1  0.139967  0.143997  0.572940  1
  Ir  Ir22  1  0.139967  0.572940  0.143997  1
  Ir  Ir23  1  0.571427  0.142517  0.142517  1
