# generated using pymatgen
data_Li8Nd8GeBi7
_symmetry_space_group_name_H-M   'P 1'
_cell_length_a   9.75797500
_cell_length_b   9.75797454
_cell_length_c   7.42099100
_cell_angle_alpha   90.00000000
_cell_angle_beta   90.00000000
_cell_angle_gamma   119.99999816
_symmetry_Int_Tables_number   1
_chemical_formula_structural   Li8Nd8GeBi7
_chemical_formula_sum   'Li8 Nd8 Ge1 Bi7'
_cell_volume   611.94434597
_cell_formula_units_Z   1
loop_
 _symmetry_equiv_pos_site_id
 _symmetry_equiv_pos_as_xyz
  1  'x, y, z'
loop_
 _atom_site_type_symbol
 _atom_site_label
 _atom_site_symmetry_multiplicity
 _atom_site_fract_x
 _atom_site_fract_y
 _atom_site_fract_z
 _atom_site_occupancy
  Li  Li0  1  0.168262  0.336523  0.277042  1
  Li  Li1  1  0.168262  0.831738  0.277042  1
  Li  Li2  1  0.663477  0.831738  0.277042  1
  Li  Li3  1  0.827693  0.655385  0.775226  1
  Li  Li4  1  0.827693  0.172307  0.775226  1
  Li  Li5  1  0.344615  0.172307  0.775226  1
  Li  Li6  1  0.333333  0.666667  0.682394  1
  Li  Li7  1  0.666667  0.333333  0.180532  1
  Nd  Nd8  1  0.516325  0.032653  0.500895  1
  Nd  Nd9  1  0.516325  0.483675  0.500895  1
  Nd  Nd10  1  0.967347  0.483675  0.500895  1
  Nd  Nd11  1  0.496641  0.993281  0.991539  1
  Nd  Nd12  1  0.496641  0.503359  0.991539  1
  Nd  Nd13  1  0.006719  0.503359  0.991539  1
  Nd  Nd14  1  0.000000  0.000000  0.501640  1
  Nd  Nd15  1  0.000000  0.000000  0.000468  1
  Ge  Ge16  1  0.666667  0.333333  0.757711  1
  Bi  Bi17  1  0.166617  0.333234  0.737576  1
  Bi  Bi18  1  0.166617  0.833383  0.737576  1
  Bi  Bi19  1  0.666766  0.833383  0.737576  1
  Bi  Bi20  1  0.833386  0.666771  0.237781  1
  Bi  Bi21  1  0.833386  0.166614  0.237781  1
  Bi  Bi22  1  0.333229  0.166614  0.237781  1
  Bi  Bi23  1  0.333333  0.666667  0.259054  1
