# generated using pymatgen
data_Sc4CoSi4Pd5
_symmetry_space_group_name_H-M   'P 1'
_cell_length_a   4.01349100
_cell_length_b   6.43657440
_cell_length_c   8.62046700
_cell_angle_alpha   89.37381372
_cell_angle_beta   90.00000000
_cell_angle_gamma   90.00000000
_symmetry_Int_Tables_number   1
_chemical_formula_structural   Sc4CoSi4Pd5
_chemical_formula_sum   'Sc4 Co1 Si4 Pd5'
_cell_volume   222.68037466
_cell_formula_units_Z   1
loop_
 _symmetry_equiv_pos_site_id
 _symmetry_equiv_pos_as_xyz
  1  'x, y, z'
loop_
 _atom_site_type_symbol
 _atom_site_label
 _atom_site_symmetry_multiplicity
 _atom_site_fract_x
 _atom_site_fract_y
 _atom_site_fract_z
 _atom_site_occupancy
  Sc  Sc0  1  0.000000  0.875827  0.334529  1
  Sc  Sc1  1  0.000000  0.124173  0.665471  1
  Sc  Sc2  1  0.000000  0.387938  0.178528  1
  Sc  Sc3  1  0.000000  0.612062  0.821472  1
  Co  Co4  1  0.000000  0.500000  0.500000  1
  Si  Si5  1  0.500000  0.569058  0.360291  1
  Si  Si6  1  0.500000  0.430942  0.639709  1
  Si  Si7  1  0.500000  0.072876  0.150910  1
  Si  Si8  1  0.500000  0.927124  0.849090  1
  Pd  Pd9  1  0.500000  0.689799  0.085863  1
  Pd  Pd10  1  0.500000  0.310201  0.914137  1
  Pd  Pd11  1  0.500000  0.191676  0.416500  1
  Pd  Pd12  1  0.500000  0.808324  0.583500  1
  Pd  Pd13  1  0.000000  0.000000  0.000000  1
