# generated using pymatgen
data_Sr4Ca4Ta3NbN12
_symmetry_space_group_name_H-M   'P 1'
_cell_length_a   6.23392390
_cell_length_b   6.37042475
_cell_length_c   12.40891848
_cell_angle_alpha   89.34681440
_cell_angle_beta   88.59652321
_cell_angle_gamma   123.16674782
_symmetry_Int_Tables_number   1
_chemical_formula_structural   Sr4Ca4Ta3NbN12
_chemical_formula_sum   'Sr4 Ca4 Ta3 Nb1 N12'
_cell_volume   412.20257788
_cell_formula_units_Z   1
loop_
 _symmetry_equiv_pos_site_id
 _symmetry_equiv_pos_as_xyz
  1  'x, y, z'
loop_
 _atom_site_type_symbol
 _atom_site_label
 _atom_site_symmetry_multiplicity
 _atom_site_fract_x
 _atom_site_fract_y
 _atom_site_fract_z
 _atom_site_occupancy
  Sr  Sr0  1  0.045471  0.456722  0.855895  1
  Sr  Sr1  1  0.521493  0.930393  0.638930  1
  Sr  Sr2  1  0.483877  0.067360  0.361370  1
  Sr  Sr3  1  0.638958  0.877383  0.078527  1
  Ca  Ca4  1  0.962074  0.575485  0.127002  1
  Ca  Ca5  1  0.181074  0.412971  0.428734  1
  Ca  Ca6  1  0.385520  0.159831  0.925921  1
  Ca  Ca7  1  0.819541  0.579458  0.574979  1
  Ta  Ta8  1  0.256057  0.254705  0.164867  1
  Ta  Ta9  1  0.207548  0.214403  0.660890  1
  Ta  Ta10  1  0.738030  0.749351  0.835077  1
  Nb  Nb11  1  0.800199  0.774715  0.341859  1
  N  N12  1  0.455104  0.459251  0.762968  1
  N  N13  1  0.564979  0.530640  0.233314  1
  N  N14  1  0.044793  0.875318  0.735320  1
  N  N15  1  0.965391  0.121585  0.272216  1
  N  N16  1  0.990752  0.326393  0.616878  1
  N  N17  1  0.638469  0.982029  0.870207  1
  N  N18  1  0.018953  0.670399  0.391102  1
  N  N19  1  0.322550  0.005347  0.117508  1
  N  N20  1  0.791983  0.613094  0.961671  1
  N  N21  1  0.605920  0.776004  0.462551  1
  N  N22  1  0.165467  0.375377  0.043391  1
  N  N23  1  0.395795  0.211785  0.538822  1
