# generated using pymatgen
data_NaAc5Te8
_symmetry_space_group_name_H-M   'P 1'
_cell_length_a   8.64852396
_cell_length_b   8.64852451
_cell_length_c   8.64852459
_cell_angle_alpha   109.65672794
_cell_angle_beta   109.65672850
_cell_angle_gamma   109.10084058
_symmetry_Int_Tables_number   1
_chemical_formula_structural   NaAc5Te8
_chemical_formula_sum   'Na1 Ac5 Te8'
_cell_volume   497.95550549
_cell_formula_units_Z   1
loop_
 _symmetry_equiv_pos_site_id
 _symmetry_equiv_pos_as_xyz
  1  'x, y, z'
loop_
 _atom_site_type_symbol
 _atom_site_label
 _atom_site_symmetry_multiplicity
 _atom_site_fract_x
 _atom_site_fract_y
 _atom_site_fract_z
 _atom_site_occupancy
  Na  Na0  1  0.750000  0.250000  0.500000  1
  Ac  Ac1  1  0.127033  0.008353  0.375883  1
  Ac  Ac2  1  0.500000  0.500000  0.000000  1
  Ac  Ac3  1  0.991647  0.367531  0.118680  1
  Ac  Ac4  1  0.632469  0.751151  0.624117  1
  Ac  Ac5  1  0.248849  0.872967  0.881320  1
  Te  Te6  1  0.870459  0.619189  0.898958  1
  Te  Te7  1  0.365476  0.765943  0.246429  1
  Te  Te8  1  0.880953  0.634524  0.400468  1
  Te  Te9  1  0.028499  0.129541  0.748730  1
  Te  Te10  1  0.519514  0.119047  0.753571  1
  Te  Te11  1  0.234057  0.480486  0.599532  1
  Te  Te12  1  0.380811  0.279769  0.251270  1
  Te  Te13  1  0.720231  0.971501  0.101042  1
