# generated using pymatgen
data_Rb2SmTcN4
_symmetry_space_group_name_H-M   'P 1'
_cell_length_a   11.11494573
_cell_length_b   10.76320130
_cell_length_c   8.23884656
_cell_angle_alpha   70.16325468
_cell_angle_beta   65.62934813
_cell_angle_gamma   44.20738712
_symmetry_Int_Tables_number   1
_chemical_formula_structural   Rb2SmTcN4
_chemical_formula_sum   'Rb8 Sm4 Tc4 N16'
_cell_volume   624.52995729
_cell_formula_units_Z   4
loop_
 _symmetry_equiv_pos_site_id
 _symmetry_equiv_pos_as_xyz
  1  'x, y, z'
loop_
 _atom_site_type_symbol
 _atom_site_label
 _atom_site_symmetry_multiplicity
 _atom_site_fract_x
 _atom_site_fract_y
 _atom_site_fract_z
 _atom_site_occupancy
  Rb  Rb0  1  0.561396  0.938604  0.938604  1
  Rb  Rb1  1  0.938604  0.561396  0.561396  1
  Rb  Rb2  1  0.311396  0.688604  0.688604  1
  Rb  Rb3  1  0.108507  0.108507  0.891493  1
  Rb  Rb4  1  0.141493  0.141493  0.358507  1
  Rb  Rb5  1  0.358507  0.358507  0.141493  1
  Rb  Rb6  1  0.688604  0.311396  0.311396  1
  Rb  Rb7  1  0.891493  0.891493  0.108507  1
  Sm  Sm8  1  0.339769  0.339769  0.660231  1
  Sm  Sm9  1  0.910231  0.910231  0.589769  1
  Sm  Sm10  1  0.660231  0.660231  0.339769  1
  Sm  Sm11  1  0.589769  0.589769  0.910231  1
  Tc  Tc12  1  0.505501  0.994499  0.505501  1
  Tc  Tc13  1  0.994499  0.505501  0.994499  1
  Tc  Tc14  1  0.744499  0.255501  0.744499  1
  Tc  Tc15  1  0.255501  0.744499  0.255501  1
  N  N16  1  0.010395  0.652259  0.810755  1
  N  N17  1  0.692289  0.301883  0.968055  1
  N  N18  1  0.652259  0.010395  0.526590  1
  N  N19  1  0.526590  0.810755  0.652259  1
  N  N20  1  0.239605  0.597741  0.439245  1
  N  N21  1  0.723410  0.439245  0.597741  1
  N  N22  1  0.968055  0.037775  0.692289  1
  N  N23  1  0.557711  0.948117  0.281945  1
  N  N24  1  0.439245  0.723410  0.239605  1
  N  N25  1  0.948117  0.557711  0.212225  1
  N  N26  1  0.301883  0.692289  0.037775  1
  N  N27  1  0.810755  0.526590  0.010395  1
  N  N28  1  0.212225  0.281945  0.948117  1
  N  N29  1  0.597741  0.239605  0.723410  1
  N  N30  1  0.281945  0.212225  0.557711  1
  N  N31  1  0.037775  0.968055  0.301883  1
