# generated using pymatgen
data_NdPa(Al3Ir)3
_symmetry_space_group_name_H-M   'P 1'
_cell_length_a   7.63002938
_cell_length_b   7.62602020
_cell_length_c   9.44056400
_cell_angle_alpha   90.00000000
_cell_angle_beta   90.00000000
_cell_angle_gamma   119.63233772
_symmetry_Int_Tables_number   1
_chemical_formula_structural   NdPa(Al3Ir)3
_chemical_formula_sum   'Nd2 Pa2 Al18 Ir6'
_cell_volume   477.47410065
_cell_formula_units_Z   2
loop_
 _symmetry_equiv_pos_site_id
 _symmetry_equiv_pos_as_xyz
  1  'x, y, z'
loop_
 _atom_site_type_symbol
 _atom_site_label
 _atom_site_symmetry_multiplicity
 _atom_site_fract_x
 _atom_site_fract_y
 _atom_site_fract_z
 _atom_site_occupancy
  Nd  Nd0  1  0.669213  0.993879  0.250000  1
  Nd  Nd1  1  0.330787  0.006121  0.750000  1
  Pa  Pa2  1  0.997135  0.670861  0.250000  1
  Pa  Pa3  1  0.002865  0.329139  0.750000  1
  Al  Al4  1  0.130981  0.127992  0.250000  1
  Al  Al5  1  0.869019  0.872008  0.750000  1
  Al  Al6  1  0.001846  0.333351  0.075606  1
  Al  Al7  1  0.998154  0.666649  0.924394  1
  Al  Al8  1  0.998154  0.666649  0.575606  1
  Al  Al9  1  0.336246  0.003029  0.425384  1
  Al  Al10  1  0.001846  0.333351  0.424394  1
  Al  Al11  1  0.663754  0.996971  0.574616  1
  Al  Al12  1  0.663754  0.996971  0.925384  1
  Al  Al13  1  0.336246  0.003029  0.074616  1
  Al  Al14  1  0.335257  0.334517  0.551785  1
  Al  Al15  1  0.664743  0.665483  0.448215  1
  Al  Al16  1  0.664743  0.665483  0.051785  1
  Al  Al17  1  0.335257  0.334517  0.948215  1
  Al  Al18  1  0.338309  0.545979  0.250000  1
  Al  Al19  1  0.661691  0.454021  0.750000  1
  Al  Al20  1  0.548469  0.342912  0.250000  1
  Al  Al21  1  0.451531  0.657088  0.750000  1
  Ir  Ir22  1  0.676094  0.331038  0.999825  1
  Ir  Ir23  1  0.323906  0.668962  0.000175  1
  Ir  Ir24  1  0.323906  0.668962  0.499825  1
  Ir  Ir25  1  0.676094  0.331038  0.500175  1
  Ir  Ir26  1  0.000000  0.000000  0.000000  1
  Ir  Ir27  1  0.000000  0.000000  0.500000  1
