# generated using pymatgen
data_Nd6ZrCo17P12
_symmetry_space_group_name_H-M   'P 1'
_cell_length_a   3.77077900
_cell_length_b   10.72213500
_cell_length_c   12.52638400
_cell_angle_alpha   90.00000000
_cell_angle_beta   90.00000000
_cell_angle_gamma   90.00000000
_symmetry_Int_Tables_number   1
_chemical_formula_structural   Nd6ZrCo17P12
_chemical_formula_sum   'Nd6 Zr1 Co17 P12'
_cell_volume   506.45174493
_cell_formula_units_Z   1
loop_
 _symmetry_equiv_pos_site_id
 _symmetry_equiv_pos_as_xyz
  1  'x, y, z'
loop_
 _atom_site_type_symbol
 _atom_site_label
 _atom_site_symmetry_multiplicity
 _atom_site_fract_x
 _atom_site_fract_y
 _atom_site_fract_z
 _atom_site_occupancy
  Nd  Nd0  1  0.000000  0.500000  0.528950  1
  Nd  Nd1  1  0.500000  0.000000  0.478900  1
  Nd  Nd2  1  0.500000  0.820261  0.207617  1
  Nd  Nd3  1  0.500000  0.179739  0.207617  1
  Nd  Nd4  1  0.000000  0.683616  0.795268  1
  Nd  Nd5  1  0.000000  0.316384  0.795268  1
  Zr  Zr6  1  0.500000  0.500000  0.152312  1
  Co  Co7  1  0.000000  0.000000  0.838600  1
  Co  Co8  1  0.500000  0.500000  0.704643  1
  Co  Co9  1  0.000000  0.000000  0.294748  1
  Co  Co10  1  0.000000  0.500000  0.983636  1
  Co  Co11  1  0.500000  0.000000  0.012107  1
  Co  Co12  1  0.500000  0.326924  0.989060  1
  Co  Co13  1  0.500000  0.673076  0.989060  1
  Co  Co14  1  0.000000  0.160981  0.000734  1
  Co  Co15  1  0.000000  0.839019  0.000734  1
  Co  Co16  1  0.500000  0.294813  0.434347  1
  Co  Co17  1  0.500000  0.705187  0.434347  1
  Co  Co18  1  0.000000  0.202026  0.570518  1
  Co  Co19  1  0.000000  0.797974  0.570518  1
  Co  Co20  1  0.500000  0.882410  0.709035  1
  Co  Co21  1  0.500000  0.117590  0.709035  1
  Co  Co22  1  0.000000  0.620078  0.299479  1
  Co  Co23  1  0.000000  0.379922  0.299479  1
  P  P24  1  0.500000  0.500000  0.884590  1
  P  P25  1  0.000000  0.000000  0.112765  1
  P  P26  1  0.500000  0.500000  0.357412  1
  P  P27  1  0.000000  0.000000  0.659468  1
  P  P28  1  0.500000  0.304185  0.615980  1
  P  P29  1  0.500000  0.695815  0.615980  1
  P  P30  1  0.000000  0.192881  0.388502  1
  P  P31  1  0.000000  0.807119  0.388502  1
  P  P32  1  0.500000  0.854031  0.890543  1
  P  P33  1  0.500000  0.145969  0.890543  1
  P  P34  1  0.000000  0.663311  0.094851  1
  P  P35  1  0.000000  0.336689  0.094851  1
