# generated using pymatgen
data_Al4Si3Ru8W
_symmetry_space_group_name_H-M   'P 1'
_cell_length_a   5.99609700
_cell_length_b   4.20587900
_cell_length_c   8.47964900
_cell_angle_alpha   89.99970826
_cell_angle_beta   89.99988186
_cell_angle_gamma   90.00051683
_symmetry_Int_Tables_number   1
_chemical_formula_structural   Al4Si3Ru8W
_chemical_formula_sum   'Al4 Si3 Ru8 W1'
_cell_volume   213.84706787
_cell_formula_units_Z   1
loop_
 _symmetry_equiv_pos_site_id
 _symmetry_equiv_pos_as_xyz
  1  'x, y, z'
loop_
 _atom_site_type_symbol
 _atom_site_label
 _atom_site_symmetry_multiplicity
 _atom_site_fract_x
 _atom_site_fract_y
 _atom_site_fract_z
 _atom_site_occupancy
  Al  Al0  1  0.750004  0.249999  0.125010  1
  Al  Al1  1  0.249994  0.750001  0.375934  1
  Al  Al2  1  0.750002  0.249999  0.625004  1
  Al  Al3  1  0.250012  0.749999  0.874056  1
  Si  Si4  1  0.749995  0.750000  0.381126  1
  Si  Si5  1  0.250018  0.249999  0.625006  1
  Si  Si6  1  0.750011  0.749999  0.868869  1
  Ru  Ru7  1  0.991130  0.749999  0.124996  1
  Ru  Ru8  1  0.508860  0.750000  0.124999  1
  Ru  Ru9  1  0.995418  0.249998  0.377792  1
  Ru  Ru10  1  0.504553  0.250004  0.377779  1
  Ru  Ru11  1  0.498628  0.750000  0.624998  1
  Ru  Ru12  1  0.001381  0.749999  0.625000  1
  Ru  Ru13  1  0.504587  0.249999  0.872226  1
  Ru  Ru14  1  0.995445  0.249998  0.872202  1
  W  W15  1  0.249964  0.250000  0.125006  1
