# generated using pymatgen
data_Ac3Nd(MgIr)4
_symmetry_space_group_name_H-M   'P 1'
_cell_length_a   4.29259100
_cell_length_b   7.46820119
_cell_length_c   8.86092205
_cell_angle_alpha   90.13583126
_cell_angle_beta   90.00000000
_cell_angle_gamma   90.00000000
_symmetry_Int_Tables_number   1
_chemical_formula_structural   Ac3Nd(MgIr)4
_chemical_formula_sum   'Ac3 Nd1 Mg4 Ir4'
_cell_volume   284.06204913
_cell_formula_units_Z   1
loop_
 _symmetry_equiv_pos_site_id
 _symmetry_equiv_pos_as_xyz
  1  'x, y, z'
loop_
 _atom_site_type_symbol
 _atom_site_label
 _atom_site_symmetry_multiplicity
 _atom_site_fract_x
 _atom_site_fract_y
 _atom_site_fract_z
 _atom_site_occupancy
  Ac  Ac0  1  0.750000  0.960720  0.318734  1
  Ac  Ac1  1  0.250000  0.037691  0.681044  1
  Ac  Ac2  1  0.250000  0.538204  0.823331  1
  Nd  Nd3  1  0.750000  0.458070  0.178798  1
  Mg  Mg4  1  0.750000  0.869027  0.946670  1
  Mg  Mg5  1  0.250000  0.136930  0.059077  1
  Mg  Mg6  1  0.250000  0.626602  0.438709  1
  Mg  Mg7  1  0.750000  0.372017  0.551548  1
  Ir  Ir8  1  0.750000  0.739315  0.623889  1
  Ir  Ir9  1  0.250000  0.263916  0.370987  1
  Ir  Ir10  1  0.250000  0.755608  0.126223  1
  Ir  Ir11  1  0.750000  0.241901  0.880991  1
