# generated using pymatgen
data_Ac2SeO6
_symmetry_space_group_name_H-M   'P 1'
_cell_length_a   7.93469980
_cell_length_b   7.93469959
_cell_length_c   8.81285271
_cell_angle_alpha   106.26121109
_cell_angle_beta   106.26120925
_cell_angle_gamma   33.00989548
_symmetry_Int_Tables_number   1
_chemical_formula_structural   Ac2SeO6
_chemical_formula_sum   'Ac4 Se2 O12'
_cell_volume   289.09634063
_cell_formula_units_Z   2
loop_
 _symmetry_equiv_pos_site_id
 _symmetry_equiv_pos_as_xyz
  1  'x, y, z'
loop_
 _atom_site_type_symbol
 _atom_site_label
 _atom_site_symmetry_multiplicity
 _atom_site_fract_x
 _atom_site_fract_y
 _atom_site_fract_z
 _atom_site_occupancy
  Ac  Ac0  1  0.663926  0.674904  0.084547  1
  Ac  Ac1  1  0.325096  0.336074  0.415454  1
  Ac  Ac2  1  0.674904  0.663927  0.584546  1
  Ac  Ac3  1  0.336073  0.325096  0.915453  1
  Se  Se4  1  0.051205  0.948796  0.250000  1
  Se  Se5  1  0.948795  0.051205  0.750000  1
  O  O6  1  0.271012  0.727940  0.095844  1
  O  O7  1  0.233565  0.261461  0.123789  1
  O  O8  1  0.752563  0.054506  0.202206  1
  O  O9  1  0.945495  0.247437  0.297795  1
  O  O10  1  0.738539  0.766434  0.376210  1
  O  O11  1  0.272060  0.728988  0.404157  1
  O  O12  1  0.727940  0.271012  0.595843  1
  O  O13  1  0.261461  0.233565  0.623790  1
  O  O14  1  0.054506  0.752563  0.702205  1
  O  O15  1  0.247437  0.945494  0.797794  1
  O  O16  1  0.766435  0.738540  0.876211  1
  O  O17  1  0.728988  0.272059  0.904156  1
