# generated using pymatgen
data_Ti3Nb3(GeC)2
_symmetry_space_group_name_H-M   'P 1'
_cell_length_a   5.61707812
_cell_length_b   5.61707851
_cell_length_c   8.27778912
_cell_angle_alpha   90.13349317
_cell_angle_beta   89.86650825
_cell_angle_gamma   146.30792599
_symmetry_Int_Tables_number   1
_chemical_formula_structural   Ti3Nb3(GeC)2
_chemical_formula_sum   'Ti3 Nb3 Ge2 C2'
_cell_volume   144.88224331
_cell_formula_units_Z   1
loop_
 _symmetry_equiv_pos_site_id
 _symmetry_equiv_pos_as_xyz
  1  'x, y, z'
loop_
 _atom_site_type_symbol
 _atom_site_label
 _atom_site_symmetry_multiplicity
 _atom_site_fract_x
 _atom_site_fract_y
 _atom_site_fract_z
 _atom_site_occupancy
  Ti  Ti0  1  0.627742  0.372259  0.052493  1
  Ti  Ti1  1  0.948586  0.051414  0.249574  1
  Ti  Ti2  1  0.051349  0.948651  0.750989  1
  Nb  Nb3  1  0.631644  0.368357  0.447267  1
  Nb  Nb4  1  0.368853  0.631148  0.552606  1
  Nb  Nb5  1  0.371293  0.628708  0.947514  1
  Ge  Ge6  1  0.256377  0.743624  0.243705  1
  Ge  Ge7  1  0.740895  0.259106  0.753325  1
  C  C8  1  0.003193  0.996807  0.001660  1
  C  C9  1  0.000072  0.999928  0.500866  1
