# generated using pymatgen
data_Y3TiMn7CoP6
_symmetry_space_group_name_H-M   'P 1'
_cell_length_a   3.68994500
_cell_length_b   10.86559800
_cell_length_c   12.77801800
_cell_angle_alpha   90.00000000
_cell_angle_beta   90.00000000
_cell_angle_gamma   90.00000000
_symmetry_Int_Tables_number   1
_chemical_formula_structural   Y3TiMn7CoP6
_chemical_formula_sum   'Y6 Ti2 Mn14 Co2 P12'
_cell_volume   512.31494094
_cell_formula_units_Z   2
loop_
 _symmetry_equiv_pos_site_id
 _symmetry_equiv_pos_as_xyz
  1  'x, y, z'
loop_
 _atom_site_type_symbol
 _atom_site_label
 _atom_site_symmetry_multiplicity
 _atom_site_fract_x
 _atom_site_fract_y
 _atom_site_fract_z
 _atom_site_occupancy
  Y  Y0  1  0.000000  0.500000  0.533438  1
  Y  Y1  1  0.500000  0.000000  0.466562  1
  Y  Y2  1  0.500000  0.823917  0.206322  1
  Y  Y3  1  0.500000  0.176083  0.206322  1
  Y  Y4  1  0.000000  0.676083  0.793678  1
  Y  Y5  1  0.000000  0.323917  0.793678  1
  Ti  Ti6  1  0.500000  0.500000  0.162767  1
  Ti  Ti7  1  0.000000  0.000000  0.837233  1
  Mn  Mn8  1  0.000000  0.500000  0.990896  1
  Mn  Mn9  1  0.500000  0.000000  0.009104  1
  Mn  Mn10  1  0.500000  0.332346  0.996383  1
  Mn  Mn11  1  0.500000  0.667654  0.996383  1
  Mn  Mn12  1  0.000000  0.167654  0.003617  1
  Mn  Mn13  1  0.000000  0.832346  0.003617  1
  Mn  Mn14  1  0.500000  0.295844  0.434257  1
  Mn  Mn15  1  0.500000  0.704156  0.434257  1
  Mn  Mn16  1  0.000000  0.204156  0.565743  1
  Mn  Mn17  1  0.000000  0.795844  0.565743  1
  Mn  Mn18  1  0.500000  0.880650  0.697803  1
  Mn  Mn19  1  0.500000  0.119350  0.697803  1
  Mn  Mn20  1  0.000000  0.619350  0.302197  1
  Mn  Mn21  1  0.000000  0.380650  0.302197  1
  Co  Co22  1  0.500000  0.500000  0.705875  1
  Co  Co23  1  0.000000  0.000000  0.294125  1
  P  P24  1  0.500000  0.500000  0.880186  1
  P  P25  1  0.000000  0.000000  0.119814  1
  P  P26  1  0.500000  0.500000  0.363088  1
  P  P27  1  0.000000  0.000000  0.636912  1
  P  P28  1  0.500000  0.318332  0.617781  1
  P  P29  1  0.500000  0.681668  0.617781  1
  P  P30  1  0.000000  0.181668  0.382219  1
  P  P31  1  0.000000  0.818332  0.382219  1
  P  P32  1  0.500000  0.842599  0.886475  1
  P  P33  1  0.500000  0.157401  0.886475  1
  P  P34  1  0.000000  0.657401  0.113525  1
  P  P35  1  0.000000  0.342599  0.113525  1
