# generated using pymatgen
data_Nb5Pb2WS12
_symmetry_space_group_name_H-M   'P 1'
_cell_length_a   5.80607100
_cell_length_b   5.80607077
_cell_length_c   15.14043600
_cell_angle_alpha   90.00000000
_cell_angle_beta   90.00000000
_cell_angle_gamma   119.99999564
_symmetry_Int_Tables_number   1
_chemical_formula_structural   Nb5Pb2WS12
_chemical_formula_sum   'Nb5 Pb2 W1 S12'
_cell_volume   442.01163326
_cell_formula_units_Z   1
loop_
 _symmetry_equiv_pos_site_id
 _symmetry_equiv_pos_as_xyz
  1  'x, y, z'
loop_
 _atom_site_type_symbol
 _atom_site_label
 _atom_site_symmetry_multiplicity
 _atom_site_fract_x
 _atom_site_fract_y
 _atom_site_fract_z
 _atom_site_occupancy
  Nb  Nb0  1  0.000000  0.000000  0.250000  1
  Nb  Nb1  1  0.333333  0.666667  0.250000  1
  Nb  Nb2  1  0.666667  0.333333  0.750000  1
  Nb  Nb3  1  0.666667  0.333333  0.250000  1
  Nb  Nb4  1  0.333333  0.666667  0.750000  1
  Pb  Pb5  1  0.000000  0.000000  0.006077  1
  Pb  Pb6  1  0.000000  0.000000  0.493923  1
  W  W7  1  0.000000  0.000000  0.750000  1
  S  S8  1  0.337102  0.000000  0.146203  1
  S  S9  1  0.000000  0.337102  0.146203  1
  S  S10  1  0.662898  0.662898  0.146203  1
  S  S11  1  0.328159  0.328159  0.647607  1
  S  S12  1  0.662898  0.662898  0.353797  1
  S  S13  1  0.671841  0.000000  0.647607  1
  S  S14  1  0.000000  0.671841  0.647607  1
  S  S15  1  0.000000  0.671841  0.852393  1
  S  S16  1  0.328159  0.328159  0.852393  1
  S  S17  1  0.000000  0.337102  0.353797  1
  S  S18  1  0.337102  0.000000  0.353797  1
  S  S19  1  0.671841  0.000000  0.852393  1
