# generated using pymatgen
data_CePr8ErIr4
_symmetry_space_group_name_H-M   'P 1'
_cell_length_a   6.70020014
_cell_length_b   7.28186876
_cell_length_c   9.01973600
_cell_angle_alpha   96.75034939
_cell_angle_beta   111.80315146
_cell_angle_gamma   90.00000301
_symmetry_Int_Tables_number   1
_chemical_formula_structural   CePr8ErIr4
_chemical_formula_sum   'Ce1 Pr8 Er1 Ir4'
_cell_volume   405.30471449
_cell_formula_units_Z   1
loop_
 _symmetry_equiv_pos_site_id
 _symmetry_equiv_pos_as_xyz
  1  'x, y, z'
loop_
 _atom_site_type_symbol
 _atom_site_label
 _atom_site_symmetry_multiplicity
 _atom_site_fract_x
 _atom_site_fract_y
 _atom_site_fract_z
 _atom_site_occupancy
  Ce  Ce0  1  0.436351  0.750000  0.000000  1
  Pr  Pr1  1  0.977209  0.926841  0.183314  1
  Pr  Pr2  1  0.793896  0.573159  0.816686  1
  Pr  Pr3  1  0.019984  0.079386  0.816280  1
  Pr  Pr4  1  0.203703  0.420614  0.183720  1
  Pr  Pr5  1  0.647033  0.813024  0.433105  1
  Pr  Pr6  1  0.213927  0.686976  0.566895  1
  Pr  Pr7  1  0.356682  0.187486  0.571467  1
  Pr  Pr8  1  0.785215  0.312514  0.428533  1
  Er  Er9  1  0.563267  0.250000  0.000000  1
  Ir  Ir10  1  0.800107  0.572274  0.204615  1
  Ir  Ir11  1  0.595494  0.927726  0.795385  1
  Ir  Ir12  1  0.201206  0.433531  0.795280  1
  Ir  Ir13  1  0.405925  0.066469  0.204720  1
