# generated using pymatgen
data_UCd3Pd8
_symmetry_space_group_name_H-M   'P 1'
_cell_length_a   4.17933300
_cell_length_b   5.76681627
_cell_length_c   17.18863597
_cell_angle_alpha   90.01354751
_cell_angle_beta   89.99658770
_cell_angle_gamma   90.01454452
_symmetry_Int_Tables_number   1
_chemical_formula_structural   UCd3Pd8
_chemical_formula_sum   'U2 Cd6 Pd16'
_cell_volume   414.27094857
_cell_formula_units_Z   2
loop_
 _symmetry_equiv_pos_site_id
 _symmetry_equiv_pos_as_xyz
  1  'x, y, z'
loop_
 _atom_site_type_symbol
 _atom_site_label
 _atom_site_symmetry_multiplicity
 _atom_site_fract_x
 _atom_site_fract_y
 _atom_site_fract_z
 _atom_site_occupancy
  U  U0  1  0.526019  0.832939  0.206115  1
  U  U1  1  0.526022  0.245870  0.706179  1
  Cd  Cd2  1  0.525948  0.333241  0.042324  1
  Cd  Cd3  1  0.526062  0.334188  0.369979  1
  Cd  Cd4  1  0.026080  0.039654  0.456106  1
  Cd  Cd5  1  0.526004  0.744890  0.542258  1
  Cd  Cd6  1  0.525906  0.745099  0.870025  1
  Cd  Cd7  1  0.025936  0.038916  0.956192  1
  Pd  Pd8  1  0.525969  0.824143  0.040860  1
  Pd  Pd9  1  0.025963  0.080865  0.124264  1
  Pd  Pd10  1  0.025944  0.588774  0.124892  1
  Pd  Pd11  1  0.526000  0.332995  0.206149  1
  Pd  Pd12  1  0.026049  0.589375  0.287360  1
  Pd  Pd13  1  0.026079  0.081391  0.287998  1
  Pd  Pd14  1  0.526142  0.825019  0.371432  1
  Pd  Pd15  1  0.026086  0.539663  0.456120  1
  Pd  Pd16  1  0.526098  0.254062  0.540772  1
  Pd  Pd17  1  0.026060  0.997260  0.624165  1
  Pd  Pd18  1  0.026029  0.489735  0.624836  1
  Pd  Pd19  1  0.526039  0.745886  0.706148  1
  Pd  Pd20  1  0.026044  0.490168  0.787483  1
  Pd  Pd21  1  0.026024  0.997662  0.788107  1
  Pd  Pd22  1  0.525952  0.254185  0.871586  1
  Pd  Pd23  1  0.025880  0.538985  0.956192  1
