# generated using pymatgen
data_SrNdSiPt8
_symmetry_space_group_name_H-M   'P 1'
_cell_length_a   4.30595600
_cell_length_b   9.34573901
_cell_length_c   9.37329500
_cell_angle_alpha   145.87559193
_cell_angle_beta   90.00000000
_cell_angle_gamma   90.00000000
_symmetry_Int_Tables_number   1
_chemical_formula_structural   SrNdSiPt8
_chemical_formula_sum   'Sr1 Nd1 Si1 Pt8'
_cell_volume   211.60793862
_cell_formula_units_Z   1
loop_
 _symmetry_equiv_pos_site_id
 _symmetry_equiv_pos_as_xyz
  1  'x, y, z'
loop_
 _atom_site_type_symbol
 _atom_site_label
 _atom_site_symmetry_multiplicity
 _atom_site_fract_x
 _atom_site_fract_y
 _atom_site_fract_z
 _atom_site_occupancy
  Sr  Sr0  1  0.500000  0.614147  0.372631  1
  Nd  Nd1  1  0.500000  0.371521  0.618979  1
  Si  Si2  1  0.000000  0.223518  0.221971  1
  Pt  Pt3  1  0.000000  0.889824  0.111132  1
  Pt  Pt4  1  0.500000  0.791627  0.192220  1
  Pt  Pt5  1  0.000000  0.994826  0.490394  1
  Pt  Pt6  1  0.000000  0.633758  0.642978  1
  Pt  Pt7  1  0.500000  0.194373  0.788529  1
  Pt  Pt8  1  0.000000  0.104980  0.882579  1
  Pt  Pt9  1  0.000000  0.491322  0.986696  1
  Pt  Pt10  1  0.500000  0.003688  0.005475  1
