# generated using pymatgen
data_SbPb2I
_symmetry_space_group_name_H-M   'P 1'
_cell_length_a   8.32421595
_cell_length_b   8.32421611
_cell_length_c   8.32421621
_cell_angle_alpha   32.60098307
_cell_angle_beta   32.60098064
_cell_angle_gamma   32.60098015
_symmetry_Int_Tables_number   1
_chemical_formula_structural   SbPb2I
_chemical_formula_sum   'Sb1 Pb2 I1'
_cell_volume   148.91218120
_cell_formula_units_Z   1
loop_
 _symmetry_equiv_pos_site_id
 _symmetry_equiv_pos_as_xyz
  1  'x, y, z'
loop_
 _atom_site_type_symbol
 _atom_site_label
 _atom_site_symmetry_multiplicity
 _atom_site_fract_x
 _atom_site_fract_y
 _atom_site_fract_z
 _atom_site_occupancy
  Sb  Sb0  1  0.500000  0.500000  0.500000  1
  Pb  Pb1  1  0.236923  0.236923  0.236923  1
  Pb  Pb2  1  0.763077  0.763077  0.763077  1
  I  I3  1  0.000000  0.000000  0.000000  1
