# generated using pymatgen
data_Ho5Er11In4Pd3Rh
_symmetry_space_group_name_H-M   'P 1'
_cell_length_a   9.64950932
_cell_length_b   9.64563729
_cell_length_c   9.64991015
_cell_angle_alpha   59.83710920
_cell_angle_beta   59.89893683
_cell_angle_gamma   59.84302949
_symmetry_Int_Tables_number   1
_chemical_formula_structural   Ho5Er11In4Pd3Rh
_chemical_formula_sum   'Ho5 Er11 In4 Pd3 Rh1'
_cell_volume   633.08080863
_cell_formula_units_Z   1
loop_
 _symmetry_equiv_pos_site_id
 _symmetry_equiv_pos_as_xyz
  1  'x, y, z'
loop_
 _atom_site_type_symbol
 _atom_site_label
 _atom_site_symmetry_multiplicity
 _atom_site_fract_x
 _atom_site_fract_y
 _atom_site_fract_z
 _atom_site_occupancy
  Ho  Ho0  1  0.189668  0.189959  0.809802  1
  Ho  Ho1  1  0.439859  0.062407  0.062699  1
  Ho  Ho2  1  0.436144  0.065092  0.436046  1
  Ho  Ho3  1  0.062507  0.439749  0.062915  1
  Ho  Ho4  1  0.650513  0.055347  0.650155  1
  Er  Er5  1  0.184334  0.811251  0.811093  1
  Er  Er6  1  0.062350  0.062441  0.439982  1
  Er  Er7  1  0.809839  0.189861  0.189856  1
  Er  Er8  1  0.811227  0.811265  0.184392  1
  Er  Er9  1  0.649826  0.650089  0.055572  1
  Er  Er10  1  0.647419  0.647306  0.647388  1
  Er  Er11  1  0.064771  0.436421  0.436268  1
  Er  Er12  1  0.055431  0.650359  0.649782  1
  Er  Er13  1  0.811276  0.184303  0.811203  1
  Er  Er14  1  0.436451  0.436482  0.064781  1
  Er  Er15  1  0.189772  0.809752  0.190043  1
  In  In16  1  0.416632  0.749562  0.416762  1
  In  In17  1  0.416759  0.416939  0.749575  1
  In  In18  1  0.749948  0.416644  0.416648  1
  In  In19  1  0.415797  0.416272  0.415643  1
  Pd  Pd20  1  0.855274  0.431641  0.855791  1
  Pd  Pd21  1  0.856249  0.855470  0.430854  1
  Pd  Pd22  1  0.431145  0.854959  0.856245  1
  Rh  Rh23  1  0.856812  0.856432  0.856506  1
