# generated using pymatgen
data_CsCoPt3O8
_symmetry_space_group_name_H-M   'P 1'
_cell_length_a   6.14869585
_cell_length_b   6.14869973
_cell_length_c   8.02959400
_cell_angle_alpha   69.51151015
_cell_angle_beta   69.51140711
_cell_angle_gamma   60.31107435
_symmetry_Int_Tables_number   1
_chemical_formula_structural   CsCoPt3O8
_chemical_formula_sum   'Cs1 Co1 Pt3 O8'
_cell_volume   241.14660106
_cell_formula_units_Z   1
loop_
 _symmetry_equiv_pos_site_id
 _symmetry_equiv_pos_as_xyz
  1  'x, y, z'
loop_
 _atom_site_type_symbol
 _atom_site_label
 _atom_site_symmetry_multiplicity
 _atom_site_fract_x
 _atom_site_fract_y
 _atom_site_fract_z
 _atom_site_occupancy
  Cs  Cs0  1  0.500000  0.500000  0.500000  1
  Co  Co1  1  0.500000  0.500000  0.000000  1
  Pt  Pt2  1  0.000000  0.000000  0.000000  1
  Pt  Pt3  1  0.000000  0.500000  0.000000  1
  Pt  Pt4  1  0.500000  0.000000  0.000000  1
  O  O5  1  0.699991  0.699991  0.868570  1
  O  O6  1  0.701241  0.220587  0.867165  1
  O  O7  1  0.220586  0.701241  0.867164  1
  O  O8  1  0.208968  0.208967  0.863035  1
  O  O9  1  0.791032  0.791033  0.136965  1
  O  O10  1  0.779414  0.298759  0.132836  1
  O  O11  1  0.298759  0.779413  0.132835  1
  O  O12  1  0.300009  0.300009  0.131430  1
