# generated using pymatgen
data_Lu5Ta3(P3Ir4)4
_symmetry_space_group_name_H-M   'P 1'
_cell_length_a   12.74228100
_cell_length_b   12.74228207
_cell_length_c   3.96199600
_cell_angle_alpha   90.00000000
_cell_angle_beta   90.00000000
_cell_angle_gamma   119.99999981
_symmetry_Int_Tables_number   1
_chemical_formula_structural   Lu5Ta3(P3Ir4)4
_chemical_formula_sum   'Lu5 Ta3 P12 Ir16'
_cell_volume   557.10756809
_cell_formula_units_Z   1
loop_
 _symmetry_equiv_pos_site_id
 _symmetry_equiv_pos_as_xyz
  1  'x, y, z'
loop_
 _atom_site_type_symbol
 _atom_site_label
 _atom_site_symmetry_multiplicity
 _atom_site_fract_x
 _atom_site_fract_y
 _atom_site_fract_z
 _atom_site_occupancy
  Lu  Lu0  1  0.333333  0.666667  0.000000  1
  Lu  Lu1  1  0.666667  0.333333  0.000000  1
  Lu  Lu2  1  0.815332  0.000000  0.500000  1
  Lu  Lu3  1  0.000000  0.815332  0.500000  1
  Lu  Lu4  1  0.184668  0.184668  0.500000  1
  Ta  Ta5  1  0.453174  0.000000  0.000000  1
  Ta  Ta6  1  0.000000  0.453174  0.000000  1
  Ta  Ta7  1  0.546826  0.546826  0.000000  1
  P  P8  1  0.175341  0.000000  0.000000  1
  P  P9  1  0.000000  0.175341  0.000000  1
  P  P10  1  0.824659  0.824659  0.000000  1
  P  P11  1  0.167635  0.482987  0.500000  1
  P  P12  1  0.517013  0.684647  0.500000  1
  P  P13  1  0.315353  0.832365  0.500000  1
  P  P14  1  0.684647  0.517013  0.500000  1
  P  P15  1  0.832365  0.315353  0.500000  1
  P  P16  1  0.482987  0.167635  0.500000  1
  P  P17  1  0.644465  0.000000  0.000000  1
  P  P18  1  0.000000  0.644465  0.000000  1
  P  P19  1  0.355535  0.355535  0.000000  1
  Ir  Ir20  1  0.356293  0.494349  0.500000  1
  Ir  Ir21  1  0.505651  0.861944  0.500000  1
  Ir  Ir22  1  0.138056  0.643707  0.500000  1
  Ir  Ir23  1  0.861944  0.505651  0.500000  1
  Ir  Ir24  1  0.643707  0.138056  0.500000  1
  Ir  Ir25  1  0.494349  0.356293  0.500000  1
  Ir  Ir26  1  0.177941  0.370910  0.000000  1
  Ir  Ir27  1  0.629090  0.807032  0.000000  1
  Ir  Ir28  1  0.192968  0.822059  0.000000  1
  Ir  Ir29  1  0.807032  0.629090  0.000000  1
  Ir  Ir30  1  0.822059  0.192968  0.000000  1
  Ir  Ir31  1  0.370910  0.177941  0.000000  1
  Ir  Ir32  1  0.283270  0.000000  0.500000  1
  Ir  Ir33  1  0.000000  0.283270  0.500000  1
  Ir  Ir34  1  0.716730  0.716730  0.500000  1
  Ir  Ir35  1  0.000000  0.000000  0.000000  1
