# generated using pymatgen
data_Sc2Si2IrRh
_symmetry_space_group_name_H-M   'P 1'
_cell_length_a   4.08526000
_cell_length_b   6.50177900
_cell_length_c   7.30989200
_cell_angle_alpha   90.00000000
_cell_angle_beta   90.00000000
_cell_angle_gamma   90.00000000
_symmetry_Int_Tables_number   1
_chemical_formula_structural   Sc2Si2IrRh
_chemical_formula_sum   'Sc4 Si4 Ir2 Rh2'
_cell_volume   194.16138699
_cell_formula_units_Z   2
loop_
 _symmetry_equiv_pos_site_id
 _symmetry_equiv_pos_as_xyz
  1  'x, y, z'
loop_
 _atom_site_type_symbol
 _atom_site_label
 _atom_site_symmetry_multiplicity
 _atom_site_fract_x
 _atom_site_fract_y
 _atom_site_fract_z
 _atom_site_occupancy
  Sc  Sc0  1  0.750000  0.489500  0.810673  1
  Sc  Sc1  1  0.250000  0.008383  0.311413  1
  Sc  Sc2  1  0.750000  0.989500  0.689327  1
  Sc  Sc3  1  0.250000  0.508383  0.188587  1
  Si  Si4  1  0.250000  0.786567  0.882750  1
  Si  Si5  1  0.250000  0.286567  0.617250  1
  Si  Si6  1  0.750000  0.213295  0.115969  1
  Si  Si7  1  0.750000  0.713295  0.384031  1
  Ir  Ir8  1  0.250000  0.659007  0.561550  1
  Ir  Ir9  1  0.250000  0.159007  0.938450  1
  Rh  Rh10  1  0.750000  0.843249  0.062251  1
  Rh  Rh11  1  0.750000  0.343249  0.437749  1
