# generated using pymatgen
data_Sc6AlP5Ru6
_symmetry_space_group_name_H-M   'P 1'
_cell_length_a   7.55057644
_cell_length_b   7.55870732
_cell_length_c   7.55057777
_cell_angle_alpha   127.93177448
_cell_angle_beta   122.71063873
_cell_angle_gamma   81.04761228
_symmetry_Int_Tables_number   1
_chemical_formula_structural   Sc6AlP5Ru6
_chemical_formula_sum   'Sc6 Al1 P5 Ru6'
_cell_volume   275.68133504
_cell_formula_units_Z   1
loop_
 _symmetry_equiv_pos_site_id
 _symmetry_equiv_pos_as_xyz
  1  'x, y, z'
loop_
 _atom_site_type_symbol
 _atom_site_label
 _atom_site_symmetry_multiplicity
 _atom_site_fract_x
 _atom_site_fract_y
 _atom_site_fract_z
 _atom_site_occupancy
  Sc  Sc0  1  0.457307  0.669963  0.712656  1
  Sc  Sc1  1  0.537985  0.252088  0.214102  1
  Sc  Sc2  1  0.748690  0.841870  0.593179  1
  Sc  Sc3  1  0.250186  0.833398  0.083211  1
  Sc  Sc4  1  0.047450  0.254303  0.706852  1
  Sc  Sc5  1  0.958041  0.668836  0.210795  1
  Al  Al6  1  0.254913  0.254867  0.499956  1
  P  P7  1  0.746115  0.251256  0.005142  1
  P  P8  1  0.332468  0.586143  0.252242  1
  P  P9  1  0.666963  0.920080  0.254233  1
  P  P10  1  0.165847  0.920080  0.753117  1
  P  P11  1  0.833900  0.586143  0.753674  1
  Ru  Ru12  1  0.516255  0.503079  0.019416  1
  Ru  Ru13  1  0.983663  0.503079  0.486824  1
  Ru  Ru14  1  0.103842  0.253310  0.107056  1
  Ru  Ru15  1  0.864512  0.003897  0.118289  1
  Ru  Ru16  1  0.385609  0.003897  0.639386  1
  Ru  Ru17  1  0.646254  0.253310  0.649468  1
