# generated using pymatgen
data_Tb5Dy3Ti9Si16Tc3
_symmetry_space_group_name_H-M   'P 1'
_cell_length_a   6.98188861
_cell_length_b   6.99108922
_cell_length_c   12.89926824
_cell_angle_alpha   89.79455045
_cell_angle_beta   90.13770766
_cell_angle_gamma   90.00078877
_symmetry_Int_Tables_number   1
_chemical_formula_structural   Tb5Dy3Ti9Si16Tc3
_chemical_formula_sum   'Tb5 Dy3 Ti9 Si16 Tc3'
_cell_volume   629.62039634
_cell_formula_units_Z   1
loop_
 _symmetry_equiv_pos_site_id
 _symmetry_equiv_pos_as_xyz
  1  'x, y, z'
loop_
 _atom_site_type_symbol
 _atom_site_label
 _atom_site_symmetry_multiplicity
 _atom_site_fract_x
 _atom_site_fract_y
 _atom_site_fract_z
 _atom_site_occupancy
  Tb  Tb0  1  0.837390  0.496834  0.282063  1
  Tb  Tb1  1  0.161675  0.501886  0.782008  1
  Tb  Tb2  1  0.659127  0.997997  0.968017  1
  Tb  Tb3  1  0.003381  0.338069  0.534566  1
  Tb  Tb4  1  0.997717  0.661268  0.030584  1
  Dy  Dy5  1  0.342658  0.000352  0.467846  1
  Dy  Dy6  1  0.497807  0.841217  0.719540  1
  Dy  Dy7  1  0.500386  0.158492  0.215654  1
  Ti  Ti8  1  0.328207  0.330095  0.998814  1
  Ti  Ti9  1  0.172099  0.824659  0.247792  1
  Ti  Ti10  1  0.829072  0.173550  0.749065  1
  Ti  Ti11  1  0.669473  0.668093  0.500051  1
  Ti  Ti12  1  0.657467  0.493861  0.875372  1
  Ti  Ti13  1  0.342899  0.505565  0.375736  1
  Ti  Ti14  1  0.838124  0.993100  0.374604  1
  Ti  Ti15  1  0.004979  0.155665  0.126297  1
  Ti  Ti16  1  0.992402  0.842743  0.625770  1
  Si  Si17  1  0.204338  0.127380  0.685362  1
  Si  Si18  1  0.371739  0.704829  0.934024  1
  Si  Si19  1  0.629354  0.298412  0.437833  1
  Si  Si20  1  0.698347  0.376064  0.065218  1
  Si  Si21  1  0.304757  0.625968  0.566775  1
  Si  Si22  1  0.792810  0.869627  0.182743  1
  Si  Si23  1  0.129862  0.200091  0.315723  1
  Si  Si24  1  0.876587  0.804614  0.815912  1
  Si  Si25  1  0.288319  0.958427  0.062343  1
  Si  Si26  1  0.541977  0.789925  0.311606  1
  Si  Si27  1  0.457411  0.212037  0.813298  1
  Si  Si28  1  0.786328  0.544309  0.686326  1
  Si  Si29  1  0.210894  0.456873  0.186301  1
  Si  Si30  1  0.710354  0.043977  0.564017  1
  Si  Si31  1  0.956985  0.285898  0.936689  1
  Si  Si32  1  0.045666  0.708496  0.436011  1
  Tc  Tc33  1  0.168068  0.011040  0.875024  1
  Tc  Tc34  1  0.483530  0.661500  0.123090  1
  Tc  Tc35  1  0.507813  0.337087  0.627928  1
