# generated using pymatgen
data_Ho16Cd4Ni3Ru
_symmetry_space_group_name_H-M   'P 1'
_cell_length_a   9.52625395
_cell_length_b   9.52609435
_cell_length_c   9.52499617
_cell_angle_alpha   59.82180339
_cell_angle_beta   59.80235155
_cell_angle_gamma   59.85038080
_symmetry_Int_Tables_number   1
_chemical_formula_structural   Ho16Cd4Ni3Ru
_chemical_formula_sum   'Ho16 Cd4 Ni3 Ru1'
_cell_volume   608.77483176
_cell_formula_units_Z   1
loop_
 _symmetry_equiv_pos_site_id
 _symmetry_equiv_pos_as_xyz
  1  'x, y, z'
loop_
 _atom_site_type_symbol
 _atom_site_label
 _atom_site_symmetry_multiplicity
 _atom_site_fract_x
 _atom_site_fract_y
 _atom_site_fract_z
 _atom_site_occupancy
  Ho  Ho0  1  0.347268  0.347271  0.347374  1
  Ho  Ho1  1  0.351023  0.350989  0.953400  1
  Ho  Ho2  1  0.350936  0.953484  0.351056  1
  Ho  Ho3  1  0.953466  0.350915  0.351071  1
  Ho  Ho4  1  0.810207  0.188239  0.188178  1
  Ho  Ho5  1  0.187114  0.811476  0.811441  1
  Ho  Ho6  1  0.188213  0.810189  0.188163  1
  Ho  Ho7  1  0.811502  0.187113  0.811451  1
  Ho  Ho8  1  0.188232  0.188242  0.810201  1
  Ho  Ho9  1  0.811465  0.811449  0.187085  1
  Ho  Ho10  1  0.935845  0.565938  0.565868  1
  Ho  Ho11  1  0.559652  0.937710  0.937730  1
  Ho  Ho12  1  0.565942  0.935853  0.565868  1
  Ho  Ho13  1  0.937725  0.559665  0.937734  1
  Ho  Ho14  1  0.565897  0.565896  0.935835  1
  Ho  Ho15  1  0.937722  0.937709  0.559637  1
  Cd  Cd16  1  0.580149  0.580185  0.580082  1
  Cd  Cd17  1  0.580165  0.580190  0.255444  1
  Cd  Cd18  1  0.580179  0.255459  0.580134  1
  Cd  Cd19  1  0.255451  0.580198  0.580128  1
  Ni  Ni20  1  0.141941  0.141950  0.574655  1
  Ni  Ni21  1  0.141976  0.574443  0.141984  1
  Ni  Ni22  1  0.574511  0.142058  0.142060  1
  Ru  Ru23  1  0.143418  0.143378  0.143421  1
