# generated using pymatgen
data_Tb12GaCo2Ni2Rh
_symmetry_space_group_name_H-M   'P 1'
_cell_length_a   8.28374779
_cell_length_b   8.28374795
_cell_length_c   8.28374795
_cell_angle_alpha   110.97681004
_cell_angle_beta   109.07523120
_cell_angle_gamma   108.37292232
_symmetry_Int_Tables_number   1
_chemical_formula_structural   Tb12GaCo2Ni2Rh
_chemical_formula_sum   'Tb12 Ga1 Co2 Ni2 Rh1'
_cell_volume   437.33800559
_cell_formula_units_Z   1
loop_
 _symmetry_equiv_pos_site_id
 _symmetry_equiv_pos_as_xyz
  1  'x, y, z'
loop_
 _atom_site_type_symbol
 _atom_site_label
 _atom_site_symmetry_multiplicity
 _atom_site_fract_x
 _atom_site_fract_y
 _atom_site_fract_z
 _atom_site_occupancy
  Tb  Tb0  1  0.038712  0.727178  0.311534  1
  Tb  Tb1  1  0.961288  0.272822  0.688466  1
  Tb  Tb2  1  0.584354  0.272822  0.311534  1
  Tb  Tb3  1  0.415646  0.727178  0.688466  1
  Tb  Tb4  1  0.678176  0.870460  0.192284  1
  Tb  Tb5  1  0.321824  0.514108  0.192284  1
  Tb  Tb6  1  0.321824  0.129540  0.807716  1
  Tb  Tb7  1  0.678176  0.485892  0.807716  1
  Tb  Tb8  1  0.179061  0.213939  0.393000  1
  Tb  Tb9  1  0.820939  0.213939  0.034877  1
  Tb  Tb10  1  0.179061  0.786061  0.965123  1
  Tb  Tb11  1  0.820939  0.786061  0.607000  1
  Ga  Ga12  1  0.500000  0.000000  0.500000  1
  Co  Co13  1  0.884003  0.884003  0.000000  1
  Co  Co14  1  0.115997  0.115997  0.000000  1
  Ni  Ni15  1  0.646442  0.500000  0.146442  1
  Ni  Ni16  1  0.353558  0.500000  0.853558  1
  Rh  Rh17  1  0.000000  0.500000  0.500000  1
