# generated using pymatgen
data_SrDy3(Al8Pt3)3
_symmetry_space_group_name_H-M   'P 1'
_cell_length_a   7.54798795
_cell_length_b   7.56603420
_cell_length_c   13.26899199
_cell_angle_alpha   84.60456377
_cell_angle_beta   79.13978682
_cell_angle_gamma   59.93794721
_symmetry_Int_Tables_number   1
_chemical_formula_structural   SrDy3(Al8Pt3)3
_chemical_formula_sum   'Sr1 Dy3 Al24 Pt9'
_cell_volume   644.09113357
_cell_formula_units_Z   1
loop_
 _symmetry_equiv_pos_site_id
 _symmetry_equiv_pos_as_xyz
  1  'x, y, z'
loop_
 _atom_site_type_symbol
 _atom_site_label
 _atom_site_symmetry_multiplicity
 _atom_site_fract_x
 _atom_site_fract_y
 _atom_site_fract_z
 _atom_site_occupancy
  Sr  Sr0  1  0.393257  0.167851  0.809685  1
  Dy  Dy1  1  0.604855  0.832465  0.192862  1
  Dy  Dy2  1  0.733565  0.498644  0.807734  1
  Dy  Dy3  1  0.266561  0.500865  0.192874  1
  Al  Al4  1  0.685830  0.831821  0.948173  1
  Al  Al5  1  0.314938  0.166195  0.057989  1
  Al  Al6  1  0.147113  0.832450  0.559408  1
  Al  Al7  1  0.853949  0.167771  0.437128  1
  Al  Al8  1  0.480493  0.166634  0.557185  1
  Al  Al9  1  0.520592  0.833385  0.439757  1
  Al  Al10  1  0.217558  0.165411  0.329031  1
  Al  Al11  1  0.784051  0.834810  0.666319  1
  Al  Al12  1  0.438472  0.506330  0.665925  1
  Al  Al13  1  0.563090  0.493262  0.329339  1
  Al  Al14  1  0.111113  0.160163  0.664634  1
  Al  Al15  1  0.890405  0.839941  0.330731  1
  Al  Al16  1  0.350548  0.501912  0.948262  1
  Al  Al17  1  0.645976  0.501234  0.057359  1
  Al  Al18  1  0.012223  0.167198  0.958842  1
  Al  Al19  1  0.983564  0.831790  0.048931  1
  Al  Al20  1  0.187052  0.499404  0.439820  1
  Al  Al21  1  0.813774  0.500395  0.557468  1
  Al  Al22  1  0.734238  0.164622  0.184303  1
  Al  Al23  1  0.269114  0.826196  0.816205  1
  Al  Al24  1  0.052877  0.636848  0.815469  1
  Al  Al25  1  0.937941  0.369666  0.185443  1
  Al  Al26  1  0.861765  0.044318  0.816339  1
  Al  Al27  1  0.144471  0.958296  0.184610  1
  Pt  Pt28  1  0.118906  0.494797  0.636155  1
  Pt  Pt29  1  0.880213  0.508236  0.361093  1
  Pt  Pt30  1  0.657177  0.170987  0.001969  1
  Pt  Pt31  1  0.341507  0.828345  0.002265  1
  Pt  Pt32  1  0.538224  0.166678  0.361111  1
  Pt  Pt33  1  0.461935  0.831267  0.636077  1
  Pt  Pt34  1  0.781821  0.174055  0.634981  1
  Pt  Pt35  1  0.221679  0.824856  0.362078  1
  Pt  Pt36  1  0.999153  0.500900  0.002447  1
