# generated using pymatgen
data_Zn2Ga(Ni10B3)2
_symmetry_space_group_name_H-M   'P 1'
_cell_length_a   7.41904660
_cell_length_b   7.41904622
_cell_length_c   7.41904600
_cell_angle_alpha   60.00000099
_cell_angle_beta   60.00000267
_cell_angle_gamma   60.00000267
_symmetry_Int_Tables_number   1
_chemical_formula_structural   Zn2Ga(Ni10B3)2
_chemical_formula_sum   'Zn2 Ga1 Ni20 B6'
_cell_volume   288.75483337
_cell_formula_units_Z   1
loop_
 _symmetry_equiv_pos_site_id
 _symmetry_equiv_pos_as_xyz
  1  'x, y, z'
loop_
 _atom_site_type_symbol
 _atom_site_label
 _atom_site_symmetry_multiplicity
 _atom_site_fract_x
 _atom_site_fract_y
 _atom_site_fract_z
 _atom_site_occupancy
  Zn  Zn0  1  0.000000  0.000000  0.000000  1
  Zn  Zn1  1  0.250000  0.250000  0.250000  1
  Ga  Ga2  1  0.750000  0.750000  0.750000  1
  Ni  Ni3  1  0.618108  0.618108  0.145675  1
  Ni  Ni4  1  0.618108  0.145675  0.618108  1
  Ni  Ni5  1  0.145675  0.618108  0.618108  1
  Ni  Ni6  1  0.618108  0.618108  0.618108  1
  Ni  Ni7  1  0.383698  0.383698  0.848906  1
  Ni  Ni8  1  0.383698  0.848906  0.383698  1
  Ni  Ni9  1  0.848906  0.383698  0.383698  1
  Ni  Ni10  1  0.383698  0.383698  0.383698  1
  Ni  Ni11  1  0.000333  0.000333  0.337588  1
  Ni  Ni12  1  0.661747  0.000333  0.337588  1
  Ni  Ni13  1  0.000333  0.661747  0.337588  1
  Ni  Ni14  1  0.661747  0.337588  0.000333  1
  Ni  Ni15  1  0.000333  0.337588  0.000333  1
  Ni  Ni16  1  0.000333  0.337588  0.661747  1
  Ni  Ni17  1  0.337588  0.661747  0.000333  1
  Ni  Ni18  1  0.337588  0.000333  0.661747  1
  Ni  Ni19  1  0.337588  0.000333  0.000333  1
  Ni  Ni20  1  0.000333  0.000333  0.661747  1
  Ni  Ni21  1  0.000333  0.661747  0.000333  1
  Ni  Ni22  1  0.661747  0.000333  0.000333  1
  B  B23  1  0.725486  0.725486  0.274514  1
  B  B24  1  0.274514  0.725486  0.274514  1
  B  B25  1  0.725486  0.274514  0.274514  1
  B  B26  1  0.274514  0.274514  0.725486  1
  B  B27  1  0.725486  0.274514  0.725486  1
  B  B28  1  0.274514  0.725486  0.725486  1
