# generated using pymatgen
data_Tb2Y2HoAl2Ru3
_symmetry_space_group_name_H-M   'P 1'
_cell_length_a   8.35091488
_cell_length_b   8.35324566
_cell_length_c   8.35262142
_cell_angle_alpha   109.54487878
_cell_angle_beta   109.52895583
_cell_angle_gamma   109.53931242
_symmetry_Int_Tables_number   1
_chemical_formula_structural   Tb2Y2HoAl2Ru3
_chemical_formula_sum   'Tb4 Y4 Ho2 Al4 Ru6'
_cell_volume   447.42102723
_cell_formula_units_Z   2
loop_
 _symmetry_equiv_pos_site_id
 _symmetry_equiv_pos_as_xyz
  1  'x, y, z'
loop_
 _atom_site_type_symbol
 _atom_site_label
 _atom_site_symmetry_multiplicity
 _atom_site_fract_x
 _atom_site_fract_y
 _atom_site_fract_z
 _atom_site_occupancy
  Tb  Tb0  1  0.501988  0.000326  0.713833  1
  Tb  Tb1  1  0.250751  0.181978  0.930512  1
  Tb  Tb2  1  0.930256  0.251175  0.181879  1
  Tb  Tb3  1  0.180872  0.930302  0.250634  1
  Y  Y4  1  0.783627  0.783563  0.783519  1
  Y  Y5  1  0.318242  0.568053  0.750948  1
  Y  Y6  1  0.751669  0.319519  0.568815  1
  Y  Y7  1  0.568441  0.749497  0.317787  1
  Ho  Ho8  1  0.714479  0.502636  0.000393  1
  Ho  Ho9  1  0.000044  0.713945  0.502173  1
  Al  Al10  1  0.410213  0.409467  0.410020  1
  Al  Al11  1  0.089479  0.499399  0.001684  1
  Al  Al12  1  0.000541  0.088905  0.498829  1
  Al  Al13  1  0.498778  0.000857  0.089345  1
  Ru  Ru14  1  0.880050  0.127421  0.748891  1
  Ru  Ru15  1  0.748690  0.879021  0.126494  1
  Ru  Ru16  1  0.126607  0.748999  0.879325  1
  Ru  Ru17  1  0.248418  0.620935  0.374120  1
  Ru  Ru18  1  0.374294  0.249521  0.622208  1
  Ru  Ru19  1  0.622560  0.374483  0.248592  1
