# generated using pymatgen
data_Hf2InIrPd
_symmetry_space_group_name_H-M   'P 1'
_cell_length_a   7.72415413
_cell_length_b   7.72415413
_cell_length_c   3.21223300
_cell_angle_alpha   90.00000000
_cell_angle_beta   90.00000000
_cell_angle_gamma   90.36005777
_symmetry_Int_Tables_number   1
_chemical_formula_structural   Hf2InIrPd
_chemical_formula_sum   'Hf4 In2 Ir2 Pd2'
_cell_volume   191.64625028
_cell_formula_units_Z   2
loop_
 _symmetry_equiv_pos_site_id
 _symmetry_equiv_pos_as_xyz
  1  'x, y, z'
loop_
 _atom_site_type_symbol
 _atom_site_label
 _atom_site_symmetry_multiplicity
 _atom_site_fract_x
 _atom_site_fract_y
 _atom_site_fract_z
 _atom_site_occupancy
  Hf  Hf0  1  0.171259  0.328741  0.000000  1
  Hf  Hf1  1  0.828741  0.671259  0.000000  1
  Hf  Hf2  1  0.659954  0.159954  0.000000  1
  Hf  Hf3  1  0.340046  0.840046  0.000000  1
  In  In4  1  0.000000  0.000000  0.500000  1
  In  In5  1  0.500000  0.500000  0.500000  1
  Ir  Ir6  1  0.368502  0.131498  0.500000  1
  Ir  Ir7  1  0.631498  0.868502  0.500000  1
  Pd  Pd8  1  0.871384  0.371384  0.500000  1
  Pd  Pd9  1  0.128616  0.628616  0.500000  1
