# generated using pymatgen
data_Pa2TeC
_symmetry_space_group_name_H-M   'P 1'
_cell_length_a   3.70017000
_cell_length_b   3.70017068
_cell_length_c   14.72124900
_cell_angle_alpha   90.00000000
_cell_angle_beta   90.00000000
_cell_angle_gamma   119.99999395
_symmetry_Int_Tables_number   1
_chemical_formula_structural   Pa2TeC
_chemical_formula_sum   'Pa4 Te2 C2'
_cell_volume   174.54955725
_cell_formula_units_Z   2
loop_
 _symmetry_equiv_pos_site_id
 _symmetry_equiv_pos_as_xyz
  1  'x, y, z'
loop_
 _atom_site_type_symbol
 _atom_site_label
 _atom_site_symmetry_multiplicity
 _atom_site_fract_x
 _atom_site_fract_y
 _atom_site_fract_z
 _atom_site_occupancy
  Pa  Pa0  1  0.666666  0.333333  0.092317  1
  Pa  Pa1  1  0.666666  0.333333  0.407683  1
  Pa  Pa2  1  0.333333  0.666666  0.592317  1
  Pa  Pa3  1  0.333333  0.666666  0.907683  1
  Te  Te4  1  0.333333  0.666666  0.250000  1
  Te  Te5  1  0.666666  0.333333  0.750000  1
  C  C6  1  0.000000  0.000000  0.000000  1
  C  C7  1  0.000000  0.000000  0.500000  1
