# generated using pymatgen
data_Tb2Pr6Hf11Si16Ag
_symmetry_space_group_name_H-M   'P 1'
_cell_length_a   7.39714010
_cell_length_b   7.40363569
_cell_length_c   13.49029040
_cell_angle_alpha   89.71982020
_cell_angle_beta   90.28651377
_cell_angle_gamma   89.52946446
_symmetry_Int_Tables_number   1
_chemical_formula_structural   Tb2Pr6Hf11Si16Ag
_chemical_formula_sum   'Tb2 Pr6 Hf11 Si16 Ag1'
_cell_volume   738.76247411
_cell_formula_units_Z   1
loop_
 _symmetry_equiv_pos_site_id
 _symmetry_equiv_pos_as_xyz
  1  'x, y, z'
loop_
 _atom_site_type_symbol
 _atom_site_label
 _atom_site_symmetry_multiplicity
 _atom_site_fract_x
 _atom_site_fract_y
 _atom_site_fract_z
 _atom_site_occupancy
  Tb  Tb0  1  0.345799  0.999009  0.788428  1
  Tb  Tb1  1  0.655029  0.003381  0.283821  1
  Pr  Pr2  1  0.996943  0.343840  0.210941  1
  Pr  Pr3  1  0.006474  0.656385  0.716505  1
  Pr  Pr4  1  0.156846  0.492847  0.464663  1
  Pr  Pr5  1  0.499529  0.848417  0.032958  1
  Pr  Pr6  1  0.848336  0.499491  0.966778  1
  Pr  Pr7  1  0.492936  0.156709  0.534655  1
  Hf  Hf8  1  0.823841  0.825294  0.499959  1
  Hf  Hf9  1  0.323541  0.677091  0.250050  1
  Hf  Hf10  1  0.675686  0.321874  0.750455  1
  Hf  Hf11  1  0.147298  0.994333  0.373624  1
  Hf  Hf12  1  0.854996  0.003747  0.878243  1
  Hf  Hf13  1  0.504741  0.650378  0.626080  1
  Hf  Hf14  1  0.353009  0.489609  0.879059  1
  Hf  Hf15  1  0.489814  0.353300  0.121457  1
  Hf  Hf16  1  0.650248  0.505536  0.373965  1
  Hf  Hf17  1  0.993580  0.147101  0.625933  1
  Hf  Hf18  1  0.003937  0.856743  0.122289  1
  Si  Si19  1  0.367353  0.295045  0.313464  1
  Si  Si20  1  0.631963  0.706176  0.817461  1
  Si  Si21  1  0.205833  0.865288  0.566543  1
  Si  Si22  1  0.132307  0.781924  0.929693  1
  Si  Si23  1  0.775532  0.129392  0.070843  1
  Si  Si24  1  0.862554  0.202778  0.431774  1
  Si  Si25  1  0.299493  0.360501  0.687732  1
  Si  Si26  1  0.701665  0.638643  0.183765  1
  Si  Si27  1  0.295613  0.049455  0.191108  1
  Si  Si28  1  0.705835  0.951370  0.687507  1
  Si  Si29  1  0.452328  0.792560  0.434638  1
  Si  Si30  1  0.214100  0.568960  0.065111  1
  Si  Si31  1  0.564871  0.211901  0.934178  1
  Si  Si32  1  0.790301  0.449567  0.564351  1
  Si  Si33  1  0.053387  0.288283  0.810185  1
  Si  Si34  1  0.947746  0.711035  0.313297  1
  Ag  Ag35  1  0.176535  0.172038  0.998489  1
