# generated using pymatgen
data_K2CdFeF7
_symmetry_space_group_name_H-M   'P 1'
_cell_length_a   8.00544097
_cell_length_b   8.00544094
_cell_length_c   8.00544100
_cell_angle_alpha   120.82126708
_cell_angle_beta   117.24411035
_cell_angle_gamma   91.71087182
_symmetry_Int_Tables_number   1
_chemical_formula_structural   K2CdFeF7
_chemical_formula_sum   'K4 Cd2 Fe2 F14'
_cell_volume   367.47227206
_cell_formula_units_Z   2
loop_
 _symmetry_equiv_pos_site_id
 _symmetry_equiv_pos_as_xyz
  1  'x, y, z'
loop_
 _atom_site_type_symbol
 _atom_site_label
 _atom_site_symmetry_multiplicity
 _atom_site_fract_x
 _atom_site_fract_y
 _atom_site_fract_z
 _atom_site_occupancy
  K  K0  1  0.500000  0.500000  0.000000  1
  K  K1  1  0.000000  0.000000  0.000000  1
  K  K2  1  0.000000  0.500000  0.000000  1
  K  K3  1  0.000000  0.000000  0.500000  1
  Cd  Cd4  1  0.500000  0.500000  0.500000  1
  Cd  Cd5  1  0.500000  0.000000  0.000000  1
  Fe  Fe6  1  0.000000  0.500000  0.500000  1
  Fe  Fe7  1  0.500000  0.000000  0.500000  1
  F  F8  1  0.874752  0.582380  0.292372  1
  F  F9  1  0.209991  0.917620  0.292372  1
  F  F10  1  0.173937  0.793175  0.747044  1
  F  F11  1  0.453868  0.706825  0.380761  1
  F  F12  1  0.453868  0.073107  0.747044  1
  F  F13  1  0.173937  0.426893  0.380761  1
  F  F14  1  0.826063  0.573107  0.619239  1
  F  F15  1  0.546132  0.926893  0.252956  1
  F  F16  1  0.546132  0.293175  0.619239  1
  F  F17  1  0.826063  0.206825  0.252956  1
  F  F18  1  0.369909  0.250000  0.119909  1
  F  F19  1  0.125248  0.417620  0.707628  1
  F  F20  1  0.790009  0.082380  0.707628  1
  F  F21  1  0.630091  0.750000  0.880091  1
