# generated using pymatgen
data_Yb4Ge2As4Ir7
_symmetry_space_group_name_H-M   'P 1'
_cell_length_a   7.23250850
_cell_length_b   7.23249943
_cell_length_c   7.23250897
_cell_angle_alpha   109.83125825
_cell_angle_beta   109.83159092
_cell_angle_gamma   108.75323858
_symmetry_Int_Tables_number   1
_chemical_formula_structural   Yb4Ge2As4Ir7
_chemical_formula_sum   'Yb4 Ge2 As4 Ir7'
_cell_volume   291.20116858
_cell_formula_units_Z   1
loop_
 _symmetry_equiv_pos_site_id
 _symmetry_equiv_pos_as_xyz
  1  'x, y, z'
loop_
 _atom_site_type_symbol
 _atom_site_label
 _atom_site_symmetry_multiplicity
 _atom_site_fract_x
 _atom_site_fract_y
 _atom_site_fract_z
 _atom_site_occupancy
  Yb  Yb0  1  0.500000  0.500000  0.500000  1
  Yb  Yb1  1  0.000000  0.500000  0.000000  1
  Yb  Yb2  1  0.000000  0.000000  0.500000  1
  Yb  Yb3  1  0.500000  0.000000  0.000000  1
  Ge  Ge4  1  0.681149  0.681149  0.000000  1
  Ge  Ge5  1  0.318851  0.318851  0.000000  1
  As  As6  1  0.682672  0.000000  0.682672  1
  As  As7  1  0.317328  0.000000  0.317328  1
  As  As8  1  0.000000  0.317328  0.317328  1
  As  As9  1  0.000000  0.682672  0.682672  1
  Ir  Ir10  1  0.249934  0.500000  0.749934  1
  Ir  Ir11  1  0.250000  0.749999  0.499999  1
  Ir  Ir12  1  0.500000  0.249934  0.749933  1
  Ir  Ir13  1  0.500000  0.750066  0.250067  1
  Ir  Ir14  1  0.750066  0.500000  0.250066  1
  Ir  Ir15  1  0.000000  0.000000  0.000000  1
  Ir  Ir16  1  0.750000  0.250001  0.500001  1
