# generated using pymatgen
data_La3Cd3Hg2Pt
_symmetry_space_group_name_H-M   'P 1'
_cell_length_a   8.03928900
_cell_length_b   8.03928881
_cell_length_c   4.26715400
_cell_angle_alpha   90.00000000
_cell_angle_beta   90.00000000
_cell_angle_gamma   120.00000488
_symmetry_Int_Tables_number   1
_chemical_formula_structural   La3Cd3Hg2Pt
_chemical_formula_sum   'La3 Cd3 Hg2 Pt1'
_cell_volume   238.83842541
_cell_formula_units_Z   1
loop_
 _symmetry_equiv_pos_site_id
 _symmetry_equiv_pos_as_xyz
  1  'x, y, z'
loop_
 _atom_site_type_symbol
 _atom_site_label
 _atom_site_symmetry_multiplicity
 _atom_site_fract_x
 _atom_site_fract_y
 _atom_site_fract_z
 _atom_site_occupancy
  La  La0  1  0.402434  0.423617  0.500000  1
  La  La1  1  0.576383  0.978818  0.500000  1
  La  La2  1  0.021182  0.597566  0.500000  1
  Cd  Cd3  1  0.740134  0.745126  0.000000  1
  Cd  Cd4  1  0.254874  0.995009  0.000000  1
  Cd  Cd5  1  0.004991  0.259866  0.000000  1
  Hg  Hg6  1  0.666667  0.333333  0.000000  1
  Hg  Hg7  1  0.000000  0.000000  0.500000  1
  Pt  Pt8  1  0.333333  0.666667  0.000000  1
