# generated using pymatgen
data_Rb4Na2HoTmAs4
_symmetry_space_group_name_H-M   'P 1'
_cell_length_a   9.45325111
_cell_length_b   9.45325084
_cell_length_c   9.45325064
_cell_angle_alpha   135.39063596
_cell_angle_beta   135.56216641
_cell_angle_gamma   64.79097661
_symmetry_Int_Tables_number   1
_chemical_formula_structural   Rb4Na2HoTmAs4
_chemical_formula_sum   'Rb4 Na2 Ho1 Tm1 As4'
_cell_volume   409.49118096
_cell_formula_units_Z   1
loop_
 _symmetry_equiv_pos_site_id
 _symmetry_equiv_pos_as_xyz
  1  'x, y, z'
loop_
 _atom_site_type_symbol
 _atom_site_label
 _atom_site_symmetry_multiplicity
 _atom_site_fract_x
 _atom_site_fract_y
 _atom_site_fract_z
 _atom_site_occupancy
  Rb  Rb0  1  0.681534  0.398290  0.716336  1
  Rb  Rb1  1  0.818466  0.034801  0.216757  1
  Rb  Rb2  1  0.181955  0.965199  0.783664  1
  Rb  Rb3  1  0.318045  0.601710  0.283243  1
  Na  Na4  1  0.750000  0.000000  0.750000  1
  Na  Na5  1  0.250000  0.000000  0.250000  1
  Ho  Ho6  1  0.750000  0.500000  0.250000  1
  Tm  Tm7  1  0.250000  0.500000  0.750000  1
  As  As8  1  0.403988  0.185064  0.777757  1
  As  As9  1  0.592693  0.814936  0.218923  1
  As  As10  1  0.096012  0.373771  0.281077  1
  As  As11  1  0.907307  0.626229  0.722243  1
