# generated using pymatgen
data_SrAl10IrOs
_symmetry_space_group_name_H-M   'P 1'
_cell_length_a   6.92333084
_cell_length_b   6.92332978
_cell_length_c   9.24466689
_cell_angle_alpha   90.10243668
_cell_angle_beta   89.89756216
_cell_angle_gamma   96.43435420
_symmetry_Int_Tables_number   1
_chemical_formula_structural   SrAl10IrOs
_chemical_formula_sum   'Sr2 Al20 Ir2 Os2'
_cell_volume   440.32749853
_cell_formula_units_Z   2
loop_
 _symmetry_equiv_pos_site_id
 _symmetry_equiv_pos_as_xyz
  1  'x, y, z'
loop_
 _atom_site_type_symbol
 _atom_site_label
 _atom_site_symmetry_multiplicity
 _atom_site_fract_x
 _atom_site_fract_y
 _atom_site_fract_z
 _atom_site_occupancy
  Sr  Sr0  1  0.622996  0.377004  0.750217  1
  Sr  Sr1  1  0.377004  0.622996  0.249783  1
  Al  Al2  1  0.279630  0.017872  0.747926  1
  Al  Al3  1  0.017872  0.279630  0.252074  1
  Al  Al4  1  0.720370  0.982128  0.252074  1
  Al  Al5  1  0.982128  0.720370  0.747926  1
  Al  Al6  1  0.878879  0.121121  0.951273  1
  Al  Al7  1  0.121121  0.878879  0.048727  1
  Al  Al8  1  0.876938  0.123062  0.545770  1
  Al  Al9  1  0.123062  0.876938  0.454230  1
  Al  Al10  1  0.645207  0.913860  0.748683  1
  Al  Al11  1  0.913860  0.645207  0.251317  1
  Al  Al12  1  0.354793  0.086140  0.251317  1
  Al  Al13  1  0.086140  0.354793  0.748683  1
  Al  Al14  1  0.337983  0.662017  0.895435  1
  Al  Al15  1  0.662017  0.337983  0.104565  1
  Al  Al16  1  0.339414  0.660586  0.600065  1
  Al  Al17  1  0.660586  0.339414  0.399935  1
  Al  Al18  1  0.724947  0.724947  0.000000  1
  Al  Al19  1  0.724033  0.724033  0.500000  1
  Al  Al20  1  0.275053  0.275053  0.000000  1
  Al  Al21  1  0.275967  0.275967  0.500000  1
  Ir  Ir22  1  0.500000  0.000000  0.000000  1
  Ir  Ir23  1  0.000000  0.500000  0.000000  1
  Os  Os24  1  0.500000  0.000000  0.500000  1
  Os  Os25  1  0.000000  0.500000  0.500000  1
