# generated using pymatgen
data_Tb2ErSi2Ni
_symmetry_space_group_name_H-M   'P 1'
_cell_length_a   4.12829500
_cell_length_b   11.25014900
_cell_length_c   11.31561400
_cell_angle_alpha   90.00000000
_cell_angle_beta   90.00000000
_cell_angle_gamma   90.00000000
_symmetry_Int_Tables_number   1
_chemical_formula_structural   Tb2ErSi2Ni
_chemical_formula_sum   'Tb8 Er4 Si8 Ni4'
_cell_volume   525.54162827
_cell_formula_units_Z   4
loop_
 _symmetry_equiv_pos_site_id
 _symmetry_equiv_pos_as_xyz
  1  'x, y, z'
loop_
 _atom_site_type_symbol
 _atom_site_label
 _atom_site_symmetry_multiplicity
 _atom_site_fract_x
 _atom_site_fract_y
 _atom_site_fract_z
 _atom_site_occupancy
  Tb  Tb0  1  0.250000  0.125693  0.557202  1
  Tb  Tb1  1  0.250000  0.374307  0.057202  1
  Tb  Tb2  1  0.750000  0.874307  0.442798  1
  Tb  Tb3  1  0.750000  0.625693  0.942798  1
  Tb  Tb4  1  0.250000  0.803763  0.715953  1
  Tb  Tb5  1  0.250000  0.696237  0.215953  1
  Tb  Tb6  1  0.750000  0.196237  0.284047  1
  Tb  Tb7  1  0.750000  0.303763  0.784047  1
  Er  Er8  1  0.250000  0.058659  0.883013  1
  Er  Er9  1  0.250000  0.441341  0.383013  1
  Er  Er10  1  0.750000  0.941341  0.116987  1
  Er  Er11  1  0.750000  0.558659  0.616987  1
  Si  Si12  1  0.250000  0.815358  0.976729  1
  Si  Si13  1  0.250000  0.684642  0.476729  1
  Si  Si14  1  0.750000  0.184642  0.023271  1
  Si  Si15  1  0.750000  0.315358  0.523271  1
  Si  Si16  1  0.250000  0.497431  0.801462  1
  Si  Si17  1  0.250000  0.002569  0.301462  1
  Si  Si18  1  0.750000  0.502569  0.198538  1
  Si  Si19  1  0.750000  0.997431  0.698538  1
  Ni  Ni20  1  0.250000  0.368723  0.627518  1
  Ni  Ni21  1  0.250000  0.131277  0.127518  1
  Ni  Ni22  1  0.750000  0.631277  0.372482  1
  Ni  Ni23  1  0.750000  0.868723  0.872482  1
