# generated using pymatgen
data_In2AsRhO7
_symmetry_space_group_name_H-M   'P 1'
_cell_length_a   7.05373550
_cell_length_b   7.05373552
_cell_length_c   7.00807500
_cell_angle_alpha   119.78610169
_cell_angle_beta   119.78610177
_cell_angle_gamma   60.27499580
_symmetry_Int_Tables_number   1
_chemical_formula_structural   In2AsRhO7
_chemical_formula_sum   'In4 As2 Rh2 O14'
_cell_volume   247.86712658
_cell_formula_units_Z   2
loop_
 _symmetry_equiv_pos_site_id
 _symmetry_equiv_pos_as_xyz
  1  'x, y, z'
loop_
 _atom_site_type_symbol
 _atom_site_label
 _atom_site_symmetry_multiplicity
 _atom_site_fract_x
 _atom_site_fract_y
 _atom_site_fract_z
 _atom_site_occupancy
  In  In0  1  0.500001  0.000000  0.000000  1
  In  In1  1  0.500000  0.500000  0.000000  1
  In  In2  1  0.000000  0.500001  0.000000  1
  In  In3  1  0.500000  0.500000  0.500000  1
  As  As4  1  0.499999  0.000000  0.500000  1
  As  As5  1  0.000000  0.499999  0.500000  1
  Rh  Rh6  1  0.000000  0.000000  0.000000  1
  Rh  Rh7  1  0.000000  0.000000  0.500000  1
  O  O8  1  0.383693  0.383693  0.133693  1
  O  O9  1  0.894628  0.894628  0.144628  1
  O  O10  1  0.902311  0.346132  0.177438  1
  O  O11  1  0.346132  0.902311  0.177438  1
  O  O12  1  0.691445  0.691445  0.441445  1
  O  O13  1  0.653869  0.097690  0.428995  1
  O  O14  1  0.097690  0.653869  0.428995  1
  O  O15  1  0.308556  0.308556  0.558556  1
  O  O16  1  0.902311  0.346134  0.571008  1
  O  O17  1  0.346134  0.902311  0.571008  1
  O  O18  1  0.653867  0.097691  0.822565  1
  O  O19  1  0.097691  0.653867  0.822565  1
  O  O20  1  0.105372  0.105372  0.855372  1
  O  O21  1  0.616307  0.616307  0.866308  1
