# generated using pymatgen
data_La3Y3Zn4Pd13
_symmetry_space_group_name_H-M   'P 1'
_cell_length_a   8.36810254
_cell_length_b   8.36810244
_cell_length_c   8.37266400
_cell_angle_alpha   109.48226344
_cell_angle_beta   109.48226318
_cell_angle_gamma   109.46017952
_symmetry_Int_Tables_number   1
_chemical_formula_structural   La3Y3Zn4Pd13
_chemical_formula_sum   'La3 Y3 Zn4 Pd13'
_cell_volume   451.27006822
_cell_formula_units_Z   1
loop_
 _symmetry_equiv_pos_site_id
 _symmetry_equiv_pos_as_xyz
  1  'x, y, z'
loop_
 _atom_site_type_symbol
 _atom_site_label
 _atom_site_symmetry_multiplicity
 _atom_site_fract_x
 _atom_site_fract_y
 _atom_site_fract_z
 _atom_site_occupancy
  La  La0  1  0.300789  0.300789  0.001347  1
  La  La1  1  0.699211  0.000000  0.700558  1
  La  La2  1  0.000000  0.699211  0.700558  1
  Y  Y3  1  0.695557  0.695557  0.001386  1
  Y  Y4  1  0.304443  0.000000  0.305829  1
  Y  Y5  1  0.000000  0.304443  0.305829  1
  Zn  Zn6  1  0.000000  0.000000  0.484861  1
  Zn  Zn7  1  0.000000  0.505068  0.001397  1
  Zn  Zn8  1  0.505068  0.000000  0.001397  1
  Zn  Zn9  1  0.494932  0.494932  0.496328  1
  Pd  Pd10  1  0.331100  0.331100  0.660672  1
  Pd  Pd11  1  0.668900  0.000000  0.329572  1
  Pd  Pd12  1  0.000000  0.668900  0.329572  1
  Pd  Pd13  1  0.669583  0.333306  0.001200  1
  Pd  Pd14  1  0.330417  0.663724  0.331617  1
  Pd  Pd15  1  0.000000  0.332889  0.665250  1
  Pd  Pd16  1  0.333306  0.669583  0.001200  1
  Pd  Pd17  1  0.332889  0.000000  0.665250  1
  Pd  Pd18  1  0.663724  0.330417  0.331617  1
  Pd  Pd19  1  0.667111  0.667111  0.332360  1
  Pd  Pd20  1  0.666694  0.336276  0.667894  1
  Pd  Pd21  1  0.336276  0.666694  0.667894  1
  Pd  Pd22  1  0.000000  0.000000  0.016415  1
