# generated using pymatgen
data_Tm2Th3Ge10IrRh3
_symmetry_space_group_name_H-M   'P 1'
_cell_length_a   13.11034617
_cell_length_b   13.11057017
_cell_length_c   4.38011500
_cell_angle_alpha   90.00000000
_cell_angle_beta   90.00000000
_cell_angle_gamma   90.04840035
_symmetry_Int_Tables_number   1
_chemical_formula_structural   Tm2Th3Ge10IrRh3
_chemical_formula_sum   'Tm4 Th6 Ge20 Ir2 Rh6'
_cell_volume   752.87191474
_cell_formula_units_Z   2
loop_
 _symmetry_equiv_pos_site_id
 _symmetry_equiv_pos_as_xyz
  1  'x, y, z'
loop_
 _atom_site_type_symbol
 _atom_site_label
 _atom_site_symmetry_multiplicity
 _atom_site_fract_x
 _atom_site_fract_y
 _atom_site_fract_z
 _atom_site_occupancy
  Tm  Tm0  1  0.325591  0.825737  0.500000  1
  Tm  Tm1  1  0.825610  0.674482  0.500000  1
  Tm  Tm2  1  0.174390  0.325518  0.500000  1
  Tm  Tm3  1  0.674409  0.174263  0.500000  1
  Th  Th4  1  0.112716  0.612779  0.500000  1
  Th  Th5  1  0.612848  0.887406  0.500000  1
  Th  Th6  1  0.387152  0.112594  0.500000  1
  Th  Th7  1  0.887284  0.387221  0.500000  1
  Th  Th8  1  0.500000  0.500000  0.000000  1
  Th  Th9  1  0.000000  0.000000  0.000000  1
  Ge  Ge10  1  0.337703  0.495607  0.500000  1
  Ge  Ge11  1  0.662297  0.504393  0.500000  1
  Ge  Ge12  1  0.504366  0.337679  0.500000  1
  Ge  Ge13  1  0.495634  0.662321  0.500000  1
  Ge  Ge14  1  0.995609  0.837729  0.500000  1
  Ge  Ge15  1  0.838427  0.004448  0.500000  1
  Ge  Ge16  1  0.161573  0.995552  0.500000  1
  Ge  Ge17  1  0.004391  0.162271  0.500000  1
  Ge  Ge18  1  0.337016  0.300930  0.000000  1
  Ge  Ge19  1  0.662984  0.699070  0.000000  1
  Ge  Ge20  1  0.699086  0.337045  0.000000  1
  Ge  Ge21  1  0.300914  0.662955  0.000000  1
  Ge  Ge22  1  0.800837  0.836332  0.000000  1
  Ge  Ge23  1  0.836953  0.199387  0.000000  1
  Ge  Ge24  1  0.163047  0.800613  0.000000  1
  Ge  Ge25  1  0.199163  0.163668  0.000000  1
  Ge  Ge26  1  0.433234  0.932480  0.000000  1
  Ge  Ge27  1  0.933016  0.566992  0.000000  1
  Ge  Ge28  1  0.566766  0.067520  0.000000  1
  Ge  Ge29  1  0.066984  0.433008  0.000000  1
  Ir  Ir30  1  0.245344  0.977471  0.000000  1
  Ir  Ir31  1  0.754656  0.022529  0.000000  1
  Rh  Rh32  1  0.022461  0.244404  0.000000  1
  Rh  Rh33  1  0.977539  0.755596  0.000000  1
  Rh  Rh34  1  0.477505  0.744467  0.000000  1
  Rh  Rh35  1  0.744561  0.522507  0.000000  1
  Rh  Rh36  1  0.255439  0.477493  0.000000  1
  Rh  Rh37  1  0.522495  0.255533  0.000000  1
