# generated using pymatgen
data_HoEr2Nb3(B2Ru5)2
_symmetry_space_group_name_H-M   'P 1'
_cell_length_a   9.58870502
_cell_length_b   9.58854562
_cell_length_c   3.12427000
_cell_angle_alpha   90.00000000
_cell_angle_beta   90.00000000
_cell_angle_gamma   90.34178539
_symmetry_Int_Tables_number   1
_chemical_formula_structural   HoEr2Nb3(B2Ru5)2
_chemical_formula_sum   'Ho1 Er2 Nb3 B4 Ru10'
_cell_volume   287.24569536
_cell_formula_units_Z   1
loop_
 _symmetry_equiv_pos_site_id
 _symmetry_equiv_pos_as_xyz
  1  'x, y, z'
loop_
 _atom_site_type_symbol
 _atom_site_label
 _atom_site_symmetry_multiplicity
 _atom_site_fract_x
 _atom_site_fract_y
 _atom_site_fract_z
 _atom_site_occupancy
  Ho  Ho0  1  0.824003  0.674785  0.000000  1
  Er  Er1  1  0.174899  0.323980  0.000000  1
  Er  Er2  1  0.325678  0.825697  0.000000  1
  Nb  Nb3  1  0.675615  0.175597  0.000000  1
  Nb  Nb4  1  0.497799  0.503474  0.000000  1
  Nb  Nb5  1  0.003597  0.998076  0.000000  1
  B  B6  1  0.623601  0.881316  0.000000  1
  B  B7  1  0.381154  0.123761  0.000000  1
  B  B8  1  0.118836  0.618663  0.000000  1
  B  B9  1  0.876123  0.375991  0.000000  1
  Ru  Ru10  1  0.570839  0.722621  0.500000  1
  Ru  Ru11  1  0.440100  0.280455  0.500000  1
  Ru  Ru12  1  0.069785  0.780008  0.500000  1
  Ru  Ru13  1  0.916260  0.213608  0.500000  1
  Ru  Ru14  1  0.279947  0.569479  0.500000  1
  Ru  Ru15  1  0.713534  0.416021  0.500000  1
  Ru  Ru16  1  0.222488  0.071237  0.500000  1
  Ru  Ru17  1  0.780393  0.940427  0.500000  1
  Ru  Ru18  1  0.509102  0.009177  0.500000  1
  Ru  Ru19  1  0.996248  0.495630  0.500000  1
