# generated using pymatgen
data_Yb6Zn16Rh7
_symmetry_space_group_name_H-M   'P 1'
_cell_length_a   8.94354857
_cell_length_b   8.94354804
_cell_length_c   8.94355000
_cell_angle_alpha   60.00000755
_cell_angle_beta   60.00000949
_cell_angle_gamma   60.00000652
_symmetry_Int_Tables_number   1
_chemical_formula_structural   Yb6Zn16Rh7
_chemical_formula_sum   'Yb6 Zn16 Rh7'
_cell_volume   505.84182165
_cell_formula_units_Z   1
loop_
 _symmetry_equiv_pos_site_id
 _symmetry_equiv_pos_as_xyz
  1  'x, y, z'
loop_
 _atom_site_type_symbol
 _atom_site_label
 _atom_site_symmetry_multiplicity
 _atom_site_fract_x
 _atom_site_fract_y
 _atom_site_fract_z
 _atom_site_occupancy
  Yb  Yb0  1  0.218339  0.781661  0.781661  1
  Yb  Yb1  1  0.781661  0.218339  0.218339  1
  Yb  Yb2  1  0.781661  0.218339  0.781661  1
  Yb  Yb3  1  0.781661  0.781661  0.218339  1
  Yb  Yb4  1  0.218339  0.781661  0.218339  1
  Yb  Yb5  1  0.218339  0.218339  0.781661  1
  Zn  Zn6  1  0.831166  0.831166  0.831166  1
  Zn  Zn7  1  0.831166  0.831166  0.506504  1
  Zn  Zn8  1  0.506504  0.831166  0.831166  1
  Zn  Zn9  1  0.831166  0.506504  0.831166  1
  Zn  Zn10  1  0.168834  0.168834  0.168834  1
  Zn  Zn11  1  0.168834  0.168834  0.493496  1
  Zn  Zn12  1  0.168834  0.493496  0.168834  1
  Zn  Zn13  1  0.493496  0.168834  0.168834  1
  Zn  Zn14  1  0.621460  0.621460  0.621460  1
  Zn  Zn15  1  0.621460  0.621460  0.135621  1
  Zn  Zn16  1  0.135621  0.621460  0.621460  1
  Zn  Zn17  1  0.621460  0.135621  0.621460  1
  Zn  Zn18  1  0.378540  0.378540  0.378540  1
  Zn  Zn19  1  0.378540  0.378540  0.864379  1
  Zn  Zn20  1  0.378540  0.864379  0.378540  1
  Zn  Zn21  1  0.864379  0.378540  0.378540  1
  Rh  Rh22  1  0.500000  0.500000  0.500000  1
  Rh  Rh23  1  0.000000  0.500000  0.500000  1
  Rh  Rh24  1  0.500000  0.000000  0.000000  1
  Rh  Rh25  1  0.500000  0.000000  0.500000  1
  Rh  Rh26  1  0.500000  0.500000  0.000000  1
  Rh  Rh27  1  0.000000  0.500000  0.000000  1
  Rh  Rh28  1  0.000000  0.000000  0.500000  1
