# generated using pymatgen
data_Mo3Ir5
_symmetry_space_group_name_H-M   'P 1'
_cell_length_a   5.54214800
_cell_length_b   5.57533928
_cell_length_c   4.43901800
_cell_angle_alpha   90.00000000
_cell_angle_beta   90.00000000
_cell_angle_gamma   119.80326332
_symmetry_Int_Tables_number   1
_chemical_formula_structural   Mo3Ir5
_chemical_formula_sum   'Mo3 Ir5'
_cell_volume   119.02125239
_cell_formula_units_Z   1
loop_
 _symmetry_equiv_pos_site_id
 _symmetry_equiv_pos_as_xyz
  1  'x, y, z'
loop_
 _atom_site_type_symbol
 _atom_site_label
 _atom_site_symmetry_multiplicity
 _atom_site_fract_x
 _atom_site_fract_y
 _atom_site_fract_z
 _atom_site_occupancy
  Mo  Mo0  1  0.668328  0.336655  0.250000  1
  Mo  Mo1  1  0.335471  0.670944  0.750000  1
  Mo  Mo2  1  0.166151  0.332303  0.250000  1
  Ir  Ir3  1  0.830925  0.165964  0.750000  1
  Ir  Ir4  1  0.335040  0.165964  0.750000  1
  Ir  Ir5  1  0.834996  0.669992  0.750000  1
  Ir  Ir6  1  0.161381  0.829089  0.250000  1
  Ir  Ir7  1  0.667707  0.829089  0.250000  1
