# generated using pymatgen
data_Nd8Y12Si15Ni
_symmetry_space_group_name_H-M   'P 1'
_cell_length_a   7.77891834
_cell_length_b   7.79347042
_cell_length_c   14.37437942
_cell_angle_alpha   89.62634529
_cell_angle_beta   89.77670054
_cell_angle_gamma   89.99484823
_symmetry_Int_Tables_number   1
_chemical_formula_structural   Nd8Y12Si15Ni
_chemical_formula_sum   'Nd8 Y12 Si15 Ni1'
_cell_volume   871.41829510
_cell_formula_units_Z   1
loop_
 _symmetry_equiv_pos_site_id
 _symmetry_equiv_pos_as_xyz
  1  'x, y, z'
loop_
 _atom_site_type_symbol
 _atom_site_label
 _atom_site_symmetry_multiplicity
 _atom_site_fract_x
 _atom_site_fract_y
 _atom_site_fract_z
 _atom_site_occupancy
  Nd  Nd0  1  0.635067  0.987356  0.462171  1
  Nd  Nd1  1  0.364634  0.007938  0.955127  1
  Nd  Nd2  1  0.985822  0.634982  0.539702  1
  Nd  Nd3  1  0.490500  0.861535  0.207297  1
  Nd  Nd4  1  0.511005  0.140206  0.706738  1
  Nd  Nd5  1  0.863883  0.494761  0.793057  1
  Nd  Nd6  1  0.137057  0.507904  0.294062  1
  Nd  Nd7  1  0.011536  0.362132  0.043329  1
  Y  Y8  1  0.487926  0.362964  0.124566  1
  Y  Y9  1  0.989784  0.139995  0.627531  1
  Y  Y10  1  0.863439  0.009680  0.873189  1
  Y  Y11  1  0.135876  0.982490  0.378367  1
  Y  Y12  1  0.510490  0.637027  0.622383  1
  Y  Y13  1  0.365221  0.492259  0.875073  1
  Y  Y14  1  0.633779  0.509489  0.376845  1
  Y  Y15  1  0.011816  0.864923  0.125698  1
  Y  Y16  1  0.311567  0.304577  0.502582  1
  Y  Y17  1  0.191589  0.824006  0.739992  1
  Y  Y18  1  0.815594  0.183130  0.252167  1
  Y  Y19  1  0.685609  0.685825  0.999786  1
  Si  Si20  1  0.712158  0.068117  0.061266  1
  Si  Si21  1  0.931959  0.288277  0.439115  1
  Si  Si22  1  0.431857  0.209631  0.311562  1
  Si  Si23  1  0.569055  0.788762  0.810175  1
  Si  Si24  1  0.210982  0.436189  0.689434  1
  Si  Si25  1  0.789040  0.567376  0.189125  1
  Si  Si26  1  0.066331  0.711994  0.936710  1
  Si  Si27  1  0.796678  0.846701  0.687751  1
  Si  Si28  1  0.201447  0.155251  0.192743  1
  Si  Si29  1  0.842056  0.795922  0.309166  1
  Si  Si30  1  0.342202  0.700138  0.443673  1
  Si  Si31  1  0.657976  0.299795  0.942810  1
  Si  Si32  1  0.704181  0.344868  0.559768  1
  Si  Si33  1  0.298995  0.657409  0.057407  1
  Si  Si34  1  0.154767  0.207865  0.811198  1
  Ni  Ni35  1  0.288125  0.928527  0.558432  1
