# generated using pymatgen
data_Ti18ReSi16Ir
_symmetry_space_group_name_H-M   'P 1'
_cell_length_a   6.66764310
_cell_length_b   6.65990766
_cell_length_c   12.12519349
_cell_angle_alpha   89.83563567
_cell_angle_beta   90.31341569
_cell_angle_gamma   89.89532977
_symmetry_Int_Tables_number   1
_chemical_formula_structural   Ti18ReSi16Ir
_chemical_formula_sum   'Ti18 Re1 Si16 Ir1'
_cell_volume   538.41879131
_cell_formula_units_Z   1
loop_
 _symmetry_equiv_pos_site_id
 _symmetry_equiv_pos_as_xyz
  1  'x, y, z'
loop_
 _atom_site_type_symbol
 _atom_site_label
 _atom_site_symmetry_multiplicity
 _atom_site_fract_x
 _atom_site_fract_y
 _atom_site_fract_z
 _atom_site_occupancy
  Ti  Ti0  1  0.997057  0.147798  0.624189  1
  Ti  Ti1  1  0.354864  0.500954  0.871650  1
  Ti  Ti2  1  0.649884  0.505619  0.370922  1
  Ti  Ti3  1  0.498975  0.353532  0.130736  1
  Ti  Ti4  1  0.503461  0.647932  0.626550  1
  Ti  Ti5  1  0.002298  0.847196  0.120484  1
  Ti  Ti6  1  0.147064  0.998603  0.376432  1
  Ti  Ti7  1  0.847383  0.004067  0.879017  1
  Ti  Ti8  1  0.997353  0.341506  0.222583  1
  Ti  Ti9  1  0.154957  0.501939  0.469975  1
  Ti  Ti10  1  0.836342  0.501055  0.971658  1
  Ti  Ti11  1  0.500054  0.156693  0.529694  1
  Ti  Ti12  1  0.501587  0.837644  0.027468  1
  Ti  Ti13  1  0.000079  0.656493  0.721214  1
  Ti  Ti14  1  0.346171  0.000440  0.779920  1
  Ti  Ti15  1  0.660781  0.000125  0.277827  1
  Ti  Ti16  1  0.670686  0.327374  0.752111  1
  Ti  Ti17  1  0.830029  0.828680  0.498582  1
  Re  Re18  1  0.327272  0.671615  0.247065  1
  Si  Si19  1  0.047215  0.300485  0.817312  1
  Si  Si20  1  0.198570  0.540882  0.062345  1
  Si  Si21  1  0.802545  0.455269  0.565401  1
  Si  Si22  1  0.540516  0.199285  0.937650  1
  Si  Si23  1  0.454161  0.802190  0.433873  1
  Si  Si24  1  0.959311  0.697774  0.314438  1
  Si  Si25  1  0.301555  0.043813  0.183796  1
  Si  Si26  1  0.697777  0.955559  0.684700  1
  Si  Si27  1  0.293326  0.358308  0.673897  1
  Si  Si28  1  0.138968  0.793486  0.922243  1
  Si  Si29  1  0.856596  0.206250  0.424799  1
  Si  Si30  1  0.792878  0.140360  0.076833  1
  Si  Si31  1  0.206320  0.858188  0.576023  1
  Si  Si32  1  0.706013  0.642905  0.172744  1
  Si  Si33  1  0.358690  0.295271  0.328427  1
  Si  Si34  1  0.644294  0.705946  0.824857  1
  Ir  Ir35  1  0.174970  0.174763  0.002587  1
