# generated using pymatgen
data_Tb5SnTe4
_symmetry_space_group_name_H-M   'P 1'
_cell_length_a   7.53236762
_cell_length_b   7.53236622
_cell_length_c   10.68364400
_cell_angle_alpha   61.90785514
_cell_angle_beta   61.90785222
_cell_angle_gamma   33.45019733
_symmetry_Int_Tables_number   1
_chemical_formula_structural   Tb5SnTe4
_chemical_formula_sum   'Tb5 Sn1 Te4'
_cell_volume   290.94053924
_cell_formula_units_Z   1
loop_
 _symmetry_equiv_pos_site_id
 _symmetry_equiv_pos_as_xyz
  1  'x, y, z'
loop_
 _atom_site_type_symbol
 _atom_site_label
 _atom_site_symmetry_multiplicity
 _atom_site_fract_x
 _atom_site_fract_y
 _atom_site_fract_z
 _atom_site_occupancy
  Tb  Tb0  1  0.000000  0.000000  0.500000  1
  Tb  Tb1  1  0.594105  0.594105  0.097420  1
  Tb  Tb2  1  0.194851  0.194851  0.709186  1
  Tb  Tb3  1  0.805149  0.805149  0.290814  1
  Tb  Tb4  1  0.405895  0.405895  0.902580  1
  Sn  Sn5  1  0.000000  0.000000  0.000000  1
  Te  Te6  1  0.602930  0.602930  0.595583  1
  Te  Te7  1  0.198167  0.198167  0.198743  1
  Te  Te8  1  0.801833  0.801833  0.801257  1
  Te  Te9  1  0.397070  0.397070  0.404417  1
