# generated using pymatgen
data_K6Os2O9
_symmetry_space_group_name_H-M   'P 1'
_cell_length_a   6.29364184
_cell_length_b   6.29364239
_cell_length_c   8.22816320
_cell_angle_alpha   90.80119884
_cell_angle_beta   90.80120283
_cell_angle_gamma   85.87083120
_symmetry_Int_Tables_number   1
_chemical_formula_structural   K6Os2O9
_chemical_formula_sum   'K6 Os2 O9'
_cell_volume   325.01168285
_cell_formula_units_Z   1
loop_
 _symmetry_equiv_pos_site_id
 _symmetry_equiv_pos_as_xyz
  1  'x, y, z'
loop_
 _atom_site_type_symbol
 _atom_site_label
 _atom_site_symmetry_multiplicity
 _atom_site_fract_x
 _atom_site_fract_y
 _atom_site_fract_z
 _atom_site_occupancy
  K  K0  1  0.503683  0.503683  0.982132  1
  K  K1  1  0.006034  0.506783  0.242303  1
  K  K2  1  0.000933  0.505404  0.781139  1
  K  K3  1  0.005508  0.005508  0.546489  1
  K  K4  1  0.505404  0.000933  0.781139  1
  K  K5  1  0.506783  0.006034  0.242303  1
  Os  Os6  1  0.511621  0.511621  0.504919  1
  Os  Os7  1  0.007147  0.007147  0.017587  1
  O  O8  1  0.793773  0.793773  0.015275  1
  O  O9  1  0.192672  0.817651  0.908076  1
  O  O10  1  0.704931  0.704931  0.557444  1
  O  O11  1  0.309947  0.707395  0.430730  1
  O  O12  1  0.707395  0.309947  0.430730  1
  O  O13  1  0.329327  0.329327  0.584669  1
  O  O14  1  0.817651  0.192672  0.908076  1
  O  O15  1  0.219932  0.219932  0.013286  1
  O  O16  1  0.012758  0.012758  0.236206  1
