# generated using pymatgen
data_Ta16BeNi3Te16
_symmetry_space_group_name_H-M   'P 1'
_cell_length_a   4.78773600
_cell_length_b   10.93923135
_cell_length_c   19.01491632
_cell_angle_alpha   89.94326564
_cell_angle_beta   90.00000000
_cell_angle_gamma   90.00000000
_symmetry_Int_Tables_number   1
_chemical_formula_structural   Ta16BeNi3Te16
_chemical_formula_sum   'Ta16 Be1 Ni3 Te16'
_cell_volume   995.88962427
_cell_formula_units_Z   1
loop_
 _symmetry_equiv_pos_site_id
 _symmetry_equiv_pos_as_xyz
  1  'x, y, z'
loop_
 _atom_site_type_symbol
 _atom_site_label
 _atom_site_symmetry_multiplicity
 _atom_site_fract_x
 _atom_site_fract_y
 _atom_site_fract_z
 _atom_site_occupancy
  Ta  Ta0  1  0.496422  0.563054  0.385817  1
  Ta  Ta1  1  0.496422  0.436946  0.614183  1
  Ta  Ta2  1  0.500460  0.064195  0.116945  1
  Ta  Ta3  1  0.500460  0.935805  0.883055  1
  Ta  Ta4  1  0.488785  0.700267  0.535581  1
  Ta  Ta5  1  0.488785  0.299733  0.464419  1
  Ta  Ta6  1  0.499817  0.204327  0.963495  1
  Ta  Ta7  1  0.499817  0.795673  0.036505  1
  Ta  Ta8  1  0.010290  0.686026  0.444157  1
  Ta  Ta9  1  0.010290  0.313974  0.555843  1
  Ta  Ta10  1  0.000214  0.189746  0.056966  1
  Ta  Ta11  1  0.000214  0.810254  0.943034  1
  Ta  Ta12  1  0.004687  0.402761  0.394091  1
  Ta  Ta13  1  0.004687  0.597239  0.605909  1
  Ta  Ta14  1  0.999213  0.901017  0.108588  1
  Ta  Ta15  1  0.999213  0.098983  0.891412  1
  Be  Be16  1  0.249922  0.500000  0.500000  1
  Ni  Ni17  1  0.750273  0.000000  0.000000  1
  Ni  Ni18  1  0.750146  0.500000  0.500000  1
  Ni  Ni19  1  0.250226  0.000000  0.000000  1
  Te  Te20  1  0.987869  0.846925  0.562442  1
  Te  Te21  1  0.987869  0.153075  0.437558  1
  Te  Te22  1  0.000104  0.348982  0.936668  1
  Te  Te23  1  0.000104  0.651018  0.063332  1
  Te  Te24  1  0.507606  0.333234  0.315691  1
  Te  Te25  1  0.507606  0.666766  0.684309  1
  Te  Te26  1  0.499205  0.831096  0.185606  1
  Te  Te27  1  0.499205  0.168904  0.814394  1
  Te  Te28  1  0.511694  0.822265  0.402735  1
  Te  Te29  1  0.511694  0.177735  0.597265  1
  Te  Te30  1  0.499549  0.324492  0.097668  1
  Te  Te31  1  0.499549  0.675508  0.902332  1
  Te  Te32  1  0.993304  0.607313  0.301163  1
  Te  Te33  1  0.993304  0.392687  0.698837  1
  Te  Te34  1  0.000497  0.109033  0.200337  1
  Te  Te35  1  0.000497  0.890967  0.799663  1
