# generated using pymatgen
data_NdPu4Ga15
_symmetry_space_group_name_H-M   'P 1'
_cell_length_a   12.53022935
_cell_length_b   12.53022836
_cell_length_c   12.53022807
_cell_angle_alpha   28.48912280
_cell_angle_beta   28.48913085
_cell_angle_gamma   28.48912834
_symmetry_Int_Tables_number   1
_chemical_formula_structural   NdPu4Ga15
_chemical_formula_sum   'Nd1 Pu4 Ga15'
_cell_volume   395.61823136
_cell_formula_units_Z   1
loop_
 _symmetry_equiv_pos_site_id
 _symmetry_equiv_pos_as_xyz
  1  'x, y, z'
loop_
 _atom_site_type_symbol
 _atom_site_label
 _atom_site_symmetry_multiplicity
 _atom_site_fract_x
 _atom_site_fract_y
 _atom_site_fract_z
 _atom_site_occupancy
  Nd  Nd0  1  0.000000  0.000000  0.000000  1
  Pu  Pu1  1  0.129109  0.129109  0.129109  1
  Pu  Pu2  1  0.870891  0.870891  0.870891  1
  Pu  Pu3  1  0.400750  0.400750  0.400750  1
  Pu  Pu4  1  0.599250  0.599250  0.599250  1
  Ga  Ga5  1  0.131016  0.636136  0.636136  1
  Ga  Ga6  1  0.636136  0.636136  0.131016  1
  Ga  Ga7  1  0.636136  0.131016  0.636136  1
  Ga  Ga8  1  0.363864  0.868984  0.363864  1
  Ga  Ga9  1  0.363864  0.363864  0.868984  1
  Ga  Ga10  1  0.868984  0.363864  0.363864  1
  Ga  Ga11  1  0.434170  0.883298  0.883298  1
  Ga  Ga12  1  0.883298  0.883298  0.434170  1
  Ga  Ga13  1  0.883298  0.434170  0.883298  1
  Ga  Ga14  1  0.116702  0.565830  0.116702  1
  Ga  Ga15  1  0.116702  0.116702  0.565830  1
  Ga  Ga16  1  0.565830  0.116702  0.116702  1
  Ga  Ga17  1  0.500000  0.500000  0.000000  1
  Ga  Ga18  1  0.500000  0.000000  0.500000  1
  Ga  Ga19  1  0.000000  0.500000  0.500000  1
