# generated using pymatgen
data_Er(NbS2)5
_symmetry_space_group_name_H-M   'P 1'
_cell_length_a   5.84328199
_cell_length_b   7.70118985
_cell_length_c   8.44047100
_cell_angle_alpha   112.98816308
_cell_angle_beta   96.74549599
_cell_angle_gamma   104.51684724
_symmetry_Int_Tables_number   1
_chemical_formula_structural   Er(NbS2)5
_chemical_formula_sum   'Er1 Nb5 S10'
_cell_volume   328.46484122
_cell_formula_units_Z   1
loop_
 _symmetry_equiv_pos_site_id
 _symmetry_equiv_pos_as_xyz
  1  'x, y, z'
loop_
 _atom_site_type_symbol
 _atom_site_label
 _atom_site_symmetry_multiplicity
 _atom_site_fract_x
 _atom_site_fract_y
 _atom_site_fract_z
 _atom_site_occupancy
  Er  Er0  1  0.668134  0.508570  0.993828  1
  Nb  Nb1  1  0.003126  0.997694  0.000435  1
  Nb  Nb2  1  0.598883  0.201804  0.202661  1
  Nb  Nb3  1  0.198682  0.399724  0.399082  1
  Nb  Nb4  1  0.799132  0.600353  0.601901  1
  Nb  Nb5  1  0.400719  0.797056  0.798846  1
  S  S6  1  0.234834  0.060951  0.293310  1
  S  S7  1  0.046118  0.655724  0.894965  1
  S  S8  1  0.834863  0.260453  0.491754  1
  S  S9  1  0.635493  0.865632  0.101619  1
  S  S10  1  0.426556  0.447977  0.686378  1
  S  S11  1  0.898744  0.545828  0.309109  1
  S  S12  1  0.698691  0.137851  0.905339  1
  S  S13  1  0.496680  0.739010  0.508812  1
  S  S14  1  0.293882  0.341519  0.104909  1
  S  S15  1  0.098263  0.937452  0.708651  1
