# generated using pymatgen
data_K2HgAs2O7
_symmetry_space_group_name_H-M   'P 1'
_cell_length_a   8.86021400
_cell_length_b   8.86021400
_cell_length_c   5.78782900
_cell_angle_alpha   90.00000000
_cell_angle_beta   90.00000000
_cell_angle_gamma   90.00000000
_symmetry_Int_Tables_number   1
_chemical_formula_structural   K2HgAs2O7
_chemical_formula_sum   'K4 Hg2 As4 O14'
_cell_volume   454.36420954
_cell_formula_units_Z   2
loop_
 _symmetry_equiv_pos_site_id
 _symmetry_equiv_pos_as_xyz
  1  'x, y, z'
loop_
 _atom_site_type_symbol
 _atom_site_label
 _atom_site_symmetry_multiplicity
 _atom_site_fract_x
 _atom_site_fract_y
 _atom_site_fract_z
 _atom_site_occupancy
  K  K0  1  0.333987  0.833987  0.491292  1
  K  K1  1  0.166013  0.333987  0.508708  1
  K  K2  1  0.666013  0.166013  0.491292  1
  K  K3  1  0.833987  0.666013  0.508708  1
  Hg  Hg4  1  0.500000  0.500000  0.000000  1
  Hg  Hg5  1  0.000000  0.000000  0.000000  1
  As  As6  1  0.365628  0.134372  0.946327  1
  As  As7  1  0.134372  0.634372  0.053673  1
  As  As8  1  0.634372  0.865628  0.946327  1
  As  As9  1  0.865628  0.365628  0.053673  1
  O  O10  1  0.500000  0.000000  0.829774  1
  O  O11  1  0.000000  0.500000  0.170226  1
  O  O12  1  0.576942  0.705505  0.801136  1
  O  O13  1  0.923058  0.205505  0.198864  1
  O  O14  1  0.423058  0.294495  0.801136  1
  O  O15  1  0.076942  0.794495  0.198864  1
  O  O16  1  0.705505  0.423058  0.198864  1
  O  O17  1  0.794495  0.923058  0.801136  1
  O  O18  1  0.294495  0.576942  0.198864  1
  O  O19  1  0.205505  0.076942  0.801136  1
  O  O20  1  0.363363  0.136637  0.236101  1
  O  O21  1  0.136637  0.636637  0.763899  1
  O  O22  1  0.636637  0.863363  0.236101  1
  O  O23  1  0.863363  0.363363  0.763899  1
