# generated using pymatgen
data_TbBi2MoO7
_symmetry_space_group_name_H-M   'P 1'
_cell_length_a   6.67740280
_cell_length_b   6.67740265
_cell_length_c   7.63933269
_cell_angle_alpha   89.97139208
_cell_angle_beta   89.97139677
_cell_angle_gamma   108.24404320
_symmetry_Int_Tables_number   1
_chemical_formula_structural   TbBi2MoO7
_chemical_formula_sum   'Tb2 Bi4 Mo2 O14'
_cell_volume   323.49779937
_cell_formula_units_Z   2
loop_
 _symmetry_equiv_pos_site_id
 _symmetry_equiv_pos_as_xyz
  1  'x, y, z'
loop_
 _atom_site_type_symbol
 _atom_site_label
 _atom_site_symmetry_multiplicity
 _atom_site_fract_x
 _atom_site_fract_y
 _atom_site_fract_z
 _atom_site_occupancy
  Tb  Tb0  1  0.540483  0.997178  0.760760  1
  Tb  Tb1  1  0.002822  0.459517  0.739240  1
  Bi  Bi2  1  0.477875  0.992328  0.250161  1
  Bi  Bi3  1  0.007672  0.522125  0.249839  1
  Bi  Bi4  1  0.458713  0.446345  0.994182  1
  Bi  Bi5  1  0.553655  0.541287  0.505818  1
  Mo  Mo6  1  0.005085  0.005465  0.502204  1
  Mo  Mo7  1  0.994535  0.994915  0.997796  1
  O  O8  1  0.921980  0.078020  0.750000  1
  O  O9  1  0.648528  0.351472  0.750000  1
  O  O10  1  0.277765  0.033725  0.562161  1
  O  O11  1  0.966275  0.722235  0.937839  1
  O  O12  1  0.642782  0.357218  0.250000  1
  O  O13  1  0.916901  0.677266  0.532099  1
  O  O14  1  0.322734  0.083099  0.967901  1
  O  O15  1  0.081635  0.325763  0.018447  1
  O  O16  1  0.674237  0.918365  0.481553  1
  O  O17  1  0.366781  0.633219  0.750000  1
  O  O18  1  0.688659  0.964169  0.034345  1
  O  O19  1  0.035831  0.311341  0.465655  1
  O  O20  1  0.370637  0.629363  0.250000  1
  O  O21  1  0.044412  0.955588  0.250000  1
