# generated using pymatgen
data_Ho7ErTm8(Ga3Co)2
_symmetry_space_group_name_H-M   'P 1'
_cell_length_a   9.89282501
_cell_length_b   9.89282510
_cell_length_c   6.88883700
_cell_angle_alpha   89.99933787
_cell_angle_beta   90.00066280
_cell_angle_gamma   119.99517371
_symmetry_Int_Tables_number   1
_chemical_formula_structural   Ho7ErTm8(Ga3Co)2
_chemical_formula_sum   'Ho7 Er1 Tm8 Ga6 Co2'
_cell_volume   583.89978771
_cell_formula_units_Z   1
loop_
 _symmetry_equiv_pos_site_id
 _symmetry_equiv_pos_as_xyz
  1  'x, y, z'
loop_
 _atom_site_type_symbol
 _atom_site_label
 _atom_site_symmetry_multiplicity
 _atom_site_fract_x
 _atom_site_fract_y
 _atom_site_fract_z
 _atom_site_occupancy
  Ho  Ho0  1  0.072030  0.535985  0.207920  1
  Ho  Ho1  1  0.464015  0.927970  0.207920  1
  Ho  Ho2  1  0.535959  0.464041  0.707882  1
  Ho  Ho3  1  0.928030  0.464004  0.707886  1
  Ho  Ho4  1  0.535996  0.071970  0.707886  1
  Ho  Ho5  1  0.999998  0.000002  0.230988  1
  Ho  Ho6  1  0.000012  0.999988  0.730985  1
  Er  Er7  1  0.463935  0.536065  0.207789  1
  Tm  Tm8  1  0.173427  0.826573  0.511171  1
  Tm  Tm9  1  0.653052  0.826487  0.511100  1
  Tm  Tm10  1  0.173513  0.346948  0.511100  1
  Tm  Tm11  1  0.826560  0.173440  0.011169  1
  Tm  Tm12  1  0.346900  0.173513  0.011230  1
  Tm  Tm13  1  0.826487  0.653100  0.011230  1
  Tm  Tm14  1  0.333375  0.666625  0.826822  1
  Tm  Tm15  1  0.666634  0.333366  0.326742  1
  Ga  Ga16  1  0.163488  0.836512  0.958959  1
  Ga  Ga17  1  0.672971  0.836439  0.959029  1
  Ga  Ga18  1  0.163561  0.327029  0.959029  1
  Ga  Ga19  1  0.836507  0.163493  0.458981  1
  Ga  Ga20  1  0.326987  0.163498  0.458942  1
  Ga  Ga21  1  0.836502  0.673013  0.458942  1
  Co  Co22  1  0.333398  0.666602  0.445128  1
  Co  Co23  1  0.666663  0.333337  0.945213  1
