# generated using pymatgen
data_Yb4Cu9Ni5
_symmetry_space_group_name_H-M   'P 1'
_cell_length_a   4.94669696
_cell_length_b   4.94669729
_cell_length_c   12.45918400
_cell_angle_alpha   78.71342739
_cell_angle_beta   78.71342524
_cell_angle_gamma   60.40147841
_symmetry_Int_Tables_number   1
_chemical_formula_structural   Yb4Cu9Ni5
_chemical_formula_sum   'Yb4 Cu9 Ni5'
_cell_volume   258.20368967
_cell_formula_units_Z   1
loop_
 _symmetry_equiv_pos_site_id
 _symmetry_equiv_pos_as_xyz
  1  'x, y, z'
loop_
 _atom_site_type_symbol
 _atom_site_label
 _atom_site_symmetry_multiplicity
 _atom_site_fract_x
 _atom_site_fract_y
 _atom_site_fract_z
 _atom_site_occupancy
  Yb  Yb0  1  0.944814  0.944814  0.166380  1
  Yb  Yb1  1  0.056295  0.056295  0.830116  1
  Yb  Yb2  1  0.851930  0.851930  0.447128  1
  Yb  Yb3  1  0.146098  0.146098  0.559017  1
  Cu  Cu4  1  0.502026  0.502026  0.501166  1
  Cu  Cu5  1  0.723088  0.723088  0.830701  1
  Cu  Cu6  1  0.273936  0.273936  0.168465  1
  Cu  Cu7  1  0.614546  0.614546  0.167967  1
  Cu  Cu8  1  0.389404  0.389404  0.830549  1
  Cu  Cu9  1  0.000581  0.500300  0.999175  1
  Cu  Cu10  1  0.500300  0.000581  0.999175  1
  Cu  Cu11  1  0.499973  0.499973  0.999887  1
  Cu  Cu12  1  0.387728  0.387728  0.332910  1
  Ni  Ni13  1  0.890571  0.387397  0.333697  1
  Ni  Ni14  1  0.387397  0.890571  0.333697  1
  Ni  Ni15  1  0.611798  0.611798  0.667228  1
  Ni  Ni16  1  0.108051  0.611466  0.666370  1
  Ni  Ni17  1  0.611466  0.108051  0.666370  1
