# generated using pymatgen
data_Eu2SnBiAu2
_symmetry_space_group_name_H-M   'P 1'
_cell_length_a   4.85170000
_cell_length_b   4.85169961
_cell_length_c   7.96908400
_cell_angle_alpha   90.00000000
_cell_angle_beta   90.00000000
_cell_angle_gamma   120.00000267
_symmetry_Int_Tables_number   1
_chemical_formula_structural   Eu2SnBiAu2
_chemical_formula_sum   'Eu2 Sn1 Bi1 Au2'
_cell_volume   162.45267515
_cell_formula_units_Z   1
loop_
 _symmetry_equiv_pos_site_id
 _symmetry_equiv_pos_as_xyz
  1  'x, y, z'
loop_
 _atom_site_type_symbol
 _atom_site_label
 _atom_site_symmetry_multiplicity
 _atom_site_fract_x
 _atom_site_fract_y
 _atom_site_fract_z
 _atom_site_occupancy
  Eu  Eu0  1  0.000000  0.000000  0.747961  1
  Eu  Eu1  1  0.000000  0.000000  0.235803  1
  Sn  Sn2  1  0.666667  0.333333  0.964052  1
  Bi  Bi3  1  0.333333  0.666667  0.460283  1
  Au  Au4  1  0.666667  0.333333  0.581825  1
  Au  Au5  1  0.333333  0.666667  0.028076  1
