# generated using pymatgen
data_Hf8In4FeCu4Ni3
_symmetry_space_group_name_H-M   'P 1'
_cell_length_a   7.19169116
_cell_length_b   7.21770786
_cell_length_c   6.67632162
_cell_angle_alpha   90.06724292
_cell_angle_beta   89.99677847
_cell_angle_gamma   89.69316510
_symmetry_Int_Tables_number   1
_chemical_formula_structural   Hf8In4FeCu4Ni3
_chemical_formula_sum   'Hf8 In4 Fe1 Cu4 Ni3'
_cell_volume   346.54612825
_cell_formula_units_Z   1
loop_
 _symmetry_equiv_pos_site_id
 _symmetry_equiv_pos_as_xyz
  1  'x, y, z'
loop_
 _atom_site_type_symbol
 _atom_site_label
 _atom_site_symmetry_multiplicity
 _atom_site_fract_x
 _atom_site_fract_y
 _atom_site_fract_z
 _atom_site_occupancy
  Hf  Hf0  1  0.184384  0.169959  0.997199  1
  Hf  Hf1  1  0.836672  0.820361  0.000106  1
  Hf  Hf2  1  0.306312  0.688244  0.500196  1
  Hf  Hf3  1  0.683546  0.309642  0.509067  1
  Hf  Hf4  1  0.642746  0.347385  0.987734  1
  Hf  Hf5  1  0.330254  0.662975  0.002484  1
  Hf  Hf6  1  0.857458  0.847405  0.497036  1
  Hf  Hf7  1  0.158067  0.148806  0.502070  1
  In  In8  1  0.502229  0.997436  0.248058  1
  In  In9  1  0.996641  0.497499  0.248204  1
  In  In10  1  0.001109  0.493288  0.752903  1
  In  In11  1  0.505585  0.997133  0.753175  1
  Fe  Fe12  1  0.121825  0.878827  0.236204  1
  Cu  Cu13  1  0.376544  0.377095  0.288617  1
  Cu  Cu14  1  0.623438  0.622929  0.285276  1
  Cu  Cu15  1  0.870623  0.132942  0.206995  1
  Cu  Cu16  1  0.623652  0.628536  0.708802  1
  Ni  Ni17  1  0.377197  0.378108  0.715893  1
  Ni  Ni18  1  0.126938  0.874877  0.777097  1
  Ni  Ni19  1  0.874778  0.126551  0.782886  1
