# generated using pymatgen
data_LiZr6Zn22B
_symmetry_space_group_name_H-M   'P 1'
_cell_length_a   8.71555025
_cell_length_b   8.71554949
_cell_length_c   8.71555000
_cell_angle_alpha   59.99999807
_cell_angle_beta   60.00000096
_cell_angle_gamma   59.99999556
_symmetry_Int_Tables_number   1
_chemical_formula_structural   LiZr6Zn22B
_chemical_formula_sum   'Li1 Zr6 Zn22 B1'
_cell_volume   468.13311960
_cell_formula_units_Z   1
loop_
 _symmetry_equiv_pos_site_id
 _symmetry_equiv_pos_as_xyz
  1  'x, y, z'
loop_
 _atom_site_type_symbol
 _atom_site_label
 _atom_site_symmetry_multiplicity
 _atom_site_fract_x
 _atom_site_fract_y
 _atom_site_fract_z
 _atom_site_occupancy
  Li  Li0  1  0.000000  0.000000  0.000000  1
  Zr  Zr1  1  0.694245  0.305755  0.305755  1
  Zr  Zr2  1  0.305755  0.694245  0.694245  1
  Zr  Zr3  1  0.305755  0.694245  0.305755  1
  Zr  Zr4  1  0.694245  0.305755  0.694245  1
  Zr  Zr5  1  0.305755  0.305755  0.694245  1
  Zr  Zr6  1  0.694245  0.694245  0.305755  1
  Zn  Zn7  1  0.119551  0.119551  0.119551  1
  Zn  Zn8  1  0.880449  0.880449  0.880449  1
  Zn  Zn9  1  0.119551  0.119551  0.641348  1
  Zn  Zn10  1  0.119551  0.641348  0.119551  1
  Zn  Zn11  1  0.880449  0.880449  0.358652  1
  Zn  Zn12  1  0.880449  0.358652  0.880449  1
  Zn  Zn13  1  0.641348  0.119551  0.119551  1
  Zn  Zn14  1  0.358652  0.880449  0.880449  1
  Zn  Zn15  1  0.500000  0.000000  0.000000  1
  Zn  Zn16  1  0.000000  0.500000  0.500000  1
  Zn  Zn17  1  0.000000  0.500000  0.000000  1
  Zn  Zn18  1  0.500000  0.000000  0.500000  1
  Zn  Zn19  1  0.000000  0.000000  0.500000  1
  Zn  Zn20  1  0.500000  0.500000  0.000000  1
  Zn  Zn21  1  0.331118  0.331118  0.331118  1
  Zn  Zn22  1  0.668882  0.668882  0.668882  1
  Zn  Zn23  1  0.331118  0.331118  0.006646  1
  Zn  Zn24  1  0.331118  0.006646  0.331118  1
  Zn  Zn25  1  0.668882  0.668882  0.993354  1
  Zn  Zn26  1  0.668882  0.993354  0.668882  1
  Zn  Zn27  1  0.006646  0.331118  0.331118  1
  Zn  Zn28  1  0.993354  0.668882  0.668882  1
  B  B29  1  0.500000  0.500000  0.500000  1
