# generated using pymatgen
data_Er10TlIn7Pd3Ru
_symmetry_space_group_name_H-M   'P 1'
_cell_length_a   3.60797000
_cell_length_b   8.08996300
_cell_length_c   18.20555183
_cell_angle_alpha   89.98100187
_cell_angle_beta   90.00000000
_cell_angle_gamma   90.00000000
_symmetry_Int_Tables_number   1
_chemical_formula_structural   Er10TlIn7Pd3Ru
_chemical_formula_sum   'Er10 Tl1 In7 Pd3 Ru1'
_cell_volume   531.38987695
_cell_formula_units_Z   1
loop_
 _symmetry_equiv_pos_site_id
 _symmetry_equiv_pos_as_xyz
  1  'x, y, z'
loop_
 _atom_site_type_symbol
 _atom_site_label
 _atom_site_symmetry_multiplicity
 _atom_site_fract_x
 _atom_site_fract_y
 _atom_site_fract_z
 _atom_site_occupancy
  Er  Er0  1  0.000000  0.499986  0.499581  1
  Er  Er1  1  0.000000  0.000188  0.000809  1
  Er  Er2  1  0.000000  0.727195  0.277164  1
  Er  Er3  1  0.000000  0.259867  0.720064  1
  Er  Er4  1  0.000000  0.759503  0.779397  1
  Er  Er5  1  0.000000  0.252828  0.220558  1
  Er  Er6  1  0.000000  0.614313  0.087826  1
  Er  Er7  1  0.000000  0.384170  0.916007  1
  Er  Er8  1  0.000000  0.883731  0.583867  1
  Er  Er9  1  0.000000  0.118355  0.414656  1
  Tl  Tl10  1  0.500000  0.710791  0.932689  1
  In  In11  1  0.500000  0.291463  0.068959  1
  In  In12  1  0.500000  0.790796  0.432404  1
  In  In13  1  0.500000  0.209554  0.567542  1
  In  In14  1  0.500000  0.580133  0.648952  1
  In  In15  1  0.500000  0.425057  0.350271  1
  In  In16  1  0.500000  0.921035  0.149922  1
  In  In17  1  0.500000  0.080661  0.850951  1
  Pd  Pd18  1  0.500000  0.475394  0.803458  1
  Pd  Pd19  1  0.500000  0.977005  0.695537  1
  Pd  Pd20  1  0.500000  0.019624  0.304077  1
  Ru  Ru21  1  0.500000  0.518352  0.195309  1
