# generated using pymatgen
data_CsPr5Sm(CBr6)2
_symmetry_space_group_name_H-M   'P 1'
_cell_length_a   9.25739737
_cell_length_b   9.24685290
_cell_length_c   9.75960806
_cell_angle_alpha   71.92578757
_cell_angle_beta   70.68158614
_cell_angle_gamma   72.53314497
_symmetry_Int_Tables_number   1
_chemical_formula_structural   CsPr5Sm(CBr6)2
_chemical_formula_sum   'Cs1 Pr5 Sm1 C2 Br12'
_cell_volume   731.10592867
_cell_formula_units_Z   1
loop_
 _symmetry_equiv_pos_site_id
 _symmetry_equiv_pos_as_xyz
  1  'x, y, z'
loop_
 _atom_site_type_symbol
 _atom_site_label
 _atom_site_symmetry_multiplicity
 _atom_site_fract_x
 _atom_site_fract_y
 _atom_site_fract_z
 _atom_site_occupancy
  Cs  Cs0  1  0.000470  0.499676  0.999972  1
  Pr  Pr1  1  0.783619  0.033117  0.404613  1
  Pr  Pr2  1  0.596407  0.718909  0.473579  1
  Pr  Pr3  1  0.403788  0.281141  0.526684  1
  Pr  Pr4  1  0.216395  0.967279  0.594217  1
  Pr  Pr5  1  0.524087  0.882024  0.819368  1
  Sm  Sm6  1  0.475413  0.116857  0.184779  1
  C  C7  1  0.493841  0.026627  0.424652  1
  C  C8  1  0.506214  0.974363  0.573313  1
  Br  Br9  1  0.792714  0.160856  0.082155  1
  Br  Br10  1  0.584718  0.791211  0.143234  1
  Br  Br11  1  0.352374  0.429714  0.221914  1
  Br  Br12  1  0.141429  0.074121  0.290754  1
  Br  Br13  1  0.927496  0.721191  0.352174  1
  Br  Br14  1  0.716636  0.367004  0.427760  1
  Br  Br15  1  0.283631  0.632862  0.571763  1
  Br  Br16  1  0.072891  0.278931  0.647837  1
  Br  Br17  1  0.863480  0.926695  0.706155  1
  Br  Br18  1  0.650313  0.564595  0.775860  1
  Br  Br19  1  0.413855  0.214217  0.861022  1
  Br  Br20  1  0.200235  0.838606  0.918193  1
