# generated using pymatgen
data_Y4LuSn4
_symmetry_space_group_name_H-M   'P 1'
_cell_length_a   7.99486200
_cell_length_b   8.15086500
_cell_length_c   15.45242800
_cell_angle_alpha   90.00000000
_cell_angle_beta   90.00000000
_cell_angle_gamma   90.00000000
_symmetry_Int_Tables_number   1
_chemical_formula_structural   Y4LuSn4
_chemical_formula_sum   'Y16 Lu4 Sn16'
_cell_volume   1006.95810194
_cell_formula_units_Z   4
loop_
 _symmetry_equiv_pos_site_id
 _symmetry_equiv_pos_as_xyz
  1  'x, y, z'
loop_
 _atom_site_type_symbol
 _atom_site_label
 _atom_site_symmetry_multiplicity
 _atom_site_fract_x
 _atom_site_fract_y
 _atom_site_fract_z
 _atom_site_occupancy
  Y  Y0  1  0.367453  0.836353  0.877835  1
  Y  Y1  1  0.867453  0.663647  0.622165  1
  Y  Y2  1  0.632547  0.163647  0.377835  1
  Y  Y3  1  0.132547  0.336353  0.122165  1
  Y  Y4  1  0.632547  0.163647  0.122165  1
  Y  Y5  1  0.132547  0.336353  0.377835  1
  Y  Y6  1  0.367453  0.836353  0.622165  1
  Y  Y7  1  0.867453  0.663647  0.877835  1
  Y  Y8  1  0.522174  0.320839  0.902184  1
  Y  Y9  1  0.022174  0.179161  0.597816  1
  Y  Y10  1  0.477826  0.679161  0.402184  1
  Y  Y11  1  0.977826  0.820839  0.097816  1
  Y  Y12  1  0.477826  0.679161  0.097816  1
  Y  Y13  1  0.977826  0.820839  0.402184  1
  Y  Y14  1  0.522174  0.320839  0.597816  1
  Y  Y15  1  0.022174  0.179161  0.902184  1
  Lu  Lu16  1  0.198637  0.502766  0.750000  1
  Lu  Lu17  1  0.698637  0.997234  0.750000  1
  Lu  Lu18  1  0.801363  0.497234  0.250000  1
  Lu  Lu19  1  0.301363  0.002766  0.250000  1
  Sn  Sn20  1  0.292383  0.034420  0.042392  1
  Sn  Sn21  1  0.792383  0.465580  0.457608  1
  Sn  Sn22  1  0.707617  0.965580  0.542392  1
  Sn  Sn23  1  0.207617  0.534420  0.957608  1
  Sn  Sn24  1  0.707617  0.965580  0.957608  1
  Sn  Sn25  1  0.207617  0.534420  0.542392  1
  Sn  Sn26  1  0.292383  0.034420  0.457608  1
  Sn  Sn27  1  0.792383  0.465580  0.042392  1
  Sn  Sn28  1  0.564113  0.619502  0.750000  1
  Sn  Sn29  1  0.064113  0.880498  0.750000  1
  Sn  Sn30  1  0.435887  0.380498  0.250000  1
  Sn  Sn31  1  0.935887  0.119502  0.250000  1
  Sn  Sn32  1  0.330664  0.148334  0.750000  1
  Sn  Sn33  1  0.830664  0.351666  0.750000  1
  Sn  Sn34  1  0.669336  0.851666  0.250000  1
  Sn  Sn35  1  0.169336  0.648334  0.250000  1
