# generated using pymatgen
data_RbBa3AgH12Pt
_symmetry_space_group_name_H-M   'P 1'
_cell_length_a   8.25156697
_cell_length_b   8.25156779
_cell_length_c   6.12719201
_cell_angle_alpha   89.99056621
_cell_angle_beta   89.99057426
_cell_angle_gamma   137.04936544
_symmetry_Int_Tables_number   1
_chemical_formula_structural   RbBa3AgH12Pt
_chemical_formula_sum   'Rb1 Ba3 Ag1 H12 Pt1'
_cell_volume   284.26020709
_cell_formula_units_Z   1
loop_
 _symmetry_equiv_pos_site_id
 _symmetry_equiv_pos_as_xyz
  1  'x, y, z'
loop_
 _atom_site_type_symbol
 _atom_site_label
 _atom_site_symmetry_multiplicity
 _atom_site_fract_x
 _atom_site_fract_y
 _atom_site_fract_z
 _atom_site_occupancy
  Rb  Rb0  1  0.352462  0.647538  0.000000  1
  Ba  Ba1  1  0.849905  0.150095  0.500000  1
  Ba  Ba2  1  0.650916  0.349084  0.000000  1
  Ba  Ba3  1  0.149626  0.850374  0.500000  1
  Ag  Ag4  1  0.000627  0.999373  0.000000  1
  H  H5  1  0.978254  0.492275  0.266686  1
  H  H6  1  0.507725  0.021746  0.733314  1
  H  H7  1  0.978187  0.491814  0.733174  1
  H  H8  1  0.508186  0.021813  0.266826  1
  H  H9  1  0.112355  0.887645  0.000000  1
  H  H10  1  0.611611  0.388389  0.500000  1
  H  H11  1  0.889296  0.110704  0.000000  1
  H  H12  1  0.395559  0.604441  0.500000  1
  H  H13  1  0.699058  0.693184  0.308756  1
  H  H14  1  0.306816  0.300942  0.691244  1
  H  H15  1  0.697759  0.691870  0.692389  1
  H  H16  1  0.308130  0.302241  0.307611  1
  Pt  Pt17  1  0.503530  0.496470  0.500000  1
