# generated using pymatgen
data_CsRb2LiSi4
_symmetry_space_group_name_H-M   'P 1'
_cell_length_a   8.00304000
_cell_length_b   9.98398400
_cell_length_c   13.06314100
_cell_angle_alpha   90.00000000
_cell_angle_beta   90.00000000
_cell_angle_gamma   90.00000000
_symmetry_Int_Tables_number   1
_chemical_formula_structural   CsRb2LiSi4
_chemical_formula_sum   'Cs4 Rb8 Li4 Si16'
_cell_volume   1043.77400933
_cell_formula_units_Z   4
loop_
 _symmetry_equiv_pos_site_id
 _symmetry_equiv_pos_as_xyz
  1  'x, y, z'
loop_
 _atom_site_type_symbol
 _atom_site_label
 _atom_site_symmetry_multiplicity
 _atom_site_fract_x
 _atom_site_fract_y
 _atom_site_fract_z
 _atom_site_occupancy
  Cs  Cs0  1  0.647184  0.250000  0.396327  1
  Cs  Cs1  1  0.147184  0.250000  0.103673  1
  Cs  Cs2  1  0.352816  0.750000  0.603673  1
  Cs  Cs3  1  0.852816  0.750000  0.896327  1
  Rb  Rb4  1  0.660140  0.443257  0.689295  1
  Rb  Rb5  1  0.160140  0.056743  0.810705  1
  Rb  Rb6  1  0.339860  0.943257  0.310705  1
  Rb  Rb7  1  0.839860  0.556743  0.189295  1
  Rb  Rb8  1  0.339860  0.556743  0.310705  1
  Rb  Rb9  1  0.839860  0.943257  0.189295  1
  Rb  Rb10  1  0.660140  0.056743  0.689295  1
  Rb  Rb11  1  0.160140  0.443257  0.810705  1
  Li  Li12  1  0.500000  0.500000  0.000000  1
  Li  Li13  1  0.000000  0.000000  0.500000  1
  Li  Li14  1  0.500000  0.000000  0.000000  1
  Li  Li15  1  0.000000  0.500000  0.500000  1
  Si  Si16  1  0.363856  0.750000  0.912705  1
  Si  Si17  1  0.863856  0.750000  0.587295  1
  Si  Si18  1  0.636144  0.250000  0.087295  1
  Si  Si19  1  0.136144  0.250000  0.412705  1
  Si  Si20  1  0.726850  0.630755  0.446883  1
  Si  Si21  1  0.226850  0.869245  0.053117  1
  Si  Si22  1  0.273150  0.130755  0.553117  1
  Si  Si23  1  0.773150  0.369245  0.946883  1
  Si  Si24  1  0.011438  0.250000  0.584153  1
  Si  Si25  1  0.511438  0.250000  0.915847  1
  Si  Si26  1  0.988562  0.750000  0.415847  1
  Si  Si27  1  0.488562  0.750000  0.084153  1
  Si  Si28  1  0.226850  0.630755  0.053117  1
  Si  Si29  1  0.726850  0.869245  0.446883  1
  Si  Si30  1  0.773150  0.130755  0.946883  1
  Si  Si31  1  0.273150  0.369245  0.553117  1
