# generated using pymatgen
data_Ba16Sr4Si11Pb
_symmetry_space_group_name_H-M   'P 1'
_cell_length_a   8.37847000
_cell_length_b   8.37847000
_cell_length_c   17.11474000
_cell_angle_alpha   90.00000000
_cell_angle_beta   90.00000000
_cell_angle_gamma   90.00000000
_symmetry_Int_Tables_number   1
_chemical_formula_structural   Ba16Sr4Si11Pb
_chemical_formula_sum   'Ba16 Sr4 Si11 Pb1'
_cell_volume   1201.43351787
_cell_formula_units_Z   1
loop_
 _symmetry_equiv_pos_site_id
 _symmetry_equiv_pos_as_xyz
  1  'x, y, z'
loop_
 _atom_site_type_symbol
 _atom_site_label
 _atom_site_symmetry_multiplicity
 _atom_site_fract_x
 _atom_site_fract_y
 _atom_site_fract_z
 _atom_site_occupancy
  Ba  Ba0  1  0.315907  0.679070  0.112508  1
  Ba  Ba1  1  0.179070  0.184093  0.112508  1
  Ba  Ba2  1  0.324153  0.691975  0.392499  1
  Ba  Ba3  1  0.665919  0.698656  0.887097  1
  Ba  Ba4  1  0.191975  0.175847  0.392499  1
  Ba  Ba5  1  0.675847  0.308025  0.392499  1
  Ba  Ba6  1  0.172339  0.805514  0.607833  1
  Ba  Ba7  1  0.334081  0.301344  0.887097  1
  Ba  Ba8  1  0.198656  0.834081  0.887097  1
  Ba  Ba9  1  0.827661  0.194486  0.607833  1
  Ba  Ba10  1  0.305514  0.327661  0.607833  1
  Ba  Ba11  1  0.808025  0.824153  0.392499  1
  Ba  Ba12  1  0.801344  0.165919  0.887097  1
  Ba  Ba13  1  0.820930  0.815907  0.112508  1
  Ba  Ba14  1  0.684093  0.320930  0.112508  1
  Ba  Ba15  1  0.694486  0.672339  0.607833  1
  Sr  Sr16  1  0.500000  0.000000  0.721013  1
  Sr  Sr17  1  0.500000  0.000000  0.237254  1
  Sr  Sr18  1  0.000000  0.500000  0.267901  1
  Sr  Sr19  1  0.000000  0.500000  0.767954  1
  Si  Si20  1  0.103275  0.104572  0.747650  1
  Si  Si21  1  0.395428  0.603275  0.747650  1
  Si  Si22  1  0.603565  0.603304  0.252610  1
  Si  Si23  1  0.500000  0.000000  0.016253  1
  Si  Si24  1  0.103304  0.896435  0.252610  1
  Si  Si25  1  0.604572  0.396725  0.747650  1
  Si  Si26  1  0.896725  0.895428  0.747650  1
  Si  Si27  1  0.396435  0.396696  0.252610  1
  Si  Si28  1  0.896696  0.103565  0.252610  1
  Si  Si29  1  0.500000  0.000000  0.514638  1
  Si  Si30  1  0.000000  0.500000  0.485587  1
  Pb  Pb31  1  0.000000  0.500000  0.988610  1
