# generated using pymatgen
data_Ba4Al8Si7Au
_symmetry_space_group_name_H-M   'P 1'
_cell_length_a   4.30296500
_cell_length_b   9.94195031
_cell_length_c   11.08794233
_cell_angle_alpha   90.15275577
_cell_angle_beta   90.00000000
_cell_angle_gamma   90.00000000
_symmetry_Int_Tables_number   1
_chemical_formula_structural   Ba4Al8Si7Au
_chemical_formula_sum   'Ba4 Al8 Si7 Au1'
_cell_volume   474.33898168
_cell_formula_units_Z   1
loop_
 _symmetry_equiv_pos_site_id
 _symmetry_equiv_pos_as_xyz
  1  'x, y, z'
loop_
 _atom_site_type_symbol
 _atom_site_label
 _atom_site_symmetry_multiplicity
 _atom_site_fract_x
 _atom_site_fract_y
 _atom_site_fract_z
 _atom_site_occupancy
  Ba  Ba0  1  0.250000  0.246078  0.173135  1
  Ba  Ba1  1  0.750000  0.753501  0.830521  1
  Ba  Ba2  1  0.250000  0.747886  0.323126  1
  Ba  Ba3  1  0.750000  0.255068  0.678756  1
  Al  Al4  1  0.250000  0.596200  0.049432  1
  Al  Al5  1  0.750000  0.401106  0.953781  1
  Al  Al6  1  0.250000  0.092620  0.446373  1
  Al  Al7  1  0.750000  0.908356  0.538671  1
  Al  Al8  1  0.250000  0.547126  0.621176  1
  Al  Al9  1  0.750000  0.454683  0.381342  1
  Al  Al10  1  0.250000  0.038476  0.885067  1
  Al  Al11  1  0.750000  0.956280  0.115292  1
  Si  Si12  1  0.750000  0.024210  0.335990  1
  Si  Si13  1  0.250000  0.474608  0.844924  1
  Si  Si14  1  0.750000  0.524123  0.157298  1
  Si  Si15  1  0.250000  0.353534  0.461599  1
  Si  Si16  1  0.750000  0.650585  0.541360  1
  Si  Si17  1  0.250000  0.852822  0.044875  1
  Si  Si18  1  0.750000  0.144872  0.959252  1
  Au  Au19  1  0.250000  0.977867  0.658030  1
