# generated using pymatgen
data_YLu2Cd2Ga3Ag
_symmetry_space_group_name_H-M   'P 1'
_cell_length_a   7.03381700
_cell_length_b   7.15031421
_cell_length_c   4.40503000
_cell_angle_alpha   90.00000000
_cell_angle_beta   90.00000000
_cell_angle_gamma   119.46249748
_symmetry_Int_Tables_number   1
_chemical_formula_structural   YLu2Cd2Ga3Ag
_chemical_formula_sum   'Y1 Lu2 Cd2 Ga3 Ag1'
_cell_volume   192.89569894
_cell_formula_units_Z   1
loop_
 _symmetry_equiv_pos_site_id
 _symmetry_equiv_pos_as_xyz
  1  'x, y, z'
loop_
 _atom_site_type_symbol
 _atom_site_label
 _atom_site_symmetry_multiplicity
 _atom_site_fract_x
 _atom_site_fract_y
 _atom_site_fract_z
 _atom_site_occupancy
  Y  Y0  1  0.570658  0.000000  0.500000  1
  Lu  Lu1  1  0.998468  0.575262  0.500000  1
  Lu  Lu2  1  0.423204  0.424738  0.500000  1
  Cd  Cd3  1  0.003609  0.246326  0.000000  1
  Cd  Cd4  1  0.757283  0.753674  0.000000  1
  Ga  Ga5  1  0.329610  0.669241  0.000000  1
  Ga  Ga6  1  0.660370  0.330759  0.000000  1
  Ga  Ga7  1  0.011106  0.000000  0.500000  1
  Ag  Ag8  1  0.245691  0.000000  0.000000  1
