# generated using pymatgen
data_Sm5Ho(CI5)2
_symmetry_space_group_name_H-M   'P 1'
_cell_length_a   7.80246373
_cell_length_b   9.60245463
_cell_length_c   9.70072634
_cell_angle_alpha   107.08722608
_cell_angle_beta   96.40095672
_cell_angle_gamma   104.26991994
_symmetry_Int_Tables_number   1
_chemical_formula_structural   Sm5Ho(CI5)2
_chemical_formula_sum   'Sm5 Ho1 C2 I10'
_cell_volume   659.88598765
_cell_formula_units_Z   1
loop_
 _symmetry_equiv_pos_site_id
 _symmetry_equiv_pos_as_xyz
  1  'x, y, z'
loop_
 _atom_site_type_symbol
 _atom_site_label
 _atom_site_symmetry_multiplicity
 _atom_site_fract_x
 _atom_site_fract_y
 _atom_site_fract_z
 _atom_site_occupancy
  Sm  Sm0  1  0.104804  0.038690  0.777957  1
  Sm  Sm1  1  0.373119  0.132406  0.178353  1
  Sm  Sm2  1  0.893415  0.960532  0.221289  1
  Sm  Sm3  1  0.029837  0.737608  0.923659  1
  Sm  Sm4  1  0.968921  0.262363  0.075794  1
  Ho  Ho5  1  0.631134  0.868873  0.823719  1
  C  C6  1  0.908555  0.969586  0.958388  1
  C  C7  1  0.087163  0.029237  0.040169  1
  I  I8  1  0.201193  0.736667  0.649094  1
  I  I9  1  0.088236  0.368212  0.820295  1
  I  I10  1  0.458723  0.808379  0.087491  1
  I  I11  1  0.253487  0.083685  0.459929  1
  I  I12  1  0.544167  0.185446  0.904140  1
  I  I13  1  0.807966  0.265882  0.355044  1
  I  I14  1  0.344498  0.455802  0.273145  1
  I  I15  1  0.911992  0.631833  0.179451  1
  I  I16  1  0.652077  0.550548  0.727197  1
  I  I17  1  0.740713  0.914251  0.544887  1
