# generated using pymatgen
data_HoEr7(LuIn5)4
_symmetry_space_group_name_H-M   'P 1'
_cell_length_a   6.45907923
_cell_length_b   10.37340875
_cell_length_c   12.20041200
_cell_angle_alpha   89.96671640
_cell_angle_beta   89.96463300
_cell_angle_gamma   89.99912334
_symmetry_Int_Tables_number   1
_chemical_formula_structural   HoEr7(LuIn5)4
_chemical_formula_sum   'Ho1 Er7 Lu4 In20'
_cell_volume   817.45987334
_cell_formula_units_Z   1
loop_
 _symmetry_equiv_pos_site_id
 _symmetry_equiv_pos_as_xyz
  1  'x, y, z'
loop_
 _atom_site_type_symbol
 _atom_site_label
 _atom_site_symmetry_multiplicity
 _atom_site_fract_x
 _atom_site_fract_y
 _atom_site_fract_z
 _atom_site_occupancy
  Ho  Ho0  1  0.608879  0.494231  0.642357  1
  Er  Er1  1  0.891503  0.494077  0.142050  1
  Er  Er2  1  0.608579  0.005911  0.641833  1
  Er  Er3  1  0.108652  0.993961  0.858186  1
  Er  Er4  1  0.391266  0.506036  0.357641  1
  Er  Er5  1  0.108770  0.506014  0.857996  1
  Er  Er6  1  0.391292  0.994007  0.357947  1
  Er  Er7  1  0.891444  0.006086  0.141932  1
  Lu  Lu8  1  0.348552  0.749997  0.055187  1
  Lu  Lu9  1  0.150871  0.749823  0.555127  1
  Lu  Lu10  1  0.651262  0.250173  0.944858  1
  Lu  Lu11  1  0.848661  0.249846  0.444737  1
  In  In12  1  0.614538  0.750521  0.504893  1
  In  In13  1  0.884958  0.750066  0.005774  1
  In  In14  1  0.384883  0.249910  0.494371  1
  In  In15  1  0.114974  0.249976  0.994395  1
  In  In16  1  0.649652  0.750069  0.244516  1
  In  In17  1  0.850993  0.750395  0.744960  1
  In  In18  1  0.350165  0.249691  0.755553  1
  In  In19  1  0.149720  0.249798  0.255343  1
  In  In20  1  0.129030  0.750263  0.284397  1
  In  In21  1  0.371098  0.750008  0.784308  1
  In  In22  1  0.871910  0.249244  0.715915  1
  In  In23  1  0.628972  0.249893  0.215654  1
  In  In24  1  0.875598  0.543098  0.400657  1
  In  In25  1  0.624163  0.957016  0.900951  1
  In  In26  1  0.123986  0.042931  0.599038  1
  In  In27  1  0.375650  0.456897  0.099129  1
  In  In28  1  0.123845  0.456756  0.598911  1
  In  In29  1  0.375761  0.042997  0.099130  1
  In  In30  1  0.876178  0.957029  0.400663  1
  In  In31  1  0.624196  0.543286  0.901587  1
