# generated using pymatgen
data_TbYb2Eu(Ga2Ag)4
_symmetry_space_group_name_H-M   'P 1'
_cell_length_a   4.38256900
_cell_length_b   7.00015757
_cell_length_c   10.48380306
_cell_angle_alpha   89.52331848
_cell_angle_beta   90.00000000
_cell_angle_gamma   90.00000000
_symmetry_Int_Tables_number   1
_chemical_formula_structural   TbYb2Eu(Ga2Ag)4
_chemical_formula_sum   'Tb1 Yb2 Eu1 Ga8 Ag4'
_cell_volume   321.61804055
_cell_formula_units_Z   1
loop_
 _symmetry_equiv_pos_site_id
 _symmetry_equiv_pos_as_xyz
  1  'x, y, z'
loop_
 _atom_site_type_symbol
 _atom_site_label
 _atom_site_symmetry_multiplicity
 _atom_site_fract_x
 _atom_site_fract_y
 _atom_site_fract_z
 _atom_site_occupancy
  Tb  Tb0  1  0.250000  0.280412  0.671424  1
  Yb  Yb1  1  0.250000  0.775454  0.828611  1
  Yb  Yb2  1  0.750000  0.724531  0.328602  1
  Eu  Eu3  1  0.750000  0.222229  0.173605  1
  Ga  Ga4  1  0.250000  0.922531  0.150791  1
  Ga  Ga5  1  0.750000  0.073872  0.847496  1
  Ga  Ga6  1  0.750000  0.574959  0.652459  1
  Ga  Ga7  1  0.250000  0.426526  0.352076  1
  Ga  Ga8  1  0.250000  0.700430  0.535107  1
  Ga  Ga9  1  0.750000  0.298541  0.466581  1
  Ga  Ga10  1  0.750000  0.798558  0.033837  1
  Ga  Ga11  1  0.250000  0.202172  0.962427  1
  Ag  Ag12  1  0.250000  0.544604  0.097840  1
  Ag  Ag13  1  0.750000  0.460924  0.898877  1
  Ag  Ag14  1  0.750000  0.956926  0.598746  1
  Ag  Ag15  1  0.250000  0.037333  0.401519  1
