# generated using pymatgen
data_U4GaTc7As5
_symmetry_space_group_name_H-M   'P 1'
_cell_length_a   7.22862823
_cell_length_b   7.22862886
_cell_length_c   7.22862806
_cell_angle_alpha   109.50197088
_cell_angle_beta   109.40971592
_cell_angle_gamma   109.50199096
_symmetry_Int_Tables_number   1
_chemical_formula_structural   U4GaTc7As5
_chemical_formula_sum   'U4 Ga1 Tc7 As5'
_cell_volume   290.76721635
_cell_formula_units_Z   1
loop_
 _symmetry_equiv_pos_site_id
 _symmetry_equiv_pos_as_xyz
  1  'x, y, z'
loop_
 _atom_site_type_symbol
 _atom_site_label
 _atom_site_symmetry_multiplicity
 _atom_site_fract_x
 _atom_site_fract_y
 _atom_site_fract_z
 _atom_site_occupancy
  U  U0  1  0.504852  0.503437  0.504852  1
  U  U1  1  0.001415  0.496563  0.001415  1
  U  U2  1  0.504852  0.000000  0.001415  1
  U  U3  1  0.001415  0.000000  0.504852  1
  Ga  Ga4  1  0.303366  0.000000  0.303366  1
  Tc  Tc5  1  0.499528  0.749138  0.248665  1
  Tc  Tc6  1  0.750390  0.250862  0.499528  1
  Tc  Tc7  1  0.248665  0.749138  0.499528  1
  Tc  Tc8  1  0.251470  0.500000  0.751470  1
  Tc  Tc9  1  0.988891  0.000000  0.988891  1
  Tc  Tc10  1  0.499528  0.250862  0.750390  1
  Tc  Tc11  1  0.751470  0.500000  0.251470  1
  As  As12  1  0.683543  0.000000  0.683543  1
  As  As13  1  0.695964  0.693312  0.002652  1
  As  As14  1  0.309341  0.306688  0.002652  1
  As  As15  1  0.002652  0.693312  0.695964  1
  As  As16  1  0.002652  0.306688  0.309341  1
