# generated using pymatgen
data_NaYNb3Co9As7
_symmetry_space_group_name_H-M   'P 1'
_cell_length_a   3.77933900
_cell_length_b   9.55456970
_cell_length_c   9.55457000
_cell_angle_alpha   120.00000103
_cell_angle_beta   90.00000000
_cell_angle_gamma   90.00000000
_symmetry_Int_Tables_number   1
_chemical_formula_structural   NaYNb3Co9As7
_chemical_formula_sum   'Na1 Y1 Nb3 Co9 As7'
_cell_volume   298.79185599
_cell_formula_units_Z   1
loop_
 _symmetry_equiv_pos_site_id
 _symmetry_equiv_pos_as_xyz
  1  'x, y, z'
loop_
 _atom_site_type_symbol
 _atom_site_label
 _atom_site_symmetry_multiplicity
 _atom_site_fract_x
 _atom_site_fract_y
 _atom_site_fract_z
 _atom_site_occupancy
  Na  Na0  1  0.500000  0.333333  0.666667  1
  Y  Y1  1  0.000000  0.666667  0.333333  1
  Nb  Nb2  1  0.500000  0.774941  0.893824  1
  Nb  Nb3  1  0.500000  0.118883  0.225059  1
  Nb  Nb4  1  0.500000  0.106176  0.881117  1
  Co  Co5  1  0.000000  0.575060  0.945270  1
  Co  Co6  1  0.000000  0.370210  0.424940  1
  Co  Co7  1  0.000000  0.054730  0.629790  1
  Co  Co8  1  0.000000  0.881232  0.162647  1
  Co  Co9  1  0.000000  0.281415  0.118768  1
  Co  Co10  1  0.000000  0.837353  0.718585  1
  Co  Co11  1  0.500000  0.947312  0.382662  1
  Co  Co12  1  0.500000  0.435349  0.052688  1
  Co  Co13  1  0.500000  0.617338  0.564651  1
  As  As14  1  0.000000  0.000000  0.000000  1
  As  As15  1  0.500000  0.707892  0.123860  1
  As  As16  1  0.500000  0.415969  0.292108  1
  As  As17  1  0.500000  0.876140  0.584031  1
  As  As18  1  0.000000  0.573198  0.691776  1
  As  As19  1  0.000000  0.118578  0.426802  1
  As  As20  1  0.000000  0.308224  0.881422  1
