# generated using pymatgen
data_V2S9
_symmetry_space_group_name_H-M   'P 1'
_cell_length_a   8.18490827
_cell_length_b   8.30569751
_cell_length_c   8.39198052
_cell_angle_alpha   101.51575761
_cell_angle_beta   98.09406548
_cell_angle_gamma   95.74647770
_symmetry_Int_Tables_number   1
_chemical_formula_structural   V2S9
_chemical_formula_sum   'V4 S18'
_cell_volume   548.58878209
_cell_formula_units_Z   2
loop_
 _symmetry_equiv_pos_site_id
 _symmetry_equiv_pos_as_xyz
  1  'x, y, z'
loop_
 _atom_site_type_symbol
 _atom_site_label
 _atom_site_symmetry_multiplicity
 _atom_site_fract_x
 _atom_site_fract_y
 _atom_site_fract_z
 _atom_site_occupancy
  V  V0  1  0.091125  0.097949  0.137768  1
  V  V1  1  0.908875  0.902051  0.862232  1
  V  V2  1  0.413299  0.362634  0.398576  1
  V  V3  1  0.586701  0.637366  0.601424  1
  S  S4  1  0.997769  0.187135  0.392570  1
  S  S5  1  0.002231  0.812865  0.607430  1
  S  S6  1  0.355934  0.477308  0.666273  1
  S  S7  1  0.644066  0.522692  0.333727  1
  S  S8  1  0.619293  0.792580  0.891871  1
  S  S9  1  0.380707  0.207420  0.108129  1
  S  S10  1  0.965612  0.822483  0.121652  1
  S  S11  1  0.034388  0.177517  0.878348  1
  S  S12  1  0.269351  0.090441  0.394208  1
  S  S13  1  0.730649  0.909559  0.605792  1
  S  S14  1  0.565588  0.368329  0.663725  1
  S  S15  1  0.434412  0.631671  0.336275  1
  S  S16  1  0.161575  0.839299  0.001364  1
  S  S17  1  0.838425  0.160701  0.998636  1
  S  S18  1  0.889743  0.619571  0.689768  1
  S  S19  1  0.110257  0.380429  0.310232  1
  S  S20  1  0.517887  0.115709  0.287295  1
  S  S21  1  0.482113  0.884291  0.712705  1
