# generated using pymatgen
data_Tb2ZnSi13Ir6
_symmetry_space_group_name_H-M   'P 1'
_cell_length_a   8.09623521
_cell_length_b   8.00742019
_cell_length_c   8.04051399
_cell_angle_alpha   56.72801799
_cell_angle_beta   56.74595411
_cell_angle_gamma   57.01595596
_symmetry_Int_Tables_number   1
_chemical_formula_structural   Tb2ZnSi13Ir6
_chemical_formula_sum   'Tb2 Zn1 Si13 Ir6'
_cell_volume   341.62076555
_cell_formula_units_Z   1
loop_
 _symmetry_equiv_pos_site_id
 _symmetry_equiv_pos_as_xyz
  1  'x, y, z'
loop_
 _atom_site_type_symbol
 _atom_site_label
 _atom_site_symmetry_multiplicity
 _atom_site_fract_x
 _atom_site_fract_y
 _atom_site_fract_z
 _atom_site_occupancy
  Tb  Tb0  1  0.500509  0.498042  0.502141  1
  Tb  Tb1  1  0.998980  0.000324  0.994994  1
  Zn  Zn2  1  0.856001  0.077408  0.663068  1
  Si  Si3  1  0.671718  0.853248  0.064679  1
  Si  Si4  1  0.061343  0.676828  0.848650  1
  Si  Si5  1  0.653368  0.820433  0.436952  1
  Si  Si6  1  0.247712  0.246828  0.254750  1
  Si  Si7  1  0.750772  0.754497  0.748178  1
  Si  Si8  1  0.170536  0.565164  0.351916  1
  Si  Si9  1  0.561902  0.354206  0.172323  1
  Si  Si10  1  0.352364  0.171960  0.561396  1
  Si  Si11  1  0.936035  0.326494  0.148560  1
  Si  Si12  1  0.330629  0.149426  0.932431  1
  Si  Si13  1  0.143826  0.937847  0.332040  1
  Si  Si14  1  0.825136  0.429907  0.656118  1
  Si  Si15  1  0.437521  0.647129  0.830468  1
  Ir  Ir16  1  0.748454  0.071966  0.417540  1
  Ir  Ir17  1  0.426273  0.750625  0.073839  1
  Ir  Ir18  1  0.070800  0.427065  0.750298  1
  Ir  Ir19  1  0.265745  0.917415  0.569516  1
  Ir  Ir20  1  0.560188  0.255543  0.938223  1
  Ir  Ir21  1  0.930189  0.567644  0.251920  1
