# generated using pymatgen
data_Yb10In2Cu3Ir
_symmetry_space_group_name_H-M   'P 1'
_cell_length_a   8.96753792
_cell_length_b   8.96753888
_cell_length_c   8.95031658
_cell_angle_alpha   128.65145509
_cell_angle_beta   128.65146043
_cell_angle_gamma   75.71391883
_symmetry_Int_Tables_number   1
_chemical_formula_structural   Yb10In2Cu3Ir
_chemical_formula_sum   'Yb10 In2 Cu3 Ir1'
_cell_volume   426.68204112
_cell_formula_units_Z   1
loop_
 _symmetry_equiv_pos_site_id
 _symmetry_equiv_pos_as_xyz
  1  'x, y, z'
loop_
 _atom_site_type_symbol
 _atom_site_label
 _atom_site_symmetry_multiplicity
 _atom_site_fract_x
 _atom_site_fract_y
 _atom_site_fract_z
 _atom_site_occupancy
  Yb  Yb0  1  0.493073  0.502475  0.995548  1
  Yb  Yb1  1  0.002475  0.993073  0.995548  1
  Yb  Yb2  1  0.531491  0.031491  0.835294  1
  Yb  Yb3  1  0.189818  0.689818  0.148624  1
  Yb  Yb4  1  0.033164  0.204504  0.508000  1
  Yb  Yb5  1  0.704504  0.533164  0.508000  1
  Yb  Yb6  1  0.458807  0.958807  0.148624  1
  Yb  Yb7  1  0.803802  0.303802  0.835294  1
  Yb  Yb8  1  0.974836  0.803496  0.508000  1
  Yb  Yb9  1  0.303496  0.474836  0.508000  1
  In  In10  1  0.251874  0.251874  0.003746  1
  In  In11  1  0.751874  0.751874  0.003746  1
  Cu  Cu12  1  0.879544  0.379544  0.259086  1
  Cu  Cu13  1  0.616460  0.882769  0.499229  1
  Cu  Cu14  1  0.382769  0.116460  0.499229  1
  Ir  Ir15  1  0.122013  0.622013  0.744028  1
