# generated using pymatgen
data_Hf3NiAsPRu3
_symmetry_space_group_name_H-M   'P 1'
_cell_length_a   6.50992300
_cell_length_b   6.50992525
_cell_length_c   3.82938700
_cell_angle_alpha   90.00000000
_cell_angle_beta   90.00000000
_cell_angle_gamma   119.99999367
_symmetry_Int_Tables_number   1
_chemical_formula_structural   Hf3NiAsPRu3
_chemical_formula_sum   'Hf3 Ni1 As1 P1 Ru3'
_cell_volume   140.54382576
_cell_formula_units_Z   1
loop_
 _symmetry_equiv_pos_site_id
 _symmetry_equiv_pos_as_xyz
  1  'x, y, z'
loop_
 _atom_site_type_symbol
 _atom_site_label
 _atom_site_symmetry_multiplicity
 _atom_site_fract_x
 _atom_site_fract_y
 _atom_site_fract_z
 _atom_site_occupancy
  Hf  Hf0  1  0.011701  0.611044  0.500000  1
  Hf  Hf1  1  0.388956  0.400657  0.500000  1
  Hf  Hf2  1  0.599343  0.988299  0.500000  1
  Ni  Ni3  1  0.000000  0.000000  0.500000  1
  As  As4  1  0.666667  0.333333  0.000000  1
  P  P5  1  0.333333  0.666667  0.000000  1
  Ru  Ru6  1  0.237964  0.989681  0.000000  1
  Ru  Ru7  1  0.751717  0.762036  0.000000  1
  Ru  Ru8  1  0.010319  0.248283  0.000000  1
