# generated using pymatgen
data_Yb4ScCr(WO6)2
_symmetry_space_group_name_H-M   'P 1'
_cell_length_a   5.41046644
_cell_length_b   5.66172508
_cell_length_c   7.76598449
_cell_angle_alpha   90.37937962
_cell_angle_beta   89.87717717
_cell_angle_gamma   90.17732707
_symmetry_Int_Tables_number   1
_chemical_formula_structural   Yb4ScCr(WO6)2
_chemical_formula_sum   'Yb4 Sc1 Cr1 W2 O12'
_cell_volume   237.88520089
_cell_formula_units_Z   1
loop_
 _symmetry_equiv_pos_site_id
 _symmetry_equiv_pos_as_xyz
  1  'x, y, z'
loop_
 _atom_site_type_symbol
 _atom_site_label
 _atom_site_symmetry_multiplicity
 _atom_site_fract_x
 _atom_site_fract_y
 _atom_site_fract_z
 _atom_site_occupancy
  Yb  Yb0  1  0.985145  0.061523  0.258406  1
  Yb  Yb1  1  0.519039  0.553917  0.258453  1
  Yb  Yb2  1  0.014837  0.938452  0.741552  1
  Yb  Yb3  1  0.480972  0.446138  0.741519  1
  Sc  Sc4  1  0.500009  0.000070  0.999960  1
  Cr  Cr5  1  0.999957  0.499751  0.500118  1
  W  W6  1  0.500035  0.999963  0.500046  1
  W  W7  1  0.000038  0.500002  0.000019  1
  O  O8  1  0.698089  0.297304  0.448434  1
  O  O9  1  0.810280  0.798413  0.054425  1
  O  O10  1  0.301875  0.702679  0.551521  1
  O  O11  1  0.189732  0.201716  0.945558  1
  O  O12  1  0.198126  0.201731  0.551140  1
  O  O13  1  0.292863  0.694003  0.946541  1
  O  O14  1  0.801870  0.798198  0.448888  1
  O  O15  1  0.707134  0.306096  0.053483  1
  O  O16  1  0.106479  0.463006  0.249772  1
  O  O17  1  0.399661  0.962341  0.259684  1
  O  O18  1  0.600373  0.037714  0.740229  1
  O  O19  1  0.893489  0.536982  0.750253  1
