# generated using pymatgen
data_TbLu5Hf2(Co4P3)4
_symmetry_space_group_name_H-M   'P 1'
_cell_length_a   3.68272300
_cell_length_b   10.60640400
_cell_length_c   12.28797100
_cell_angle_alpha   90.00000000
_cell_angle_beta   90.00000000
_cell_angle_gamma   90.00000000
_symmetry_Int_Tables_number   1
_chemical_formula_structural   TbLu5Hf2(Co4P3)4
_chemical_formula_sum   'Tb1 Lu5 Hf2 Co16 P12'
_cell_volume   479.97365176
_cell_formula_units_Z   1
loop_
 _symmetry_equiv_pos_site_id
 _symmetry_equiv_pos_as_xyz
  1  'x, y, z'
loop_
 _atom_site_type_symbol
 _atom_site_label
 _atom_site_symmetry_multiplicity
 _atom_site_fract_x
 _atom_site_fract_y
 _atom_site_fract_z
 _atom_site_occupancy
  Tb  Tb0  1  0.500000  0.000000  0.470456  1
  Lu  Lu1  1  0.000000  0.500000  0.529286  1
  Lu  Lu2  1  0.500000  0.822230  0.203968  1
  Lu  Lu3  1  0.500000  0.177770  0.203968  1
  Lu  Lu4  1  0.000000  0.677427  0.795482  1
  Lu  Lu5  1  0.000000  0.322573  0.795482  1
  Hf  Hf6  1  0.500000  0.500000  0.158245  1
  Hf  Hf7  1  0.000000  0.000000  0.843328  1
  Co  Co8  1  0.500000  0.500000  0.702841  1
  Co  Co9  1  0.000000  0.000000  0.295171  1
  Co  Co10  1  0.000000  0.500000  0.986070  1
  Co  Co11  1  0.500000  0.000000  0.013758  1
  Co  Co12  1  0.500000  0.332170  0.993065  1
  Co  Co13  1  0.500000  0.667830  0.993065  1
  Co  Co14  1  0.000000  0.168438  0.006887  1
  Co  Co15  1  0.000000  0.831562  0.006887  1
  Co  Co16  1  0.500000  0.296459  0.433127  1
  Co  Co17  1  0.500000  0.703541  0.433127  1
  Co  Co18  1  0.000000  0.206405  0.567322  1
  Co  Co19  1  0.000000  0.793595  0.567322  1
  Co  Co20  1  0.500000  0.876113  0.703691  1
  Co  Co21  1  0.500000  0.123887  0.703691  1
  Co  Co22  1  0.000000  0.622937  0.296740  1
  Co  Co23  1  0.000000  0.377063  0.296740  1
  P  P24  1  0.500000  0.500000  0.881895  1
  P  P25  1  0.000000  0.000000  0.117275  1
  P  P26  1  0.500000  0.500000  0.364188  1
  P  P27  1  0.000000  0.000000  0.638386  1
  P  P28  1  0.500000  0.312501  0.616619  1
  P  P29  1  0.500000  0.687499  0.616619  1
  P  P30  1  0.000000  0.189734  0.382621  1
  P  P31  1  0.000000  0.810266  0.382621  1
  P  P32  1  0.500000  0.837007  0.891589  1
  P  P33  1  0.500000  0.162993  0.891589  1
  P  P34  1  0.000000  0.662415  0.108439  1
  P  P35  1  0.000000  0.337585  0.108439  1
