# generated using pymatgen
data_Dy19YCd6NiRh
_symmetry_space_group_name_H-M   'P 1'
_cell_length_a   9.59863717
_cell_length_b   9.59549524
_cell_length_c   9.86604000
_cell_angle_alpha   90.00000000
_cell_angle_beta   90.00000000
_cell_angle_gamma   119.98916767
_symmetry_Int_Tables_number   1
_chemical_formula_structural   Dy19YCd6NiRh
_chemical_formula_sum   'Dy19 Y1 Cd6 Ni1 Rh1'
_cell_volume   787.04192637
_cell_formula_units_Z   1
loop_
 _symmetry_equiv_pos_site_id
 _symmetry_equiv_pos_as_xyz
  1  'x, y, z'
loop_
 _atom_site_type_symbol
 _atom_site_label
 _atom_site_symmetry_multiplicity
 _atom_site_fract_x
 _atom_site_fract_y
 _atom_site_fract_z
 _atom_site_occupancy
  Dy  Dy0  1  0.999986  0.999993  0.499890  1
  Dy  Dy1  1  0.999986  0.999993  0.000110  1
  Dy  Dy2  1  0.542788  0.457177  0.250000  1
  Dy  Dy3  1  0.542788  0.085612  0.250000  1
  Dy  Dy4  1  0.456837  0.542969  0.750000  1
  Dy  Dy5  1  0.456837  0.913868  0.750000  1
  Dy  Dy6  1  0.086119  0.543059  0.750000  1
  Dy  Dy7  1  0.209482  0.791200  0.441412  1
  Dy  Dy8  1  0.209482  0.418283  0.441412  1
  Dy  Dy9  1  0.581784  0.790892  0.441234  1
  Dy  Dy10  1  0.788580  0.210859  0.562554  1
  Dy  Dy11  1  0.788580  0.577720  0.562554  1
  Dy  Dy12  1  0.422581  0.211290  0.562304  1
  Dy  Dy13  1  0.788580  0.210859  0.937446  1
  Dy  Dy14  1  0.788580  0.577720  0.937446  1
  Dy  Dy15  1  0.422581  0.211290  0.937696  1
  Dy  Dy16  1  0.209482  0.791200  0.058588  1
  Dy  Dy17  1  0.209482  0.418283  0.058588  1
  Dy  Dy18  1  0.581784  0.790892  0.058766  1
  Y  Y19  1  0.913704  0.456852  0.250000  1
  Cd  Cd20  1  0.885342  0.114087  0.250000  1
  Cd  Cd21  1  0.885342  0.771255  0.250000  1
  Cd  Cd22  1  0.229145  0.114573  0.250000  1
  Cd  Cd23  1  0.114393  0.885480  0.750000  1
  Cd  Cd24  1  0.114393  0.228913  0.750000  1
  Cd  Cd25  1  0.771054  0.885527  0.750000  1
  Ni  Ni26  1  0.666955  0.333477  0.750000  1
  Rh  Rh27  1  0.333355  0.666678  0.250000  1
