# generated using pymatgen
data_Ca2HoEr(Ir2O7)2
_symmetry_space_group_name_H-M   'P 1'
_cell_length_a   7.24483293
_cell_length_b   7.24788117
_cell_length_c   7.23705900
_cell_angle_alpha   60.04938528
_cell_angle_beta   60.03549378
_cell_angle_gamma   60.04295886
_symmetry_Int_Tables_number   1
_chemical_formula_structural   Ca2HoEr(Ir2O7)2
_chemical_formula_sum   'Ca2 Ho1 Er1 Ir4 O14'
_cell_volume   268.97122046
_cell_formula_units_Z   1
loop_
 _symmetry_equiv_pos_site_id
 _symmetry_equiv_pos_as_xyz
  1  'x, y, z'
loop_
 _atom_site_type_symbol
 _atom_site_label
 _atom_site_symmetry_multiplicity
 _atom_site_fract_x
 _atom_site_fract_y
 _atom_site_fract_z
 _atom_site_occupancy
  Ca  Ca0  1  0.125000  0.125000  0.625000  1
  Ca  Ca1  1  0.125000  0.125000  0.125000  1
  Ho  Ho2  1  0.125000  0.625000  0.125000  1
  Er  Er3  1  0.625000  0.125000  0.125000  1
  Ir  Ir4  1  0.125000  0.625000  0.625000  1
  Ir  Ir5  1  0.625000  0.125000  0.625000  1
  Ir  Ir6  1  0.625000  0.625000  0.125000  1
  Ir  Ir7  1  0.625000  0.625000  0.625000  1
  O  O8  1  0.706344  0.708066  0.292794  1
  O  O9  1  0.296935  0.297044  0.703010  1
  O  O10  1  0.694420  0.295992  0.716085  1
  O  O11  1  0.295875  0.695472  0.293603  1
  O  O12  1  0.295875  0.695472  0.715051  1
  O  O13  1  0.694420  0.295992  0.293504  1
  O  O14  1  0.543656  0.541934  0.957206  1
  O  O15  1  0.953065  0.952956  0.546990  1
  O  O16  1  0.555580  0.954008  0.533915  1
  O  O17  1  0.954125  0.554528  0.956397  1
  O  O18  1  0.954125  0.554528  0.534949  1
  O  O19  1  0.555580  0.954008  0.956496  1
  O  O20  1  0.258368  0.255966  0.242832  1
  O  O21  1  0.991632  0.994034  0.007168  1
