# generated using pymatgen
data_Sc8Si16Tc11Ru
_symmetry_space_group_name_H-M   'P 1'
_cell_length_a   6.62651442
_cell_length_b   6.62651382
_cell_length_c   12.37715907
_cell_angle_alpha   89.93185150
_cell_angle_beta   90.06814521
_cell_angle_gamma   90.17972182
_symmetry_Int_Tables_number   1
_chemical_formula_structural   Sc8Si16Tc11Ru
_chemical_formula_sum   'Sc8 Si16 Tc11 Ru1'
_cell_volume   543.48614696
_cell_formula_units_Z   1
loop_
 _symmetry_equiv_pos_site_id
 _symmetry_equiv_pos_as_xyz
  1  'x, y, z'
loop_
 _atom_site_type_symbol
 _atom_site_label
 _atom_site_symmetry_multiplicity
 _atom_site_fract_x
 _atom_site_fract_y
 _atom_site_fract_z
 _atom_site_occupancy
  Sc  Sc0  1  0.004573  0.657697  0.031041  1
  Sc  Sc1  1  0.995607  0.338940  0.531277  1
  Sc  Sc2  1  0.338940  0.995607  0.468723  1
  Sc  Sc3  1  0.157683  0.493507  0.781683  1
  Sc  Sc4  1  0.841435  0.503727  0.279332  1
  Sc  Sc5  1  0.493507  0.157683  0.218317  1
  Sc  Sc6  1  0.503727  0.841435  0.720668  1
  Sc  Sc7  1  0.657697  0.004573  0.968959  1
  Si  Si8  1  0.027046  0.718443  0.435958  1
  Si  Si9  1  0.620831  0.305813  0.432515  1
  Si  Si10  1  0.379608  0.693307  0.932635  1
  Si  Si11  1  0.195121  0.122282  0.681453  1
  Si  Si12  1  0.305813  0.620831  0.567485  1
  Si  Si13  1  0.693307  0.379608  0.067365  1
  Si  Si14  1  0.806056  0.879483  0.182456  1
  Si  Si15  1  0.122282  0.195121  0.318547  1
  Si  Si16  1  0.974409  0.275564  0.937555  1
  Si  Si17  1  0.718443  0.027046  0.564042  1
  Si  Si18  1  0.220262  0.473646  0.186967  1
  Si  Si19  1  0.781008  0.526918  0.686196  1
  Si  Si20  1  0.473646  0.220262  0.813033  1
  Si  Si21  1  0.526918  0.781008  0.313804  1
  Si  Si22  1  0.275564  0.974409  0.062445  1
  Si  Si23  1  0.879483  0.806056  0.817544  1
  Tc  Tc24  1  0.167520  0.831378  0.250229  1
  Tc  Tc25  1  0.330904  0.330904  0.000000  1
  Tc  Tc26  1  0.021242  0.819304  0.628611  1
  Tc  Tc27  1  0.977830  0.186461  0.133148  1
  Tc  Tc28  1  0.819304  0.021242  0.371389  1
  Tc  Tc29  1  0.319842  0.481976  0.381325  1
  Tc  Tc30  1  0.682859  0.517979  0.879687  1
  Tc  Tc31  1  0.481976  0.319842  0.618675  1
  Tc  Tc32  1  0.517979  0.682859  0.120313  1
  Tc  Tc33  1  0.186461  0.977830  0.866852  1
  Tc  Tc34  1  0.831378  0.167520  0.749771  1
  Ru  Ru35  1  0.669739  0.669739  0.500000  1
