# generated using pymatgen
data_Eu3Ho7Pb8
_symmetry_space_group_name_H-M   'P 1'
_cell_length_a   8.33052300
_cell_length_b   8.36129986
_cell_length_c   15.86479100
_cell_angle_alpha   90.11507405
_cell_angle_beta   90.00000000
_cell_angle_gamma   90.00000000
_symmetry_Int_Tables_number   1
_chemical_formula_structural   Eu3Ho7Pb8
_chemical_formula_sum   'Eu6 Ho14 Pb16'
_cell_volume   1105.04393665
_cell_formula_units_Z   2
loop_
 _symmetry_equiv_pos_site_id
 _symmetry_equiv_pos_as_xyz
  1  'x, y, z'
loop_
 _atom_site_type_symbol
 _atom_site_label
 _atom_site_symmetry_multiplicity
 _atom_site_fract_x
 _atom_site_fract_y
 _atom_site_fract_z
 _atom_site_occupancy
  Eu  Eu0  1  0.472530  0.680402  0.906012  1
  Eu  Eu1  1  0.972530  0.819598  0.593988  1
  Eu  Eu2  1  0.971871  0.822447  0.904764  1
  Eu  Eu3  1  0.471871  0.677553  0.595236  1
  Eu  Eu4  1  0.527407  0.320140  0.096413  1
  Eu  Eu5  1  0.027407  0.179860  0.403587  1
  Ho  Ho6  1  0.869230  0.656873  0.121110  1
  Ho  Ho7  1  0.369230  0.843127  0.378890  1
  Ho  Ho8  1  0.626709  0.154879  0.882696  1
  Ho  Ho9  1  0.126709  0.345121  0.617304  1
  Ho  Ho10  1  0.127758  0.342697  0.881223  1
  Ho  Ho11  1  0.627758  0.157303  0.618777  1
  Ho  Ho12  1  0.372795  0.845192  0.121265  1
  Ho  Ho13  1  0.872795  0.654808  0.378735  1
  Ho  Ho14  1  0.032723  0.177353  0.100111  1
  Ho  Ho15  1  0.532723  0.322647  0.399889  1
  Ho  Ho16  1  0.706689  0.997301  0.249964  1
  Ho  Ho17  1  0.206689  0.502699  0.250036  1
  Ho  Ho18  1  0.791511  0.496295  0.749045  1
  Ho  Ho19  1  0.291511  0.003705  0.750955  1
  Pb  Pb20  1  0.067098  0.871314  0.249281  1
  Pb  Pb21  1  0.567098  0.628686  0.250719  1
  Pb  Pb22  1  0.431849  0.369885  0.750853  1
  Pb  Pb23  1  0.931849  0.130115  0.749147  1
  Pb  Pb24  1  0.840304  0.352147  0.248160  1
  Pb  Pb25  1  0.340304  0.147853  0.251840  1
  Pb  Pb26  1  0.662796  0.859060  0.749938  1
  Pb  Pb27  1  0.162796  0.640940  0.750062  1
  Pb  Pb28  1  0.794674  0.459669  0.956112  1
  Pb  Pb29  1  0.294674  0.040331  0.543888  1
  Pb  Pb30  1  0.715051  0.966567  0.047487  1
  Pb  Pb31  1  0.215051  0.533433  0.452513  1
  Pb  Pb32  1  0.203097  0.534714  0.046718  1
  Pb  Pb33  1  0.703097  0.965286  0.453282  1
  Pb  Pb34  1  0.285908  0.042832  0.959543  1
  Pb  Pb35  1  0.785908  0.457168  0.540457  1
