# generated using pymatgen
data_Li8Tb8SnSb7
_symmetry_space_group_name_H-M   'P 1'
_cell_length_a   9.49760200
_cell_length_b   9.49760271
_cell_length_c   7.01697000
_cell_angle_alpha   90.00000000
_cell_angle_beta   90.00000000
_cell_angle_gamma   119.99999057
_symmetry_Int_Tables_number   1
_chemical_formula_structural   Li8Tb8SnSb7
_chemical_formula_sum   'Li8 Tb8 Sn1 Sb7'
_cell_volume   548.16115678
_cell_formula_units_Z   1
loop_
 _symmetry_equiv_pos_site_id
 _symmetry_equiv_pos_as_xyz
  1  'x, y, z'
loop_
 _atom_site_type_symbol
 _atom_site_label
 _atom_site_symmetry_multiplicity
 _atom_site_fract_x
 _atom_site_fract_y
 _atom_site_fract_z
 _atom_site_occupancy
  Li  Li0  1  0.167019  0.334040  0.268293  1
  Li  Li1  1  0.167019  0.832981  0.268293  1
  Li  Li2  1  0.665960  0.832981  0.268293  1
  Li  Li3  1  0.832829  0.665657  0.769226  1
  Li  Li4  1  0.832829  0.167171  0.769226  1
  Li  Li5  1  0.334343  0.167171  0.769226  1
  Li  Li6  1  0.333333  0.666667  0.693335  1
  Li  Li7  1  0.666667  0.333333  0.196548  1
  Tb  Tb8  1  0.508434  0.016868  0.496083  1
  Tb  Tb9  1  0.508434  0.491566  0.496083  1
  Tb  Tb10  1  0.983132  0.491566  0.496083  1
  Tb  Tb11  1  0.493502  0.987003  0.994358  1
  Tb  Tb12  1  0.493502  0.506498  0.994358  1
  Tb  Tb13  1  0.012997  0.506498  0.994358  1
  Tb  Tb14  1  0.000000  0.000000  0.502679  1
  Tb  Tb15  1  0.000000  0.000000  0.001690  1
  Sn  Sn16  1  0.666667  0.333333  0.759574  1
  Sb  Sb17  1  0.166768  0.333537  0.740938  1
  Sb  Sb18  1  0.166768  0.833232  0.740938  1
  Sb  Sb19  1  0.666463  0.833232  0.740938  1
  Sb  Sb20  1  0.833631  0.667263  0.240939  1
  Sb  Sb21  1  0.833631  0.166369  0.240939  1
  Sb  Sb22  1  0.332737  0.166369  0.240939  1
  Sb  Sb23  1  0.333333  0.666667  0.258631  1
