# generated using pymatgen
data_Tb7Ce(CdIr)2
_symmetry_space_group_name_H-M   'P 1'
_cell_length_a   9.68368467
_cell_length_b   9.68368479
_cell_length_c   9.73443500
_cell_angle_alpha   59.82648050
_cell_angle_beta   59.82648010
_cell_angle_gamma   59.74711449
_symmetry_Int_Tables_number   1
_chemical_formula_structural   Tb7Ce(CdIr)2
_chemical_formula_sum   'Tb14 Ce2 Cd4 Ir4'
_cell_volume   642.54043618
_cell_formula_units_Z   2
loop_
 _symmetry_equiv_pos_site_id
 _symmetry_equiv_pos_as_xyz
  1  'x, y, z'
loop_
 _atom_site_type_symbol
 _atom_site_label
 _atom_site_symmetry_multiplicity
 _atom_site_fract_x
 _atom_site_fract_y
 _atom_site_fract_z
 _atom_site_occupancy
  Tb  Tb0  1  0.600012  0.199220  0.600384  1
  Tb  Tb1  1  0.199220  0.600012  0.600384  1
  Tb  Tb2  1  0.061264  0.438787  0.439729  1
  Tb  Tb3  1  0.438787  0.061264  0.060220  1
  Tb  Tb4  1  0.438787  0.061264  0.439729  1
  Tb  Tb5  1  0.061264  0.438787  0.060220  1
  Tb  Tb6  1  0.438979  0.438979  0.061021  1
  Tb  Tb7  1  0.060787  0.060787  0.439213  1
  Tb  Tb8  1  0.188877  0.812233  0.812858  1
  Tb  Tb9  1  0.812233  0.188877  0.186032  1
  Tb  Tb10  1  0.812233  0.188877  0.812858  1
  Tb  Tb11  1  0.188877  0.812233  0.186032  1
  Tb  Tb12  1  0.812859  0.812859  0.187141  1
  Tb  Tb13  1  0.188053  0.188053  0.811947  1
  Ce  Ce14  1  0.596521  0.596521  0.598296  1
  Ce  Ce15  1  0.596521  0.596521  0.208662  1
  Cd  Cd16  1  0.830529  0.830529  0.831292  1
  Cd  Cd17  1  0.830529  0.830529  0.507652  1
  Cd  Cd18  1  0.830353  0.506373  0.831638  1
  Cd  Cd19  1  0.506373  0.830353  0.831638  1
  Ir  Ir20  1  0.394292  0.394292  0.388929  1
  Ir  Ir21  1  0.394292  0.394292  0.822487  1
  Ir  Ir22  1  0.396851  0.821510  0.390819  1
  Ir  Ir23  1  0.821510  0.396851  0.390819  1
