# generated using pymatgen
data_Li4PrNd2ThSn4
_symmetry_space_group_name_H-M   'P 1'
_cell_length_a   9.60683073
_cell_length_b   9.60683090
_cell_length_c   7.60974002
_cell_angle_alpha   90.00787815
_cell_angle_beta   89.99212168
_cell_angle_gamma   119.95619978
_symmetry_Int_Tables_number   1
_chemical_formula_structural   Li4PrNd2ThSn4
_chemical_formula_sum   'Li8 Pr2 Nd4 Th2 Sn8'
_cell_volume   608.48831353
_cell_formula_units_Z   2
loop_
 _symmetry_equiv_pos_site_id
 _symmetry_equiv_pos_as_xyz
  1  'x, y, z'
loop_
 _atom_site_type_symbol
 _atom_site_label
 _atom_site_symmetry_multiplicity
 _atom_site_fract_x
 _atom_site_fract_y
 _atom_site_fract_z
 _atom_site_occupancy
  Li  Li0  1  0.833920  0.166080  0.734288  1
  Li  Li1  1  0.833511  0.667542  0.734279  1
  Li  Li2  1  0.332458  0.166489  0.734279  1
  Li  Li3  1  0.165953  0.834047  0.235679  1
  Li  Li4  1  0.166651  0.332388  0.235652  1
  Li  Li5  1  0.667612  0.833349  0.235652  1
  Li  Li6  1  0.666466  0.333534  0.290119  1
  Li  Li7  1  0.333725  0.666275  0.788793  1
  Pr  Pr8  1  0.999885  0.000115  0.501218  1
  Pr  Pr9  1  0.000101  0.999899  0.001343  1
  Nd  Nd10  1  0.495211  0.504789  0.504234  1
  Nd  Nd11  1  0.495012  0.990256  0.504099  1
  Nd  Nd12  1  0.009744  0.504988  0.504099  1
  Nd  Nd13  1  0.504782  0.495218  0.003999  1
  Th  Th14  1  0.504788  0.009566  0.004034  1
  Th  Th15  1  0.990434  0.495212  0.004034  1
  Sn  Sn16  1  0.832223  0.167777  0.257134  1
  Sn  Sn17  1  0.832922  0.664817  0.258320  1
  Sn  Sn18  1  0.335183  0.167078  0.258320  1
  Sn  Sn19  1  0.167705  0.832295  0.761428  1
  Sn  Sn20  1  0.167041  0.335327  0.760225  1
  Sn  Sn21  1  0.664673  0.832959  0.760225  1
  Sn  Sn22  1  0.666962  0.333038  0.745662  1
  Sn  Sn23  1  0.333038  0.666962  0.240893  1
