# generated using pymatgen
data_Er19Lu(RuPt5)2
_symmetry_space_group_name_H-M   'P 1'
_cell_length_a   11.01970500
_cell_length_b   11.02407003
_cell_length_c   6.40589700
_cell_angle_alpha   90.00000000
_cell_angle_beta   90.00000000
_cell_angle_gamma   89.99556148
_symmetry_Int_Tables_number   1
_chemical_formula_structural   Er19Lu(RuPt5)2
_chemical_formula_sum   'Er19 Lu1 Ru2 Pt10'
_cell_volume   778.20117487
_cell_formula_units_Z   1
loop_
 _symmetry_equiv_pos_site_id
 _symmetry_equiv_pos_as_xyz
  1  'x, y, z'
loop_
 _atom_site_type_symbol
 _atom_site_label
 _atom_site_symmetry_multiplicity
 _atom_site_fract_x
 _atom_site_fract_y
 _atom_site_fract_z
 _atom_site_occupancy
  Er  Er0  1  0.292201  0.088342  0.376838  1
  Er  Er1  1  0.292551  0.911324  0.876804  1
  Er  Er2  1  0.707449  0.088676  0.876804  1
  Er  Er3  1  0.707799  0.911658  0.376838  1
  Er  Er4  1  0.588770  0.793031  0.876622  1
  Er  Er5  1  0.588644  0.206933  0.376573  1
  Er  Er6  1  0.411356  0.793067  0.376573  1
  Er  Er7  1  0.411230  0.206969  0.876622  1
  Er  Er8  1  0.201762  0.413564  0.624472  1
  Er  Er9  1  0.201705  0.586643  0.124403  1
  Er  Er10  1  0.798295  0.413357  0.124403  1
  Er  Er11  1  0.798238  0.586436  0.624472  1
  Er  Er12  1  0.913343  0.702183  0.124249  1
  Er  Er13  1  0.913701  0.297382  0.623957  1
  Er  Er14  1  0.086299  0.702618  0.623957  1
  Er  Er15  1  0.086657  0.297817  0.124249  1
  Er  Er16  1  0.000000  0.000000  0.001355  1
  Er  Er17  1  0.500000  0.500000  0.001223  1
  Er  Er18  1  0.500000  0.500000  0.501261  1
  Lu  Lu19  1  0.000000  0.000000  0.501361  1
  Ru  Ru20  1  0.000000  0.500000  0.875944  1
  Ru  Ru21  1  0.000000  0.500000  0.376245  1
  Pt  Pt22  1  0.846565  0.151111  0.251966  1
  Pt  Pt23  1  0.846655  0.848890  0.748184  1
  Pt  Pt24  1  0.153345  0.151110  0.748184  1
  Pt  Pt25  1  0.153435  0.848889  0.251966  1
  Pt  Pt26  1  0.652184  0.345377  0.749953  1
  Pt  Pt27  1  0.652307  0.654585  0.250176  1
  Pt  Pt28  1  0.347693  0.345415  0.250176  1
  Pt  Pt29  1  0.347816  0.654623  0.749953  1
  Pt  Pt30  1  0.500000  0.000000  0.117205  1
  Pt  Pt31  1  0.500000  0.000000  0.617010  1
