# generated using pymatgen
data_TbFeCuSi
_symmetry_space_group_name_H-M   'P 1'
_cell_length_a   8.53418829
_cell_length_b   8.53418818
_cell_length_c   4.01499300
_cell_angle_alpha   90.00000000
_cell_angle_beta   90.00000000
_cell_angle_gamma   152.98901612
_symmetry_Int_Tables_number   1
_chemical_formula_structural   TbFeCuSi
_chemical_formula_sum   'Tb2 Fe2 Cu2 Si2'
_cell_volume   132.80650680
_cell_formula_units_Z   2
loop_
 _symmetry_equiv_pos_site_id
 _symmetry_equiv_pos_as_xyz
  1  'x, y, z'
loop_
 _atom_site_type_symbol
 _atom_site_label
 _atom_site_symmetry_multiplicity
 _atom_site_fract_x
 _atom_site_fract_y
 _atom_site_fract_z
 _atom_site_occupancy
  Tb  Tb0  1  0.612603  0.387397  0.250000  1
  Tb  Tb1  1  0.387397  0.612603  0.750000  1
  Fe  Fe2  1  0.249960  0.750040  0.250000  1
  Fe  Fe3  1  0.750040  0.249960  0.750000  1
  Cu  Cu4  1  0.960102  0.039898  0.250000  1
  Cu  Cu5  1  0.039898  0.960102  0.750000  1
  Si  Si6  1  0.815445  0.184555  0.250000  1
  Si  Si7  1  0.184555  0.815445  0.750000  1
