# generated using pymatgen
data_Zr4Nb4SiGeP2
_symmetry_space_group_name_H-M   'P 1'
_cell_length_a   3.60904700
_cell_length_b   7.00885048
_cell_length_c   8.49704363
_cell_angle_alpha   89.83849953
_cell_angle_beta   90.00000000
_cell_angle_gamma   90.00000000
_symmetry_Int_Tables_number   1
_chemical_formula_structural   Zr4Nb4SiGeP2
_chemical_formula_sum   'Zr4 Nb4 Si1 Ge1 P2'
_cell_volume   214.93416576
_cell_formula_units_Z   1
loop_
 _symmetry_equiv_pos_site_id
 _symmetry_equiv_pos_as_xyz
  1  'x, y, z'
loop_
 _atom_site_type_symbol
 _atom_site_label
 _atom_site_symmetry_multiplicity
 _atom_site_fract_x
 _atom_site_fract_y
 _atom_site_fract_z
 _atom_site_occupancy
  Zr  Zr0  1  0.250000  0.533144  0.837009  1
  Zr  Zr1  1  0.750000  0.965062  0.332302  1
  Zr  Zr2  1  0.250000  0.044558  0.670048  1
  Zr  Zr3  1  0.750000  0.460338  0.169832  1
  Nb  Nb4  1  0.250000  0.139721  0.059553  1
  Nb  Nb5  1  0.750000  0.870542  0.941370  1
  Nb  Nb6  1  0.250000  0.627277  0.436323  1
  Nb  Nb7  1  0.750000  0.358625  0.558135  1
  Si  Si8  1  0.250000  0.760164  0.139766  1
  Ge  Ge9  1  0.750000  0.741902  0.640191  1
  P  P10  1  0.750000  0.241761  0.857885  1
  P  P11  1  0.250000  0.256907  0.357587  1
