# generated using pymatgen
data_Yb2Re7Si4Mo
_symmetry_space_group_name_H-M   'P 1'
_cell_length_a   7.01321450
_cell_length_b   7.73944113
_cell_length_c   4.21988600
_cell_angle_alpha   90.00000000
_cell_angle_beta   90.00000000
_cell_angle_gamma   90.05607973
_symmetry_Int_Tables_number   1
_chemical_formula_structural   Yb2Re7Si4Mo
_chemical_formula_sum   'Yb2 Re7 Si4 Mo1'
_cell_volume   229.04838495
_cell_formula_units_Z   1
loop_
 _symmetry_equiv_pos_site_id
 _symmetry_equiv_pos_as_xyz
  1  'x, y, z'
loop_
 _atom_site_type_symbol
 _atom_site_label
 _atom_site_symmetry_multiplicity
 _atom_site_fract_x
 _atom_site_fract_y
 _atom_site_fract_z
 _atom_site_occupancy
  Yb  Yb0  1  0.499935  0.499207  0.000000  1
  Yb  Yb1  1  0.998745  0.000250  0.500000  1
  Re  Re2  1  0.155564  0.612829  0.500000  1
  Re  Re3  1  0.081391  0.340345  0.000000  1
  Re  Re4  1  0.922079  0.656031  0.000000  1
  Re  Re5  1  0.418099  0.841970  0.500000  1
  Re  Re6  1  0.580466  0.162889  0.500000  1
  Re  Re7  1  0.344926  0.114191  0.000000  1
  Re  Re8  1  0.845768  0.386466  0.500000  1
  Si  Si9  1  0.225900  0.814892  0.000000  1
  Si  Si10  1  0.775114  0.187523  0.000000  1
  Si  Si11  1  0.726293  0.684833  0.500000  1
  Si  Si12  1  0.273546  0.313712  0.500000  1
  Mo  Mo13  1  0.652173  0.884862  0.000000  1
