# generated using pymatgen
data_Eu3Tm(Si5Pt3)2
_symmetry_space_group_name_H-M   'P 1'
_cell_length_a   8.22263136
_cell_length_b   8.21048570
_cell_length_c   8.21048612
_cell_angle_alpha   137.23146701
_cell_angle_beta   104.43020623
_cell_angle_gamma   90.93418538
_symmetry_Int_Tables_number   1
_chemical_formula_structural   Eu3Tm(Si5Pt3)2
_chemical_formula_sum   'Eu3 Tm1 Si10 Pt6'
_cell_volume   347.38632420
_cell_formula_units_Z   1
loop_
 _symmetry_equiv_pos_site_id
 _symmetry_equiv_pos_as_xyz
  1  'x, y, z'
loop_
 _atom_site_type_symbol
 _atom_site_label
 _atom_site_symmetry_multiplicity
 _atom_site_fract_x
 _atom_site_fract_y
 _atom_site_fract_z
 _atom_site_occupancy
  Eu  Eu0  1  0.896176  0.128818  0.767358  1
  Eu  Eu1  1  0.638166  0.371124  0.267042  1
  Eu  Eu2  1  0.362472  0.629205  0.733266  1
  Tm  Tm3  1  0.101259  0.871008  0.230252  1
  Si  Si4  1  0.999755  0.746769  0.746455  1
  Si  Si5  1  0.999755  0.253300  0.252986  1
  Si  Si6  1  0.272426  0.021000  0.750856  1
  Si  Si7  1  0.729651  0.477959  0.748943  1
  Si  Si8  1  0.729651  0.980708  0.251692  1
  Si  Si9  1  0.272426  0.521570  0.251426  1
  Si  Si10  1  0.762805  0.613057  0.149747  1
  Si  Si11  1  0.238243  0.388157  0.850087  1
  Si  Si12  1  0.456963  0.109148  0.347815  1
  Si  Si13  1  0.540322  0.888127  0.652193  1
  Pt  Pt14  1  0.497465  0.750234  0.249493  1
  Pt  Pt15  1  0.497465  0.247972  0.747231  1
  Pt  Pt16  1  0.025410  0.640211  0.385199  1
  Pt  Pt17  1  0.979204  0.363606  0.615599  1
  Pt  Pt18  1  0.246144  0.133635  0.112509  1
  Pt  Pt19  1  0.754241  0.864393  0.889848  1
