# generated using pymatgen
data_Dy3ErSc2(AlPt2)2
_symmetry_space_group_name_H-M   'P 1'
_cell_length_a   4.42112900
_cell_length_b   7.14445887
_cell_length_c   8.05047105
_cell_angle_alpha   89.89958667
_cell_angle_beta   90.00000000
_cell_angle_gamma   90.00000000
_symmetry_Int_Tables_number   1
_chemical_formula_structural   Dy3ErSc2(AlPt2)2
_chemical_formula_sum   'Dy3 Er1 Sc2 Al2 Pt4'
_cell_volume   254.28641145
_cell_formula_units_Z   1
loop_
 _symmetry_equiv_pos_site_id
 _symmetry_equiv_pos_as_xyz
  1  'x, y, z'
loop_
 _atom_site_type_symbol
 _atom_site_label
 _atom_site_symmetry_multiplicity
 _atom_site_fract_x
 _atom_site_fract_y
 _atom_site_fract_z
 _atom_site_occupancy
  Dy  Dy0  1  0.250000  0.551090  0.822934  1
  Dy  Dy1  1  0.250000  0.019857  0.671713  1
  Dy  Dy2  1  0.750000  0.948351  0.322369  1
  Er  Er3  1  0.750000  0.480478  0.170855  1
  Sc  Sc4  1  0.250000  0.127650  0.064437  1
  Sc  Sc5  1  0.750000  0.372716  0.563497  1
  Al  Al6  1  0.250000  0.640202  0.435268  1
  Al  Al7  1  0.750000  0.859274  0.936028  1
  Pt  Pt8  1  0.250000  0.757038  0.123153  1
  Pt  Pt9  1  0.250000  0.270253  0.383110  1
  Pt  Pt10  1  0.750000  0.741680  0.622403  1
  Pt  Pt11  1  0.750000  0.231411  0.884236  1
