# generated using pymatgen
data_Tb2YbGd(Pt2O7)2
_symmetry_space_group_name_H-M   'P 1'
_cell_length_a   7.30818710
_cell_length_b   7.29131298
_cell_length_c   7.29859136
_cell_angle_alpha   59.90854261
_cell_angle_beta   59.95650004
_cell_angle_gamma   59.92342147
_symmetry_Int_Tables_number   1
_chemical_formula_structural   Tb2YbGd(Pt2O7)2
_chemical_formula_sum   'Tb2 Yb1 Gd1 Pt4 O14'
_cell_volume   274.56433744
_cell_formula_units_Z   1
loop_
 _symmetry_equiv_pos_site_id
 _symmetry_equiv_pos_as_xyz
  1  'x, y, z'
loop_
 _atom_site_type_symbol
 _atom_site_label
 _atom_site_symmetry_multiplicity
 _atom_site_fract_x
 _atom_site_fract_y
 _atom_site_fract_z
 _atom_site_occupancy
  Tb  Tb0  1  0.625000  0.625000  0.625000  1
  Tb  Tb1  1  0.125000  0.625000  0.625000  1
  Yb  Yb2  1  0.625000  0.125000  0.625000  1
  Gd  Gd3  1  0.625000  0.625000  0.125000  1
  Pt  Pt4  1  0.125000  0.125000  0.125000  1
  Pt  Pt5  1  0.625000  0.125000  0.125000  1
  Pt  Pt6  1  0.125000  0.625000  0.125000  1
  Pt  Pt7  1  0.125000  0.125000  0.625000  1
  O  O8  1  0.036093  0.464365  0.463449  1
  O  O9  1  0.787590  0.786453  0.214505  1
  O  O10  1  0.789687  0.212585  0.208041  1
  O  O11  1  0.460995  0.034974  0.461268  1
  O  O12  1  0.038547  0.463547  0.035495  1
  O  O13  1  0.752229  0.745398  0.750146  1
  O  O14  1  0.042763  0.034974  0.461268  1
  O  O15  1  0.211453  0.786453  0.214505  1
  O  O16  1  0.207237  0.215026  0.788732  1
  O  O17  1  0.497771  0.504602  0.499854  1
  O  O18  1  0.789005  0.215026  0.788732  1
  O  O19  1  0.460313  0.037415  0.041959  1
  O  O20  1  0.462410  0.463547  0.035495  1
  O  O21  1  0.213907  0.785635  0.786551  1
