# generated using pymatgen
data_BaPrHfThSb5
_symmetry_space_group_name_H-M   'P 1'
_cell_length_a   9.70539100
_cell_length_b   9.67176846
_cell_length_c   6.31710600
_cell_angle_alpha   90.00000000
_cell_angle_beta   90.00000000
_cell_angle_gamma   120.42689731
_symmetry_Int_Tables_number   1
_chemical_formula_structural   BaPrHfThSb5
_chemical_formula_sum   'Ba2 Pr2 Hf2 Th2 Sb10'
_cell_volume   511.30895576
_cell_formula_units_Z   2
loop_
 _symmetry_equiv_pos_site_id
 _symmetry_equiv_pos_as_xyz
  1  'x, y, z'
loop_
 _atom_site_type_symbol
 _atom_site_label
 _atom_site_symmetry_multiplicity
 _atom_site_fract_x
 _atom_site_fract_y
 _atom_site_fract_z
 _atom_site_occupancy
  Ba  Ba0  1  0.994806  0.607771  0.250000  1
  Ba  Ba1  1  0.005194  0.392229  0.750000  1
  Pr  Pr2  1  0.378019  0.385675  0.250000  1
  Pr  Pr3  1  0.621981  0.614325  0.750000  1
  Hf  Hf4  1  0.000000  0.000000  0.000000  1
  Hf  Hf5  1  0.000000  0.000000  0.500000  1
  Th  Th6  1  0.629311  0.014143  0.250000  1
  Th  Th7  1  0.370689  0.985857  0.750000  1
  Sb  Sb8  1  0.266972  0.009061  0.250000  1
  Sb  Sb9  1  0.733028  0.990939  0.750000  1
  Sb  Sb10  1  0.002270  0.252735  0.250000  1
  Sb  Sb11  1  0.997730  0.747265  0.750000  1
  Sb  Sb12  1  0.735988  0.748103  0.250000  1
  Sb  Sb13  1  0.264012  0.251897  0.750000  1
  Sb  Sb14  1  0.359279  0.684171  0.004306  1
  Sb  Sb15  1  0.640721  0.315829  0.995694  1
  Sb  Sb16  1  0.640721  0.315829  0.504306  1
  Sb  Sb17  1  0.359279  0.684171  0.495694  1
