# generated using pymatgen
data_Ho8Ti7Nb5Si15Sn
_symmetry_space_group_name_H-M   'P 1'
_cell_length_a   7.11158486
_cell_length_b   7.06182034
_cell_length_c   13.02545591
_cell_angle_alpha   90.04972125
_cell_angle_beta   89.86836686
_cell_angle_gamma   89.92744378
_symmetry_Int_Tables_number   1
_chemical_formula_structural   Ho8Ti7Nb5Si15Sn
_chemical_formula_sum   'Ho8 Ti7 Nb5 Si15 Sn1'
_cell_volume   654.14546613
_cell_formula_units_Z   1
loop_
 _symmetry_equiv_pos_site_id
 _symmetry_equiv_pos_as_xyz
  1  'x, y, z'
loop_
 _atom_site_type_symbol
 _atom_site_label
 _atom_site_symmetry_multiplicity
 _atom_site_fract_x
 _atom_site_fract_y
 _atom_site_fract_z
 _atom_site_occupancy
  Ho  Ho0  1  0.344152  0.997754  0.460865  1
  Ho  Ho1  1  0.506247  0.834583  0.719030  1
  Ho  Ho2  1  0.500778  0.159807  0.217165  1
  Ho  Ho3  1  0.840750  0.498722  0.282201  1
  Ho  Ho4  1  0.160416  0.507322  0.785585  1
  Ho  Ho5  1  0.659627  0.997457  0.968703  1
  Ho  Ho6  1  0.990371  0.348206  0.527125  1
  Ho  Ho7  1  0.001125  0.660560  0.034434  1
  Ti  Ti8  1  0.491226  0.651357  0.125261  1
  Ti  Ti9  1  0.515944  0.354093  0.625163  1
  Ti  Ti10  1  0.654432  0.492044  0.876470  1
  Ti  Ti11  1  0.346290  0.509360  0.374547  1
  Ti  Ti12  1  0.845364  0.990917  0.374972  1
  Ti  Ti13  1  0.010154  0.152079  0.124932  1
  Ti  Ti14  1  0.978272  0.835067  0.620312  1
  Nb  Nb15  1  0.326194  0.326187  0.001311  1
  Nb  Nb16  1  0.172803  0.827259  0.249981  1
  Nb  Nb17  1  0.820256  0.173985  0.752050  1
  Nb  Nb18  1  0.672616  0.672940  0.499441  1
  Nb  Nb19  1  0.153990  0.008867  0.881354  1
  Si  Si20  1  0.372038  0.703432  0.935334  1
  Si  Si21  1  0.626766  0.296061  0.431869  1
  Si  Si22  1  0.704639  0.370247  0.067512  1
  Si  Si23  1  0.294180  0.629660  0.566231  1
  Si  Si24  1  0.797170  0.871268  0.184199  1
  Si  Si25  1  0.128785  0.203778  0.315743  1
  Si  Si26  1  0.869652  0.797784  0.817154  1
  Si  Si27  1  0.295265  0.952544  0.066759  1
  Si  Si28  1  0.548537  0.789492  0.311923  1
  Si  Si29  1  0.460321  0.209565  0.817730  1
  Si  Si30  1  0.796108  0.543555  0.688134  1
  Si  Si31  1  0.207689  0.453293  0.186856  1
  Si  Si32  1  0.705015  0.048518  0.563540  1
  Si  Si33  1  0.951870  0.295181  0.937075  1
  Si  Si34  1  0.047238  0.709944  0.434309  1
  Sn  Sn35  1  0.203716  0.127109  0.674732  1
