# generated using pymatgen
data_MnCl35
_symmetry_space_group_name_H-M   'P 1'
_cell_length_a   14.38377941
_cell_length_b   10.26025305
_cell_length_c   9.71269500
_cell_angle_alpha   88.81408388
_cell_angle_beta   66.02770759
_cell_angle_gamma   92.31545463
_symmetry_Int_Tables_number   1
_chemical_formula_structural   MnCl35
_chemical_formula_sum   'Mn1 Cl35'
_cell_volume   1307.61722576
_cell_formula_units_Z   1
loop_
 _symmetry_equiv_pos_site_id
 _symmetry_equiv_pos_as_xyz
  1  'x, y, z'
loop_
 _atom_site_type_symbol
 _atom_site_label
 _atom_site_symmetry_multiplicity
 _atom_site_fract_x
 _atom_site_fract_y
 _atom_site_fract_z
 _atom_site_occupancy
  Mn  Mn0  1  0.238746  0.443703  0.444432  1
  Cl  Cl1  1  0.497503  0.269122  0.566849  1
  Cl  Cl2  1  0.768194  0.576815  0.546331  1
  Cl  Cl3  1  0.475463  0.663348  0.781349  1
  Cl  Cl4  1  0.072863  0.899755  0.810779  1
  Cl  Cl5  1  0.893387  0.151345  0.991044  1
  Cl  Cl6  1  0.657366  0.337800  0.274233  1
  Cl  Cl7  1  0.602704  0.337684  0.852251  1
  Cl  Cl8  1  0.338172  0.761157  0.674864  1
  Cl  Cl9  1  0.338775  0.592732  0.226236  1
  Cl  Cl10  1  0.634497  0.147340  0.824906  1
  Cl  Cl11  1  0.907284  0.543737  0.393255  1
  Cl  Cl12  1  0.087257  0.955891  0.602758  1
  Cl  Cl13  1  0.880373  0.085504  0.282825  1
  Cl  Cl14  1  0.895894  0.214087  0.791770  1
  Cl  Cl15  1  0.645095  0.051877  0.245415  1
  Cl  Cl16  1  0.030822  0.813895  0.116908  1
  Cl  Cl17  1  0.357287  0.948468  0.725725  1
  Cl  Cl18  1  0.894998  0.273929  0.334209  1
  Cl  Cl19  1  0.868435  0.928865  0.665408  1
  Cl  Cl20  1  0.882441  0.668391  0.825019  1
  Cl  Cl21  1  0.315687  0.030721  0.280129  1
  Cl  Cl22  1  0.341873  0.318946  0.260911  1
  Cl  Cl23  1  0.579019  0.613076  0.863222  1
  Cl  Cl24  1  0.118289  0.422419  0.356089  1
  Cl  Cl25  1  0.717051  0.890167  0.753771  1
  Cl  Cl26  1  0.882532  0.471986  0.820051  1
  Cl  Cl27  1  0.496212  0.040941  0.260830  1
  Cl  Cl28  1  0.172113  0.287441  0.614450  1
  Cl  Cl29  1  0.667555  0.771201  0.268460  1
  Cl  Cl30  1  0.876386  0.803049  0.182587  1
  Cl  Cl31  1  0.386224  0.220052  0.770693  1
  Cl  Cl32  1  0.358811  0.496305  0.532248  1
  Cl  Cl33  1  0.653000  0.551023  0.234654  1
  Cl  Cl34  1  0.155445  0.605319  0.578014  1
  Cl  Cl35  1  0.312246  0.811912  0.247328  1
