# generated using pymatgen
data_HoLuBi2(Rh2O7)2
_symmetry_space_group_name_H-M   'P 1'
_cell_length_a   7.25101611
_cell_length_b   7.25101524
_cell_length_c   7.19733100
_cell_angle_alpha   60.24446893
_cell_angle_beta   60.24447299
_cell_angle_gamma   60.48436753
_symmetry_Int_Tables_number   1
_chemical_formula_structural   HoLuBi2(Rh2O7)2
_chemical_formula_sum   'Ho1 Lu1 Bi2 Rh4 O14'
_cell_volume   269.54139090
_cell_formula_units_Z   1
loop_
 _symmetry_equiv_pos_site_id
 _symmetry_equiv_pos_as_xyz
  1  'x, y, z'
loop_
 _atom_site_type_symbol
 _atom_site_label
 _atom_site_symmetry_multiplicity
 _atom_site_fract_x
 _atom_site_fract_y
 _atom_site_fract_z
 _atom_site_occupancy
  Ho  Ho0  1  0.125000  0.125000  0.125000  1
  Lu  Lu1  1  0.125000  0.125000  0.625000  1
  Bi  Bi2  1  0.125000  0.625000  0.125000  1
  Bi  Bi3  1  0.625000  0.125000  0.125000  1
  Rh  Rh4  1  0.625000  0.625000  0.625000  1
  Rh  Rh5  1  0.625000  0.625000  0.125000  1
  Rh  Rh6  1  0.125000  0.625000  0.625000  1
  Rh  Rh7  1  0.625000  0.125000  0.625000  1
  O  O8  1  0.243429  0.243429  0.260861  1
  O  O9  1  0.288059  0.716897  0.287800  1
  O  O10  1  0.962481  0.962481  0.540296  1
  O  O11  1  0.530253  0.962345  0.544562  1
  O  O12  1  0.708420  0.708420  0.291599  1
  O  O13  1  0.962345  0.530253  0.544562  1
  O  O14  1  0.719747  0.287655  0.705438  1
  O  O15  1  0.287519  0.287519  0.709704  1
  O  O16  1  0.716897  0.288059  0.287800  1
  O  O17  1  0.287655  0.719747  0.705438  1
  O  O18  1  0.961941  0.533103  0.962200  1
  O  O19  1  0.541580  0.541580  0.958401  1
  O  O20  1  0.006571  0.006571  0.989139  1
  O  O21  1  0.533103  0.961941  0.962200  1
