# generated using pymatgen
data_Pr3GeAuSe7
_symmetry_space_group_name_H-M   'P 1'
_cell_length_a   10.79997600
_cell_length_b   10.80277896
_cell_length_c   6.18182100
_cell_angle_alpha   90.00064569
_cell_angle_beta   89.99912936
_cell_angle_gamma   120.00125751
_symmetry_Int_Tables_number   1
_chemical_formula_structural   Pr3GeAuSe7
_chemical_formula_sum   'Pr6 Ge2 Au2 Se14'
_cell_volume   624.59691426
_cell_formula_units_Z   2
loop_
 _symmetry_equiv_pos_site_id
 _symmetry_equiv_pos_as_xyz
  1  'x, y, z'
loop_
 _atom_site_type_symbol
 _atom_site_label
 _atom_site_symmetry_multiplicity
 _atom_site_fract_x
 _atom_site_fract_y
 _atom_site_fract_z
 _atom_site_occupancy
  Pr  Pr0  1  0.355312  0.126211  0.247643  1
  Pr  Pr1  1  0.770922  0.645022  0.247467  1
  Pr  Pr2  1  0.873945  0.229151  0.247441  1
  Pr  Pr3  1  0.644686  0.873786  0.747635  1
  Pr  Pr4  1  0.229078  0.354978  0.747470  1
  Pr  Pr5  1  0.126059  0.770850  0.747447  1
  Ge  Ge6  1  0.333098  0.666365  0.331740  1
  Ge  Ge7  1  0.666902  0.333634  0.831743  1
  Au  Au8  1  0.999887  0.000008  0.221560  1
  Au  Au9  1  0.000110  0.999988  0.721560  1
  Se  Se10  1  0.174776  0.270768  0.233515  1
  Se  Se11  1  0.096189  0.825441  0.233456  1
  Se  Se12  1  0.729032  0.903945  0.233710  1
  Se  Se13  1  0.666988  0.333758  0.449613  1
  Se  Se14  1  0.101889  0.518486  0.493348  1
  Se  Se15  1  0.416648  0.897672  0.493202  1
  Se  Se16  1  0.481102  0.583162  0.493299  1
  Se  Se17  1  0.270967  0.096059  0.733711  1
  Se  Se18  1  0.825225  0.729232  0.733516  1
  Se  Se19  1  0.903814  0.174561  0.733459  1
  Se  Se20  1  0.333010  0.666240  0.949610  1
  Se  Se21  1  0.898112  0.481514  0.993349  1
  Se  Se22  1  0.583350  0.102327  0.993206  1
  Se  Se23  1  0.518899  0.416840  0.993300  1
