# generated using pymatgen
data_EuNiAsH2
_symmetry_space_group_name_H-M   'P 1'
_cell_length_a   4.14412400
_cell_length_b   4.14412343
_cell_length_c   8.44267900
_cell_angle_alpha   90.00000000
_cell_angle_beta   90.00000000
_cell_angle_gamma   120.00000457
_symmetry_Int_Tables_number   1
_chemical_formula_structural   EuNiAsH2
_chemical_formula_sum   'Eu2 Ni2 As2 H4'
_cell_volume   125.56722966
_cell_formula_units_Z   2
loop_
 _symmetry_equiv_pos_site_id
 _symmetry_equiv_pos_as_xyz
  1  'x, y, z'
loop_
 _atom_site_type_symbol
 _atom_site_label
 _atom_site_symmetry_multiplicity
 _atom_site_fract_x
 _atom_site_fract_y
 _atom_site_fract_z
 _atom_site_occupancy
  Eu  Eu0  1  0.000000  0.000000  0.500000  1
  Eu  Eu1  1  0.000000  0.000000  0.000000  1
  Ni  Ni2  1  0.333333  0.666667  0.750000  1
  Ni  Ni3  1  0.666667  0.333333  0.250000  1
  As  As4  1  0.666667  0.333333  0.750000  1
  As  As5  1  0.333333  0.666667  0.250000  1
  H  H6  1  0.666667  0.333333  0.062460  1
  H  H7  1  0.333333  0.666667  0.937540  1
  H  H8  1  0.666667  0.333333  0.437540  1
  H  H9  1  0.333333  0.666667  0.562460  1
