# generated using pymatgen
data_Sc12TaTi3Co8
_symmetry_space_group_name_H-M   'P 1'
_cell_length_a   8.39230224
_cell_length_b   8.39029447
_cell_length_c   8.39230400
_cell_angle_alpha   59.99208477
_cell_angle_beta   60.00000093
_cell_angle_gamma   59.99208446
_symmetry_Int_Tables_number   1
_chemical_formula_structural   Sc12TaTi3Co8
_chemical_formula_sum   'Sc12 Ta1 Ti3 Co8'
_cell_volume   417.80396955
_cell_formula_units_Z   1
loop_
 _symmetry_equiv_pos_site_id
 _symmetry_equiv_pos_as_xyz
  1  'x, y, z'
loop_
 _atom_site_type_symbol
 _atom_site_label
 _atom_site_symmetry_multiplicity
 _atom_site_fract_x
 _atom_site_fract_y
 _atom_site_fract_z
 _atom_site_occupancy
  Sc  Sc0  1  0.809819  0.809622  0.190279  1
  Sc  Sc1  1  0.188470  0.190198  0.810666  1
  Sc  Sc2  1  0.810666  0.190198  0.810666  1
  Sc  Sc3  1  0.190279  0.809622  0.190279  1
  Sc  Sc4  1  0.190279  0.809622  0.809819  1
  Sc  Sc5  1  0.810666  0.190198  0.188470  1
  Sc  Sc6  1  0.440181  0.440378  0.059721  1
  Sc  Sc7  1  0.061530  0.059802  0.439334  1
  Sc  Sc8  1  0.439334  0.059802  0.439334  1
  Sc  Sc9  1  0.059721  0.440378  0.059721  1
  Sc  Sc10  1  0.059721  0.440378  0.440181  1
  Sc  Sc11  1  0.439334  0.059802  0.061530  1
  Ta  Ta12  1  0.625000  0.125000  0.625000  1
  Ti  Ti13  1  0.125000  0.625000  0.625000  1
  Ti  Ti14  1  0.625000  0.625000  0.125000  1
  Ti  Ti15  1  0.625000  0.625000  0.625000  1
  Co  Co16  1  0.741404  0.419898  0.419349  1
  Co  Co17  1  0.419750  0.740750  0.419750  1
  Co  Co18  1  0.419349  0.419898  0.741404  1
  Co  Co19  1  0.419349  0.419898  0.419349  1
  Co  Co20  1  0.508596  0.830102  0.830651  1
  Co  Co21  1  0.830250  0.509250  0.830250  1
  Co  Co22  1  0.830651  0.830102  0.508596  1
  Co  Co23  1  0.830651  0.830102  0.830651  1
