# generated using pymatgen
data_Rb2BeSe2
_symmetry_space_group_name_H-M   'P 1'
_cell_length_a   8.29274468
_cell_length_b   8.29274367
_cell_length_c   8.29274433
_cell_angle_alpha   135.90024717
_cell_angle_beta   129.21091008
_cell_angle_gamma   69.49395865
_symmetry_Int_Tables_number   1
_chemical_formula_structural   Rb2BeSe2
_chemical_formula_sum   'Rb4 Be2 Se4'
_cell_volume   301.76608295
_cell_formula_units_Z   2
loop_
 _symmetry_equiv_pos_site_id
 _symmetry_equiv_pos_as_xyz
  1  'x, y, z'
loop_
 _atom_site_type_symbol
 _atom_site_label
 _atom_site_symmetry_multiplicity
 _atom_site_fract_x
 _atom_site_fract_y
 _atom_site_fract_z
 _atom_site_occupancy
  Rb  Rb0  1  0.474336  0.645579  0.828757  1
  Rb  Rb1  1  0.525664  0.354421  0.171243  1
  Rb  Rb2  1  0.183178  0.854421  0.328757  1
  Rb  Rb3  1  0.816822  0.145579  0.671243  1
  Be  Be4  1  0.000000  0.250000  0.250000  1
  Be  Be5  1  0.000000  0.750000  0.750000  1
  Se  Se6  1  0.927179  0.592028  0.335151  1
  Se  Se7  1  0.743123  0.907972  0.835151  1
  Se  Se8  1  0.256877  0.092028  0.164849  1
  Se  Se9  1  0.072821  0.407972  0.664849  1
