# generated using pymatgen
data_AcTb6Ho13Pt16
_symmetry_space_group_name_H-M   'P 1'
_cell_length_a   7.47656804
_cell_length_b   7.55438803
_cell_length_c   14.73471600
_cell_angle_alpha   90.00524843
_cell_angle_beta   90.00613070
_cell_angle_gamma   89.99965814
_symmetry_Int_Tables_number   1
_chemical_formula_structural   AcTb6Ho13Pt16
_chemical_formula_sum   'Ac1 Tb6 Ho13 Pt16'
_cell_volume   832.22995580
_cell_formula_units_Z   1
loop_
 _symmetry_equiv_pos_site_id
 _symmetry_equiv_pos_as_xyz
  1  'x, y, z'
loop_
 _atom_site_type_symbol
 _atom_site_label
 _atom_site_symmetry_multiplicity
 _atom_site_fract_x
 _atom_site_fract_y
 _atom_site_fract_z
 _atom_site_occupancy
  Ac  Ac0  1  0.002190  0.824674  0.091403  1
  Tb  Tb1  1  0.499237  0.674960  0.094395  1
  Tb  Tb2  1  0.501901  0.320945  0.593158  1
  Tb  Tb3  1  0.001699  0.182854  0.903725  1
  Tb  Tb4  1  0.001257  0.177847  0.593223  1
  Tb  Tb5  1  0.500882  0.320735  0.906586  1
  Tb  Tb6  1  0.499010  0.678756  0.407671  1
  Ho  Ho7  1  0.678678  0.989890  0.253011  1
  Ho  Ho8  1  0.181415  0.508967  0.252787  1
  Ho  Ho9  1  0.819360  0.489477  0.748926  1
  Ho  Ho10  1  0.319200  0.010491  0.749109  1
  Ho  Ho11  1  0.657210  0.832849  0.622370  1
  Ho  Ho12  1  0.160130  0.664847  0.874827  1
  Ho  Ho13  1  0.842645  0.332778  0.379062  1
  Ho  Ho14  1  0.347709  0.170615  0.123926  1
  Ho  Ho15  1  0.343290  0.167304  0.379504  1
  Ho  Ho16  1  0.843303  0.332487  0.122910  1
  Ho  Ho17  1  0.155546  0.668365  0.621876  1
  Ho  Ho18  1  0.655326  0.831374  0.876621  1
  Ho  Ho19  1  0.998013  0.821573  0.406953  1
  Pt  Pt20  1  0.813051  0.639898  0.255009  1
  Pt  Pt21  1  0.318847  0.856802  0.252905  1
  Pt  Pt22  1  0.682812  0.142640  0.749265  1
  Pt  Pt23  1  0.183309  0.357327  0.748842  1
  Pt  Pt24  1  0.546090  0.383715  0.250864  1
  Pt  Pt25  1  0.047747  0.118980  0.253086  1
  Pt  Pt26  1  0.952746  0.885574  0.749584  1
  Pt  Pt27  1  0.453083  0.614628  0.748901  1
  Pt  Pt28  1  0.817294  0.533297  0.542028  1
  Pt  Pt29  1  0.318621  0.970417  0.954590  1
  Pt  Pt30  1  0.684551  0.031282  0.457935  1
  Pt  Pt31  1  0.186706  0.459408  0.039466  1
  Pt  Pt32  1  0.183159  0.468724  0.457771  1
  Pt  Pt33  1  0.672604  0.040437  0.040081  1
  Pt  Pt34  1  0.316746  0.966815  0.541892  1
  Pt  Pt35  1  0.814635  0.528274  0.955735  1
