# generated using pymatgen
data_Dy3YReB12Ru
_symmetry_space_group_name_H-M   'P 1'
_cell_length_a   3.67744300
_cell_length_b   9.16657987
_cell_length_c   11.55551400
_cell_angle_alpha   90.22027271
_cell_angle_beta   90.00000000
_cell_angle_gamma   90.00000000
_symmetry_Int_Tables_number   1
_chemical_formula_structural   Dy3YReB12Ru
_chemical_formula_sum   'Dy6 Y2 Re2 B24 Ru2'
_cell_volume   389.52858691
_cell_formula_units_Z   2
loop_
 _symmetry_equiv_pos_site_id
 _symmetry_equiv_pos_as_xyz
  1  'x, y, z'
loop_
 _atom_site_type_symbol
 _atom_site_label
 _atom_site_symmetry_multiplicity
 _atom_site_fract_x
 _atom_site_fract_y
 _atom_site_fract_z
 _atom_site_occupancy
  Dy  Dy0  1  0.000000  0.825071  0.084496  1
  Dy  Dy1  1  0.000000  0.174929  0.915504  1
  Dy  Dy2  1  0.000000  0.942977  0.370458  1
  Dy  Dy3  1  0.000000  0.057023  0.629542  1
  Dy  Dy4  1  0.000000  0.443225  0.129412  1
  Dy  Dy5  1  0.000000  0.556775  0.870588  1
  Y  Y6  1  0.000000  0.321204  0.412568  1
  Y  Y7  1  0.000000  0.678796  0.587432  1
  Re  Re8  1  0.000000  0.138322  0.179383  1
  Re  Re9  1  0.000000  0.861678  0.820617  1
  B  B10  1  0.500000  0.554133  0.432896  1
  B  B11  1  0.500000  0.445867  0.567104  1
  B  B12  1  0.500000  0.053372  0.066940  1
  B  B13  1  0.500000  0.946628  0.933060  1
  B  B14  1  0.500000  0.748475  0.418824  1
  B  B15  1  0.500000  0.251525  0.581176  1
  B  B16  1  0.500000  0.248705  0.081110  1
  B  B17  1  0.500000  0.751295  0.918890  1
  B  B18  1  0.500000  0.790627  0.265981  1
  B  B19  1  0.500000  0.209373  0.734019  1
  B  B20  1  0.500000  0.291773  0.234535  1
  B  B21  1  0.500000  0.708227  0.765465  1
  B  B22  1  0.500000  0.631377  0.186191  1
  B  B23  1  0.500000  0.368623  0.813809  1
  B  B24  1  0.500000  0.131541  0.314566  1
  B  B25  1  0.500000  0.868459  0.685434  1
  B  B26  1  0.500000  0.983208  0.212272  1
  B  B27  1  0.500000  0.016792  0.787728  1
  B  B28  1  0.500000  0.483832  0.288083  1
  B  B29  1  0.500000  0.516168  0.711917  1
  B  B30  1  0.500000  0.603720  0.028860  1
  B  B31  1  0.500000  0.396280  0.971140  1
  B  B32  1  0.500000  0.104310  0.471231  1
  B  B33  1  0.500000  0.895690  0.528769  1
  Ru  Ru34  1  0.000000  0.637994  0.321595  1
  Ru  Ru35  1  0.000000  0.362006  0.678405  1
