# generated using pymatgen
data_Tb10Os3Pt
_symmetry_space_group_name_H-M   'P 1'
_cell_length_a   6.48242301
_cell_length_b   7.34087059
_cell_length_c   8.51307111
_cell_angle_alpha   96.64448333
_cell_angle_beta   111.93794847
_cell_angle_gamma   89.96192624
_symmetry_Int_Tables_number   1
_chemical_formula_structural   Tb10Os3Pt
_chemical_formula_sum   'Tb10 Os3 Pt1'
_cell_volume   372.85156001
_cell_formula_units_Z   1
loop_
 _symmetry_equiv_pos_site_id
 _symmetry_equiv_pos_as_xyz
  1  'x, y, z'
loop_
 _atom_site_type_symbol
 _atom_site_label
 _atom_site_symmetry_multiplicity
 _atom_site_fract_x
 _atom_site_fract_y
 _atom_site_fract_z
 _atom_site_occupancy
  Tb  Tb0  1  0.966796  0.912488  0.179966  1
  Tb  Tb1  1  0.791918  0.583964  0.818229  1
  Tb  Tb2  1  0.022265  0.083403  0.812403  1
  Tb  Tb3  1  0.205018  0.423097  0.179212  1
  Tb  Tb4  1  0.654190  0.814055  0.442272  1
  Tb  Tb5  1  0.213176  0.682848  0.561767  1
  Tb  Tb6  1  0.348243  0.183258  0.567406  1
  Tb  Tb7  1  0.795801  0.321647  0.441521  1
  Tb  Tb8  1  0.425556  0.744676  0.995757  1
  Tb  Tb9  1  0.576162  0.251613  0.998657  1
  Os  Os10  1  0.824010  0.574477  0.218544  1
  Os  Os11  1  0.606352  0.926999  0.780720  1
  Os  Os12  1  0.174198  0.423837  0.782154  1
  Pt  Pt13  1  0.396315  0.073635  0.221393  1
