# generated using pymatgen
data_PrAgPt4
_symmetry_space_group_name_H-M   'P 1'
_cell_length_a   5.42901756
_cell_length_b   5.42901734
_cell_length_c   5.42901800
_cell_angle_alpha   59.99999596
_cell_angle_beta   59.99999733
_cell_angle_gamma   60.00000037
_symmetry_Int_Tables_number   1
_chemical_formula_structural   PrAgPt4
_chemical_formula_sum   'Pr1 Ag1 Pt4'
_cell_volume   113.14848360
_cell_formula_units_Z   1
loop_
 _symmetry_equiv_pos_site_id
 _symmetry_equiv_pos_as_xyz
  1  'x, y, z'
loop_
 _atom_site_type_symbol
 _atom_site_label
 _atom_site_symmetry_multiplicity
 _atom_site_fract_x
 _atom_site_fract_y
 _atom_site_fract_z
 _atom_site_occupancy
  Pr  Pr0  1  0.500000  0.500000  0.500000  1
  Ag  Ag1  1  0.750000  0.750000  0.750000  1
  Pt  Pt2  1  0.124476  0.626572  0.124476  1
  Pt  Pt3  1  0.124476  0.124476  0.626572  1
  Pt  Pt4  1  0.626572  0.124476  0.124476  1
  Pt  Pt5  1  0.124476  0.124476  0.124476  1
