# generated using pymatgen
data_Lu12Co2NiBiRu2
_symmetry_space_group_name_H-M   'P 1'
_cell_length_a   8.18425475
_cell_length_b   8.18425367
_cell_length_c   8.18425297
_cell_angle_alpha   110.45980097
_cell_angle_beta   111.99859576
_cell_angle_gamma   106.01362209
_symmetry_Int_Tables_number   1
_chemical_formula_structural   Lu12Co2NiBiRu2
_chemical_formula_sum   'Lu12 Co2 Ni1 Bi1 Ru2'
_cell_volume   420.77819354
_cell_formula_units_Z   1
loop_
 _symmetry_equiv_pos_site_id
 _symmetry_equiv_pos_as_xyz
  1  'x, y, z'
loop_
 _atom_site_type_symbol
 _atom_site_label
 _atom_site_symmetry_multiplicity
 _atom_site_fract_x
 _atom_site_fract_y
 _atom_site_fract_z
 _atom_site_occupancy
  Lu  Lu0  1  0.279052  0.181776  0.460826  1
  Lu  Lu1  1  0.717875  0.822038  0.539912  1
  Lu  Lu2  1  0.282125  0.822038  0.104162  1
  Lu  Lu3  1  0.720948  0.181776  0.902725  1
  Lu  Lu4  1  0.625221  0.309729  0.309509  1
  Lu  Lu5  1  0.374779  0.684287  0.684508  1
  Lu  Lu6  1  0.000221  0.309729  0.684508  1
  Lu  Lu7  1  0.999779  0.684287  0.309509  1
  Lu  Lu8  1  0.221219  0.411025  0.189807  1
  Lu  Lu9  1  0.781465  0.587583  0.806118  1
  Lu  Lu10  1  0.218535  0.024653  0.806118  1
  Lu  Lu11  1  0.778781  0.968588  0.189807  1
  Co  Co12  1  0.388468  0.891693  0.503225  1
  Co  Co13  1  0.611532  0.114758  0.503225  1
  Ni  Ni14  1  0.000000  0.647187  0.647187  1
  Bi  Bi15  1  0.500000  0.499697  0.999697  1
  Ru  Ru16  1  0.000000  0.359852  0.359852  1
  Ru  Ru17  1  0.000000  0.999307  0.999307  1
