# generated using pymatgen
data_Pm4SnPt3
_symmetry_space_group_name_H-M   'P 1'
_cell_length_a   7.60883202
_cell_length_b   5.95693080
_cell_length_c   4.49312400
_cell_angle_alpha   90.00000000
_cell_angle_beta   90.00000000
_cell_angle_gamma   89.45382111
_symmetry_Int_Tables_number   1
_chemical_formula_structural   Pm4SnPt3
_chemical_formula_sum   'Pm4 Sn1 Pt3'
_cell_volume   203.64287651
_cell_formula_units_Z   1
loop_
 _symmetry_equiv_pos_site_id
 _symmetry_equiv_pos_as_xyz
  1  'x, y, z'
loop_
 _atom_site_type_symbol
 _atom_site_label
 _atom_site_symmetry_multiplicity
 _atom_site_fract_x
 _atom_site_fract_y
 _atom_site_fract_z
 _atom_site_occupancy
  Pm  Pm0  1  0.116112  0.494819  0.000000  1
  Pm  Pm1  1  0.577676  0.745897  0.000000  1
  Pm  Pm2  1  0.235663  0.020012  0.499999  1
  Pm  Pm3  1  0.730543  0.231919  0.499999  1
  Sn  Sn4  1  0.876505  0.727468  0.499999  1
  Pt  Pt5  1  0.459405  0.223032  0.000000  1
  Pt  Pt6  1  0.960491  0.024199  0.000000  1
  Pt  Pt7  1  0.376936  0.532655  0.499999  1
