# generated using pymatgen
data_MgNiAg4(SnO4)2
_symmetry_space_group_name_H-M   'P 1'
_cell_length_a   5.50177953
_cell_length_b   6.35377954
_cell_length_c   7.32766958
_cell_angle_alpha   64.18063107
_cell_angle_beta   104.48418248
_cell_angle_gamma   90.02085006
_symmetry_Int_Tables_number   1
_chemical_formula_structural   MgNiAg4(SnO4)2
_chemical_formula_sum   'Mg1 Ni1 Ag4 Sn2 O8'
_cell_volume   221.51499429
_cell_formula_units_Z   1
loop_
 _symmetry_equiv_pos_site_id
 _symmetry_equiv_pos_as_xyz
  1  'x, y, z'
loop_
 _atom_site_type_symbol
 _atom_site_label
 _atom_site_symmetry_multiplicity
 _atom_site_fract_x
 _atom_site_fract_y
 _atom_site_fract_z
 _atom_site_occupancy
  Mg  Mg0  1  0.500070  0.255676  0.500053  1
  Ni  Ni1  1  0.999834  0.495762  0.499841  1
  Ag  Ag2  1  0.999042  0.001963  0.996758  1
  Ag  Ag3  1  0.498454  0.251281  0.996947  1
  Ag  Ag4  1  0.000909  0.498746  0.003306  1
  Ag  Ag5  1  0.501628  0.748297  0.003005  1
  Sn  Sn6  1  0.499844  0.740640  0.499997  1
  Sn  Sn7  1  0.000180  0.009030  0.500028  1
  O  O8  1  0.889787  0.671325  0.666502  1
  O  O9  1  0.389860  0.910830  0.666129  1
  O  O10  1  0.888634  0.165660  0.665053  1
  O  O11  1  0.387356  0.418464  0.665232  1
  O  O12  1  0.110189  0.838603  0.333561  1
  O  O13  1  0.610179  0.077789  0.333815  1
  O  O14  1  0.111512  0.331443  0.335024  1
  O  O15  1  0.612526  0.584491  0.334747  1
