# generated using pymatgen
data_Li2Tb13Dy3(InIr2)2
_symmetry_space_group_name_H-M   'P 1'
_cell_length_a   9.70548137
_cell_length_b   9.67083816
_cell_length_c   9.66208120
_cell_angle_alpha   60.07037447
_cell_angle_beta   60.07748381
_cell_angle_gamma   60.08570847
_symmetry_Int_Tables_number   1
_chemical_formula_structural   Li2Tb13Dy3(InIr2)2
_chemical_formula_sum   'Li2 Tb13 Dy3 In2 Ir4'
_cell_volume   642.39539892
_cell_formula_units_Z   1
loop_
 _symmetry_equiv_pos_site_id
 _symmetry_equiv_pos_as_xyz
  1  'x, y, z'
loop_
 _atom_site_type_symbol
 _atom_site_label
 _atom_site_symmetry_multiplicity
 _atom_site_fract_x
 _atom_site_fract_y
 _atom_site_fract_z
 _atom_site_occupancy
  Li  Li0  1  0.325223  0.321940  0.321728  1
  Li  Li1  1  0.029135  0.322374  0.322107  1
  Tb  Tb2  1  0.311235  0.689189  0.312120  1
  Tb  Tb3  1  0.932057  0.566281  0.566276  1
  Tb  Tb4  1  0.311535  0.312419  0.689054  1
  Tb  Tb5  1  0.100053  0.098224  0.098433  1
  Tb  Tb6  1  0.559248  0.561805  0.938340  1
  Tb  Tb7  1  0.098330  0.096936  0.708926  1
  Tb  Tb8  1  0.688796  0.310531  0.688689  1
  Tb  Tb9  1  0.688957  0.688817  0.310222  1
  Tb  Tb10  1  0.689921  0.310230  0.309692  1
  Tb  Tb11  1  0.311998  0.687513  0.687489  1
  Tb  Tb12  1  0.559701  0.938029  0.561895  1
  Tb  Tb13  1  0.701914  0.098874  0.099039  1
  Tb  Tb14  1  0.557381  0.942184  0.942095  1
  Dy  Dy15  1  0.097914  0.709611  0.096535  1
  Dy  Dy16  1  0.940023  0.938611  0.561268  1
  Dy  Dy17  1  0.939947  0.561265  0.938827  1
  In  In18  1  0.329348  0.006111  0.334329  1
  In  In19  1  0.329286  0.334442  0.006061  1
  Ir  Ir20  1  0.889625  0.892301  0.893311  1
  Ir  Ir21  1  0.891887  0.893535  0.325613  1
  Ir  Ir22  1  0.325132  0.892732  0.893751  1
  Ir  Ir23  1  0.891352  0.326045  0.894202  1
