# generated using pymatgen
data_Y4Mn4Fe5Co11P12
_symmetry_space_group_name_H-M   'P 1'
_cell_length_a   3.64978200
_cell_length_b   10.37559002
_cell_length_c   11.85301303
_cell_angle_alpha   89.99229777
_cell_angle_beta   90.00000000
_cell_angle_gamma   90.00000000
_symmetry_Int_Tables_number   1
_chemical_formula_structural   Y4Mn4Fe5Co11P12
_chemical_formula_sum   'Y4 Mn4 Fe5 Co11 P12'
_cell_volume   448.85749940
_cell_formula_units_Z   1
loop_
 _symmetry_equiv_pos_site_id
 _symmetry_equiv_pos_as_xyz
  1  'x, y, z'
loop_
 _atom_site_type_symbol
 _atom_site_label
 _atom_site_symmetry_multiplicity
 _atom_site_fract_x
 _atom_site_fract_y
 _atom_site_fract_z
 _atom_site_occupancy
  Y  Y0  1  0.250000  0.917148  0.205281  1
  Y  Y1  1  0.750000  0.082812  0.794723  1
  Y  Y2  1  0.750000  0.417057  0.295025  1
  Y  Y3  1  0.250000  0.582486  0.705042  1
  Mn  Mn4  1  0.250000  0.792182  0.489015  1
  Mn  Mn5  1  0.750000  0.206976  0.510398  1
  Mn  Mn6  1  0.750000  0.292233  0.010719  1
  Mn  Mn7  1  0.250000  0.707885  0.989115  1
  Fe  Fe8  1  0.250000  0.095383  0.990082  1
  Fe  Fe9  1  0.750000  0.904148  0.010410  1
  Fe  Fe10  1  0.750000  0.595531  0.510386  1
  Fe  Fe11  1  0.250000  0.404203  0.489612  1
  Fe  Fe12  1  0.250000  0.279807  0.674681  1
  Co  Co13  1  0.750000  0.721880  0.324350  1
  Co  Co14  1  0.750000  0.778090  0.824423  1
  Co  Co15  1  0.250000  0.222082  0.175631  1
  Co  Co16  1  0.250000  0.617434  0.198831  1
  Co  Co17  1  0.750000  0.383367  0.801674  1
  Co  Co18  1  0.750000  0.117122  0.300599  1
  Co  Co19  1  0.250000  0.882073  0.698881  1
  Co  Co20  1  0.250000  0.035014  0.432934  1
  Co  Co21  1  0.750000  0.964938  0.567282  1
  Co  Co22  1  0.750000  0.534967  0.067465  1
  Co  Co23  1  0.250000  0.464950  0.933345  1
  P  P24  1  0.250000  0.081111  0.613252  1
  P  P25  1  0.750000  0.920689  0.387040  1
  P  P26  1  0.750000  0.579475  0.887182  1
  P  P27  1  0.250000  0.420310  0.113234  1
  P  P28  1  0.250000  0.230893  0.367282  1
  P  P29  1  0.750000  0.769312  0.632604  1
  P  P30  1  0.750000  0.730780  0.132658  1
  P  P31  1  0.250000  0.269305  0.866031  1
  P  P32  1  0.250000  0.904312  0.892152  1
  P  P33  1  0.750000  0.095732  0.107679  1
  P  P34  1  0.750000  0.402541  0.608753  1
  P  P35  1  0.250000  0.595772  0.392229  1
