# generated using pymatgen
data_PrMnF7
_symmetry_space_group_name_H-M   'P 1'
_cell_length_a   5.57723600
_cell_length_b   9.06104738
_cell_length_c   12.09181210
_cell_angle_alpha   61.86981506
_cell_angle_beta   90.00000000
_cell_angle_gamma   90.00000000
_symmetry_Int_Tables_number   1
_chemical_formula_structural   PrMnF7
_chemical_formula_sum   'Pr4 Mn4 F28'
_cell_volume   538.88689014
_cell_formula_units_Z   4
loop_
 _symmetry_equiv_pos_site_id
 _symmetry_equiv_pos_as_xyz
  1  'x, y, z'
loop_
 _atom_site_type_symbol
 _atom_site_label
 _atom_site_symmetry_multiplicity
 _atom_site_fract_x
 _atom_site_fract_y
 _atom_site_fract_z
 _atom_site_occupancy
  Pr  Pr0  1  0.759983  0.807513  0.764379  1
  Pr  Pr1  1  0.259983  0.192487  0.735621  1
  Pr  Pr2  1  0.240017  0.192487  0.235621  1
  Pr  Pr3  1  0.740017  0.807513  0.264379  1
  Mn  Mn4  1  0.756277  0.273630  0.957799  1
  Mn  Mn5  1  0.256277  0.726370  0.542201  1
  Mn  Mn6  1  0.243723  0.726370  0.042201  1
  Mn  Mn7  1  0.743723  0.273630  0.457799  1
  F  F8  1  0.424823  0.709251  0.921787  1
  F  F9  1  0.924823  0.290749  0.578213  1
  F  F10  1  0.575177  0.290749  0.078213  1
  F  F11  1  0.075177  0.709251  0.421787  1
  F  F12  1  0.463012  0.281490  0.536582  1
  F  F13  1  0.963012  0.718510  0.963418  1
  F  F14  1  0.536988  0.718510  0.463418  1
  F  F15  1  0.036988  0.281490  0.036582  1
  F  F16  1  0.766445  0.504319  0.865732  1
  F  F17  1  0.266445  0.495681  0.634268  1
  F  F18  1  0.233555  0.495681  0.134268  1
  F  F19  1  0.733555  0.504319  0.365732  1
  F  F20  1  0.758636  0.044111  0.045864  1
  F  F21  1  0.258636  0.955889  0.454136  1
  F  F22  1  0.241364  0.955889  0.954136  1
  F  F23  1  0.741364  0.044111  0.545864  1
  F  F24  1  0.980737  0.728591  0.625912  1
  F  F25  1  0.480737  0.271409  0.874088  1
  F  F26  1  0.019263  0.271409  0.374088  1
  F  F27  1  0.519263  0.728591  0.125912  1
  F  F28  1  0.064891  0.739565  0.166526  1
  F  F29  1  0.564891  0.260435  0.333474  1
  F  F30  1  0.935109  0.260435  0.833474  1
  F  F31  1  0.435109  0.739565  0.666526  1
  F  F32  1  0.397307  0.965533  0.226915  1
  F  F33  1  0.897307  0.034467  0.273085  1
  F  F34  1  0.602693  0.034467  0.773085  1
  F  F35  1  0.102693  0.965533  0.726915  1
