# generated using pymatgen
data_TbY5ScCo17P12
_symmetry_space_group_name_H-M   'P 1'
_cell_length_a   3.71778300
_cell_length_b   10.60541400
_cell_length_c   12.29415700
_cell_angle_alpha   90.00000000
_cell_angle_beta   90.00000000
_cell_angle_gamma   90.00000000
_symmetry_Int_Tables_number   1
_chemical_formula_structural   TbY5ScCo17P12
_chemical_formula_sum   'Tb1 Y5 Sc1 Co17 P12'
_cell_volume   484.74174142
_cell_formula_units_Z   1
loop_
 _symmetry_equiv_pos_site_id
 _symmetry_equiv_pos_as_xyz
  1  'x, y, z'
loop_
 _atom_site_type_symbol
 _atom_site_label
 _atom_site_symmetry_multiplicity
 _atom_site_fract_x
 _atom_site_fract_y
 _atom_site_fract_z
 _atom_site_occupancy
  Tb  Tb0  1  0.500000  0.000000  0.477452  1
  Y  Y1  1  0.000000  0.500000  0.527500  1
  Y  Y2  1  0.500000  0.821139  0.207252  1
  Y  Y3  1  0.500000  0.178861  0.207252  1
  Y  Y4  1  0.000000  0.682418  0.795663  1
  Y  Y5  1  0.000000  0.317582  0.795663  1
  Sc  Sc6  1  0.500000  0.500000  0.152696  1
  Co  Co7  1  0.000000  0.000000  0.837408  1
  Co  Co8  1  0.500000  0.500000  0.703823  1
  Co  Co9  1  0.000000  0.000000  0.295714  1
  Co  Co10  1  0.000000  0.500000  0.984787  1
  Co  Co11  1  0.500000  0.000000  0.012763  1
  Co  Co12  1  0.500000  0.326780  0.989984  1
  Co  Co13  1  0.500000  0.673220  0.989984  1
  Co  Co14  1  0.000000  0.162190  0.001573  1
  Co  Co15  1  0.000000  0.837810  0.001573  1
  Co  Co16  1  0.500000  0.295007  0.434170  1
  Co  Co17  1  0.500000  0.704993  0.434170  1
  Co  Co18  1  0.000000  0.202147  0.570543  1
  Co  Co19  1  0.000000  0.797853  0.570543  1
  Co  Co20  1  0.500000  0.880484  0.707919  1
  Co  Co21  1  0.500000  0.119516  0.707919  1
  Co  Co22  1  0.000000  0.622273  0.296416  1
  Co  Co23  1  0.000000  0.377727  0.296416  1
  P  P24  1  0.500000  0.500000  0.883495  1
  P  P25  1  0.000000  0.000000  0.115746  1
  P  P26  1  0.500000  0.500000  0.357693  1
  P  P27  1  0.000000  0.000000  0.655307  1
  P  P28  1  0.500000  0.308946  0.617772  1
  P  P29  1  0.500000  0.691054  0.617772  1
  P  P30  1  0.000000  0.189471  0.386242  1
  P  P31  1  0.000000  0.810529  0.386242  1
  P  P32  1  0.500000  0.851826  0.889074  1
  P  P33  1  0.500000  0.148174  0.889074  1
  P  P34  1  0.000000  0.663132  0.101199  1
  P  P35  1  0.000000  0.336868  0.101199  1
