# generated using pymatgen
data_Nd12NiOs3
_symmetry_space_group_name_H-M   'P 1'
_cell_length_a   6.52064283
_cell_length_b   7.41316389
_cell_length_c   9.76379200
_cell_angle_alpha   90.00000000
_cell_angle_beta   90.00000000
_cell_angle_gamma   90.15477047
_symmetry_Int_Tables_number   1
_chemical_formula_structural   Nd12NiOs3
_chemical_formula_sum   'Nd12 Ni1 Os3'
_cell_volume   471.96625555
_cell_formula_units_Z   1
loop_
 _symmetry_equiv_pos_site_id
 _symmetry_equiv_pos_as_xyz
  1  'x, y, z'
loop_
 _atom_site_type_symbol
 _atom_site_label
 _atom_site_symmetry_multiplicity
 _atom_site_fract_x
 _atom_site_fract_y
 _atom_site_fract_z
 _atom_site_occupancy
  Nd  Nd0  1  0.331682  0.675562  0.065556  1
  Nd  Nd1  1  0.169482  0.175785  0.433498  1
  Nd  Nd2  1  0.671644  0.323231  0.565461  1
  Nd  Nd3  1  0.825254  0.823274  0.930746  1
  Nd  Nd4  1  0.671644  0.323231  0.934539  1
  Nd  Nd5  1  0.825254  0.823274  0.569254  1
  Nd  Nd6  1  0.331682  0.675562  0.434444  1
  Nd  Nd7  1  0.169482  0.175785  0.066502  1
  Nd  Nd8  1  0.860441  0.539754  0.250000  1
  Nd  Nd9  1  0.642025  0.042007  0.250000  1
  Nd  Nd10  1  0.139286  0.461658  0.750000  1
  Nd  Nd11  1  0.357064  0.963609  0.750000  1
  Ni  Ni12  1  0.058229  0.884434  0.250000  1
  Os  Os13  1  0.447340  0.385821  0.250000  1
  Os  Os14  1  0.946960  0.113039  0.750000  1
  Os  Os15  1  0.552532  0.613973  0.750000  1
