# generated using pymatgen
data_TmTa(NiSn)2
_symmetry_space_group_name_H-M   'P 1'
_cell_length_a   6.17184700
_cell_length_b   4.33930500
_cell_length_c   8.73811900
_cell_angle_alpha   90.00000000
_cell_angle_beta   90.00000000
_cell_angle_gamma   90.00000000
_symmetry_Int_Tables_number   1
_chemical_formula_structural   TmTa(NiSn)2
_chemical_formula_sum   'Tm2 Ta2 Ni4 Sn4'
_cell_volume   234.02016596
_cell_formula_units_Z   2
loop_
 _symmetry_equiv_pos_site_id
 _symmetry_equiv_pos_as_xyz
  1  'x, y, z'
loop_
 _atom_site_type_symbol
 _atom_site_label
 _atom_site_symmetry_multiplicity
 _atom_site_fract_x
 _atom_site_fract_y
 _atom_site_fract_z
 _atom_site_occupancy
  Tm  Tm0  1  0.004788  0.500000  0.378094  1
  Tm  Tm1  1  0.504788  0.000000  0.621906  1
  Ta  Ta2  1  0.494633  0.000000  0.124415  1
  Ta  Ta3  1  0.994634  0.500000  0.875587  1
  Ni  Ni4  1  0.737455  0.500000  0.111918  1
  Ni  Ni5  1  0.265616  0.000000  0.355609  1
  Ni  Ni6  1  0.765617  0.500000  0.644390  1
  Ni  Ni7  1  0.237456  0.000000  0.888081  1
  Sn  Sn8  1  0.988833  0.000000  0.121354  1
  Sn  Sn9  1  0.508675  0.500000  0.367567  1
  Sn  Sn10  1  0.008674  0.000000  0.632434  1
  Sn  Sn11  1  0.488832  0.500000  0.878646  1
