# generated using pymatgen
data_Y2ReTcB8
_symmetry_space_group_name_H-M   'P 1'
_cell_length_a   3.61141100
_cell_length_b   5.98183311
_cell_length_c   11.58584920
_cell_angle_alpha   90.02156566
_cell_angle_beta   90.00000000
_cell_angle_gamma   90.00000000
_symmetry_Int_Tables_number   1
_chemical_formula_structural   Y2ReTcB8
_chemical_formula_sum   'Y4 Re2 Tc2 B16'
_cell_volume   250.28743606
_cell_formula_units_Z   2
loop_
 _symmetry_equiv_pos_site_id
 _symmetry_equiv_pos_as_xyz
  1  'x, y, z'
loop_
 _atom_site_type_symbol
 _atom_site_label
 _atom_site_symmetry_multiplicity
 _atom_site_fract_x
 _atom_site_fract_y
 _atom_site_fract_z
 _atom_site_occupancy
  Y  Y0  1  0.000000  0.126952  0.150927  1
  Y  Y1  1  0.000000  0.873048  0.849073  1
  Y  Y2  1  0.000000  0.626697  0.350991  1
  Y  Y3  1  0.000000  0.373303  0.649009  1
  Re  Re4  1  0.000000  0.633580  0.087566  1
  Re  Re5  1  0.000000  0.366420  0.912434  1
  Tc  Tc6  1  0.000000  0.133961  0.412199  1
  Tc  Tc7  1  0.000000  0.866039  0.587801  1
  B  B8  1  0.500000  0.476886  0.192384  1
  B  B9  1  0.500000  0.523114  0.807616  1
  B  B10  1  0.500000  0.976810  0.307921  1
  B  B11  1  0.500000  0.023190  0.692079  1
  B  B12  1  0.500000  0.287200  0.315365  1
  B  B13  1  0.500000  0.712800  0.684635  1
  B  B14  1  0.500000  0.787447  0.185022  1
  B  B15  1  0.500000  0.212553  0.814978  1
  B  B16  1  0.500000  0.363517  0.468543  1
  B  B17  1  0.500000  0.636483  0.531457  1
  B  B18  1  0.500000  0.863547  0.031262  1
  B  B19  1  0.500000  0.136453  0.968738  1
  B  B20  1  0.500000  0.386199  0.047280  1
  B  B21  1  0.500000  0.613801  0.952720  1
  B  B22  1  0.500000  0.886521  0.452875  1
  B  B23  1  0.500000  0.113479  0.547125  1
