# generated using pymatgen
data_Sm(TlBr2)3
_symmetry_space_group_name_H-M   'P 1'
_cell_length_a   14.16888638
_cell_length_b   14.16888650
_cell_length_c   13.46480500
_cell_angle_alpha   81.03618739
_cell_angle_beta   81.03618731
_cell_angle_gamma   34.01925202
_symmetry_Int_Tables_number   1
_chemical_formula_structural   Sm(TlBr2)3
_chemical_formula_sum   'Sm4 Tl12 Br24'
_cell_volume   1492.12945254
_cell_formula_units_Z   4
loop_
 _symmetry_equiv_pos_site_id
 _symmetry_equiv_pos_as_xyz
  1  'x, y, z'
loop_
 _atom_site_type_symbol
 _atom_site_label
 _atom_site_symmetry_multiplicity
 _atom_site_fract_x
 _atom_site_fract_y
 _atom_site_fract_z
 _atom_site_occupancy
  Sm  Sm0  1  0.807810  0.192190  0.250000  1
  Sm  Sm1  1  0.192190  0.807810  0.750000  1
  Sm  Sm2  1  0.500000  0.000000  0.000000  1
  Sm  Sm3  1  0.000000  0.500000  0.500000  1
  Tl  Tl4  1  0.268622  0.850986  0.048176  1
  Tl  Tl5  1  0.731378  0.149014  0.951824  1
  Tl  Tl6  1  0.149014  0.731378  0.451824  1
  Tl  Tl7  1  0.850986  0.268622  0.548176  1
  Tl  Tl8  1  0.484104  0.828169  0.357462  1
  Tl  Tl9  1  0.515896  0.171831  0.642538  1
  Tl  Tl10  1  0.171831  0.515896  0.142538  1
  Tl  Tl11  1  0.828169  0.484104  0.857462  1
  Tl  Tl12  1  0.662968  0.014986  0.304954  1
  Tl  Tl13  1  0.337032  0.985014  0.695046  1
  Tl  Tl14  1  0.985014  0.337032  0.195046  1
  Tl  Tl15  1  0.014986  0.662968  0.804954  1
  Br  Br16  1  0.636380  0.702197  0.070142  1
  Br  Br17  1  0.363620  0.297803  0.929858  1
  Br  Br18  1  0.297803  0.363620  0.429858  1
  Br  Br19  1  0.702197  0.636380  0.570142  1
  Br  Br20  1  0.523055  0.338895  0.181388  1
  Br  Br21  1  0.476945  0.661105  0.818612  1
  Br  Br22  1  0.661105  0.476945  0.318612  1
  Br  Br23  1  0.338895  0.523055  0.681388  1
  Br  Br24  1  0.800394  0.852634  0.030879  1
  Br  Br25  1  0.199606  0.147366  0.969121  1
  Br  Br26  1  0.147366  0.199606  0.469121  1
  Br  Br27  1  0.852634  0.800394  0.530879  1
  Br  Br28  1  0.863275  0.001879  0.723469  1
  Br  Br29  1  0.136725  0.998121  0.276531  1
  Br  Br30  1  0.998121  0.136725  0.776531  1
  Br  Br31  1  0.001879  0.863275  0.223469  1
  Br  Br32  1  0.752018  0.147247  0.452720  1
  Br  Br33  1  0.247982  0.852753  0.547280  1
  Br  Br34  1  0.852753  0.247982  0.047280  1
  Br  Br35  1  0.147247  0.752018  0.952720  1
  Br  Br36  1  0.369707  0.128804  0.198443  1
  Br  Br37  1  0.630293  0.871196  0.801557  1
  Br  Br38  1  0.871196  0.630293  0.301557  1
  Br  Br39  1  0.128804  0.369707  0.698443  1
