# generated using pymatgen
data_Pr2Zn2Si2OsPt3
_symmetry_space_group_name_H-M   'P 1'
_cell_length_a   4.16066400
_cell_length_b   4.16066400
_cell_length_c   10.74898500
_cell_angle_alpha   90.00000000
_cell_angle_beta   90.00000000
_cell_angle_gamma   90.00000000
_symmetry_Int_Tables_number   1
_chemical_formula_structural   Pr2Zn2Si2OsPt3
_chemical_formula_sum   'Pr2 Zn2 Si2 Os1 Pt3'
_cell_volume   186.07702211
_cell_formula_units_Z   1
loop_
 _symmetry_equiv_pos_site_id
 _symmetry_equiv_pos_as_xyz
  1  'x, y, z'
loop_
 _atom_site_type_symbol
 _atom_site_label
 _atom_site_symmetry_multiplicity
 _atom_site_fract_x
 _atom_site_fract_y
 _atom_site_fract_z
 _atom_site_occupancy
  Pr  Pr0  1  0.000000  0.500000  0.755259  1
  Pr  Pr1  1  0.500000  0.000000  0.244741  1
  Zn  Zn2  1  0.500000  0.500000  0.500000  1
  Zn  Zn3  1  0.000000  0.000000  0.500000  1
  Si  Si4  1  0.000000  0.500000  0.120236  1
  Si  Si5  1  0.500000  0.000000  0.879764  1
  Os  Os6  1  0.000000  0.000000  0.000000  1
  Pt  Pt7  1  0.500000  0.000000  0.654030  1
  Pt  Pt8  1  0.500000  0.500000  0.000000  1
  Pt  Pt9  1  0.000000  0.500000  0.345970  1
