# generated using pymatgen
data_Ac11Nd(NiI3)4
_symmetry_space_group_name_H-M   'P 1'
_cell_length_a   11.25424799
_cell_length_b   11.28577550
_cell_length_c   11.28039770
_cell_angle_alpha   109.30837848
_cell_angle_beta   109.24634011
_cell_angle_gamma   109.77092804
_symmetry_Int_Tables_number   1
_chemical_formula_structural   Ac11Nd(NiI3)4
_chemical_formula_sum   'Ac11 Nd1 Ni4 I12'
_cell_volume   1104.11189634
_cell_formula_units_Z   1
loop_
 _symmetry_equiv_pos_site_id
 _symmetry_equiv_pos_as_xyz
  1  'x, y, z'
loop_
 _atom_site_type_symbol
 _atom_site_label
 _atom_site_symmetry_multiplicity
 _atom_site_fract_x
 _atom_site_fract_y
 _atom_site_fract_z
 _atom_site_occupancy
  Ac  Ac0  1  0.397723  0.605405  0.003338  1
  Ac  Ac1  1  0.603439  0.393065  0.996912  1
  Ac  Ac2  1  0.643207  0.146420  0.290805  1
  Ac  Ac3  1  0.851825  0.353181  0.706491  1
  Ac  Ac4  1  0.414097  0.395477  0.272110  1
  Ac  Ac5  1  0.130509  0.145627  0.729954  1
  Ac  Ac6  1  0.124240  0.350506  0.518693  1
  Ac  Ac7  1  0.832348  0.606160  0.479644  1
  Ac  Ac8  1  0.598888  0.578005  0.725828  1
  Ac  Ac9  1  0.856726  0.874731  0.272113  1
  Ac  Ac10  1  0.648463  0.878895  0.483339  1
  Nd  Nd11  1  0.398217  0.172502  0.520998  1
  Ni  Ni12  1  0.624795  0.624712  0.250766  1
  Ni  Ni13  1  0.374584  0.370386  0.745233  1
  Ni  Ni14  1  0.875567  0.123885  0.499843  1
  Ni  Ni15  1  0.620320  0.371469  0.499352  1
  I  I16  1  0.360933  0.638010  0.500407  1
  I  I17  1  0.144344  0.869479  0.499581  1
  I  I18  1  0.120064  0.109975  0.231047  1
  I  I19  1  0.888512  0.888479  0.777127  1
  I  I20  1  0.898670  0.637222  0.008666  1
  I  I21  1  0.628491  0.889103  0.990413  1
  I  I22  1  0.611965  0.111180  0.751527  1
  I  I23  1  0.353439  0.869062  0.247377  1
  I  I24  1  0.361179  0.099387  0.989691  1
  I  I25  1  0.110446  0.371281  0.009585  1
  I  I26  1  0.888184  0.378407  0.238829  1
  I  I27  1  0.138822  0.647990  0.760329  1
