# generated using pymatgen
data_Er7HfAlPd24
_symmetry_space_group_name_H-M   'P 1'
_cell_length_a   8.28979484
_cell_length_b   8.28979525
_cell_length_c   8.28979543
_cell_angle_alpha   89.79692944
_cell_angle_beta   90.20306571
_cell_angle_gamma   90.20307138
_symmetry_Int_Tables_number   1
_chemical_formula_structural   Er7HfAlPd24
_chemical_formula_sum   'Er7 Hf1 Al1 Pd24'
_cell_volume   569.66985158
_cell_formula_units_Z   1
loop_
 _symmetry_equiv_pos_site_id
 _symmetry_equiv_pos_as_xyz
  1  'x, y, z'
loop_
 _atom_site_type_symbol
 _atom_site_label
 _atom_site_symmetry_multiplicity
 _atom_site_fract_x
 _atom_site_fract_y
 _atom_site_fract_z
 _atom_site_occupancy
  Er  Er0  1  0.251375  0.252442  0.252442  1
  Er  Er1  1  0.748147  0.748179  0.748179  1
  Er  Er2  1  0.747558  0.748625  0.252442  1
  Er  Er3  1  0.747558  0.252442  0.748625  1
  Er  Er4  1  0.251821  0.251853  0.748179  1
  Er  Er5  1  0.251821  0.748179  0.251853  1
  Er  Er6  1  0.252720  0.747280  0.747280  1
  Hf  Hf7  1  0.745295  0.254705  0.254705  1
  Al  Al8  1  0.002344  0.997656  0.997656  1
  Pd  Pd9  1  0.259118  0.498483  0.000626  1
  Pd  Pd10  1  0.740666  0.496661  0.005487  1
  Pd  Pd11  1  0.994513  0.259334  0.496661  1
  Pd  Pd12  1  0.503339  0.259334  0.005487  1
  Pd  Pd13  1  0.999374  0.740882  0.498483  1
  Pd  Pd14  1  0.501517  0.740882  0.000626  1
  Pd  Pd15  1  0.503339  0.005487  0.259334  1
  Pd  Pd16  1  0.259118  0.000626  0.498483  1
  Pd  Pd17  1  0.501517  0.000626  0.740882  1
  Pd  Pd18  1  0.740666  0.005487  0.496661  1
  Pd  Pd19  1  0.994513  0.496661  0.259334  1
  Pd  Pd20  1  0.999374  0.498483  0.740882  1
  Pd  Pd21  1  0.252386  0.499045  0.499045  1
  Pd  Pd22  1  0.746934  0.496345  0.496345  1
  Pd  Pd23  1  0.503655  0.253066  0.496345  1
  Pd  Pd24  1  0.500955  0.747614  0.499045  1
  Pd  Pd25  1  0.503655  0.496345  0.253066  1
  Pd  Pd26  1  0.500955  0.499045  0.747614  1
  Pd  Pd27  1  0.289898  0.999914  0.999914  1
  Pd  Pd28  1  0.714355  0.004328  0.004328  1
  Pd  Pd29  1  0.995672  0.285645  0.004328  1
  Pd  Pd30  1  0.000086  0.710102  0.999914  1
  Pd  Pd31  1  0.995672  0.004328  0.285645  1
  Pd  Pd32  1  0.000086  0.999914  0.710102  1
