# generated using pymatgen
data_Ba12Si3SI8
_symmetry_space_group_name_H-M   'P 1'
_cell_length_a   16.36935689
_cell_length_b   15.61631578
_cell_length_c   8.64055246
_cell_angle_alpha   79.19901876
_cell_angle_beta   69.56944406
_cell_angle_gamma   31.26242387
_symmetry_Int_Tables_number   1
_chemical_formula_structural   Ba12Si3SI8
_chemical_formula_sum   'Ba12 Si3 S1 I8'
_cell_volume   1045.81048885
_cell_formula_units_Z   1
loop_
 _symmetry_equiv_pos_site_id
 _symmetry_equiv_pos_as_xyz
  1  'x, y, z'
loop_
 _atom_site_type_symbol
 _atom_site_label
 _atom_site_symmetry_multiplicity
 _atom_site_fract_x
 _atom_site_fract_y
 _atom_site_fract_z
 _atom_site_occupancy
  Ba  Ba0  1  0.376724  0.942233  0.585115  1
  Ba  Ba1  1  0.589342  0.093027  0.374274  1
  Ba  Ba2  1  0.307746  0.872322  0.160618  1
  Ba  Ba3  1  0.942233  0.376724  0.095930  1
  Ba  Ba4  1  0.460391  0.038761  0.040437  1
  Ba  Ba5  1  0.872322  0.307746  0.659312  1
  Ba  Ba6  1  0.093027  0.589342  0.943358  1
  Ba  Ba7  1  0.660402  0.158532  0.873482  1
  Ba  Ba8  1  0.789606  0.210977  0.210847  1
  Ba  Ba9  1  0.210977  0.789606  0.788570  1
  Ba  Ba10  1  0.158532  0.660402  0.307584  1
  Ba  Ba11  1  0.038761  0.460391  0.460411  1
  Si  Si12  1  0.919468  0.919468  0.080532  1
  Si  Si13  1  0.163110  0.163110  0.336890  1
  Si  Si14  1  0.333782  0.333782  0.166218  1
  S  S15  1  0.084441  0.084441  0.915559  1
  I  I16  1  0.670283  0.670283  0.829717  1
  I  I17  1  0.744988  0.744988  0.255012  1
  I  I18  1  0.251556  0.251556  0.748444  1
  I  I19  1  0.578611  0.578611  0.421389  1
  I  I20  1  0.997586  0.997586  0.502414  1
  I  I21  1  0.827638  0.827638  0.672362  1
  I  I22  1  0.423513  0.423513  0.576487  1
  I  I23  1  0.504961  0.504961  0.995039  1
