# generated using pymatgen
data_DyTmMnC2
_symmetry_space_group_name_H-M   'P 1'
_cell_length_a   5.00250700
_cell_length_b   6.33120800
_cell_length_c   9.56344100
_cell_angle_alpha   90.00000000
_cell_angle_beta   90.00000000
_cell_angle_gamma   90.00000000
_symmetry_Int_Tables_number   1
_chemical_formula_structural   DyTmMnC2
_chemical_formula_sum   'Dy4 Tm4 Mn4 C8'
_cell_volume   302.89246501
_cell_formula_units_Z   4
loop_
 _symmetry_equiv_pos_site_id
 _symmetry_equiv_pos_as_xyz
  1  'x, y, z'
loop_
 _atom_site_type_symbol
 _atom_site_label
 _atom_site_symmetry_multiplicity
 _atom_site_fract_x
 _atom_site_fract_y
 _atom_site_fract_z
 _atom_site_occupancy
  Dy  Dy0  1  0.250000  0.475798  0.212692  1
  Dy  Dy1  1  0.250000  0.975798  0.287308  1
  Dy  Dy2  1  0.750000  0.524202  0.787308  1
  Dy  Dy3  1  0.750000  0.024202  0.712692  1
  Tm  Tm4  1  0.250000  0.820606  0.944077  1
  Tm  Tm5  1  0.250000  0.320606  0.555923  1
  Tm  Tm6  1  0.750000  0.179394  0.055923  1
  Tm  Tm7  1  0.750000  0.679394  0.444077  1
  Mn  Mn8  1  0.250000  0.270372  0.857729  1
  Mn  Mn9  1  0.250000  0.770372  0.642271  1
  Mn  Mn10  1  0.750000  0.729628  0.142271  1
  Mn  Mn11  1  0.750000  0.229628  0.357729  1
  C  C12  1  0.250000  0.037430  0.738547  1
  C  C13  1  0.250000  0.537430  0.761453  1
  C  C14  1  0.750000  0.962570  0.261453  1
  C  C15  1  0.750000  0.462570  0.238547  1
  C  C16  1  0.250000  0.685664  0.463103  1
  C  C17  1  0.250000  0.185664  0.036897  1
  C  C18  1  0.750000  0.314336  0.536897  1
  C  C19  1  0.750000  0.814336  0.963103  1
