# generated using pymatgen
data_NaSr(YB12)2
_symmetry_space_group_name_H-M   'P 1'
_cell_length_a   7.19697800
_cell_length_b   7.19697922
_cell_length_c   5.88147000
_cell_angle_alpha   90.00000000
_cell_angle_beta   90.00000000
_cell_angle_gamma   109.42397422
_symmetry_Int_Tables_number   1
_chemical_formula_structural   NaSr(YB12)2
_chemical_formula_sum   'Na1 Sr1 Y2 B24'
_cell_volume   287.30057688
_cell_formula_units_Z   1
loop_
 _symmetry_equiv_pos_site_id
 _symmetry_equiv_pos_as_xyz
  1  'x, y, z'
loop_
 _atom_site_type_symbol
 _atom_site_label
 _atom_site_symmetry_multiplicity
 _atom_site_fract_x
 _atom_site_fract_y
 _atom_site_fract_z
 _atom_site_occupancy
  Na  Na0  1  0.749974  0.250026  0.500000  1
  Sr  Sr1  1  0.996873  0.003127  0.000000  1
  Y  Y2  1  0.504807  0.495193  0.000000  1
  Y  Y3  1  0.251467  0.748533  0.500000  1
  B  B4  1  0.177543  0.327822  0.648836  1
  B  B5  1  0.925361  0.574607  0.150073  1
  B  B6  1  0.672178  0.822457  0.648836  1
  B  B7  1  0.425393  0.074639  0.150073  1
  B  B8  1  0.177543  0.327822  0.351164  1
  B  B9  1  0.925361  0.574607  0.849927  1
  B  B10  1  0.672178  0.822457  0.351164  1
  B  B11  1  0.425393  0.074639  0.849927  1
  B  B12  1  0.402323  0.398116  0.500000  1
  B  B13  1  0.148590  0.651693  0.000000  1
  B  B14  1  0.896979  0.900567  0.500000  1
  B  B15  1  0.649460  0.148116  0.000000  1
  B  B16  1  0.325485  0.175589  0.648931  1
  B  B17  1  0.076975  0.428340  0.149915  1
  B  B18  1  0.824411  0.674515  0.648931  1
  B  B19  1  0.571660  0.923025  0.149915  1
  B  B20  1  0.099433  0.103021  0.500000  1
  B  B21  1  0.851884  0.350540  0.000000  1
  B  B22  1  0.601884  0.597677  0.500000  1
  B  B23  1  0.348307  0.851410  0.000000  1
  B  B24  1  0.325485  0.175589  0.351069  1
  B  B25  1  0.076975  0.428340  0.850085  1
  B  B26  1  0.824411  0.674515  0.351069  1
  B  B27  1  0.571660  0.923025  0.850085  1
