# generated using pymatgen
data_Zr8V3Fe9Si16
_symmetry_space_group_name_H-M   'P 1'
_cell_length_a   9.79972318
_cell_length_b   9.79100380
_cell_length_c   13.05950834
_cell_angle_alpha   53.60436292
_cell_angle_beta   53.55888850
_cell_angle_gamma   30.87065857
_symmetry_Int_Tables_number   1
_chemical_formula_structural   Zr8V3Fe9Si16
_chemical_formula_sum   'Zr8 V3 Fe9 Si16'
_cell_volume   506.52867696
_cell_formula_units_Z   1
loop_
 _symmetry_equiv_pos_site_id
 _symmetry_equiv_pos_as_xyz
  1  'x, y, z'
loop_
 _atom_site_type_symbol
 _atom_site_label
 _atom_site_symmetry_multiplicity
 _atom_site_fract_x
 _atom_site_fract_y
 _atom_site_fract_z
 _atom_site_occupancy
  Zr  Zr0  1  0.039453  0.285306  0.642174  1
  Zr  Zr1  1  0.707620  0.961689  0.860502  1
  Zr  Zr2  1  0.962552  0.711392  0.357190  1
  Zr  Zr3  1  0.292031  0.038098  0.140898  1
  Zr  Zr4  1  0.298254  0.563400  0.641795  1
  Zr  Zr5  1  0.437297  0.703969  0.856035  1
  Zr  Zr6  1  0.705407  0.436383  0.353401  1
  Zr  Zr7  1  0.568072  0.292255  0.144754  1
  V  V8  1  0.496776  0.745191  0.561145  1
  V  V9  1  0.754820  0.493940  0.058094  1
  V  V10  1  0.503794  0.249406  0.442123  1
  Fe  Fe11  1  0.905606  0.137785  0.583615  1
  Fe  Fe12  1  0.860046  0.094591  0.918176  1
  Fe  Fe13  1  0.096491  0.860282  0.419372  1
  Fe  Fe14  1  0.142768  0.899389  0.080762  1
  Fe  Fe15  1  0.833408  0.641765  0.779489  1
  Fe  Fe16  1  0.358066  0.168198  0.720694  1
  Fe  Fe17  1  0.166753  0.357383  0.221391  1
  Fe  Fe18  1  0.642095  0.832413  0.280081  1
  Fe  Fe19  1  0.242564  0.513646  0.937439  1
  Si  Si20  1  0.968184  0.253593  0.894456  1
  Si  Si21  1  0.746689  0.031642  0.606974  1
  Si  Si22  1  0.033288  0.741502  0.102710  1
  Si  Si23  1  0.254244  0.968492  0.393625  1
  Si  Si24  1  0.138941  0.396171  0.893440  1
  Si  Si25  1  0.606683  0.859357  0.608881  1
  Si  Si26  1  0.863778  0.612123  0.104667  1
  Si  Si27  1  0.393042  0.139064  0.392164  1
  Si  Si28  1  0.072976  0.583524  0.571470  1
  Si  Si29  1  0.416117  0.926782  0.929945  1
  Si  Si30  1  0.924096  0.418292  0.428751  1
  Si  Si31  1  0.565342  0.094357  0.067789  1
  Si  Si32  1  0.618671  0.375621  0.753647  1
  Si  Si33  1  0.379383  0.621442  0.249595  1
  Si  Si34  1  0.123197  0.872131  0.753175  1
  Si  Si35  1  0.881494  0.119426  0.249581  1
