# generated using pymatgen
data_Pr2Er3Ga6P6Ir19
_symmetry_space_group_name_H-M   'P 1'
_cell_length_a   12.98608860
_cell_length_b   13.01410252
_cell_length_c   4.00353300
_cell_angle_alpha   90.00000000
_cell_angle_beta   90.00000000
_cell_angle_gamma   120.03498144
_symmetry_Int_Tables_number   1
_chemical_formula_structural   Pr2Er3Ga6P6Ir19
_chemical_formula_sum   'Pr2 Er3 Ga6 P6 Ir19'
_cell_volume   585.75153350
_cell_formula_units_Z   1
loop_
 _symmetry_equiv_pos_site_id
 _symmetry_equiv_pos_as_xyz
  1  'x, y, z'
loop_
 _atom_site_type_symbol
 _atom_site_label
 _atom_site_symmetry_multiplicity
 _atom_site_fract_x
 _atom_site_fract_y
 _atom_site_fract_z
 _atom_site_occupancy
  Pr  Pr0  1  0.665788  0.333707  0.000000  1
  Pr  Pr1  1  0.817522  0.813717  0.500000  1
  Er  Er2  1  0.333717  0.666414  0.000000  1
  Er  Er3  1  0.187801  0.006151  0.500000  1
  Er  Er4  1  0.993697  0.182364  0.500000  1
  Ga  Ga5  1  0.674445  0.156165  0.500000  1
  Ga  Ga6  1  0.846606  0.520645  0.500000  1
  Ga  Ga7  1  0.477591  0.323292  0.500000  1
  Ga  Ga8  1  0.633542  0.633899  0.000000  1
  Ga  Ga9  1  0.362431  0.998219  0.000000  1
  Ga  Ga10  1  0.001567  0.364464  0.000000  1
  P  P11  1  0.182736  0.697906  0.500000  1
  P  P12  1  0.517002  0.817947  0.500000  1
  P  P13  1  0.301614  0.482845  0.500000  1
  P  P14  1  0.174518  0.183065  0.000000  1
  P  P15  1  0.818977  0.997020  0.000000  1
  P  P16  1  0.009155  0.825027  0.000000  1
  Ir  Ir17  1  0.808435  0.169210  0.000000  1
  Ir  Ir18  1  0.832689  0.637304  0.000000  1
  Ir  Ir19  1  0.357525  0.190461  0.000000  1
  Ir  Ir20  1  0.184721  0.793534  0.000000  1
  Ir  Ir21  1  0.610394  0.817493  0.000000  1
  Ir  Ir22  1  0.205621  0.389089  0.000000  1
  Ir  Ir23  1  0.444902  0.439643  0.000000  1
  Ir  Ir24  1  0.558665  0.005192  0.000000  1
  Ir  Ir25  1  0.997045  0.554174  0.000000  1
  Ir  Ir26  1  0.265917  0.281604  0.500000  1
  Ir  Ir27  1  0.716810  0.987914  0.500000  1
  Ir  Ir28  1  0.016844  0.732869  0.500000  1
  Ir  Ir29  1  0.874187  0.347177  0.500000  1
  Ir  Ir30  1  0.652349  0.524439  0.500000  1
  Ir  Ir31  1  0.471231  0.125399  0.500000  1
  Ir  Ir32  1  0.373071  0.868799  0.500000  1
  Ir  Ir33  1  0.496816  0.627553  0.500000  1
  Ir  Ir34  1  0.131649  0.503072  0.500000  1
  Ir  Ir35  1  0.002420  0.002229  0.000000  1
