# generated using pymatgen
data_Dy3Lu3Bi2Ru
_symmetry_space_group_name_H-M   'P 1'
_cell_length_a   8.24905800
_cell_length_b   8.24905732
_cell_length_c   4.18837400
_cell_angle_alpha   90.00000000
_cell_angle_beta   90.00000000
_cell_angle_gamma   120.00000273
_symmetry_Int_Tables_number   1
_chemical_formula_structural   Dy3Lu3Bi2Ru
_chemical_formula_sum   'Dy3 Lu3 Bi2 Ru1'
_cell_volume   246.82250366
_cell_formula_units_Z   1
loop_
 _symmetry_equiv_pos_site_id
 _symmetry_equiv_pos_as_xyz
  1  'x, y, z'
loop_
 _atom_site_type_symbol
 _atom_site_label
 _atom_site_symmetry_multiplicity
 _atom_site_fract_x
 _atom_site_fract_y
 _atom_site_fract_z
 _atom_site_occupancy
  Dy  Dy0  1  0.609982  0.000000  0.000000  1
  Dy  Dy1  1  0.000000  0.609982  0.000000  1
  Dy  Dy2  1  0.390018  0.390018  0.000000  1
  Lu  Lu3  1  0.229626  0.000000  0.500000  1
  Lu  Lu4  1  0.000000  0.229626  0.500000  1
  Lu  Lu5  1  0.770374  0.770374  0.500000  1
  Bi  Bi6  1  0.333333  0.666667  0.500000  1
  Bi  Bi7  1  0.666667  0.333333  0.500000  1
  Ru  Ru8  1  0.000000  0.000000  0.000000  1
