# generated using pymatgen
data_Tb7Ho(ReB6)4
_symmetry_space_group_name_H-M   'P 1'
_cell_length_a   3.69836800
_cell_length_b   9.20013303
_cell_length_c   11.59116303
_cell_angle_alpha   90.00867449
_cell_angle_beta   90.00000000
_cell_angle_gamma   90.00000000
_symmetry_Int_Tables_number   1
_chemical_formula_structural   Tb7Ho(ReB6)4
_chemical_formula_sum   'Tb7 Ho1 Re4 B24'
_cell_volume   394.39485340
_cell_formula_units_Z   1
loop_
 _symmetry_equiv_pos_site_id
 _symmetry_equiv_pos_as_xyz
  1  'x, y, z'
loop_
 _atom_site_type_symbol
 _atom_site_label
 _atom_site_symmetry_multiplicity
 _atom_site_fract_x
 _atom_site_fract_y
 _atom_site_fract_z
 _atom_site_occupancy
  Tb  Tb0  1  0.000000  0.323552  0.414005  1
  Tb  Tb1  1  0.000000  0.676483  0.586194  1
  Tb  Tb2  1  0.000000  0.823200  0.085893  1
  Tb  Tb3  1  0.000000  0.176586  0.913893  1
  Tb  Tb4  1  0.000000  0.942506  0.369982  1
  Tb  Tb5  1  0.000000  0.057525  0.630287  1
  Tb  Tb6  1  0.000000  0.442576  0.129549  1
  Ho  Ho7  1  0.000000  0.557680  0.869631  1
  Re  Re8  1  0.000000  0.637902  0.320703  1
  Re  Re9  1  0.000000  0.362460  0.679589  1
  Re  Re10  1  0.000000  0.138155  0.178937  1
  Re  Re11  1  0.000000  0.861325  0.820979  1
  B  B12  1  0.500000  0.552991  0.432691  1
  B  B13  1  0.500000  0.447166  0.567630  1
  B  B14  1  0.500000  0.052914  0.067205  1
  B  B15  1  0.500000  0.946399  0.932727  1
  B  B16  1  0.500000  0.747945  0.418080  1
  B  B17  1  0.500000  0.252246  0.582174  1
  B  B18  1  0.500000  0.248080  0.081725  1
  B  B19  1  0.500000  0.750930  0.918125  1
  B  B20  1  0.500000  0.790931  0.265480  1
  B  B21  1  0.500000  0.209410  0.734707  1
  B  B22  1  0.500000  0.291087  0.234269  1
  B  B23  1  0.500000  0.708326  0.765821  1
  B  B24  1  0.500000  0.630417  0.185842  1
  B  B25  1  0.500000  0.370297  0.814392  1
  B  B26  1  0.500000  0.130621  0.313919  1
  B  B27  1  0.500000  0.869193  0.686281  1
  B  B28  1  0.500000  0.982395  0.211715  1
  B  B29  1  0.500000  0.017354  0.788469  1
  B  B30  1  0.500000  0.482274  0.288095  1
  B  B31  1  0.500000  0.518179  0.712291  1
  B  B32  1  0.500000  0.599804  0.027191  1
  B  B33  1  0.500000  0.400986  0.971273  1
  B  B34  1  0.500000  0.100558  0.471942  1
  B  B35  1  0.500000  0.899548  0.528311  1
