# generated using pymatgen
data_SmY(CdRh)2
_symmetry_space_group_name_H-M   'P 1'
_cell_length_a   4.02820400
_cell_length_b   7.18485044
_cell_length_c   8.78994500
_cell_angle_alpha   91.82199192
_cell_angle_beta   90.00000000
_cell_angle_gamma   90.00000000
_symmetry_Int_Tables_number   1
_chemical_formula_structural   SmY(CdRh)2
_chemical_formula_sum   'Sm2 Y2 Cd4 Rh4'
_cell_volume   254.27035232
_cell_formula_units_Z   2
loop_
 _symmetry_equiv_pos_site_id
 _symmetry_equiv_pos_as_xyz
  1  'x, y, z'
loop_
 _atom_site_type_symbol
 _atom_site_label
 _atom_site_symmetry_multiplicity
 _atom_site_fract_x
 _atom_site_fract_y
 _atom_site_fract_z
 _atom_site_occupancy
  Sm  Sm0  1  0.250000  0.542595  0.182130  1
  Sm  Sm1  1  0.750000  0.457466  0.817905  1
  Y  Y2  1  0.750000  0.953504  0.676574  1
  Y  Y3  1  0.250000  0.046490  0.323462  1
  Cd  Cd4  1  0.250000  0.635523  0.557425  1
  Cd  Cd5  1  0.750000  0.364501  0.442570  1
  Cd  Cd6  1  0.750000  0.865605  0.060597  1
  Cd  Cd7  1  0.250000  0.134446  0.939415  1
  Rh  Rh8  1  0.250000  0.741741  0.863140  1
  Rh  Rh9  1  0.750000  0.258281  0.136812  1
  Rh  Rh10  1  0.750000  0.763963  0.364659  1
  Rh  Rh11  1  0.250000  0.235886  0.635311  1
