# generated using pymatgen
data_Sr10Mg(RuO5)4
_symmetry_space_group_name_H-M   'P 1'
_cell_length_a   8.93039040
_cell_length_b   8.93039005
_cell_length_c   8.93039083
_cell_angle_alpha   121.49811194
_cell_angle_beta   121.49810888
_cell_angle_gamma   87.42421233
_symmetry_Int_Tables_number   1
_chemical_formula_structural   Sr10Mg(RuO5)4
_chemical_formula_sum   'Sr10 Mg1 Ru4 O20'
_cell_volume   491.66856563
_cell_formula_units_Z   1
loop_
 _symmetry_equiv_pos_site_id
 _symmetry_equiv_pos_as_xyz
  1  'x, y, z'
loop_
 _atom_site_type_symbol
 _atom_site_label
 _atom_site_symmetry_multiplicity
 _atom_site_fract_x
 _atom_site_fract_y
 _atom_site_fract_z
 _atom_site_occupancy
  Sr  Sr0  1  0.756544  0.144622  0.195279  1
  Sr  Sr1  1  0.352425  0.352425  0.000000  1
  Sr  Sr2  1  0.949343  0.561264  0.804721  1
  Sr  Sr3  1  0.561264  0.756544  0.611921  1
  Sr  Sr4  1  0.144622  0.949343  0.388079  1
  Sr  Sr5  1  0.647575  0.647575  0.000000  1
  Sr  Sr6  1  0.243456  0.855378  0.804721  1
  Sr  Sr7  1  0.855378  0.050657  0.611921  1
  Sr  Sr8  1  0.438736  0.243456  0.388079  1
  Sr  Sr9  1  0.050657  0.438736  0.195279  1
  Mg  Mg10  1  0.000000  0.000000  0.000000  1
  Ru  Ru11  1  0.596932  0.199331  0.796264  1
  Ru  Ru12  1  0.199331  0.403068  0.602398  1
  Ru  Ru13  1  0.800669  0.596932  0.397602  1
  Ru  Ru14  1  0.403068  0.800669  0.203736  1
  O  O15  1  0.561665  0.961732  0.201032  1
  O  O16  1  0.166803  0.166803  0.000000  1
  O  O17  1  0.760700  0.360633  0.798968  1
  O  O18  1  0.360633  0.561665  0.599934  1
  O  O19  1  0.961732  0.760700  0.400066  1
  O  O20  1  0.833197  0.833197  0.000000  1
  O  O21  1  0.438335  0.038268  0.798968  1
  O  O22  1  0.038268  0.239300  0.599934  1
  O  O23  1  0.639367  0.438335  0.400066  1
  O  O24  1  0.239300  0.639367  0.201032  1
  O  O25  1  0.697019  0.396130  0.093149  1
  O  O26  1  0.302981  0.603870  0.906851  1
  O  O27  1  0.897267  0.793776  0.691043  1
  O  O28  1  0.500000  0.000000  0.500000  1
  O  O29  1  0.102733  0.206224  0.308957  1
  O  O30  1  0.000000  0.500000  0.500000  1
  O  O31  1  0.603870  0.697019  0.300890  1
  O  O32  1  0.206224  0.897267  0.103491  1
  O  O33  1  0.793776  0.102733  0.896509  1
  O  O34  1  0.396130  0.302981  0.699110  1
