# generated using pymatgen
data_Ho12Tc2RuPt
_symmetry_space_group_name_H-M   'P 1'
_cell_length_a   6.30328027
_cell_length_b   7.33540072
_cell_length_c   9.12433500
_cell_angle_alpha   90.00000000
_cell_angle_beta   90.00000000
_cell_angle_gamma   90.01102220
_symmetry_Int_Tables_number   1
_chemical_formula_structural   Ho12Tc2RuPt
_chemical_formula_sum   'Ho12 Tc2 Ru1 Pt1'
_cell_volume   421.88265990
_cell_formula_units_Z   1
loop_
 _symmetry_equiv_pos_site_id
 _symmetry_equiv_pos_as_xyz
  1  'x, y, z'
loop_
 _atom_site_type_symbol
 _atom_site_label
 _atom_site_symmetry_multiplicity
 _atom_site_fract_x
 _atom_site_fract_y
 _atom_site_fract_z
 _atom_site_occupancy
  Ho  Ho0  1  0.327540  0.676710  0.067016  1
  Ho  Ho1  1  0.166260  0.178066  0.436220  1
  Ho  Ho2  1  0.668534  0.318407  0.558902  1
  Ho  Ho3  1  0.834515  0.825675  0.938662  1
  Ho  Ho4  1  0.668534  0.318407  0.941098  1
  Ho  Ho5  1  0.834515  0.825675  0.561338  1
  Ho  Ho6  1  0.327540  0.676710  0.432984  1
  Ho  Ho7  1  0.166260  0.178066  0.063780  1
  Ho  Ho8  1  0.869975  0.543320  0.250000  1
  Ho  Ho9  1  0.631113  0.038913  0.250000  1
  Ho  Ho10  1  0.128414  0.458046  0.750000  1
  Ho  Ho11  1  0.371292  0.965254  0.750000  1
  Tc  Tc12  1  0.465569  0.386890  0.250000  1
  Tc  Tc13  1  0.958568  0.111762  0.750000  1
  Ru  Ru14  1  0.036745  0.884486  0.250000  1
  Pt  Pt15  1  0.544625  0.613610  0.750000  1
