# generated using pymatgen
data_Dy4Y6NiAg3
_symmetry_space_group_name_H-M   'P 1'
_cell_length_a   9.53491700
_cell_length_b   9.53491868
_cell_length_c   9.60878200
_cell_angle_alpha   90.00000000
_cell_angle_beta   90.00000000
_cell_angle_gamma   119.99999763
_symmetry_Int_Tables_number   1
_chemical_formula_structural   Dy4Y6NiAg3
_chemical_formula_sum   'Dy8 Y12 Ni2 Ag6'
_cell_volume   756.54173834
_cell_formula_units_Z   2
loop_
 _symmetry_equiv_pos_site_id
 _symmetry_equiv_pos_as_xyz
  1  'x, y, z'
loop_
 _atom_site_type_symbol
 _atom_site_label
 _atom_site_symmetry_multiplicity
 _atom_site_fract_x
 _atom_site_fract_y
 _atom_site_fract_z
 _atom_site_occupancy
  Dy  Dy0  1  0.000000  0.000000  0.500000  1
  Dy  Dy1  1  0.000000  0.000000  0.000000  1
  Dy  Dy2  1  0.210085  0.789915  0.439295  1
  Dy  Dy3  1  0.210085  0.420172  0.439295  1
  Dy  Dy4  1  0.579828  0.789915  0.439295  1
  Dy  Dy5  1  0.789915  0.210085  0.560705  1
  Dy  Dy6  1  0.789915  0.579828  0.560705  1
  Dy  Dy7  1  0.420172  0.210085  0.560705  1
  Y  Y8  1  0.543780  0.456220  0.250540  1
  Y  Y9  1  0.543780  0.087560  0.250540  1
  Y  Y10  1  0.912440  0.456220  0.250540  1
  Y  Y11  1  0.456220  0.543780  0.749460  1
  Y  Y12  1  0.456220  0.912440  0.749460  1
  Y  Y13  1  0.087560  0.543780  0.749460  1
  Y  Y14  1  0.790233  0.209767  0.939495  1
  Y  Y15  1  0.790233  0.580464  0.939495  1
  Y  Y16  1  0.419536  0.209767  0.939495  1
  Y  Y17  1  0.209767  0.790233  0.060505  1
  Y  Y18  1  0.209767  0.419536  0.060505  1
  Y  Y19  1  0.580464  0.790233  0.060505  1
  Ni  Ni20  1  0.333333  0.666667  0.251952  1
  Ni  Ni21  1  0.666667  0.333333  0.748048  1
  Ag  Ag22  1  0.883641  0.116359  0.249992  1
  Ag  Ag23  1  0.883641  0.767282  0.249992  1
  Ag  Ag24  1  0.232718  0.116359  0.249992  1
  Ag  Ag25  1  0.116359  0.883641  0.750008  1
  Ag  Ag26  1  0.116359  0.232718  0.750008  1
  Ag  Ag27  1  0.767282  0.883641  0.750008  1
