# generated using pymatgen
data_Tb11Lu(In2Ru)4
_symmetry_space_group_name_H-M   'P 1'
_cell_length_a   3.83367500
_cell_length_b   12.95528934
_cell_length_c   12.95528942
_cell_angle_alpha   112.07407557
_cell_angle_beta   90.00000000
_cell_angle_gamma   90.00000000
_symmetry_Int_Tables_number   1
_chemical_formula_structural   Tb11Lu(In2Ru)4
_chemical_formula_sum   'Tb11 Lu1 In8 Ru4'
_cell_volume   596.27707597
_cell_formula_units_Z   1
loop_
 _symmetry_equiv_pos_site_id
 _symmetry_equiv_pos_as_xyz
  1  'x, y, z'
loop_
 _atom_site_type_symbol
 _atom_site_label
 _atom_site_symmetry_multiplicity
 _atom_site_fract_x
 _atom_site_fract_y
 _atom_site_fract_z
 _atom_site_occupancy
  Tb  Tb0  1  0.000000  0.915096  0.578490  1
  Tb  Tb1  1  0.000000  0.084904  0.421510  1
  Tb  Tb2  1  0.000000  0.578490  0.915096  1
  Tb  Tb3  1  0.000000  0.421510  0.084904  1
  Tb  Tb4  1  0.000000  0.162113  0.837887  1
  Tb  Tb5  1  0.000000  0.837887  0.162113  1
  Tb  Tb6  1  0.000000  0.362004  0.637996  1
  Tb  Tb7  1  0.000000  0.637996  0.362004  1
  Tb  Tb8  1  0.000000  0.704648  0.704648  1
  Tb  Tb9  1  0.000000  0.295352  0.295352  1
  Tb  Tb10  1  0.000000  0.000000  0.000000  1
  Lu  Lu11  1  0.500000  0.500000  0.500000  1
  In  In12  1  0.500000  0.153243  0.632579  1
  In  In13  1  0.500000  0.846757  0.367421  1
  In  In14  1  0.500000  0.632579  0.153243  1
  In  In15  1  0.500000  0.367421  0.846757  1
  In  In16  1  0.500000  0.931040  0.782487  1
  In  In17  1  0.500000  0.068960  0.217513  1
  In  In18  1  0.500000  0.782487  0.931040  1
  In  In19  1  0.500000  0.217513  0.068960  1
  Ru  Ru20  1  0.500000  0.735946  0.548445  1
  Ru  Ru21  1  0.500000  0.264054  0.451555  1
  Ru  Ru22  1  0.500000  0.548445  0.735946  1
  Ru  Ru23  1  0.500000  0.451555  0.264054  1
