# generated using pymatgen
data_La3ThSb10
_symmetry_space_group_name_H-M   'P 1'
_cell_length_a   4.30341200
_cell_length_b   13.75157881
_cell_length_c   15.50010774
_cell_angle_alpha   78.25735655
_cell_angle_beta   90.00000000
_cell_angle_gamma   90.00000000
_symmetry_Int_Tables_number   1
_chemical_formula_structural   La3ThSb10
_chemical_formula_sum   'La6 Th2 Sb20'
_cell_volume   898.07925337
_cell_formula_units_Z   2
loop_
 _symmetry_equiv_pos_site_id
 _symmetry_equiv_pos_as_xyz
  1  'x, y, z'
loop_
 _atom_site_type_symbol
 _atom_site_label
 _atom_site_symmetry_multiplicity
 _atom_site_fract_x
 _atom_site_fract_y
 _atom_site_fract_z
 _atom_site_occupancy
  La  La0  1  0.250000  0.392332  0.770407  1
  La  La1  1  0.750000  0.607668  0.229593  1
  La  La2  1  0.250000  0.948263  0.365272  1
  La  La3  1  0.750000  0.051737  0.634728  1
  La  La4  1  0.250000  0.666265  0.855316  1
  La  La5  1  0.750000  0.333735  0.144684  1
  Th  Th6  1  0.250000  0.667391  0.573522  1
  Th  Th7  1  0.750000  0.332609  0.426478  1
  Sb  Sb8  1  0.250000  0.427651  0.551551  1
  Sb  Sb9  1  0.750000  0.572349  0.448449  1
  Sb  Sb10  1  0.250000  0.713183  0.059616  1
  Sb  Sb11  1  0.750000  0.286817  0.940384  1
  Sb  Sb12  1  0.250000  0.420755  0.975261  1
  Sb  Sb13  1  0.750000  0.579245  0.024739  1
  Sb  Sb14  1  0.250000  0.859739  0.675118  1
  Sb  Sb15  1  0.750000  0.140261  0.324882  1
  Sb  Sb16  1  0.250000  0.146613  0.185287  1
  Sb  Sb17  1  0.750000  0.853387  0.814713  1
  Sb  Sb18  1  0.250000  0.710192  0.353003  1
  Sb  Sb19  1  0.750000  0.289808  0.646997  1
  Sb  Sb20  1  0.250000  0.145092  0.767292  1
  Sb  Sb21  1  0.750000  0.854908  0.232708  1
  Sb  Sb22  1  0.250000  0.420028  0.272085  1
  Sb  Sb23  1  0.750000  0.579972  0.727915  1
  Sb  Sb24  1  0.250000  0.150448  0.476545  1
  Sb  Sb25  1  0.750000  0.849552  0.523455  1
  Sb  Sb26  1  0.250000  0.968018  0.121915  1
  Sb  Sb27  1  0.750000  0.031982  0.878085  1
