# generated using pymatgen
data_Y3Ho5Al8
_symmetry_space_group_name_H-M   'P 1'
_cell_length_a   5.61767500
_cell_length_b   5.84880801
_cell_length_c   11.40109100
_cell_angle_alpha   89.99757542
_cell_angle_beta   90.00000000
_cell_angle_gamma   90.00000000
_symmetry_Int_Tables_number   1
_chemical_formula_structural   Y3Ho5Al8
_chemical_formula_sum   'Y3 Ho5 Al8'
_cell_volume   374.60225532
_cell_formula_units_Z   1
loop_
 _symmetry_equiv_pos_site_id
 _symmetry_equiv_pos_as_xyz
  1  'x, y, z'
loop_
 _atom_site_type_symbol
 _atom_site_label
 _atom_site_symmetry_multiplicity
 _atom_site_fract_x
 _atom_site_fract_y
 _atom_site_fract_z
 _atom_site_occupancy
  Y  Y0  1  0.750000  0.163189  0.484387  1
  Y  Y1  1  0.250000  0.836756  0.515773  1
  Y  Y2  1  0.250000  0.161931  0.015492  1
  Ho  Ho3  1  0.750000  0.837426  0.984147  1
  Ho  Ho4  1  0.750000  0.399073  0.167859  1
  Ho  Ho5  1  0.250000  0.601867  0.832154  1
  Ho  Ho6  1  0.250000  0.398423  0.331410  1
  Ho  Ho7  1  0.750000  0.601689  0.668682  1
  Al  Al8  1  0.500225  0.932444  0.249689  1
  Al  Al9  1  0.999959  0.067269  0.750289  1
  Al  Al10  1  0.500041  0.067269  0.750289  1
  Al  Al11  1  0.999775  0.932444  0.249689  1
  Al  Al12  1  0.750000  0.660407  0.401097  1
  Al  Al13  1  0.250000  0.339583  0.598987  1
  Al  Al14  1  0.250000  0.660519  0.098458  1
  Al  Al15  1  0.750000  0.339711  0.901598  1
