# generated using pymatgen
data_Pr4GeB4Ir9
_symmetry_space_group_name_H-M   'P 1'
_cell_length_a   10.91653573
_cell_length_b   10.91653604
_cell_length_c   10.91653778
_cell_angle_alpha   29.79656621
_cell_angle_beta   29.79656241
_cell_angle_gamma   29.79657015
_symmetry_Int_Tables_number   1
_chemical_formula_structural   Pr4GeB4Ir9
_chemical_formula_sum   'Pr4 Ge1 B4 Ir9'
_cell_volume   284.46396792
_cell_formula_units_Z   1
loop_
 _symmetry_equiv_pos_site_id
 _symmetry_equiv_pos_as_xyz
  1  'x, y, z'
loop_
 _atom_site_type_symbol
 _atom_site_label
 _atom_site_symmetry_multiplicity
 _atom_site_fract_x
 _atom_site_fract_y
 _atom_site_fract_z
 _atom_site_occupancy
  Pr  Pr0  1  0.149040  0.149040  0.149040  1
  Pr  Pr1  1  0.950319  0.950319  0.950319  1
  Pr  Pr2  1  0.850960  0.850960  0.850960  1
  Pr  Pr3  1  0.049681  0.049681  0.049681  1
  Ge  Ge4  1  0.500000  0.500000  0.500000  1
  B  B5  1  0.616439  0.616439  0.616439  1
  B  B6  1  0.717972  0.717972  0.717972  1
  B  B7  1  0.383561  0.383561  0.383561  1
  B  B8  1  0.282028  0.282028  0.282028  1
  Ir  Ir9  1  0.404386  0.901370  0.404386  1
  Ir  Ir10  1  0.901370  0.404386  0.404386  1
  Ir  Ir11  1  0.500000  0.500000  0.000000  1
  Ir  Ir12  1  0.500000  0.000000  0.500000  1
  Ir  Ir13  1  0.000000  0.500000  0.500000  1
  Ir  Ir14  1  0.595614  0.098630  0.595614  1
  Ir  Ir15  1  0.595614  0.595614  0.098630  1
  Ir  Ir16  1  0.098630  0.595614  0.595614  1
  Ir  Ir17  1  0.404386  0.404386  0.901370  1
