# generated using pymatgen
data_KCr(PO3)4
_symmetry_space_group_name_H-M   'P 1'
_cell_length_a   10.58715829
_cell_length_b   10.58715864
_cell_length_c   5.25193846
_cell_angle_alpha   80.82110673
_cell_angle_beta   80.82110536
_cell_angle_gamma   71.82737794
_symmetry_Int_Tables_number   1
_chemical_formula_structural   KCr(PO3)4
_chemical_formula_sum   'K2 Cr2 P8 O24'
_cell_volume   548.36021586
_cell_formula_units_Z   2
loop_
 _symmetry_equiv_pos_site_id
 _symmetry_equiv_pos_as_xyz
  1  'x, y, z'
loop_
 _atom_site_type_symbol
 _atom_site_label
 _atom_site_symmetry_multiplicity
 _atom_site_fract_x
 _atom_site_fract_y
 _atom_site_fract_z
 _atom_site_occupancy
  K  K0  1  0.407680  0.407680  0.737205  1
  K  K1  1  0.592320  0.592320  0.262795  1
  Cr  Cr2  1  0.500000  0.000000  0.000000  1
  Cr  Cr3  1  0.000000  0.500000  0.000000  1
  P  P4  1  0.798759  0.354735  0.836077  1
  P  P5  1  0.068072  0.308076  0.535424  1
  P  P6  1  0.308076  0.068072  0.535424  1
  P  P7  1  0.645265  0.201241  0.163923  1
  P  P8  1  0.354735  0.798759  0.836077  1
  P  P9  1  0.691924  0.931928  0.464576  1
  P  P10  1  0.931928  0.691924  0.464576  1
  P  P11  1  0.201241  0.645265  0.163923  1
  O  O12  1  0.425933  0.847757  0.012415  1
  O  O13  1  0.398232  0.098951  0.698336  1
  O  O14  1  0.429750  0.677199  0.710357  1
  O  O15  1  0.152243  0.574067  0.987585  1
  O  O16  1  0.574067  0.152243  0.987585  1
  O  O17  1  0.911378  0.658135  0.754318  1
  O  O18  1  0.215433  0.784567  0.000000  1
  O  O19  1  0.570250  0.322801  0.289643  1
  O  O20  1  0.601768  0.901049  0.301664  1
  O  O21  1  0.708371  0.077489  0.377645  1
  O  O22  1  0.322801  0.570250  0.289643  1
  O  O23  1  0.901049  0.601768  0.301664  1
  O  O24  1  0.847757  0.425933  0.012415  1
  O  O25  1  0.077489  0.708371  0.377645  1
  O  O26  1  0.156611  0.156611  0.606627  1
  O  O27  1  0.098951  0.398232  0.698336  1
  O  O28  1  0.677199  0.429750  0.710357  1
  O  O29  1  0.291629  0.922511  0.622355  1
  O  O30  1  0.784567  0.215433  0.000000  1
  O  O31  1  0.341865  0.088622  0.245682  1
  O  O32  1  0.658135  0.911378  0.754318  1
  O  O33  1  0.843389  0.843389  0.393373  1
  O  O34  1  0.922511  0.291629  0.622355  1
  O  O35  1  0.088622  0.341865  0.245682  1
