# generated using pymatgen
data_TbYHo2(WO6)2
_symmetry_space_group_name_H-M   'P 1'
_cell_length_a   5.40428000
_cell_length_b   7.70942822
_cell_length_c   11.46812278
_cell_angle_alpha   75.57968269
_cell_angle_beta   90.00000000
_cell_angle_gamma   90.00000000
_symmetry_Int_Tables_number   1
_chemical_formula_structural   TbYHo2(WO6)2
_chemical_formula_sum   'Tb2 Y2 Ho4 W4 O24'
_cell_volume   462.75347591
_cell_formula_units_Z   2
loop_
 _symmetry_equiv_pos_site_id
 _symmetry_equiv_pos_as_xyz
  1  'x, y, z'
loop_
 _atom_site_type_symbol
 _atom_site_label
 _atom_site_symmetry_multiplicity
 _atom_site_fract_x
 _atom_site_fract_y
 _atom_site_fract_z
 _atom_site_occupancy
  Tb  Tb0  1  0.683516  0.500000  0.750000  1
  Tb  Tb1  1  0.316484  0.500000  0.250000  1
  Y  Y2  1  0.739442  0.000000  0.750000  1
  Y  Y3  1  0.260558  0.000000  0.250000  1
  Ho  Ho4  1  0.186096  0.795562  0.577859  1
  Ho  Ho5  1  0.813904  0.795562  0.077859  1
  Ho  Ho6  1  0.186096  0.204438  0.922141  1
  Ho  Ho7  1  0.813904  0.204438  0.422141  1
  W  W8  1  0.254167  0.723284  0.885767  1
  W  W9  1  0.745833  0.723284  0.385767  1
  W  W10  1  0.254167  0.276716  0.614233  1
  W  W11  1  0.745833  0.276716  0.114233  1
  O  O12  1  0.042521  0.939702  0.896111  1
  O  O13  1  0.530456  0.847902  0.931515  1
  O  O14  1  0.957479  0.939702  0.396111  1
  O  O15  1  0.457630  0.789278  0.727729  1
  O  O16  1  0.469544  0.847902  0.431515  1
  O  O17  1  0.982647  0.710806  0.771318  1
  O  O18  1  0.542370  0.789278  0.227729  1
  O  O19  1  0.852016  0.635878  0.548288  1
  O  O20  1  0.359960  0.489735  0.887019  1
  O  O21  1  0.017353  0.710806  0.271318  1
  O  O22  1  0.359960  0.510265  0.612981  1
  O  O23  1  0.852016  0.364122  0.951712  1
  O  O24  1  0.147984  0.635878  0.048288  1
  O  O25  1  0.640040  0.489735  0.387019  1
  O  O26  1  0.982647  0.289194  0.728682  1
  O  O27  1  0.640040  0.510265  0.112981  1
  O  O28  1  0.147984  0.364122  0.451712  1
  O  O29  1  0.457630  0.210722  0.772271  1
  O  O30  1  0.017353  0.289194  0.228682  1
  O  O31  1  0.530456  0.152098  0.568485  1
  O  O32  1  0.542370  0.210722  0.272271  1
  O  O33  1  0.042521  0.060298  0.603889  1
  O  O34  1  0.469544  0.152098  0.068485  1
  O  O35  1  0.957479  0.060298  0.103889  1
