# generated using pymatgen
data_Ho4MgCo2Ag
_symmetry_space_group_name_H-M   'P 1'
_cell_length_a   8.38130510
_cell_length_b   8.38130626
_cell_length_c   8.38130485
_cell_angle_alpha   127.74380596
_cell_angle_beta   127.74382739
_cell_angle_gamma   77.04040589
_symmetry_Int_Tables_number   1
_chemical_formula_structural   Ho4MgCo2Ag
_chemical_formula_sum   'Ho8 Mg2 Co4 Ag2'
_cell_volume   357.33168036
_cell_formula_units_Z   2
loop_
 _symmetry_equiv_pos_site_id
 _symmetry_equiv_pos_as_xyz
  1  'x, y, z'
loop_
 _atom_site_type_symbol
 _atom_site_label
 _atom_site_symmetry_multiplicity
 _atom_site_fract_x
 _atom_site_fract_y
 _atom_site_fract_z
 _atom_site_occupancy
  Ho  Ho0  1  0.706920  0.535011  0.500000  1
  Ho  Ho1  1  0.464989  0.964989  0.171909  1
  Ho  Ho2  1  0.793080  0.293080  0.828091  1
  Ho  Ho3  1  0.535011  0.035011  0.828091  1
  Ho  Ho4  1  0.035011  0.206920  0.500000  1
  Ho  Ho5  1  0.293080  0.464989  0.500000  1
  Ho  Ho6  1  0.206920  0.706920  0.171909  1
  Ho  Ho7  1  0.964989  0.793080  0.500000  1
  Mg  Mg8  1  0.000000  0.000000  0.000000  1
  Mg  Mg9  1  0.500000  0.500000  0.000000  1
  Co  Co10  1  0.133866  0.633866  0.767731  1
  Co  Co11  1  0.866134  0.366134  0.232269  1
  Co  Co12  1  0.633866  0.866134  0.500000  1
  Co  Co13  1  0.366134  0.133866  0.500000  1
  Ag  Ag14  1  0.250000  0.250000  0.000000  1
  Ag  Ag15  1  0.750000  0.750000  0.000000  1
