# generated using pymatgen
data_Sc20AsP11
_symmetry_space_group_name_H-M   'P 1'
_cell_length_a   7.09277262
_cell_length_b   7.91619077
_cell_length_c   10.59794552
_cell_angle_alpha   89.97020249
_cell_angle_beta   90.08937475
_cell_angle_gamma   90.04006071
_symmetry_Int_Tables_number   1
_chemical_formula_structural   Sc20AsP11
_chemical_formula_sum   'Sc20 As1 P11'
_cell_volume   595.04975175
_cell_formula_units_Z   1
loop_
 _symmetry_equiv_pos_site_id
 _symmetry_equiv_pos_as_xyz
  1  'x, y, z'
loop_
 _atom_site_type_symbol
 _atom_site_label
 _atom_site_symmetry_multiplicity
 _atom_site_fract_x
 _atom_site_fract_y
 _atom_site_fract_z
 _atom_site_occupancy
  Sc  Sc0  1  0.812353  0.951652  0.071788  1
  Sc  Sc1  1  0.307440  0.047994  0.431676  1
  Sc  Sc2  1  0.188917  0.452341  0.926458  1
  Sc  Sc3  1  0.689987  0.547402  0.572588  1
  Sc  Sc4  1  0.189469  0.047480  0.925992  1
  Sc  Sc5  1  0.689982  0.952483  0.572408  1
  Sc  Sc6  1  0.811332  0.547477  0.072476  1
  Sc  Sc7  1  0.310489  0.452883  0.428376  1
  Sc  Sc8  1  0.160027  0.745605  0.219146  1
  Sc  Sc9  1  0.665412  0.255738  0.282971  1
  Sc  Sc10  1  0.837431  0.249544  0.780178  1
  Sc  Sc11  1  0.337378  0.750208  0.718090  1
  Sc  Sc12  1  0.467978  0.745723  0.000211  1
  Sc  Sc13  1  0.967372  0.249967  0.498215  1
  Sc  Sc14  1  0.534297  0.253982  0.994961  1
  Sc  Sc15  1  0.032367  0.749773  0.503071  1
  Sc  Sc16  1  0.649891  0.745864  0.296981  1
  Sc  Sc17  1  0.142370  0.254390  0.205943  1
  Sc  Sc18  1  0.353254  0.250353  0.704463  1
  Sc  Sc19  1  0.853270  0.750117  0.795070  1
  As  As20  1  0.434590  0.009881  0.172532  1
  P  P21  1  0.425448  0.750236  0.485665  1
  P  P22  1  0.925372  0.249814  0.013345  1
  P  P23  1  0.575310  0.250002  0.515069  1
  P  P24  1  0.075768  0.749661  0.985203  1
  P  P25  1  0.937486  0.509183  0.329150  1
  P  P26  1  0.437652  0.489878  0.171828  1
  P  P27  1  0.062425  0.009714  0.671396  1
  P  P28  1  0.562591  0.990082  0.828294  1
  P  P29  1  0.062118  0.490422  0.671523  1
  P  P30  1  0.562576  0.509969  0.826378  1
  P  P31  1  0.937648  0.990185  0.328554  1
