# generated using pymatgen
data_TmNiSnH
_symmetry_space_group_name_H-M   'P 1'
_cell_length_a   4.19383800
_cell_length_b   7.02392400
_cell_length_c   8.23927500
_cell_angle_alpha   90.00000000
_cell_angle_beta   90.00000000
_cell_angle_gamma   90.00000000
_symmetry_Int_Tables_number   1
_chemical_formula_structural   TmNiSnH
_chemical_formula_sum   'Tm4 Ni4 Sn4 H4'
_cell_volume   242.70596642
_cell_formula_units_Z   4
loop_
 _symmetry_equiv_pos_site_id
 _symmetry_equiv_pos_as_xyz
  1  'x, y, z'
loop_
 _atom_site_type_symbol
 _atom_site_label
 _atom_site_symmetry_multiplicity
 _atom_site_fract_x
 _atom_site_fract_y
 _atom_site_fract_z
 _atom_site_occupancy
  Tm  Tm0  1  0.750000  0.515794  0.814521  1
  Tm  Tm1  1  0.250000  0.484206  0.185479  1
  Tm  Tm2  1  0.250000  0.984206  0.314521  1
  Tm  Tm3  1  0.750000  0.015794  0.685479  1
  Ni  Ni4  1  0.750000  0.272637  0.391132  1
  Ni  Ni5  1  0.250000  0.727363  0.608868  1
  Ni  Ni6  1  0.250000  0.227363  0.891132  1
  Ni  Ni7  1  0.750000  0.772637  0.108868  1
  Sn  Sn8  1  0.750000  0.156695  0.072879  1
  Sn  Sn9  1  0.250000  0.843305  0.927121  1
  Sn  Sn10  1  0.250000  0.343305  0.572879  1
  Sn  Sn11  1  0.750000  0.656695  0.427121  1
  H  H12  1  0.250000  0.951409  0.577147  1
  H  H13  1  0.750000  0.048591  0.422853  1
  H  H14  1  0.750000  0.548591  0.077147  1
  H  H15  1  0.250000  0.451409  0.922853  1
