# generated using pymatgen
data_NaDyY5Co6Sn23
_symmetry_space_group_name_H-M   'P 1'
_cell_length_a   9.73381664
_cell_length_b   9.73931644
_cell_length_c   9.97374716
_cell_angle_alpha   90.00000130
_cell_angle_beta   90.01779108
_cell_angle_gamma   120.01869378
_symmetry_Int_Tables_number   1
_chemical_formula_structural   NaDyY5Co6Sn23
_chemical_formula_sum   'Na1 Dy1 Y5 Co6 Sn23'
_cell_volume   818.68862510
_cell_formula_units_Z   1
loop_
 _symmetry_equiv_pos_site_id
 _symmetry_equiv_pos_as_xyz
  1  'x, y, z'
loop_
 _atom_site_type_symbol
 _atom_site_label
 _atom_site_symmetry_multiplicity
 _atom_site_fract_x
 _atom_site_fract_y
 _atom_site_fract_z
 _atom_site_occupancy
  Na  Na0  1  0.000009  0.000005  0.999991  1
  Dy  Dy1  1  0.041085  0.520542  0.305435  1
  Y  Y2  1  0.479126  0.958471  0.305336  1
  Y  Y3  1  0.479126  0.520655  0.305336  1
  Y  Y4  1  0.958225  0.479113  0.694283  1
  Y  Y5  1  0.520884  0.041535  0.694644  1
  Y  Y6  1  0.520884  0.479349  0.694644  1
  Co  Co7  1  0.170372  0.829773  0.799231  1
  Co  Co8  1  0.659404  0.829702  0.799119  1
  Co  Co9  1  0.170372  0.340599  0.799231  1
  Co  Co10  1  0.829956  0.170778  0.200868  1
  Co  Co11  1  0.340630  0.170315  0.200876  1
  Co  Co12  1  0.829956  0.659178  0.200868  1
  Sn  Sn13  1  0.999979  0.999989  0.499948  1
  Sn  Sn14  1  0.115720  0.884068  0.271610  1
  Sn  Sn15  1  0.768559  0.884280  0.271270  1
  Sn  Sn16  1  0.115720  0.231653  0.271610  1
  Sn  Sn17  1  0.884355  0.115775  0.728495  1
  Sn  Sn18  1  0.231421  0.115710  0.728733  1
  Sn  Sn19  1  0.884355  0.768580  0.728495  1
  Sn  Sn20  1  0.343846  0.000077  0.000043  1
  Sn  Sn21  1  0.656111  0.656221  0.999977  1
  Sn  Sn22  1  0.000141  0.343943  0.000118  1
  Sn  Sn23  1  0.343846  0.343769  0.000043  1
  Sn  Sn24  1  0.000141  0.656199  0.000118  1
  Sn  Sn25  1  0.656111  0.999890  0.999977  1
  Sn  Sn26  1  0.782271  0.563445  0.453614  1
  Sn  Sn27  1  0.782271  0.218826  0.453614  1
  Sn  Sn28  1  0.436619  0.218310  0.453488  1
  Sn  Sn29  1  0.217808  0.436689  0.546116  1
  Sn  Sn30  1  0.217808  0.781119  0.546116  1
  Sn  Sn31  1  0.563377  0.781688  0.546478  1
  Sn  Sn32  1  0.666986  0.333493  0.186063  1
  Sn  Sn33  1  0.333366  0.666684  0.813930  1
  Sn  Sn34  1  0.666782  0.333390  0.885315  1
  Sn  Sn35  1  0.332377  0.666189  0.114967  1
