# generated using pymatgen
data_Sr2MnCd(B2O5)2
_symmetry_space_group_name_H-M   'P 1'
_cell_length_a   5.78219900
_cell_length_b   12.01866600
_cell_length_c   12.72728900
_cell_angle_alpha   90.00000000
_cell_angle_beta   90.00000000
_cell_angle_gamma   90.00000000
_symmetry_Int_Tables_number   1
_chemical_formula_structural   Sr2MnCd(B2O5)2
_chemical_formula_sum   'Sr8 Mn4 Cd4 B16 O40'
_cell_volume   884.47427575
_cell_formula_units_Z   4
loop_
 _symmetry_equiv_pos_site_id
 _symmetry_equiv_pos_as_xyz
  1  'x, y, z'
loop_
 _atom_site_type_symbol
 _atom_site_label
 _atom_site_symmetry_multiplicity
 _atom_site_fract_x
 _atom_site_fract_y
 _atom_site_fract_z
 _atom_site_occupancy
  Sr  Sr0  1  0.887195  0.621628  0.412222  1
  Sr  Sr1  1  0.612805  0.121628  0.587778  1
  Sr  Sr2  1  0.387195  0.378372  0.087778  1
  Sr  Sr3  1  0.112805  0.878372  0.912222  1
  Sr  Sr4  1  0.117780  0.382615  0.589380  1
  Sr  Sr5  1  0.382220  0.882615  0.410620  1
  Sr  Sr6  1  0.617780  0.617385  0.910620  1
  Sr  Sr7  1  0.882220  0.117385  0.089380  1
  Mn  Mn8  1  0.130536  0.630339  0.736380  1
  Mn  Mn9  1  0.369464  0.130339  0.263620  1
  Mn  Mn10  1  0.630536  0.369661  0.763620  1
  Mn  Mn11  1  0.869464  0.869661  0.236380  1
  Cd  Cd12  1  0.870073  0.364803  0.265308  1
  Cd  Cd13  1  0.629927  0.864803  0.734692  1
  Cd  Cd14  1  0.370073  0.635197  0.234692  1
  Cd  Cd15  1  0.129927  0.135197  0.765308  1
  B  B16  1  0.626342  0.610443  0.674991  1
  B  B17  1  0.873658  0.110443  0.325009  1
  B  B18  1  0.126342  0.389557  0.825009  1
  B  B19  1  0.373658  0.889557  0.174991  1
  B  B20  1  0.373879  0.384034  0.327101  1
  B  B21  1  0.126121  0.884034  0.672899  1
  B  B22  1  0.873879  0.615966  0.172899  1
  B  B23  1  0.626121  0.115966  0.827101  1
  B  B24  1  0.375547  0.623197  0.514740  1
  B  B25  1  0.124453  0.123197  0.485260  1
  B  B26  1  0.875547  0.376803  0.985260  1
  B  B27  1  0.624453  0.876803  0.014740  1
  B  B28  1  0.623761  0.379641  0.491196  1
  B  B29  1  0.876239  0.879641  0.508804  1
  B  B30  1  0.123761  0.620359  0.008804  1
  B  B31  1  0.376239  0.120359  0.991196  1
  O  O32  1  0.173687  0.594982  0.564216  1
  O  O33  1  0.326313  0.094982  0.435784  1
  O  O34  1  0.673687  0.405018  0.935784  1
  O  O35  1  0.826313  0.905018  0.064216  1
  O  O36  1  0.827465  0.407817  0.443149  1
  O  O37  1  0.672535  0.907817  0.556851  1
  O  O38  1  0.327465  0.592183  0.056851  1
  O  O39  1  0.172535  0.092183  0.943149  1
  O  O40  1  0.593705  0.602176  0.565544  1
  O  O41  1  0.906295  0.102176  0.434456  1
  O  O42  1  0.093705  0.397824  0.934456  1
  O  O43  1  0.406295  0.897824  0.065544  1
  O  O44  1  0.409745  0.395950  0.435877  1
  O  O45  1  0.090255  0.895950  0.564123  1
  O  O46  1  0.909745  0.604050  0.064123  1
  O  O47  1  0.590255  0.104050  0.935877  1
  O  O48  1  0.489124  0.683858  0.730717  1
  O  O49  1  0.010876  0.183858  0.269283  1
  O  O50  1  0.989124  0.316142  0.769283  1
  O  O51  1  0.510876  0.816142  0.230717  1
  O  O52  1  0.493168  0.303313  0.272310  1
  O  O53  1  0.006832  0.803313  0.727690  1
  O  O54  1  0.993168  0.696687  0.227690  1
  O  O55  1  0.506832  0.196687  0.772310  1
  O  O56  1  0.792081  0.547186  0.724365  1
  O  O57  1  0.707919  0.047186  0.275635  1
  O  O58  1  0.292081  0.452814  0.775635  1
  O  O59  1  0.207919  0.952814  0.224365  1
  O  O60  1  0.218589  0.452506  0.276486  1
  O  O61  1  0.281411  0.952506  0.723514  1
  O  O62  1  0.718589  0.547494  0.223514  1
  O  O63  1  0.781411  0.047494  0.776486  1
  O  O64  1  0.104671  0.662919  0.909480  1
  O  O65  1  0.395329  0.162919  0.090520  1
  O  O66  1  0.604671  0.337081  0.590520  1
  O  O67  1  0.895329  0.837081  0.409480  1
  O  O68  1  0.890169  0.329754  0.082983  1
  O  O69  1  0.609831  0.829754  0.917017  1
  O  O70  1  0.390169  0.670246  0.417017  1
  O  O71  1  0.109831  0.170246  0.582983  1
