# generated using pymatgen
data_Zr6AlCoTe
_symmetry_space_group_name_H-M   'P 1'
_cell_length_a   7.86343300
_cell_length_b   7.86343161
_cell_length_c   3.51076200
_cell_angle_alpha   90.00000000
_cell_angle_beta   90.00000000
_cell_angle_gamma   119.99999323
_symmetry_Int_Tables_number   1
_chemical_formula_structural   Zr6AlCoTe
_chemical_formula_sum   'Zr6 Al1 Co1 Te1'
_cell_volume   187.99935317
_cell_formula_units_Z   1
loop_
 _symmetry_equiv_pos_site_id
 _symmetry_equiv_pos_as_xyz
  1  'x, y, z'
loop_
 _atom_site_type_symbol
 _atom_site_label
 _atom_site_symmetry_multiplicity
 _atom_site_fract_x
 _atom_site_fract_y
 _atom_site_fract_z
 _atom_site_occupancy
  Zr  Zr0  1  0.593906  0.995633  0.000000  1
  Zr  Zr1  1  0.401728  0.406094  0.000000  1
  Zr  Zr2  1  0.004367  0.598272  0.000000  1
  Zr  Zr3  1  0.240333  0.993444  0.500000  1
  Zr  Zr4  1  0.753111  0.759667  0.500000  1
  Zr  Zr5  1  0.006556  0.246889  0.500000  1
  Al  Al6  1  0.333333  0.666667  0.500000  1
  Co  Co7  1  0.000000  0.000000  0.000000  1
  Te  Te8  1  0.666667  0.333333  0.500000  1
