# generated using pymatgen
data_YTh5PtBr15
_symmetry_space_group_name_H-M   'P 1'
_cell_length_a   10.19642700
_cell_length_b   10.19647070
_cell_length_c   10.19647061
_cell_angle_alpha   109.84394548
_cell_angle_beta   109.28506022
_cell_angle_gamma   109.28507101
_symmetry_Int_Tables_number   1
_chemical_formula_structural   YTh5PtBr15
_chemical_formula_sum   'Y1 Th5 Pt1 Br15'
_cell_volume   816.04348424
_cell_formula_units_Z   1
loop_
 _symmetry_equiv_pos_site_id
 _symmetry_equiv_pos_as_xyz
  1  'x, y, z'
loop_
 _atom_site_type_symbol
 _atom_site_label
 _atom_site_symmetry_multiplicity
 _atom_site_fract_x
 _atom_site_fract_y
 _atom_site_fract_z
 _atom_site_occupancy
  Y  Y0  1  0.999999  0.243253  0.243253  1
  Th  Th1  1  0.000001  0.751291  0.751291  1
  Th  Th2  1  0.242472  0.003564  0.246035  1
  Th  Th3  1  0.757529  0.003563  0.761092  1
  Th  Th4  1  0.242472  0.246035  0.003564  1
  Th  Th5  1  0.757529  0.761092  0.003563  1
  Pt  Pt6  1  0.000001  0.995678  0.995678  1
  Br  Br7  1  0.498549  0.249022  0.249022  1
  Br  Br8  1  0.501454  0.750475  0.750475  1
  Br  Br9  1  0.999999  0.249020  0.750473  1
  Br  Br10  1  0.999999  0.750473  0.249020  1
  Br  Br11  1  0.244157  0.494352  0.250194  1
  Br  Br12  1  0.755842  0.006036  0.250193  1
  Br  Br13  1  0.750540  0.501416  0.750874  1
  Br  Br14  1  0.249458  0.000332  0.750873  1
  Br  Br15  1  0.244157  0.250194  0.494352  1
  Br  Br16  1  0.750540  0.750874  0.501416  1
  Br  Br17  1  0.755842  0.250193  0.006036  1
  Br  Br18  1  0.249458  0.750873  0.000332  1
  Br  Br19  1  0.000000  0.496564  0.496564  1
  Br  Br20  1  0.500000  0.997851  0.497850  1
  Br  Br21  1  0.500000  0.497850  0.997851  1
