# generated using pymatgen
data_Nd2Cd2Sn3Hg
_symmetry_space_group_name_H-M   'P 1'
_cell_length_a   4.76425900
_cell_length_b   4.83633900
_cell_length_c   9.04150700
_cell_angle_alpha   90.00000000
_cell_angle_beta   90.00000000
_cell_angle_gamma   90.00000000
_symmetry_Int_Tables_number   1
_chemical_formula_structural   Nd2Cd2Sn3Hg
_chemical_formula_sum   'Nd2 Cd2 Sn3 Hg1'
_cell_volume   208.33053098
_cell_formula_units_Z   1
loop_
 _symmetry_equiv_pos_site_id
 _symmetry_equiv_pos_as_xyz
  1  'x, y, z'
loop_
 _atom_site_type_symbol
 _atom_site_label
 _atom_site_symmetry_multiplicity
 _atom_site_fract_x
 _atom_site_fract_y
 _atom_site_fract_z
 _atom_site_occupancy
  Nd  Nd0  1  0.000000  0.000000  0.245794  1
  Nd  Nd1  1  0.000000  0.000000  0.754206  1
  Cd  Cd2  1  0.500000  0.500000  0.252177  1
  Cd  Cd3  1  0.500000  0.500000  0.747823  1
  Sn  Sn4  1  0.000000  0.500000  0.000000  1
  Sn  Sn5  1  0.500000  0.000000  0.500000  1
  Sn  Sn6  1  0.500000  0.000000  0.000000  1
  Hg  Hg7  1  0.000000  0.500000  0.500000  1
