# generated using pymatgen
data_Ho3HfIn2Ir3
_symmetry_space_group_name_H-M   'P 1'
_cell_length_a   7.45436108
_cell_length_b   7.23216732
_cell_length_c   4.13399900
_cell_angle_alpha   90.00000000
_cell_angle_beta   90.00000000
_cell_angle_gamma   119.01877834
_symmetry_Int_Tables_number   1
_chemical_formula_structural   Ho3HfIn2Ir3
_chemical_formula_sum   'Ho3 Hf1 In2 Ir3'
_cell_volume   194.89001427
_cell_formula_units_Z   1
loop_
 _symmetry_equiv_pos_site_id
 _symmetry_equiv_pos_as_xyz
  1  'x, y, z'
loop_
 _atom_site_type_symbol
 _atom_site_label
 _atom_site_symmetry_multiplicity
 _atom_site_fract_x
 _atom_site_fract_y
 _atom_site_fract_z
 _atom_site_occupancy
  Ho  Ho0  1  0.585194  0.588918  0.000000  1
  Ho  Ho1  1  0.414806  0.003724  0.000000  1
  Ho  Ho2  1  0.000000  0.394461  0.000000  1
  Hf  Hf3  1  0.000000  0.751601  0.500000  1
  In  In4  1  0.256724  0.255277  0.500000  1
  In  In5  1  0.743276  0.998553  0.500000  1
  Ir  Ir6  1  0.000000  0.979411  0.000000  1
  Ir  Ir7  1  0.681421  0.354738  0.500000  1
  Ir  Ir8  1  0.318579  0.673318  0.500000  1
