# generated using pymatgen
data_Pa8VSe17
_symmetry_space_group_name_H-M   'P 1'
_cell_length_a   8.27263249
_cell_length_b   8.27345536
_cell_length_c   10.94101250
_cell_angle_alpha   80.45317727
_cell_angle_beta   80.44416670
_cell_angle_gamma   64.58770902
_symmetry_Int_Tables_number   1
_chemical_formula_structural   Pa8VSe17
_chemical_formula_sum   'Pa8 V1 Se17'
_cell_volume   663.22435012
_cell_formula_units_Z   1
loop_
 _symmetry_equiv_pos_site_id
 _symmetry_equiv_pos_as_xyz
  1  'x, y, z'
loop_
 _atom_site_type_symbol
 _atom_site_label
 _atom_site_symmetry_multiplicity
 _atom_site_fract_x
 _atom_site_fract_y
 _atom_site_fract_z
 _atom_site_occupancy
  Pa  Pa0  1  0.818312  0.300590  0.298436  1
  Pa  Pa1  1  0.300584  0.818311  0.298423  1
  Pa  Pa2  1  0.181688  0.699410  0.701564  1
  Pa  Pa3  1  0.699416  0.181689  0.701577  1
  Pa  Pa4  1  0.202049  0.202059  0.541801  1
  Pa  Pa5  1  0.797951  0.797941  0.458199  1
  Pa  Pa6  1  0.682099  0.682091  0.984593  1
  Pa  Pa7  1  0.317901  0.317909  0.015407  1
  V  V8  1  0.000000  0.000000  0.000000  1
  Se  Se9  1  0.819549  0.435021  0.535455  1
  Se  Se10  1  0.435009  0.819540  0.535483  1
  Se  Se11  1  0.180451  0.564979  0.464545  1
  Se  Se12  1  0.564991  0.180460  0.464517  1
  Se  Se13  1  0.943261  0.324035  0.027890  1
  Se  Se14  1  0.324039  0.943266  0.027877  1
  Se  Se15  1  0.056739  0.675965  0.972110  1
  Se  Se16  1  0.675961  0.056734  0.972123  1
  Se  Se17  1  0.213963  0.213988  0.275995  1
  Se  Se18  1  0.786037  0.786012  0.724005  1
  Se  Se19  1  0.060556  0.060534  0.771806  1
  Se  Se20  1  0.939444  0.939466  0.228194  1
  Se  Se21  1  0.301594  0.301633  0.754922  1
  Se  Se22  1  0.698406  0.698367  0.245078  1
  Se  Se23  1  0.520959  0.520987  0.831828  1
  Se  Se24  1  0.479041  0.479013  0.168172  1
  Se  Se25  1  0.000000  0.000000  0.500000  1
