# generated using pymatgen
data_Rb4Zr6NiI18
_symmetry_space_group_name_H-M   'P 1'
_cell_length_a   11.80007765
_cell_length_b   11.80007822
_cell_length_c   11.45242186
_cell_angle_alpha   77.47716325
_cell_angle_beta   77.47716176
_cell_angle_gamma   117.76662505
_symmetry_Int_Tables_number   1
_chemical_formula_structural   Rb4Zr6NiI18
_chemical_formula_sum   'Rb4 Zr6 Ni1 I18'
_cell_volume   1280.82663451
_cell_formula_units_Z   1
loop_
 _symmetry_equiv_pos_site_id
 _symmetry_equiv_pos_as_xyz
  1  'x, y, z'
loop_
 _atom_site_type_symbol
 _atom_site_label
 _atom_site_symmetry_multiplicity
 _atom_site_fract_x
 _atom_site_fract_y
 _atom_site_fract_z
 _atom_site_occupancy
  Rb  Rb0  1  0.771099  0.445773  0.677974  1
  Rb  Rb1  1  0.554227  0.228901  0.322026  1
  Rb  Rb2  1  0.228901  0.554227  0.322026  1
  Rb  Rb3  1  0.445773  0.771099  0.677974  1
  Zr  Zr4  1  0.121122  0.121122  0.137630  1
  Zr  Zr5  1  0.878878  0.878878  0.862370  1
  Zr  Zr6  1  0.951748  0.770184  0.143972  1
  Zr  Zr7  1  0.229816  0.048252  0.856028  1
  Zr  Zr8  1  0.048252  0.229816  0.856028  1
  Zr  Zr9  1  0.770184  0.951748  0.143972  1
  Ni  Ni10  1  0.000000  0.000000  0.000000  1
  I  I11  1  0.807625  0.601276  0.008338  1
  I  I12  1  0.398725  0.192375  0.991662  1
  I  I13  1  0.192375  0.398725  0.991662  1
  I  I14  1  0.601275  0.807625  0.008338  1
  I  I15  1  0.205696  0.794304  0.000000  1
  I  I16  1  0.794304  0.205696  0.000000  1
  I  I17  1  0.316363  0.316363  0.675033  1
  I  I18  1  0.683637  0.683637  0.324967  1
  I  I19  1  0.889066  0.492760  0.324335  1
  I  I20  1  0.507240  0.110934  0.675665  1
  I  I21  1  0.110934  0.507240  0.675665  1
  I  I22  1  0.492760  0.889066  0.324335  1
  I  I23  1  0.263666  0.263666  0.300769  1
  I  I24  1  0.736334  0.736334  0.699231  1
  I  I25  1  0.078802  0.875799  0.319025  1
  I  I26  1  0.124201  0.921198  0.680975  1
  I  I27  1  0.921198  0.124201  0.680975  1
  I  I28  1  0.875799  0.078802  0.319025  1
