# generated using pymatgen
data_CsNd3Te8
_symmetry_space_group_name_H-M   'P 1'
_cell_length_a   9.04141887
_cell_length_b   12.95475600
_cell_length_c   14.49900300
_cell_angle_alpha   90.00000000
_cell_angle_beta   99.96396773
_cell_angle_gamma   90.00000000
_symmetry_Int_Tables_number   1
_chemical_formula_structural   CsNd3Te8
_chemical_formula_sum   'Cs4 Nd12 Te32'
_cell_volume   1672.64391799
_cell_formula_units_Z   4
loop_
 _symmetry_equiv_pos_site_id
 _symmetry_equiv_pos_as_xyz
  1  'x, y, z'
loop_
 _atom_site_type_symbol
 _atom_site_label
 _atom_site_symmetry_multiplicity
 _atom_site_fract_x
 _atom_site_fract_y
 _atom_site_fract_z
 _atom_site_occupancy
  Cs  Cs0  1  0.251586  0.590282  0.535047  1
  Cs  Cs1  1  0.748414  0.409718  0.464953  1
  Cs  Cs2  1  0.248414  0.090282  0.464953  1
  Cs  Cs3  1  0.751586  0.909718  0.535047  1
  Nd  Nd4  1  0.591124  0.584241  0.856348  1
  Nd  Nd5  1  0.916525  0.750723  0.146906  1
  Nd  Nd6  1  0.583475  0.250723  0.853094  1
  Nd  Nd7  1  0.091124  0.915759  0.856348  1
  Nd  Nd8  1  0.576999  0.915063  0.855673  1
  Nd  Nd9  1  0.083475  0.249277  0.853094  1
  Nd  Nd10  1  0.423001  0.084937  0.144327  1
  Nd  Nd11  1  0.408876  0.415759  0.143652  1
  Nd  Nd12  1  0.908876  0.084241  0.143652  1
  Nd  Nd13  1  0.076999  0.584937  0.855673  1
  Nd  Nd14  1  0.416525  0.749277  0.146906  1
  Nd  Nd15  1  0.923001  0.415063  0.144327  1
  Te  Te16  1  0.714327  0.100427  0.319437  1
  Te  Te17  1  0.353270  0.083849  0.917087  1
  Te  Te18  1  0.349301  0.421130  0.915308  1
  Te  Te19  1  0.849301  0.078870  0.915308  1
  Te  Te20  1  0.147849  0.245608  0.079534  1
  Te  Te21  1  0.285673  0.899573  0.680563  1
  Te  Te22  1  0.647849  0.254392  0.079534  1
  Te  Te23  1  0.036693  0.749331  0.686020  1
  Te  Te24  1  0.650699  0.578870  0.084692  1
  Te  Te25  1  0.785712  0.231894  0.676676  1
  Te  Te26  1  0.853270  0.416151  0.917087  1
  Te  Te27  1  0.529683  0.415624  0.682199  1
  Te  Te28  1  0.029683  0.084376  0.682199  1
  Te  Te29  1  0.285712  0.268106  0.676676  1
  Te  Te30  1  0.536693  0.750669  0.686020  1
  Te  Te31  1  0.547316  0.083294  0.683764  1
  Te  Te32  1  0.214288  0.768106  0.323324  1
  Te  Te33  1  0.463307  0.249331  0.313980  1
  Te  Te34  1  0.785673  0.600427  0.680563  1
  Te  Te35  1  0.452684  0.916706  0.316236  1
  Te  Te36  1  0.352151  0.745608  0.920466  1
  Te  Te37  1  0.470317  0.584376  0.317801  1
  Te  Te38  1  0.714288  0.731894  0.323324  1
  Te  Te39  1  0.146730  0.583849  0.082913  1
  Te  Te40  1  0.963307  0.250669  0.313980  1
  Te  Te41  1  0.952684  0.583294  0.316236  1
  Te  Te42  1  0.852151  0.754392  0.920466  1
  Te  Te43  1  0.970317  0.915624  0.317801  1
  Te  Te44  1  0.047316  0.416706  0.683764  1
  Te  Te45  1  0.214327  0.399573  0.319437  1
  Te  Te46  1  0.150699  0.921130  0.084692  1
  Te  Te47  1  0.646730  0.916151  0.082913  1
