# generated using pymatgen
data_YbPr2MnCrC6
_symmetry_space_group_name_H-M   'P 1'
_cell_length_a   8.19713401
_cell_length_b   8.21036777
_cell_length_c   5.17939200
_cell_angle_alpha   90.00000000
_cell_angle_beta   90.00000000
_cell_angle_gamma   120.16507476
_symmetry_Int_Tables_number   1
_chemical_formula_structural   YbPr2MnCrC6
_chemical_formula_sum   'Yb2 Pr4 Mn2 Cr2 C12'
_cell_volume   301.37640460
_cell_formula_units_Z   2
loop_
 _symmetry_equiv_pos_site_id
 _symmetry_equiv_pos_as_xyz
  1  'x, y, z'
loop_
 _atom_site_type_symbol
 _atom_site_label
 _atom_site_symmetry_multiplicity
 _atom_site_fract_x
 _atom_site_fract_y
 _atom_site_fract_z
 _atom_site_occupancy
  Yb  Yb0  1  0.616708  0.689209  0.750000  1
  Yb  Yb1  1  0.922791  0.615084  0.250000  1
  Pr  Pr2  1  0.685363  0.074288  0.250000  1
  Pr  Pr3  1  0.314690  0.924091  0.750000  1
  Pr  Pr4  1  0.076487  0.394614  0.750000  1
  Pr  Pr5  1  0.395692  0.321379  0.250000  1
  Mn  Mn6  1  0.667358  0.333206  0.750000  1
  Mn  Mn7  1  0.333619  0.665229  0.250000  1
  Cr  Cr8  1  0.998182  0.996832  0.500298  1
  Cr  Cr9  1  0.998182  0.996832  0.999702  1
  C  C10  1  0.949913  0.770664  0.750000  1
  C  C11  1  0.182034  0.950878  0.250000  1
  C  C12  1  0.772050  0.816682  0.250000  1
  C  C13  1  0.230087  0.184334  0.750000  1
  C  C14  1  0.816295  0.044483  0.750000  1
  C  C15  1  0.046635  0.228718  0.250000  1
  C  C16  1  0.854171  0.579304  0.750000  1
  C  C17  1  0.271413  0.848632  0.250000  1
  C  C18  1  0.579568  0.719402  0.250000  1
  C  C19  1  0.423408  0.281144  0.750000  1
  C  C20  1  0.142535  0.421432  0.250000  1
  C  C21  1  0.722818  0.143561  0.750000  1
