# generated using pymatgen
data_TbY3Ga12Tc
_symmetry_space_group_name_H-M   'P 1'
_cell_length_a   7.49817715
_cell_length_b   7.48999759
_cell_length_c   7.49817642
_cell_angle_alpha   109.44913824
_cell_angle_beta   109.49331429
_cell_angle_gamma   109.44912602
_symmetry_Int_Tables_number   1
_chemical_formula_structural   TbY3Ga12Tc
_chemical_formula_sum   'Tb1 Y3 Ga12 Tc1'
_cell_volume   324.25701413
_cell_formula_units_Z   1
loop_
 _symmetry_equiv_pos_site_id
 _symmetry_equiv_pos_as_xyz
  1  'x, y, z'
loop_
 _atom_site_type_symbol
 _atom_site_label
 _atom_site_symmetry_multiplicity
 _atom_site_fract_x
 _atom_site_fract_y
 _atom_site_fract_z
 _atom_site_occupancy
  Tb  Tb0  1  0.000000  0.500000  0.000000  1
  Y  Y1  1  0.500000  0.500000  0.500000  1
  Y  Y2  1  0.000000  0.000000  0.500000  1
  Y  Y3  1  0.500000  0.000000  0.000000  1
  Ga  Ga4  1  0.500023  0.750011  0.250011  1
  Ga  Ga5  1  0.499977  0.249989  0.749989  1
  Ga  Ga6  1  0.250011  0.500000  0.749989  1
  Ga  Ga7  1  0.749989  0.500000  0.250011  1
  Ga  Ga8  1  0.749989  0.249989  0.499977  1
  Ga  Ga9  1  0.250011  0.750011  0.500023  1
  Ga  Ga10  1  0.000000  0.291741  0.291580  1
  Ga  Ga11  1  0.000000  0.708259  0.708420  1
  Ga  Ga12  1  0.291580  0.999838  0.291580  1
  Ga  Ga13  1  0.708420  0.000162  0.708420  1
  Ga  Ga14  1  0.291580  0.291741  0.000000  1
  Ga  Ga15  1  0.708420  0.708259  0.000000  1
  Tc  Tc16  1  0.000000  0.000000  0.000000  1
