# generated using pymatgen
data_TbCeDy(SnIr)3
_symmetry_space_group_name_H-M   'P 1'
_cell_length_a   7.49410291
_cell_length_b   7.55723829
_cell_length_c   3.98119300
_cell_angle_alpha   90.00000000
_cell_angle_beta   90.00000000
_cell_angle_gamma   120.24337280
_symmetry_Int_Tables_number   1
_chemical_formula_structural   TbCeDy(SnIr)3
_chemical_formula_sum   'Tb1 Ce1 Dy1 Sn3 Ir3'
_cell_volume   194.78537360
_cell_formula_units_Z   1
loop_
 _symmetry_equiv_pos_site_id
 _symmetry_equiv_pos_as_xyz
  1  'x, y, z'
loop_
 _atom_site_type_symbol
 _atom_site_label
 _atom_site_symmetry_multiplicity
 _atom_site_fract_x
 _atom_site_fract_y
 _atom_site_fract_z
 _atom_site_occupancy
  Tb  Tb0  1  0.591740  0.999409  0.000000  1
  Ce  Ce1  1  0.999967  0.585598  0.000000  1
  Dy  Dy2  1  0.407931  0.407347  0.000000  1
  Sn  Sn3  1  0.000333  0.251644  0.500000  1
  Sn  Sn4  1  0.736147  0.742815  0.500000  1
  Sn  Sn5  1  0.263761  0.006940  0.500000  1
  Ir  Ir6  1  0.000519  0.996965  0.000000  1
  Ir  Ir7  1  0.678610  0.344565  0.500000  1
  Ir  Ir8  1  0.320991  0.664717  0.500000  1
