# generated using pymatgen
data_Y8Si16(TcW3)3
_symmetry_space_group_name_H-M   'P 1'
_cell_length_a   6.88552132
_cell_length_b   6.88552085
_cell_length_c   12.73657109
_cell_angle_alpha   89.97526435
_cell_angle_beta   89.97526221
_cell_angle_gamma   89.79517505
_symmetry_Int_Tables_number   1
_chemical_formula_structural   Y8Si16(TcW3)3
_chemical_formula_sum   'Y8 Si16 Tc3 W9'
_cell_volume   603.84196689
_cell_formula_units_Z   1
loop_
 _symmetry_equiv_pos_site_id
 _symmetry_equiv_pos_as_xyz
  1  'x, y, z'
loop_
 _atom_site_type_symbol
 _atom_site_label
 _atom_site_symmetry_multiplicity
 _atom_site_fract_x
 _atom_site_fract_y
 _atom_site_fract_z
 _atom_site_occupancy
  Y  Y0  1  0.002343  0.661850  0.032230  1
  Y  Y1  1  0.999924  0.337535  0.529959  1
  Y  Y2  1  0.338150  0.997657  0.467770  1
  Y  Y3  1  0.164593  0.499140  0.780804  1
  Y  Y4  1  0.837201  0.501793  0.281039  1
  Y  Y5  1  0.498207  0.162799  0.218961  1
  Y  Y6  1  0.500860  0.835407  0.719196  1
  Y  Y7  1  0.662465  0.000076  0.970041  1
  Si  Si8  1  0.035394  0.715250  0.434718  1
  Si  Si9  1  0.623601  0.302722  0.435562  1
  Si  Si10  1  0.374896  0.697908  0.936272  1
  Si  Si11  1  0.204137  0.126368  0.684134  1
  Si  Si12  1  0.302092  0.625104  0.563728  1
  Si  Si13  1  0.697278  0.376399  0.064438  1
  Si  Si14  1  0.801180  0.875939  0.186022  1
  Si  Si15  1  0.124061  0.198820  0.313978  1
  Si  Si16  1  0.966589  0.287628  0.937515  1
  Si  Si17  1  0.712372  0.033411  0.562485  1
  Si  Si18  1  0.212975  0.465499  0.185546  1
  Si  Si19  1  0.791114  0.538548  0.682778  1
  Si  Si20  1  0.461452  0.208886  0.817222  1
  Si  Si21  1  0.534501  0.787025  0.314454  1
  Si  Si22  1  0.284750  0.964606  0.065282  1
  Si  Si23  1  0.873632  0.795863  0.815866  1
  Tc  Tc24  1  0.668310  0.669443  0.500971  1
  Tc  Tc25  1  0.167142  0.832858  0.250000  1
  Tc  Tc26  1  0.330557  0.331690  0.999029  1
  W  W27  1  0.004433  0.839203  0.627109  1
  W  W28  1  0.992571  0.167490  0.126819  1
  W  W29  1  0.832510  0.007429  0.373181  1
  W  W30  1  0.333595  0.494724  0.375371  1
  W  W31  1  0.666960  0.499624  0.873273  1
  W  W32  1  0.500376  0.333040  0.626727  1
  W  W33  1  0.505276  0.666405  0.124629  1
  W  W34  1  0.160797  0.995567  0.872891  1
  W  W35  1  0.833705  0.166295  0.750000  1
