# generated using pymatgen
data_Dy2Ho6In3Ir
_symmetry_space_group_name_H-M   'P 1'
_cell_length_a   10.39842400
_cell_length_b   10.39935990
_cell_length_c   7.04044100
_cell_angle_alpha   89.99638858
_cell_angle_beta   90.00000000
_cell_angle_gamma   119.99702302
_symmetry_Int_Tables_number   1
_chemical_formula_structural   Dy2Ho6In3Ir
_chemical_formula_sum   'Dy4 Ho12 In6 Ir2'
_cell_volume   659.35249166
_cell_formula_units_Z   2
loop_
 _symmetry_equiv_pos_site_id
 _symmetry_equiv_pos_as_xyz
  1  'x, y, z'
loop_
 _atom_site_type_symbol
 _atom_site_label
 _atom_site_symmetry_multiplicity
 _atom_site_fract_x
 _atom_site_fract_y
 _atom_site_fract_z
 _atom_site_occupancy
  Dy  Dy0  1  0.533231  0.066462  0.506538  1
  Dy  Dy1  1  0.933621  0.466809  0.506552  1
  Dy  Dy2  1  0.533188  0.466809  0.506552  1
  Dy  Dy3  1  0.466714  0.933429  0.006511  1
  Ho  Ho4  1  0.066718  0.533351  0.006544  1
  Ho  Ho5  1  0.466633  0.533351  0.006544  1
  Ho  Ho6  1  0.176581  0.353161  0.713499  1
  Ho  Ho7  1  0.646973  0.823422  0.713422  1
  Ho  Ho8  1  0.176451  0.823422  0.713422  1
  Ho  Ho9  1  0.823461  0.646923  0.213153  1
  Ho  Ho10  1  0.353031  0.176617  0.213241  1
  Ho  Ho11  1  0.823584  0.176617  0.213241  1
  Ho  Ho12  1  0.666714  0.333428  0.887692  1
  Ho  Ho13  1  0.333275  0.666551  0.387554  1
  Ho  Ho14  1  0.999986  0.999973  0.493292  1
  Ho  Ho15  1  0.999999  0.999999  0.993345  1
  In  In16  1  0.837363  0.674726  0.751972  1
  In  In17  1  0.325274  0.162653  0.751929  1
  In  In18  1  0.837380  0.162653  0.751929  1
  In  In19  1  0.162707  0.325415  0.251729  1
  In  In20  1  0.674676  0.837271  0.251845  1
  In  In21  1  0.162595  0.837271  0.251845  1
  Ir  Ir22  1  0.666663  0.333324  0.282658  1
  Ir  Ir23  1  0.333181  0.666364  0.783037  1
