# generated using pymatgen
data_Zr2PaMnPd12
_symmetry_space_group_name_H-M   'P 1'
_cell_length_a   5.70922500
_cell_length_b   5.70922585
_cell_length_c   9.37141500
_cell_angle_alpha   90.00000000
_cell_angle_beta   90.00000000
_cell_angle_gamma   120.00002250
_symmetry_Int_Tables_number   1
_chemical_formula_structural   Zr2PaMnPd12
_chemical_formula_sum   'Zr2 Pa1 Mn1 Pd12'
_cell_volume   264.53923050
_cell_formula_units_Z   1
loop_
 _symmetry_equiv_pos_site_id
 _symmetry_equiv_pos_as_xyz
  1  'x, y, z'
loop_
 _atom_site_type_symbol
 _atom_site_label
 _atom_site_symmetry_multiplicity
 _atom_site_fract_x
 _atom_site_fract_y
 _atom_site_fract_z
 _atom_site_occupancy
  Zr  Zr0  1  0.000000  0.000000  0.491004  1
  Zr  Zr1  1  0.000000  0.000000  0.008996  1
  Pa  Pa2  1  0.666667  0.333333  0.750000  1
  Mn  Mn3  1  0.333333  0.666667  0.250000  1
  Pd  Pd4  1  0.499489  0.500511  0.497456  1
  Pd  Pd5  1  0.499489  0.998979  0.497456  1
  Pd  Pd6  1  0.001021  0.500511  0.497456  1
  Pd  Pd7  1  0.499489  0.500511  0.002544  1
  Pd  Pd8  1  0.499489  0.998979  0.002544  1
  Pd  Pd9  1  0.001021  0.500511  0.002544  1
  Pd  Pd10  1  0.830313  0.169687  0.250000  1
  Pd  Pd11  1  0.830313  0.660626  0.250000  1
  Pd  Pd12  1  0.339374  0.169687  0.250000  1
  Pd  Pd13  1  0.169017  0.830983  0.750000  1
  Pd  Pd14  1  0.169017  0.338034  0.750000  1
  Pd  Pd15  1  0.661966  0.830983  0.750000  1
