# generated using pymatgen
data_TaTi3(Mn3Be)2
_symmetry_space_group_name_H-M   'P 1'
_cell_length_a   4.68535500
_cell_length_b   4.68535436
_cell_length_c   7.76740000
_cell_angle_alpha   90.00000000
_cell_angle_beta   90.00000000
_cell_angle_gamma   119.99999749
_symmetry_Int_Tables_number   1
_chemical_formula_structural   TaTi3(Mn3Be)2
_chemical_formula_sum   'Ta1 Ti3 Mn6 Be2'
_cell_volume   147.66965418
_cell_formula_units_Z   1
loop_
 _symmetry_equiv_pos_site_id
 _symmetry_equiv_pos_as_xyz
  1  'x, y, z'
loop_
 _atom_site_type_symbol
 _atom_site_label
 _atom_site_symmetry_multiplicity
 _atom_site_fract_x
 _atom_site_fract_y
 _atom_site_fract_z
 _atom_site_occupancy
  Ta  Ta0  1  0.333333  0.666667  0.435069  1
  Ti  Ti1  1  0.666667  0.333333  0.937286  1
  Ti  Ti2  1  0.666667  0.333333  0.566158  1
  Ti  Ti3  1  0.333333  0.666667  0.059719  1
  Mn  Mn4  1  0.664121  0.832060  0.750805  1
  Mn  Mn5  1  0.337174  0.168587  0.249459  1
  Mn  Mn6  1  0.831413  0.168587  0.249459  1
  Mn  Mn7  1  0.167940  0.335879  0.750805  1
  Mn  Mn8  1  0.167940  0.832060  0.750805  1
  Mn  Mn9  1  0.831413  0.662826  0.249459  1
  Be  Be10  1  0.000000  0.000000  0.500700  1
  Be  Be11  1  0.000000  0.000000  0.000275  1
