# generated using pymatgen
data_CaTbNbIr3
_symmetry_space_group_name_H-M   'P 1'
_cell_length_a   5.27334096
_cell_length_b   5.27333966
_cell_length_c   5.27334008
_cell_angle_alpha   64.83570380
_cell_angle_beta   64.83570878
_cell_angle_gamma   64.83569431
_symmetry_Int_Tables_number   1
_chemical_formula_structural   CaTbNbIr3
_chemical_formula_sum   'Ca1 Tb1 Nb1 Ir3'
_cell_volume   114.65656613
_cell_formula_units_Z   1
loop_
 _symmetry_equiv_pos_site_id
 _symmetry_equiv_pos_as_xyz
  1  'x, y, z'
loop_
 _atom_site_type_symbol
 _atom_site_label
 _atom_site_symmetry_multiplicity
 _atom_site_fract_x
 _atom_site_fract_y
 _atom_site_fract_z
 _atom_site_occupancy
  Ca  Ca0  1  0.000107  0.000107  0.000107  1
  Tb  Tb1  1  0.249684  0.249684  0.249684  1
  Nb  Nb2  1  0.624316  0.624316  0.624316  1
  Ir  Ir3  1  0.124386  0.625754  0.625754  1
  Ir  Ir4  1  0.625754  0.124386  0.625754  1
  Ir  Ir5  1  0.625754  0.625754  0.124386  1
