# generated using pymatgen
data_Tb10Hg7Pt4Pb
_symmetry_space_group_name_H-M   'P 1'
_cell_length_a   3.64425200
_cell_length_b   7.99948494
_cell_length_c   18.33481400
_cell_angle_alpha   90.21806082
_cell_angle_beta   90.00000000
_cell_angle_gamma   90.00000000
_symmetry_Int_Tables_number   1
_chemical_formula_structural   Tb10Hg7Pt4Pb
_chemical_formula_sum   'Tb10 Hg7 Pt4 Pb1'
_cell_volume   534.49517475
_cell_formula_units_Z   1
loop_
 _symmetry_equiv_pos_site_id
 _symmetry_equiv_pos_as_xyz
  1  'x, y, z'
loop_
 _atom_site_type_symbol
 _atom_site_label
 _atom_site_symmetry_multiplicity
 _atom_site_fract_x
 _atom_site_fract_y
 _atom_site_fract_z
 _atom_site_occupancy
  Tb  Tb0  1  0.000000  0.108638  0.415611  1
  Tb  Tb1  1  0.000000  0.886294  0.586617  1
  Tb  Tb2  1  0.000000  0.386884  0.913969  1
  Tb  Tb3  1  0.000000  0.613020  0.085161  1
  Tb  Tb4  1  0.000000  0.236108  0.214760  1
  Tb  Tb5  1  0.000000  0.761500  0.783213  1
  Tb  Tb6  1  0.000000  0.260305  0.717567  1
  Tb  Tb7  1  0.000000  0.746720  0.280390  1
  Tb  Tb8  1  0.000000  0.002045  0.000553  1
  Tb  Tb9  1  0.000000  0.499147  0.502685  1
  Hg  Hg10  1  0.500000  0.574877  0.645748  1
  Hg  Hg11  1  0.500000  0.074801  0.854858  1
  Hg  Hg12  1  0.500000  0.922898  0.144780  1
  Hg  Hg13  1  0.500000  0.288627  0.063253  1
  Hg  Hg14  1  0.500000  0.712768  0.936449  1
  Hg  Hg15  1  0.500000  0.209904  0.563799  1
  Hg  Hg16  1  0.500000  0.789861  0.437232  1
  Pt  Pt17  1  0.500000  0.026762  0.302982  1
  Pt  Pt18  1  0.500000  0.974279  0.697622  1
  Pt  Pt19  1  0.500000  0.474859  0.802896  1
  Pt  Pt20  1  0.500000  0.525495  0.195986  1
  Pb  Pb21  1  0.500000  0.424208  0.353868  1
