# generated using pymatgen
data_Zr10Tl4CuSb2P
_symmetry_space_group_name_H-M   'P 1'
_cell_length_a   8.68279735
_cell_length_b   8.70802351
_cell_length_c   5.90936700
_cell_angle_alpha   90.14862797
_cell_angle_beta   89.92546688
_cell_angle_gamma   120.09615488
_symmetry_Int_Tables_number   1
_chemical_formula_structural   Zr10Tl4CuSb2P
_chemical_formula_sum   'Zr10 Tl4 Cu1 Sb2 P1'
_cell_volume   386.56967138
_cell_formula_units_Z   1
loop_
 _symmetry_equiv_pos_site_id
 _symmetry_equiv_pos_as_xyz
  1  'x, y, z'
loop_
 _atom_site_type_symbol
 _atom_site_label
 _atom_site_symmetry_multiplicity
 _atom_site_fract_x
 _atom_site_fract_y
 _atom_site_fract_z
 _atom_site_occupancy
  Zr  Zr0  1  0.746881  0.750943  0.258601  1
  Zr  Zr1  1  0.253119  0.004062  0.258601  1
  Zr  Zr2  1  0.000000  0.245280  0.256792  1
  Zr  Zr3  1  0.260048  0.261705  0.745376  1
  Zr  Zr4  1  0.739952  0.001657  0.745376  1
  Zr  Zr5  1  0.000000  0.738841  0.738916  1
  Zr  Zr6  1  0.664492  0.332116  0.500040  1
  Zr  Zr7  1  0.335508  0.667624  0.500040  1
  Zr  Zr8  1  0.335267  0.666905  0.000311  1
  Zr  Zr9  1  0.664733  0.331637  0.000311  1
  Tl  Tl10  1  0.000000  0.608336  0.244084  1
  Tl  Tl11  1  0.614137  0.613957  0.755156  1
  Tl  Tl12  1  0.385863  0.999819  0.755156  1
  Tl  Tl13  1  0.000000  0.388956  0.755810  1
  Cu  Cu14  1  0.000000  0.994330  0.977936  1
  Sb  Sb15  1  0.393243  0.394042  0.246280  1
  Sb  Sb16  1  0.606757  0.000800  0.246280  1
  P  P17  1  0.000000  0.998988  0.514933  1
