# generated using pymatgen
data_Li28MgAlSi7Ge
_symmetry_space_group_name_H-M   'P 1'
_cell_length_a   9.15715057
_cell_length_b   9.15016720
_cell_length_c   9.15416796
_cell_angle_alpha   109.22774767
_cell_angle_beta   109.30365248
_cell_angle_gamma   109.89733446
_symmetry_Int_Tables_number   1
_chemical_formula_structural   Li28MgAlSi7Ge
_chemical_formula_sum   'Li28 Mg1 Al1 Si7 Ge1'
_cell_volume   590.32639108
_cell_formula_units_Z   1
loop_
 _symmetry_equiv_pos_site_id
 _symmetry_equiv_pos_as_xyz
  1  'x, y, z'
loop_
 _atom_site_type_symbol
 _atom_site_label
 _atom_site_symmetry_multiplicity
 _atom_site_fract_x
 _atom_site_fract_y
 _atom_site_fract_z
 _atom_site_occupancy
  Li  Li0  1  0.065579  0.539301  0.276571  1
  Li  Li1  1  0.262979  0.789975  0.723701  1
  Li  Li2  1  0.183961  0.962922  0.975462  1
  Li  Li3  1  0.986679  0.207702  0.024158  1
  Li  Li4  1  0.037073  0.012535  0.221050  1
  Li  Li5  1  0.791503  0.815999  0.778931  1
  Li  Li6  1  0.461228  0.737555  0.527911  1
  Li  Li7  1  0.210071  0.933762  0.472997  1
  Li  Li8  1  0.717335  0.348892  0.060698  1
  Li  Li9  1  0.962715  0.402223  0.869180  1
  Li  Li10  1  0.288293  0.656867  0.938697  1
  Li  Li11  1  0.532673  0.093590  0.130046  1
  Li  Li12  1  0.689331  0.857416  0.092422  1
  Li  Li13  1  0.482290  0.893129  0.333583  1
  Li  Li14  1  0.559018  0.148677  0.666932  1
  Li  Li15  1  0.765140  0.596989  0.907570  1
  Li  Li16  1  0.851285  0.518275  0.410375  1
  Li  Li17  1  0.403425  0.310090  0.168133  1
  Li  Li18  1  0.142220  0.234256  0.831109  1
  Li  Li19  1  0.107870  0.440903  0.589608  1
  Li  Li20  1  0.906385  0.036449  0.439005  1
  Li  Li21  1  0.343387  0.282697  0.631585  1
  Li  Li22  1  0.597401  0.467370  0.560973  1
  Li  Li23  1  0.651993  0.712196  0.368835  1
  Li  Li24  1  0.998035  0.875353  0.626166  1
  Li  Li25  1  0.249166  0.371506  0.374388  1
  Li  Li26  1  0.124330  0.751291  0.122630  1
  Li  Li27  1  0.628129  0.001995  0.877384  1
  Mg  Mg28  1  0.750012  0.250036  0.499976  1
  Al  Al29  1  0.501624  0.499688  0.998729  1
  Si  Si30  1  0.376366  0.137601  0.840935  1
  Si  Si31  1  0.960407  0.624133  0.746885  1
  Si  Si32  1  0.877352  0.213599  0.253168  1
  Si  Si33  1  0.375892  0.122758  0.336276  1
  Si  Si34  1  0.786536  0.039642  0.663736  1
  Si  Si35  1  0.464562  0.623571  0.761096  1
  Si  Si36  1  0.862514  0.703409  0.238816  1
  Ge  Ge37  1  0.295240  0.535652  0.160284  1
