# generated using pymatgen
data_Eu2RuRhF14
_symmetry_space_group_name_H-M   'P 1'
_cell_length_a   5.68442300
_cell_length_b   9.22919009
_cell_length_c   12.35707300
_cell_angle_alpha   62.23330969
_cell_angle_beta   90.00000000
_cell_angle_gamma   90.00000000
_symmetry_Int_Tables_number   1
_chemical_formula_structural   Eu2RuRhF14
_chemical_formula_sum   'Eu4 Ru2 Rh2 F28'
_cell_volume   573.63575297
_cell_formula_units_Z   2
loop_
 _symmetry_equiv_pos_site_id
 _symmetry_equiv_pos_as_xyz
  1  'x, y, z'
loop_
 _atom_site_type_symbol
 _atom_site_label
 _atom_site_symmetry_multiplicity
 _atom_site_fract_x
 _atom_site_fract_y
 _atom_site_fract_z
 _atom_site_occupancy
  Eu  Eu0  1  0.758148  0.821819  0.767238  1
  Eu  Eu1  1  0.258148  0.178181  0.732762  1
  Eu  Eu2  1  0.235833  0.191786  0.238088  1
  Eu  Eu3  1  0.735833  0.808214  0.261912  1
  Ru  Ru4  1  0.755018  0.276839  0.954177  1
  Ru  Ru5  1  0.255018  0.723161  0.545823  1
  Rh  Rh6  1  0.242374  0.728474  0.040272  1
  Rh  Rh7  1  0.742374  0.271526  0.459728  1
  F  F8  1  0.436105  0.710319  0.915098  1
  F  F9  1  0.936105  0.289681  0.584902  1
  F  F10  1  0.566229  0.294113  0.075328  1
  F  F11  1  0.066229  0.705887  0.424672  1
  F  F12  1  0.453478  0.282589  0.543583  1
  F  F13  1  0.953478  0.717411  0.956417  1
  F  F14  1  0.536524  0.715558  0.462661  1
  F  F15  1  0.036524  0.284442  0.037339  1
  F  F16  1  0.764187  0.508194  0.861409  1
  F  F17  1  0.264187  0.491806  0.638591  1
  F  F18  1  0.236612  0.488704  0.135617  1
  F  F19  1  0.736612  0.511296  0.364383  1
  F  F20  1  0.754710  0.046129  0.042392  1
  F  F21  1  0.254710  0.953871  0.457608  1
  F  F22  1  0.236416  0.967834  0.945730  1
  F  F23  1  0.736416  0.032166  0.554270  1
  F  F24  1  0.977071  0.726108  0.632057  1
  F  F25  1  0.477071  0.273892  0.867943  1
  F  F26  1  0.027343  0.263394  0.372547  1
  F  F27  1  0.527343  0.736606  0.127453  1
  F  F28  1  0.054109  0.748064  0.166822  1
  F  F29  1  0.554109  0.251936  0.333178  1
  F  F30  1  0.944409  0.262569  0.830606  1
  F  F31  1  0.444409  0.737431  0.669394  1
  F  F32  1  0.419582  0.974915  0.233920  1
  F  F33  1  0.919582  0.025085  0.266080  1
  F  F34  1  0.601852  0.038310  0.772971  1
  F  F35  1  0.101852  0.961690  0.727029  1
