# generated using pymatgen
data_Pu2Al3Ag
_symmetry_space_group_name_H-M   'P 1'
_cell_length_a   5.49315752
_cell_length_b   5.62980037
_cell_length_c   5.62980100
_cell_angle_alpha   60.00000217
_cell_angle_beta   59.17367165
_cell_angle_gamma   59.17368033
_symmetry_Int_Tables_number   1
_chemical_formula_structural   Pu2Al3Ag
_chemical_formula_sum   'Pu2 Al3 Ag1'
_cell_volume   121.54983180
_cell_formula_units_Z   1
loop_
 _symmetry_equiv_pos_site_id
 _symmetry_equiv_pos_as_xyz
  1  'x, y, z'
loop_
 _atom_site_type_symbol
 _atom_site_label
 _atom_site_symmetry_multiplicity
 _atom_site_fract_x
 _atom_site_fract_y
 _atom_site_fract_z
 _atom_site_occupancy
  Pu  Pu0  1  0.270552  0.243149  0.243149  1
  Pu  Pu1  1  0.979448  0.006851  0.006851  1
  Al  Al2  1  0.625000  0.125000  0.625000  1
  Al  Al3  1  0.625000  0.625000  0.125000  1
  Al  Al4  1  0.625000  0.625000  0.625000  1
  Ag  Ag5  1  0.125000  0.625000  0.625000  1
