# generated using pymatgen
data_Li8YHo7Sn5Sb3
_symmetry_space_group_name_H-M   'P 1'
_cell_length_a   9.38203500
_cell_length_b   9.38103771
_cell_length_c   7.17247700
_cell_angle_alpha   90.00029049
_cell_angle_beta   90.00014518
_cell_angle_gamma   120.00365795
_symmetry_Int_Tables_number   1
_chemical_formula_structural   Li8YHo7Sn5Sb3
_chemical_formula_sum   'Li8 Y1 Ho7 Sn5 Sb3'
_cell_volume   546.67815172
_cell_formula_units_Z   1
loop_
 _symmetry_equiv_pos_site_id
 _symmetry_equiv_pos_as_xyz
  1  'x, y, z'
loop_
 _atom_site_type_symbol
 _atom_site_label
 _atom_site_symmetry_multiplicity
 _atom_site_fract_x
 _atom_site_fract_y
 _atom_site_fract_z
 _atom_site_occupancy
  Li  Li0  1  0.166473  0.332935  0.284206  1
  Li  Li1  1  0.166403  0.833454  0.284164  1
  Li  Li2  1  0.667037  0.833443  0.284172  1
  Li  Li3  1  0.833208  0.666428  0.786075  1
  Li  Li4  1  0.833250  0.166854  0.786141  1
  Li  Li5  1  0.333620  0.166866  0.786150  1
  Li  Li6  1  0.333332  0.666634  0.675669  1
  Li  Li7  1  0.666650  0.333323  0.179109  1
  Y  Y8  1  0.512363  0.024717  0.490688  1
  Ho  Ho9  1  0.512356  0.487622  0.490569  1
  Ho  Ho10  1  0.975244  0.487613  0.490563  1
  Ho  Ho11  1  0.489559  0.979118  0.996056  1
  Ho  Ho12  1  0.489605  0.510400  0.996118  1
  Ho  Ho13  1  0.020799  0.510394  0.996137  1
  Ho  Ho14  1  0.999978  0.999966  0.497481  1
  Ho  Ho15  1  0.999991  0.999991  0.004691  1
  Sn  Sn16  1  0.833017  0.666010  0.231589  1
  Sn  Sn17  1  0.833230  0.167136  0.231297  1
  Sn  Sn18  1  0.333910  0.167123  0.231295  1
  Sn  Sn19  1  0.333206  0.666433  0.259495  1
  Sn  Sn20  1  0.666877  0.333723  0.760357  1
  Sb  Sb21  1  0.166762  0.333543  0.733191  1
  Sb  Sb22  1  0.166574  0.833132  0.733377  1
  Sb  Sb23  1  0.666555  0.833142  0.733382  1
