# generated using pymatgen
data_Tb4CrFe(SbO7)2
_symmetry_space_group_name_H-M   'P 1'
_cell_length_a   7.33262690
_cell_length_b   7.28274856
_cell_length_c   7.36992800
_cell_angle_alpha   89.99957209
_cell_angle_beta   59.82917259
_cell_angle_gamma   120.13419813
_symmetry_Int_Tables_number   1
_chemical_formula_structural   Tb4CrFe(SbO7)2
_chemical_formula_sum   'Tb4 Cr1 Fe1 Sb2 O14'
_cell_volume   277.00446718
_cell_formula_units_Z   1
loop_
 _symmetry_equiv_pos_site_id
 _symmetry_equiv_pos_as_xyz
  1  'x, y, z'
loop_
 _atom_site_type_symbol
 _atom_site_label
 _atom_site_symmetry_multiplicity
 _atom_site_fract_x
 _atom_site_fract_y
 _atom_site_fract_z
 _atom_site_occupancy
  Tb  Tb0  1  0.499999  0.500011  0.000002  1
  Tb  Tb1  1  0.500001  0.000018  0.000028  1
  Tb  Tb2  1  0.000011  0.000008  0.500004  1
  Tb  Tb3  1  0.999984  0.000018  0.000005  1
  Cr  Cr4  1  0.499951  0.000026  0.499823  1
  Fe  Fe5  1  0.500070  0.499799  0.499990  1
  Sb  Sb6  1  0.999965  0.499970  0.000030  1
  Sb  Sb7  1  0.000014  0.500034  0.499993  1
  O  O8  1  0.254033  0.126180  0.122976  1
  O  O9  1  0.745950  0.873840  0.877030  1
  O  O10  1  0.677679  0.837887  0.411221  1
  O  O11  1  0.839260  0.417653  0.830381  1
  O  O12  1  0.253470  0.831248  0.835495  1
  O  O13  1  0.250012  0.420954  0.410279  1
  O  O14  1  0.250003  0.420936  0.839662  1
  O  O15  1  0.253559  0.831281  0.411026  1
  O  O16  1  0.322333  0.162115  0.588797  1
  O  O17  1  0.160748  0.582377  0.169607  1
  O  O18  1  0.746485  0.168726  0.164593  1
  O  O19  1  0.749975  0.579059  0.589728  1
  O  O20  1  0.750019  0.579107  0.160322  1
  O  O21  1  0.746480  0.168749  0.589010  1
