# generated using pymatgen
data_YbU3F15
_symmetry_space_group_name_H-M   'P 1'
_cell_length_a   8.62273776
_cell_length_b   8.62273808
_cell_length_c   8.61311015
_cell_angle_alpha   79.51949220
_cell_angle_beta   79.51949096
_cell_angle_gamma   100.44307968
_symmetry_Int_Tables_number   1
_chemical_formula_structural   YbU3F15
_chemical_formula_sum   'Yb2 U6 F30'
_cell_volume   603.80262597
_cell_formula_units_Z   2
loop_
 _symmetry_equiv_pos_site_id
 _symmetry_equiv_pos_as_xyz
  1  'x, y, z'
loop_
 _atom_site_type_symbol
 _atom_site_label
 _atom_site_symmetry_multiplicity
 _atom_site_fract_x
 _atom_site_fract_y
 _atom_site_fract_z
 _atom_site_occupancy
  Yb  Yb0  1  0.177495  0.822505  0.250000  1
  Yb  Yb1  1  0.822505  0.177495  0.750000  1
  U  U2  1  0.748788  0.251212  0.250000  1
  U  U3  1  0.251212  0.748788  0.750000  1
  U  U4  1  0.758634  0.678128  0.672009  1
  U  U5  1  0.321872  0.241366  0.827991  1
  U  U6  1  0.241366  0.321872  0.327991  1
  U  U7  1  0.678128  0.758634  0.172009  1
  F  F8  1  0.470314  0.529686  0.250000  1
  F  F9  1  0.749127  0.962790  0.967110  1
  F  F10  1  0.037210  0.250873  0.532890  1
  F  F11  1  0.250873  0.037210  0.032890  1
  F  F12  1  0.962790  0.749127  0.467110  1
  F  F13  1  0.529686  0.470314  0.750000  1
  F  F14  1  0.774949  0.277336  0.999294  1
  F  F15  1  0.006987  0.275738  0.215383  1
  F  F16  1  0.779927  0.507094  0.223394  1
  F  F17  1  0.507094  0.779927  0.723394  1
  F  F18  1  0.275738  0.006987  0.715383  1
  F  F19  1  0.277336  0.774949  0.499294  1
  F  F20  1  0.225051  0.722664  0.000706  1
  F  F21  1  0.993013  0.724262  0.784617  1
  F  F22  1  0.220073  0.492906  0.776606  1
  F  F23  1  0.492906  0.220073  0.276606  1
  F  F24  1  0.724262  0.993013  0.284617  1
  F  F25  1  0.722664  0.225051  0.500706  1
  F  F26  1  0.315799  0.350418  0.055537  1
  F  F27  1  0.935393  0.809592  0.155580  1
  F  F28  1  0.839434  0.454536  0.687706  1
  F  F29  1  0.454536  0.839434  0.187706  1
  F  F30  1  0.809592  0.935393  0.655580  1
  F  F31  1  0.350418  0.315799  0.555537  1
  F  F32  1  0.684201  0.649582  0.944463  1
  F  F33  1  0.064607  0.190408  0.844420  1
  F  F34  1  0.160566  0.545464  0.312294  1
  F  F35  1  0.545464  0.160566  0.812294  1
  F  F36  1  0.190408  0.064607  0.344420  1
  F  F37  1  0.649582  0.684201  0.444463  1
