# generated using pymatgen
data_TbEr6Zn(Co3Sn11)2
_symmetry_space_group_name_H-M   'P 1'
_cell_length_a   9.66209300
_cell_length_b   9.66209326
_cell_length_c   9.95416200
_cell_angle_alpha   90.00000000
_cell_angle_beta   90.00000000
_cell_angle_gamma   120.00000254
_symmetry_Int_Tables_number   1
_chemical_formula_structural   TbEr6Zn(Co3Sn11)2
_chemical_formula_sum   'Tb1 Er6 Zn1 Co6 Sn22'
_cell_volume   804.78109018
_cell_formula_units_Z   1
loop_
 _symmetry_equiv_pos_site_id
 _symmetry_equiv_pos_as_xyz
  1  'x, y, z'
loop_
 _atom_site_type_symbol
 _atom_site_label
 _atom_site_symmetry_multiplicity
 _atom_site_fract_x
 _atom_site_fract_y
 _atom_site_fract_z
 _atom_site_occupancy
  Tb  Tb0  1  0.000000  0.000000  0.000000  1
  Er  Er1  1  0.479516  0.520484  0.305942  1
  Er  Er2  1  0.520484  0.479516  0.694058  1
  Er  Er3  1  0.479516  0.959033  0.305942  1
  Er  Er4  1  0.520484  0.040967  0.694058  1
  Er  Er5  1  0.040967  0.520484  0.305942  1
  Er  Er6  1  0.959033  0.479516  0.694058  1
  Zn  Zn7  1  0.000000  0.000000  0.500000  1
  Co  Co8  1  0.832084  0.167916  0.197697  1
  Co  Co9  1  0.167916  0.832084  0.802303  1
  Co  Co10  1  0.832084  0.664170  0.197697  1
  Co  Co11  1  0.167916  0.335830  0.802303  1
  Co  Co12  1  0.335830  0.167916  0.197697  1
  Co  Co13  1  0.664170  0.832084  0.802303  1
  Sn  Sn14  1  0.114975  0.885025  0.276054  1
  Sn  Sn15  1  0.885025  0.114975  0.723946  1
  Sn  Sn16  1  0.114975  0.229951  0.276054  1
  Sn  Sn17  1  0.885025  0.770049  0.723946  1
  Sn  Sn18  1  0.770049  0.885025  0.276054  1
  Sn  Sn19  1  0.229951  0.114975  0.723946  1
  Sn  Sn20  1  0.782230  0.217770  0.453601  1
  Sn  Sn21  1  0.217770  0.782230  0.546399  1
  Sn  Sn22  1  0.782230  0.564461  0.453601  1
  Sn  Sn23  1  0.217770  0.435539  0.546399  1
  Sn  Sn24  1  0.435539  0.217770  0.453601  1
  Sn  Sn25  1  0.564461  0.782230  0.546399  1
  Sn  Sn26  1  0.346081  0.000000  0.000000  1
  Sn  Sn27  1  0.653919  0.000000  0.000000  1
  Sn  Sn28  1  0.000000  0.346081  0.000000  1
  Sn  Sn29  1  0.000000  0.653919  0.000000  1
  Sn  Sn30  1  0.653919  0.653919  0.000000  1
  Sn  Sn31  1  0.346081  0.346081  0.000000  1
  Sn  Sn32  1  0.333333  0.666667  0.120678  1
  Sn  Sn33  1  0.666667  0.333333  0.879322  1
  Sn  Sn34  1  0.333333  0.666667  0.818635  1
  Sn  Sn35  1  0.666667  0.333333  0.181365  1
