# generated using pymatgen
data_Na44Pb7
_symmetry_space_group_name_H-M   'P 1'
_cell_length_a   16.72433149
_cell_length_b   16.72433157
_cell_length_c   16.72433200
_cell_angle_alpha   60.00177533
_cell_angle_beta   60.00177516
_cell_angle_gamma   60.00177626
_symmetry_Int_Tables_number   1
_chemical_formula_structural   Na44Pb7
_chemical_formula_sum   'Na88 Pb14'
_cell_volume   3307.87280235
_cell_formula_units_Z   2
loop_
 _symmetry_equiv_pos_site_id
 _symmetry_equiv_pos_as_xyz
  1  'x, y, z'
loop_
 _atom_site_type_symbol
 _atom_site_label
 _atom_site_symmetry_multiplicity
 _atom_site_fract_x
 _atom_site_fract_y
 _atom_site_fract_z
 _atom_site_occupancy
  Na  Na0  1  0.714876  0.714874  0.094064  1
  Na  Na1  1  0.714882  0.476200  0.094072  1
  Na  Na2  1  0.476209  0.714880  0.094064  1
  Na  Na3  1  0.479066  0.479065  0.136301  1
  Na  Na4  1  0.905587  0.479067  0.136305  1
  Na  Na5  1  0.479069  0.905586  0.136303  1
  Na  Na6  1  0.358284  0.141707  0.141710  1
  Na  Na7  1  0.141708  0.358291  0.141710  1
  Na  Na8  1  0.358292  0.358298  0.141716  1
  Na  Na9  1  0.946383  0.946386  0.160841  1
  Na  Na10  1  0.815964  0.184035  0.184036  1
  Na  Na11  1  0.184034  0.815966  0.184035  1
  Na  Na12  1  0.815965  0.815965  0.184047  1
  Na  Na13  1  0.568288  0.216620  0.216620  1
  Na  Na14  1  0.216618  0.568289  0.216617  1
  Na  Na15  1  0.998506  0.568270  0.216622  1
  Na  Na16  1  0.568263  0.998508  0.216626  1
  Na  Na17  1  0.998475  0.216618  0.216619  1
  Na  Na18  1  0.216620  0.998475  0.216620  1
  Na  Na19  1  0.560109  0.560108  0.319689  1
  Na  Na20  1  0.980755  0.980754  0.335557  1
  Na  Na21  1  0.980756  0.702935  0.335569  1
  Na  Na22  1  0.702933  0.980754  0.335574  1
  Na  Na23  1  0.559124  0.338182  0.338184  1
  Na  Na24  1  0.338184  0.559123  0.338184  1
  Na  Na25  1  0.764521  0.559114  0.338189  1
  Na  Na26  1  0.559115  0.764520  0.338189  1
  Na  Na27  1  0.764516  0.338200  0.338201  1
  Na  Na28  1  0.338201  0.764514  0.338202  1
  Na  Na29  1  0.141710  0.141709  0.358284  1
  Na  Na30  1  0.358298  0.141710  0.358302  1
  Na  Na31  1  0.141712  0.358298  0.358299  1
  Na  Na32  1  0.714868  0.714869  0.476195  1
  Na  Na33  1  0.714881  0.094064  0.476207  1
  Na  Na34  1  0.094065  0.714880  0.476207  1
  Na  Na35  1  0.905579  0.479059  0.479060  1
  Na  Na36  1  0.479060  0.905578  0.479061  1
  Na  Na37  1  0.479069  0.136296  0.479069  1
  Na  Na38  1  0.136301  0.479065  0.479066  1
  Na  Na39  1  0.905586  0.136302  0.479070  1
  Na  Na40  1  0.136302  0.905585  0.479070  1
  Na  Na41  1  0.834400  0.834400  0.496805  1
  Na  Na42  1  0.764519  0.338190  0.559114  1
  Na  Na43  1  0.338189  0.764520  0.559114  1
  Na  Na44  1  0.338183  0.338182  0.559125  1
  Na  Na45  1  0.560108  0.560108  0.560108  1
  Na  Na46  1  0.560109  0.319687  0.560109  1
  Na  Na47  1  0.319688  0.560109  0.560109  1
  Na  Na48  1  0.998506  0.216627  0.568260  1
  Na  Na49  1  0.216628  0.998507  0.568258  1
  Na  Na50  1  0.216622  0.216622  0.568279  1
  Na  Na51  1  0.696236  0.696231  0.696233  1
  Na  Na52  1  0.911397  0.696202  0.696206  1
  Na  Na53  1  0.696205  0.911391  0.696206  1
  Na  Na54  1  0.980762  0.980761  0.702927  1
  Na  Na55  1  0.980754  0.335576  0.702930  1
  Na  Na56  1  0.335579  0.980753  0.702930  1
  Na  Na57  1  0.714869  0.476191  0.714870  1
  Na  Na58  1  0.476191  0.714869  0.714871  1
  Na  Na59  1  0.714875  0.094068  0.714877  1
  Na  Na60  1  0.094064  0.714874  0.714876  1
  Na  Na61  1  0.476205  0.094063  0.714884  1
  Na  Na62  1  0.094067  0.476203  0.714882  1
  Na  Na63  1  0.338200  0.338201  0.764515  1
  Na  Na64  1  0.559113  0.338190  0.764519  1
  Na  Na65  1  0.338188  0.559113  0.764521  1
  Na  Na66  1  0.815958  0.184053  0.815959  1
  Na  Na67  1  0.184049  0.815962  0.815962  1
  Na  Na68  1  0.184039  0.184038  0.815961  1
  Na  Na69  1  0.834405  0.834406  0.834404  1
  Na  Na70  1  0.834412  0.496774  0.834410  1
  Na  Na71  1  0.496782  0.834409  0.834407  1
  Na  Na72  1  0.479059  0.479059  0.905579  1
  Na  Na73  1  0.479068  0.136303  0.905586  1
  Na  Na74  1  0.136304  0.479067  0.905587  1
  Na  Na75  1  0.696206  0.696204  0.911396  1
  Na  Na76  1  0.946385  0.160843  0.946381  1
  Na  Na77  1  0.160842  0.946387  0.946380  1
  Na  Na78  1  0.946394  0.946395  0.946388  1
  Na  Na79  1  0.980756  0.335553  0.980756  1
  Na  Na80  1  0.335555  0.980756  0.980756  1
  Na  Na81  1  0.702935  0.335569  0.980755  1
  Na  Na82  1  0.335568  0.702935  0.980756  1
  Na  Na83  1  0.980765  0.702933  0.980766  1
  Na  Na84  1  0.702931  0.980762  0.980763  1
  Na  Na85  1  0.216619  0.216618  0.998474  1
  Na  Na86  1  0.568265  0.216625  0.998507  1
  Na  Na87  1  0.216621  0.568271  0.998505  1
  Pb  Pb88  1  0.748417  0.083861  0.083866  1
  Pb  Pb89  1  0.083851  0.748462  0.083851  1
  Pb  Pb90  1  0.083847  0.083837  0.083845  1
  Pb  Pb91  1  0.953398  0.348870  0.348864  1
  Pb  Pb92  1  0.348867  0.953398  0.348866  1
  Pb  Pb93  1  0.348878  0.348875  0.348876  1
  Pb  Pb94  1  0.916743  0.583257  0.583254  1
  Pb  Pb95  1  0.583251  0.916749  0.583249  1
  Pb  Pb96  1  0.916766  0.916762  0.583239  1
  Pb  Pb97  1  0.083873  0.083875  0.748405  1
  Pb  Pb98  1  0.583239  0.583242  0.916758  1
  Pb  Pb99  1  0.916774  0.583229  0.916774  1
  Pb  Pb100  1  0.583238  0.916767  0.916767  1
  Pb  Pb101  1  0.348884  0.348866  0.953400  1
