# generated using pymatgen
data_Lu5Nb3(Si3Ir4)4
_symmetry_space_group_name_H-M   'P 1'
_cell_length_a   12.95140600
_cell_length_b   12.95140584
_cell_length_c   4.01342300
_cell_angle_alpha   90.00000000
_cell_angle_beta   90.00000000
_cell_angle_gamma   119.99999531
_symmetry_Int_Tables_number   1
_chemical_formula_structural   Lu5Nb3(Si3Ir4)4
_chemical_formula_sum   'Lu5 Nb3 Si12 Ir16'
_cell_volume   583.01458256
_cell_formula_units_Z   1
loop_
 _symmetry_equiv_pos_site_id
 _symmetry_equiv_pos_as_xyz
  1  'x, y, z'
loop_
 _atom_site_type_symbol
 _atom_site_label
 _atom_site_symmetry_multiplicity
 _atom_site_fract_x
 _atom_site_fract_y
 _atom_site_fract_z
 _atom_site_occupancy
  Lu  Lu0  1  0.333333  0.666667  0.500000  1
  Lu  Lu1  1  0.666667  0.333333  0.500000  1
  Lu  Lu2  1  0.000000  0.813103  0.000000  1
  Lu  Lu3  1  0.186897  0.186897  0.000000  1
  Lu  Lu4  1  0.813103  0.000000  0.000000  1
  Nb  Nb5  1  0.000000  0.438528  0.500000  1
  Nb  Nb6  1  0.561472  0.561472  0.500000  1
  Nb  Nb7  1  0.438528  0.000000  0.500000  1
  Si  Si8  1  0.000000  0.637077  0.500000  1
  Si  Si9  1  0.362923  0.362923  0.500000  1
  Si  Si10  1  0.637077  0.000000  0.500000  1
  Si  Si11  1  0.519348  0.690767  0.000000  1
  Si  Si12  1  0.309233  0.828582  0.000000  1
  Si  Si13  1  0.171418  0.480652  0.000000  1
  Si  Si14  1  0.480652  0.171418  0.000000  1
  Si  Si15  1  0.690767  0.519348  0.000000  1
  Si  Si16  1  0.828582  0.309233  0.000000  1
  Si  Si17  1  0.000000  0.180092  0.500000  1
  Si  Si18  1  0.819908  0.819908  0.500000  1
  Si  Si19  1  0.180092  0.000000  0.500000  1
  Ir  Ir20  1  0.510923  0.873040  0.000000  1
  Ir  Ir21  1  0.126960  0.637885  0.000000  1
  Ir  Ir22  1  0.362115  0.489077  0.000000  1
  Ir  Ir23  1  0.489077  0.362115  0.000000  1
  Ir  Ir24  1  0.873040  0.510923  0.000000  1
  Ir  Ir25  1  0.637885  0.126960  0.000000  1
  Ir  Ir26  1  0.000000  0.278566  0.000000  1
  Ir  Ir27  1  0.721434  0.721434  0.000000  1
  Ir  Ir28  1  0.278566  0.000000  0.000000  1
  Ir  Ir29  1  0.626165  0.807716  0.500000  1
  Ir  Ir30  1  0.192284  0.818448  0.500000  1
  Ir  Ir31  1  0.181552  0.373835  0.500000  1
  Ir  Ir32  1  0.373835  0.181552  0.500000  1
  Ir  Ir33  1  0.807716  0.626165  0.500000  1
  Ir  Ir34  1  0.818448  0.192284  0.500000  1
  Ir  Ir35  1  0.000000  0.000000  0.500000  1
