# generated using pymatgen
data_Tm7Sc(WC2)4
_symmetry_space_group_name_H-M   'P 1'
_cell_length_a   5.69372872
_cell_length_b   5.69372933
_cell_length_c   9.71508700
_cell_angle_alpha   90.49059550
_cell_angle_beta   90.49059555
_cell_angle_gamma   90.34804257
_symmetry_Int_Tables_number   1
_chemical_formula_structural   Tm7Sc(WC2)4
_chemical_formula_sum   'Tm7 Sc1 W4 C8'
_cell_volume   314.91999317
_cell_formula_units_Z   1
loop_
 _symmetry_equiv_pos_site_id
 _symmetry_equiv_pos_as_xyz
  1  'x, y, z'
loop_
 _atom_site_type_symbol
 _atom_site_label
 _atom_site_symmetry_multiplicity
 _atom_site_fract_x
 _atom_site_fract_y
 _atom_site_fract_z
 _atom_site_occupancy
  Tm  Tm0  1  0.202146  0.202146  0.341693  1
  Tm  Tm1  1  0.296751  0.700026  0.839671  1
  Tm  Tm2  1  0.700026  0.296751  0.839671  1
  Tm  Tm3  1  0.700394  0.299267  0.157822  1
  Tm  Tm4  1  0.299267  0.700394  0.157822  1
  Tm  Tm5  1  0.198749  0.198749  0.657699  1
  Tm  Tm6  1  0.801895  0.801895  0.345142  1
  Sc  Sc7  1  0.795748  0.795748  0.658704  1
  W  W8  1  0.324623  0.680484  0.501953  1
  W  W9  1  0.819654  0.819654  0.997916  1
  W  W10  1  0.176709  0.176709  0.997947  1
  W  W11  1  0.680484  0.324623  0.501953  1
  C  C12  1  0.999169  0.999169  0.156650  1
  C  C13  1  0.504950  0.504950  0.658777  1
  C  C14  1  0.505721  0.001366  0.504090  1
  C  C15  1  0.501554  0.501554  0.343460  1
  C  C16  1  0.993547  0.993547  0.837661  1
  C  C17  1  0.498395  0.998853  0.998640  1
  C  C18  1  0.998853  0.498395  0.998640  1
  C  C19  1  0.001366  0.505721  0.504090  1
