# generated using pymatgen
data_HoMnF7
_symmetry_space_group_name_H-M   'P 1'
_cell_length_a   5.42248900
_cell_length_b   8.66753932
_cell_length_c   11.67086903
_cell_angle_alpha   62.59745422
_cell_angle_beta   90.00000000
_cell_angle_gamma   90.00000000
_symmetry_Int_Tables_number   1
_chemical_formula_structural   HoMnF7
_chemical_formula_sum   'Ho4 Mn4 F28'
_cell_volume   486.97914097
_cell_formula_units_Z   4
loop_
 _symmetry_equiv_pos_site_id
 _symmetry_equiv_pos_as_xyz
  1  'x, y, z'
loop_
 _atom_site_type_symbol
 _atom_site_label
 _atom_site_symmetry_multiplicity
 _atom_site_fract_x
 _atom_site_fract_y
 _atom_site_fract_z
 _atom_site_occupancy
  Ho  Ho0  1  0.761019  0.810020  0.765042  1
  Ho  Ho1  1  0.261019  0.189980  0.734958  1
  Ho  Ho2  1  0.238981  0.189980  0.234958  1
  Ho  Ho3  1  0.738981  0.810020  0.265042  1
  Mn  Mn4  1  0.758187  0.273270  0.956517  1
  Mn  Mn5  1  0.258187  0.726730  0.543483  1
  Mn  Mn6  1  0.241813  0.726730  0.043483  1
  Mn  Mn7  1  0.741813  0.273270  0.456517  1
  F  F8  1  0.429722  0.704744  0.921237  1
  F  F9  1  0.929722  0.295256  0.578763  1
  F  F10  1  0.570278  0.295256  0.078763  1
  F  F11  1  0.070278  0.704744  0.421237  1
  F  F12  1  0.452253  0.278396  0.539266  1
  F  F13  1  0.952253  0.721604  0.960734  1
  F  F14  1  0.547747  0.721604  0.460734  1
  F  F15  1  0.047747  0.278396  0.039266  1
  F  F16  1  0.775131  0.512348  0.862172  1
  F  F17  1  0.275131  0.487652  0.637828  1
  F  F18  1  0.224869  0.487652  0.137828  1
  F  F19  1  0.724869  0.512348  0.362172  1
  F  F20  1  0.755162  0.035677  0.046405  1
  F  F21  1  0.255162  0.964323  0.453595  1
  F  F22  1  0.244838  0.964323  0.953595  1
  F  F23  1  0.744838  0.035677  0.546405  1
  F  F24  1  0.977011  0.726048  0.632803  1
  F  F25  1  0.477011  0.273952  0.867197  1
  F  F26  1  0.022989  0.273952  0.367197  1
  F  F27  1  0.522989  0.726048  0.132803  1
  F  F28  1  0.056442  0.744227  0.171010  1
  F  F29  1  0.556442  0.255773  0.328990  1
  F  F30  1  0.943558  0.255773  0.828990  1
  F  F31  1  0.443558  0.744227  0.671010  1
  F  F32  1  0.410004  0.969180  0.229779  1
  F  F33  1  0.910004  0.030820  0.270221  1
  F  F34  1  0.589996  0.030820  0.770221  1
  F  F35  1  0.089996  0.969180  0.729779  1
