# generated using pymatgen
data_Ca2YbEr(ReB4)4
_symmetry_space_group_name_H-M   'P 1'
_cell_length_a   3.57851700
_cell_length_b   5.99677699
_cell_length_c   11.59283702
_cell_angle_alpha   90.06289986
_cell_angle_beta   90.00000000
_cell_angle_gamma   90.00000000
_symmetry_Int_Tables_number   1
_chemical_formula_structural   Ca2YbEr(ReB4)4
_chemical_formula_sum   'Ca2 Yb1 Er1 Re4 B16'
_cell_volume   248.77712909
_cell_formula_units_Z   1
loop_
 _symmetry_equiv_pos_site_id
 _symmetry_equiv_pos_as_xyz
  1  'x, y, z'
loop_
 _atom_site_type_symbol
 _atom_site_label
 _atom_site_symmetry_multiplicity
 _atom_site_fract_x
 _atom_site_fract_y
 _atom_site_fract_z
 _atom_site_occupancy
  Ca  Ca0  1  0.500000  0.627693  0.848492  1
  Ca  Ca1  1  0.500000  0.127403  0.650038  1
  Yb  Yb2  1  0.500000  0.872491  0.350998  1
  Er  Er3  1  0.500000  0.371717  0.150722  1
  Re  Re4  1  0.500000  0.370069  0.414747  1
  Re  Re5  1  0.500000  0.631090  0.582786  1
  Re  Re6  1  0.500000  0.132012  0.917444  1
  Re  Re7  1  0.500000  0.870101  0.085771  1
  B  B8  1  0.000000  0.113225  0.048173  1
  B  B9  1  0.000000  0.885704  0.952902  1
  B  B10  1  0.000000  0.385538  0.546609  1
  B  B11  1  0.000000  0.614341  0.451636  1
  B  B12  1  0.000000  0.134748  0.467037  1
  B  B13  1  0.000000  0.864722  0.531178  1
  B  B14  1  0.000000  0.364142  0.968986  1
  B  B15  1  0.000000  0.635572  0.032488  1
  B  B16  1  0.000000  0.024083  0.192979  1
  B  B17  1  0.000000  0.976918  0.808150  1
  B  B18  1  0.000000  0.476629  0.691956  1
  B  B19  1  0.000000  0.524373  0.307071  1
  B  B20  1  0.000000  0.214295  0.314876  1
  B  B21  1  0.000000  0.784371  0.684390  1
  B  B22  1  0.000000  0.283513  0.815269  1
  B  B23  1  0.000000  0.715248  0.185302  1
