# generated using pymatgen
data_Dy12Si8Ir11Rh
_symmetry_space_group_name_H-M   'P 1'
_cell_length_a   5.53015441
_cell_length_b   7.55808103
_cell_length_c   14.86948015
_cell_angle_alpha   90.01055936
_cell_angle_beta   90.04382356
_cell_angle_gamma   90.00325650
_symmetry_Int_Tables_number   1
_chemical_formula_structural   Dy12Si8Ir11Rh
_chemical_formula_sum   'Dy12 Si8 Ir11 Rh1'
_cell_volume   621.50474927
_cell_formula_units_Z   1
loop_
 _symmetry_equiv_pos_site_id
 _symmetry_equiv_pos_as_xyz
  1  'x, y, z'
loop_
 _atom_site_type_symbol
 _atom_site_label
 _atom_site_symmetry_multiplicity
 _atom_site_fract_x
 _atom_site_fract_y
 _atom_site_fract_z
 _atom_site_occupancy
  Dy  Dy0  1  0.900285  0.829086  0.749957  1
  Dy  Dy1  1  0.869210  0.525459  0.392080  1
  Dy  Dy2  1  0.369042  0.973980  0.608225  1
  Dy  Dy3  1  0.131491  0.473902  0.891553  1
  Dy  Dy4  1  0.631498  0.027164  0.108458  1
  Dy  Dy5  1  0.099941  0.170798  0.249939  1
  Dy  Dy6  1  0.130900  0.474461  0.608375  1
  Dy  Dy7  1  0.630901  0.026218  0.391866  1
  Dy  Dy8  1  0.399751  0.671186  0.250596  1
  Dy  Dy9  1  0.369244  0.974355  0.891530  1
  Dy  Dy10  1  0.599838  0.328745  0.749702  1
  Dy  Dy11  1  0.868881  0.524553  0.108009  1
  Si  Si12  1  0.623063  0.624140  0.896675  1
  Si  Si13  1  0.879254  0.124797  0.603252  1
  Si  Si14  1  0.120453  0.874207  0.103491  1
  Si  Si15  1  0.120159  0.875360  0.396458  1
  Si  Si16  1  0.620612  0.624893  0.603367  1
  Si  Si17  1  0.878368  0.125146  0.896800  1
  Si  Si18  1  0.378621  0.375989  0.103325  1
  Si  Si19  1  0.379047  0.375326  0.396643  1
  Ir  Ir20  1  0.599509  0.332477  0.960688  1
  Ir  Ir21  1  0.101151  0.168056  0.460406  1
  Ir  Ir22  1  0.101500  0.167564  0.039473  1
  Ir  Ir23  1  0.413725  0.680125  0.750389  1
  Ir  Ir24  1  0.899892  0.831935  0.960589  1
  Ir  Ir25  1  0.587505  0.320207  0.249993  1
  Ir  Ir26  1  0.899571  0.831786  0.539674  1
  Ir  Ir27  1  0.910846  0.819371  0.249677  1
  Ir  Ir28  1  0.600393  0.331912  0.539779  1
  Ir  Ir29  1  0.399200  0.668426  0.460157  1
  Ir  Ir30  1  0.087159  0.180084  0.750107  1
  Rh  Rh31  1  0.398991  0.668295  0.038767  1
