# generated using pymatgen
data_Ta8V2Si5Au
_symmetry_space_group_name_H-M   'P 1'
_cell_length_a   7.54955062
_cell_length_b   7.54955079
_cell_length_c   7.54955086
_cell_angle_alpha   128.95827556
_cell_angle_beta   128.95827823
_cell_angle_gamma   75.07771930
_symmetry_Int_Tables_number   1
_chemical_formula_structural   Ta8V2Si5Au
_chemical_formula_sum   'Ta8 V2 Si5 Au1'
_cell_volume   253.33502183
_cell_formula_units_Z   1
loop_
 _symmetry_equiv_pos_site_id
 _symmetry_equiv_pos_as_xyz
  1  'x, y, z'
loop_
 _atom_site_type_symbol
 _atom_site_label
 _atom_site_symmetry_multiplicity
 _atom_site_fract_x
 _atom_site_fract_y
 _atom_site_fract_z
 _atom_site_occupancy
  Ta  Ta0  1  0.021909  0.506725  0.826545  1
  Ta  Ta1  1  0.680180  0.195364  0.173455  1
  Ta  Ta2  1  0.506725  0.680180  0.484816  1
  Ta  Ta3  1  0.195364  0.021909  0.515184  1
  Ta  Ta4  1  0.993275  0.478091  0.173455  1
  Ta  Ta5  1  0.304636  0.819820  0.826545  1
  Ta  Ta6  1  0.478091  0.304636  0.484816  1
  Ta  Ta7  1  0.819820  0.993275  0.515184  1
  V  V8  1  0.999156  0.999156  0.000000  1
  V  V9  1  0.500844  0.500844  0.000000  1
  Si  Si10  1  0.250000  0.250000  0.000000  1
  Si  Si11  1  0.633830  0.133830  0.767659  1
  Si  Si12  1  0.366170  0.866170  0.232341  1
  Si  Si13  1  0.133830  0.366170  0.500000  1
  Si  Si14  1  0.866170  0.633830  0.500000  1
  Au  Au15  1  0.750000  0.750000  0.000000  1
