# generated using pymatgen
data_Lu2TiCo2
_symmetry_space_group_name_H-M   'P 1'
_cell_length_a   5.50054093
_cell_length_b   5.50054135
_cell_length_c   5.50054108
_cell_angle_alpha   139.39746786
_cell_angle_beta   120.27059898
_cell_angle_gamma   74.73243457
_symmetry_Int_Tables_number   1
_chemical_formula_structural   Lu2TiCo2
_chemical_formula_sum   'Lu2 Ti1 Co2'
_cell_volume   91.40771188
_cell_formula_units_Z   1
loop_
 _symmetry_equiv_pos_site_id
 _symmetry_equiv_pos_as_xyz
  1  'x, y, z'
loop_
 _atom_site_type_symbol
 _atom_site_label
 _atom_site_symmetry_multiplicity
 _atom_site_fract_x
 _atom_site_fract_y
 _atom_site_fract_z
 _atom_site_occupancy
  Lu  Lu0  1  0.701854  0.201853  0.500001  1
  Lu  Lu1  1  0.298147  0.798147  0.500000  1
  Ti  Ti2  1  0.000000  0.000000  0.000000  1
  Co  Co3  1  0.722627  0.500000  0.222627  1
  Co  Co4  1  0.277374  0.500000  0.777374  1
