# generated using pymatgen
data_LiLa5YOsBr12
_symmetry_space_group_name_H-M   'P 1'
_cell_length_a   9.78907760
_cell_length_b   9.55692602
_cell_length_c   9.68886076
_cell_angle_alpha   108.33887028
_cell_angle_beta   108.73195446
_cell_angle_gamma   107.07797610
_symmetry_Int_Tables_number   1
_chemical_formula_structural   LiLa5YOsBr12
_chemical_formula_sum   'Li1 La5 Y1 Os1 Br12'
_cell_volume   732.06594761
_cell_formula_units_Z   1
loop_
 _symmetry_equiv_pos_site_id
 _symmetry_equiv_pos_as_xyz
  1  'x, y, z'
loop_
 _atom_site_type_symbol
 _atom_site_label
 _atom_site_symmetry_multiplicity
 _atom_site_fract_x
 _atom_site_fract_y
 _atom_site_fract_z
 _atom_site_occupancy
  Li  Li0  1  0.502417  0.499765  0.497627  1
  La  La1  1  0.029945  0.309381  0.114680  1
  La  La2  1  0.128616  0.038344  0.328607  1
  La  La3  1  0.879899  0.964977  0.675933  1
  La  La4  1  0.966189  0.690096  0.887089  1
  La  La5  1  0.658266  0.871105  0.962100  1
  Y  Y6  1  0.326790  0.123810  0.037960  1
  Os  Os7  1  0.999640  0.000911  0.002403  1
  Br  Br8  1  0.674303  0.211351  0.067757  1
  Br  Br9  1  0.380459  0.455688  0.170931  1
  Br  Br10  1  0.071483  0.683959  0.217795  1
  Br  Br11  1  0.794439  0.933720  0.318433  1
  Br  Br12  1  0.470436  0.179318  0.372539  1
  Br  Br13  1  0.186652  0.388514  0.471026  1
  Br  Br14  1  0.818564  0.613636  0.530954  1
  Br  Br15  1  0.532419  0.817108  0.611832  1
  Br  Br16  1  0.220781  0.074243  0.699488  1
  Br  Br17  1  0.931412  0.317648  0.785199  1
  Br  Br18  1  0.615152  0.528259  0.815262  1
  Br  Br19  1  0.312145  0.798170  0.932389  1
