# generated using pymatgen
data_Lu4Re3Os4Ru
_symmetry_space_group_name_H-M   'P 1'
_cell_length_a   5.28696279
_cell_length_b   5.27396879
_cell_length_c   8.88081001
_cell_angle_alpha   89.99999796
_cell_angle_beta   90.00381187
_cell_angle_gamma   119.91870996
_symmetry_Int_Tables_number   1
_chemical_formula_structural   Lu4Re3Os4Ru
_chemical_formula_sum   'Lu4 Re3 Os4 Ru1'
_cell_volume   214.62592516
_cell_formula_units_Z   1
loop_
 _symmetry_equiv_pos_site_id
 _symmetry_equiv_pos_as_xyz
  1  'x, y, z'
loop_
 _atom_site_type_symbol
 _atom_site_label
 _atom_site_symmetry_multiplicity
 _atom_site_fract_x
 _atom_site_fract_y
 _atom_site_fract_z
 _atom_site_occupancy
  Lu  Lu0  1  0.338369  0.669185  0.434849  1
  Lu  Lu1  1  0.668098  0.334049  0.564383  1
  Lu  Lu2  1  0.668240  0.334120  0.935759  1
  Lu  Lu3  1  0.338383  0.669192  0.065436  1
  Re  Re4  1  0.162543  0.336669  0.749731  1
  Re  Re5  1  0.162543  0.825876  0.749731  1
  Re  Re6  1  0.329647  0.164823  0.250077  1
  Os  Os7  1  0.821703  0.650418  0.250522  1
  Os  Os8  1  0.644048  0.822024  0.749346  1
  Os  Os9  1  0.821703  0.171284  0.250522  1
  Os  Os10  1  0.021874  0.010937  0.500175  1
  Ru  Ru11  1  0.022848  0.011424  0.999468  1
