# generated using pymatgen
data_YbEu(CuPd)2
_symmetry_space_group_name_H-M   'P 1'
_cell_length_a   5.35551791
_cell_length_b   5.60287839
_cell_length_c   5.35551711
_cell_angle_alpha   58.45997423
_cell_angle_beta   57.80811927
_cell_angle_gamma   58.45997103
_symmetry_Int_Tables_number   1
_chemical_formula_structural   YbEu(CuPd)2
_chemical_formula_sum   'Yb1 Eu1 Cu2 Pd2'
_cell_volume   109.04717640
_cell_formula_units_Z   1
loop_
 _symmetry_equiv_pos_site_id
 _symmetry_equiv_pos_as_xyz
  1  'x, y, z'
loop_
 _atom_site_type_symbol
 _atom_site_label
 _atom_site_symmetry_multiplicity
 _atom_site_fract_x
 _atom_site_fract_y
 _atom_site_fract_z
 _atom_site_occupancy
  Yb  Yb0  1  0.753176  0.746824  0.753176  1
  Eu  Eu1  1  0.999164  0.000836  0.999164  1
  Cu  Cu2  1  0.873699  0.376037  0.374228  1
  Cu  Cu3  1  0.374228  0.376037  0.873699  1
  Pd  Pd4  1  0.374867  0.874018  0.374867  1
  Pd  Pd5  1  0.374867  0.376249  0.374867  1
