# generated using pymatgen
data_Dy6Y2Sc12Si15S
_symmetry_space_group_name_H-M   'P 1'
_cell_length_a   7.13862799
_cell_length_b   7.37720967
_cell_length_c   13.98013400
_cell_angle_alpha   90.06087456
_cell_angle_beta   88.92348397
_cell_angle_gamma   90.16316526
_symmetry_Int_Tables_number   1
_chemical_formula_structural   Dy6Y2Sc12Si15S
_chemical_formula_sum   'Dy6 Y2 Sc12 Si15 S1'
_cell_volume   736.10466197
_cell_formula_units_Z   1
loop_
 _symmetry_equiv_pos_site_id
 _symmetry_equiv_pos_as_xyz
  1  'x, y, z'
loop_
 _atom_site_type_symbol
 _atom_site_label
 _atom_site_symmetry_multiplicity
 _atom_site_fract_x
 _atom_site_fract_y
 _atom_site_fract_z
 _atom_site_occupancy
  Dy  Dy0  1  0.488762  0.675916  0.902149  1
  Dy  Dy1  1  0.993854  0.821499  0.595481  1
  Dy  Dy2  1  0.511486  0.325286  0.097506  1
  Dy  Dy3  1  0.002896  0.178132  0.403435  1
  Dy  Dy4  1  0.502107  0.319604  0.401853  1
  Dy  Dy5  1  0.499843  0.676822  0.597395  1
  Y  Y6  1  0.011540  0.175954  0.097442  1
  Y  Y7  1  0.988885  0.824467  0.901833  1
  Sc  Sc8  1  0.164373  0.500077  0.750262  1
  Sc  Sc9  1  0.834946  0.499169  0.253566  1
  Sc  Sc10  1  0.334342  0.000914  0.251402  1
  Sc  Sc11  1  0.665414  0.998333  0.748810  1
  Sc  Sc12  1  0.340896  0.174381  0.625548  1
  Sc  Sc13  1  0.658237  0.828556  0.373943  1
  Sc  Sc14  1  0.156783  0.667841  0.380387  1
  Sc  Sc15  1  0.667916  0.823771  0.125882  1
  Sc  Sc16  1  0.842458  0.330793  0.620308  1
  Sc  Sc17  1  0.331659  0.175985  0.873386  1
  Sc  Sc18  1  0.832993  0.323331  0.873484  1
  Sc  Sc19  1  0.167201  0.677129  0.125399  1
  Si  Si20  1  0.037608  0.118546  0.747302  1
  Si  Si21  1  0.962417  0.881928  0.251316  1
  Si  Si22  1  0.458066  0.617373  0.249811  1
  Si  Si23  1  0.540493  0.382792  0.749248  1
  Si  Si24  1  0.289935  0.871368  0.748869  1
  Si  Si25  1  0.710992  0.127437  0.249523  1
  Si  Si26  1  0.209526  0.374479  0.250605  1
  Si  Si27  1  0.792446  0.626640  0.749268  1
  Si  Si28  1  0.804998  0.540623  0.457103  1
  Si  Si29  1  0.327116  0.960942  0.461249  1
  Si  Si30  1  0.842606  0.535760  0.038976  1
  Si  Si31  1  0.669611  0.038059  0.540848  1
  Si  Si32  1  0.156735  0.465220  0.960122  1
  Si  Si33  1  0.656135  0.035641  0.959520  1
  Si  Si34  1  0.343887  0.965691  0.039899  1
  S  S35  1  0.200834  0.459540  0.546869  1
