# generated using pymatgen
data_AcPSe4
_symmetry_space_group_name_H-M   'P 1'
_cell_length_a   7.01974722
_cell_length_b   7.05442802
_cell_length_c   8.45105499
_cell_angle_alpha   85.04255132
_cell_angle_beta   89.82501319
_cell_angle_gamma   89.24808077
_symmetry_Int_Tables_number   1
_chemical_formula_structural   AcPSe4
_chemical_formula_sum   'Ac2 P2 Se8'
_cell_volume   416.89657322
_cell_formula_units_Z   2
loop_
 _symmetry_equiv_pos_site_id
 _symmetry_equiv_pos_as_xyz
  1  'x, y, z'
loop_
 _atom_site_type_symbol
 _atom_site_label
 _atom_site_symmetry_multiplicity
 _atom_site_fract_x
 _atom_site_fract_y
 _atom_site_fract_z
 _atom_site_occupancy
  Ac  Ac0  1  0.745423  0.212297  0.054340  1
  Ac  Ac1  1  0.254576  0.787702  0.945660  1
  P  P2  1  0.749182  0.703173  0.200339  1
  P  P3  1  0.250818  0.296828  0.799660  1
  Se  Se4  1  0.252716  0.341731  0.061933  1
  Se  Se5  1  0.998911  0.886774  0.241661  1
  Se  Se6  1  0.498585  0.891334  0.244489  1
  Se  Se7  1  0.751522  0.439827  0.353629  1
  Se  Se8  1  0.248478  0.560173  0.646371  1
  Se  Se9  1  0.501415  0.108667  0.755512  1
  Se  Se10  1  0.001089  0.113225  0.758338  1
  Se  Se11  1  0.747284  0.658270  0.938068  1
