# generated using pymatgen
data_ThH7Ir
_symmetry_space_group_name_H-M   'P 1'
_cell_length_a   5.04686387
_cell_length_b   5.04073450
_cell_length_c   7.95646800
_cell_angle_alpha   90.00000000
_cell_angle_beta   90.00000000
_cell_angle_gamma   57.31936174
_symmetry_Int_Tables_number   1
_chemical_formula_structural   ThH7Ir
_chemical_formula_sum   'Th2 H14 Ir2'
_cell_volume   170.36861853
_cell_formula_units_Z   2
loop_
 _symmetry_equiv_pos_site_id
 _symmetry_equiv_pos_as_xyz
  1  'x, y, z'
loop_
 _atom_site_type_symbol
 _atom_site_label
 _atom_site_symmetry_multiplicity
 _atom_site_fract_x
 _atom_site_fract_y
 _atom_site_fract_z
 _atom_site_occupancy
  Th  Th0  1  0.000000  0.000000  0.000000  1
  Th  Th1  1  0.000000  0.000000  0.500000  1
  H  H2  1  0.927345  0.926024  0.250000  1
  H  H3  1  0.072655  0.073976  0.750000  1
  H  H4  1  0.737998  0.740004  0.426437  1
  H  H5  1  0.262002  0.259996  0.926437  1
  H  H6  1  0.262002  0.259996  0.573563  1
  H  H7  1  0.737998  0.740004  0.073563  1
  H  H8  1  0.486550  0.485249  0.383431  1
  H  H9  1  0.513450  0.514751  0.883431  1
  H  H10  1  0.513450  0.514751  0.616569  1
  H  H11  1  0.486550  0.485249  0.116569  1
  H  H12  1  0.309292  0.991937  0.250000  1
  H  H13  1  0.690708  0.008063  0.750000  1
  H  H14  1  0.993272  0.310117  0.250000  1
  H  H15  1  0.006728  0.689883  0.750000  1
  Ir  Ir16  1  0.627522  0.627017  0.250000  1
  Ir  Ir17  1  0.372478  0.372983  0.750000  1
