# generated using pymatgen
data_Pr10Co2BiTe3
_symmetry_space_group_name_H-M   'P 1'
_cell_length_a   8.33603349
_cell_length_b   8.84883406
_cell_length_c   12.94281671
_cell_angle_alpha   89.99877633
_cell_angle_beta   90.21042797
_cell_angle_gamma   90.14315840
_symmetry_Int_Tables_number   1
_chemical_formula_structural   Pr10Co2BiTe3
_chemical_formula_sum   'Pr20 Co4 Bi2 Te6'
_cell_volume   954.70680458
_cell_formula_units_Z   2
loop_
 _symmetry_equiv_pos_site_id
 _symmetry_equiv_pos_as_xyz
  1  'x, y, z'
loop_
 _atom_site_type_symbol
 _atom_site_label
 _atom_site_symmetry_multiplicity
 _atom_site_fract_x
 _atom_site_fract_y
 _atom_site_fract_z
 _atom_site_occupancy
  Pr  Pr0  1  0.353127  0.748719  0.697676  1
  Pr  Pr1  1  0.646873  0.251281  0.302324  1
  Pr  Pr2  1  0.849910  0.250655  0.802366  1
  Pr  Pr3  1  0.150090  0.749345  0.197634  1
  Pr  Pr4  1  0.878611  0.750003  0.805870  1
  Pr  Pr5  1  0.121389  0.249997  0.194130  1
  Pr  Pr6  1  0.380299  0.251681  0.695906  1
  Pr  Pr7  1  0.619701  0.748319  0.304094  1
  Pr  Pr8  1  0.680803  0.538061  0.564907  1
  Pr  Pr9  1  0.319197  0.461939  0.435093  1
  Pr  Pr10  1  0.184361  0.466445  0.936622  1
  Pr  Pr11  1  0.315434  0.032880  0.437493  1
  Pr  Pr12  1  0.815639  0.533555  0.063378  1
  Pr  Pr13  1  0.684566  0.967120  0.562507  1
  Pr  Pr14  1  0.817450  0.965437  0.065828  1
  Pr  Pr15  1  0.182550  0.034563  0.934172  1
  Pr  Pr16  1  0.043022  0.738429  0.499995  1
  Pr  Pr17  1  0.956978  0.261571  0.500005  1
  Pr  Pr18  1  0.538973  0.247671  0.998749  1
  Pr  Pr19  1  0.461027  0.752329  0.001251  1
  Co  Co20  1  0.067105  0.748741  0.988366  1
  Co  Co21  1  0.932895  0.251259  0.011634  1
  Co  Co22  1  0.569519  0.251619  0.513105  1
  Co  Co23  1  0.430481  0.748381  0.486895  1
  Bi  Bi24  1  0.926177  0.989730  0.326616  1
  Bi  Bi25  1  0.073823  0.010270  0.673384  1
  Te  Te26  1  0.574142  0.511724  0.824580  1
  Te  Te27  1  0.425858  0.488276  0.175420  1
  Te  Te28  1  0.075719  0.489626  0.680998  1
  Te  Te29  1  0.425388  0.011054  0.176985  1
  Te  Te30  1  0.924281  0.510374  0.319002  1
  Te  Te31  1  0.574612  0.988946  0.823015  1
