# generated using pymatgen
data_LiPr6PtBr12
_symmetry_space_group_name_H-M   'P 1'
_cell_length_a   9.69674734
_cell_length_b   9.71365112
_cell_length_c   9.70478092
_cell_angle_alpha   108.30186979
_cell_angle_beta   108.43456975
_cell_angle_gamma   108.39338289
_symmetry_Int_Tables_number   1
_chemical_formula_structural   LiPr6PtBr12
_chemical_formula_sum   'Li1 Pr6 Pt1 Br12'
_cell_volume   730.80174344
_cell_formula_units_Z   1
loop_
 _symmetry_equiv_pos_site_id
 _symmetry_equiv_pos_as_xyz
  1  'x, y, z'
loop_
 _atom_site_type_symbol
 _atom_site_label
 _atom_site_symmetry_multiplicity
 _atom_site_fract_x
 _atom_site_fract_y
 _atom_site_fract_z
 _atom_site_occupancy
  Li  Li0  1  0.500000  0.500000  0.500000  1
  Pr  Pr1  1  0.119228  0.329083  0.036133  1
  Pr  Pr2  1  0.327627  0.035606  0.118377  1
  Pr  Pr3  1  0.035827  0.119299  0.328652  1
  Pr  Pr4  1  0.964174  0.880701  0.671349  1
  Pr  Pr5  1  0.672373  0.964395  0.881623  1
  Pr  Pr6  1  0.880772  0.670917  0.963867  1
  Pt  Pt7  1  0.000000  0.000000  0.000000  1
  Br  Br8  1  0.214982  0.687087  0.070802  1
  Br  Br9  1  0.464383  0.385093  0.179935  1
  Br  Br10  1  0.686779  0.070650  0.214894  1
  Br  Br11  1  0.929319  0.785137  0.313112  1
  Br  Br12  1  0.179838  0.464091  0.385127  1
  Br  Br13  1  0.385289  0.179925  0.464330  1
  Br  Br14  1  0.614711  0.820075  0.535671  1
  Br  Br15  1  0.820163  0.535909  0.614873  1
  Br  Br16  1  0.070682  0.214863  0.686889  1
  Br  Br17  1  0.313222  0.929351  0.785106  1
  Br  Br18  1  0.535617  0.614907  0.820066  1
  Br  Br19  1  0.785018  0.312913  0.929198  1
