# generated using pymatgen
data_ErMg(AlPt)2
_symmetry_space_group_name_H-M   'P 1'
_cell_length_a   4.17494900
_cell_length_b   6.74691181
_cell_length_c   7.82718600
_cell_angle_alpha   85.28551010
_cell_angle_beta   90.00000000
_cell_angle_gamma   90.00000000
_symmetry_Int_Tables_number   1
_chemical_formula_structural   ErMg(AlPt)2
_chemical_formula_sum   'Er2 Mg2 Al4 Pt4'
_cell_volume   219.73032278
_cell_formula_units_Z   2
loop_
 _symmetry_equiv_pos_site_id
 _symmetry_equiv_pos_as_xyz
  1  'x, y, z'
loop_
 _atom_site_type_symbol
 _atom_site_label
 _atom_site_symmetry_multiplicity
 _atom_site_fract_x
 _atom_site_fract_y
 _atom_site_fract_z
 _atom_site_occupancy
  Er  Er0  1  0.750000  0.029463  0.683680  1
  Er  Er1  1  0.250000  0.970537  0.316320  1
  Mg  Mg2  1  0.250000  0.470999  0.170494  1
  Mg  Mg3  1  0.750000  0.529001  0.829506  1
  Al  Al4  1  0.250000  0.847112  0.938691  1
  Al  Al5  1  0.750000  0.152888  0.061309  1
  Al  Al6  1  0.750000  0.636781  0.442872  1
  Al  Al7  1  0.250000  0.363219  0.557128  1
  Pt  Pt8  1  0.250000  0.722101  0.631129  1
  Pt  Pt9  1  0.750000  0.277899  0.368871  1
  Pt  Pt10  1  0.750000  0.763607  0.119079  1
  Pt  Pt11  1  0.250000  0.236393  0.880921  1
