# generated using pymatgen
data_Y2Mn5(PIr)7
_symmetry_space_group_name_H-M   'P 1'
_cell_length_a   9.37863187
_cell_length_b   9.39120429
_cell_length_c   3.89340600
_cell_angle_alpha   90.00000000
_cell_angle_beta   90.00000000
_cell_angle_gamma   120.31089221
_symmetry_Int_Tables_number   1
_chemical_formula_structural   Y2Mn5(PIr)7
_chemical_formula_sum   'Y2 Mn5 P7 Ir7'
_cell_volume   296.04110841
_cell_formula_units_Z   1
loop_
 _symmetry_equiv_pos_site_id
 _symmetry_equiv_pos_as_xyz
  1  'x, y, z'
loop_
 _atom_site_type_symbol
 _atom_site_label
 _atom_site_symmetry_multiplicity
 _atom_site_fract_x
 _atom_site_fract_y
 _atom_site_fract_z
 _atom_site_occupancy
  Y  Y0  1  0.999430  0.000537  0.000000  1
  Y  Y1  1  0.332790  0.664702  0.500000  1
  Mn  Mn2  1  0.771511  0.173275  0.000000  1
  Mn  Mn3  1  0.397025  0.222496  0.000000  1
  Mn  Mn4  1  0.829569  0.604951  0.000000  1
  Mn  Mn5  1  0.572099  0.456686  0.500000  1
  Mn  Mn6  1  0.886202  0.427064  0.500000  1
  P  P7  1  0.557491  0.918802  0.000000  1
  P  P8  1  0.367983  0.442120  0.000000  1
  P  P9  1  0.077148  0.630773  0.000000  1
  P  P10  1  0.944820  0.218750  0.500000  1
  P  P11  1  0.266302  0.056798  0.500000  1
  P  P12  1  0.784120  0.727172  0.500000  1
  P  P13  1  0.667093  0.337278  0.000000  1
  Ir  Ir14  1  0.306356  0.905153  0.000000  1
  Ir  Ir15  1  0.603442  0.694811  0.000000  1
  Ir  Ir16  1  0.091548  0.394957  0.000000  1
  Ir  Ir17  1  0.723297  0.946969  0.500000  1
  Ir  Ir18  1  0.225496  0.279425  0.500000  1
  Ir  Ir19  1  0.056292  0.777572  0.500000  1
  Ir  Ir20  1  0.539988  0.119710  0.500000  1
