# generated using pymatgen
data_Lu8V7Si16Mo5
_symmetry_space_group_name_H-M   'P 1'
_cell_length_a   6.61614121
_cell_length_b   6.82029909
_cell_length_c   12.81387385
_cell_angle_alpha   90.00120739
_cell_angle_beta   90.02667934
_cell_angle_gamma   90.07122696
_symmetry_Int_Tables_number   1
_chemical_formula_structural   Lu8V7Si16Mo5
_chemical_formula_sum   'Lu8 V7 Si16 Mo5'
_cell_volume   578.21352727
_cell_formula_units_Z   1
loop_
 _symmetry_equiv_pos_site_id
 _symmetry_equiv_pos_as_xyz
  1  'x, y, z'
loop_
 _atom_site_type_symbol
 _atom_site_label
 _atom_site_symmetry_multiplicity
 _atom_site_fract_x
 _atom_site_fract_y
 _atom_site_fract_z
 _atom_site_occupancy
  Lu  Lu0  1  0.499094  0.330326  0.094253  1
  Lu  Lu1  1  0.999464  0.169986  0.405626  1
  Lu  Lu2  1  0.500955  0.670653  0.593953  1
  Lu  Lu3  1  0.000675  0.830402  0.906635  1
  Lu  Lu4  1  0.501441  0.669145  0.906440  1
  Lu  Lu5  1  0.001355  0.831111  0.593988  1
  Lu  Lu6  1  0.499389  0.330216  0.405557  1
  Lu  Lu7  1  0.999148  0.169849  0.094410  1
  V  V8  1  0.834991  0.331681  0.625206  1
  V  V9  1  0.332952  0.167620  0.874200  1
  V  V10  1  0.166372  0.667906  0.125696  1
  V  V11  1  0.666944  0.832903  0.374827  1
  V  V12  1  0.166097  0.667180  0.374686  1
  V  V13  1  0.666553  0.832412  0.125397  1
  V  V14  1  0.833271  0.332267  0.874783  1
  Si  Si15  1  0.664893  0.043057  0.542119  1
  Si  Si16  1  0.162481  0.455622  0.957292  1
  Si  Si17  1  0.337173  0.955454  0.042821  1
  Si  Si18  1  0.836949  0.544495  0.456733  1
  Si  Si19  1  0.337721  0.953025  0.455022  1
  Si  Si20  1  0.837360  0.544094  0.042979  1
  Si  Si21  1  0.662172  0.044103  0.957463  1
  Si  Si22  1  0.160611  0.459940  0.541860  1
  Si  Si23  1  0.537477  0.369897  0.750780  1
  Si  Si24  1  0.034293  0.130817  0.751530  1
  Si  Si25  1  0.463666  0.631374  0.250156  1
  Si  Si26  1  0.963327  0.868988  0.250199  1
  Si  Si27  1  0.799576  0.626033  0.749832  1
  Si  Si28  1  0.299865  0.871582  0.751522  1
  Si  Si29  1  0.201053  0.374405  0.250057  1
  Si  Si30  1  0.700685  0.125653  0.249822  1
  Mo  Mo31  1  0.331380  0.167062  0.623690  1
  Mo  Mo32  1  0.664578  0.006864  0.750551  1
  Mo  Mo33  1  0.162251  0.493728  0.750365  1
  Mo  Mo34  1  0.336814  0.992371  0.249648  1
  Mo  Mo35  1  0.836974  0.507779  0.249899  1
