# generated using pymatgen
data_Er2Fe3P7IrRu8
_symmetry_space_group_name_H-M   'P 1'
_cell_length_a   9.31637808
_cell_length_b   9.28990100
_cell_length_c   3.83976200
_cell_angle_alpha   90.00000000
_cell_angle_beta   90.00000000
_cell_angle_gamma   120.16964761
_symmetry_Int_Tables_number   1
_chemical_formula_structural   Er2Fe3P7IrRu8
_chemical_formula_sum   'Er2 Fe3 P7 Ir1 Ru8'
_cell_volume   287.30829754
_cell_formula_units_Z   1
loop_
 _symmetry_equiv_pos_site_id
 _symmetry_equiv_pos_as_xyz
  1  'x, y, z'
loop_
 _atom_site_type_symbol
 _atom_site_label
 _atom_site_symmetry_multiplicity
 _atom_site_fract_x
 _atom_site_fract_y
 _atom_site_fract_z
 _atom_site_occupancy
  Er  Er0  1  0.999964  0.000474  0.000000  1
  Er  Er1  1  0.333667  0.666562  0.500000  1
  Fe  Fe2  1  0.824097  0.224367  0.000000  1
  Fe  Fe3  1  0.778473  0.603194  0.000000  1
  Fe  Fe4  1  0.397122  0.174319  0.000000  1
  P  P5  1  0.080718  0.438133  0.000000  1
  P  P6  1  0.557516  0.637655  0.000000  1
  P  P7  1  0.366523  0.923119  0.000000  1
  P  P8  1  0.782208  0.053046  0.500000  1
  P  P9  1  0.942868  0.731901  0.500000  1
  P  P10  1  0.268693  0.215784  0.500000  1
  P  P11  1  0.665803  0.333419  0.000000  1
  Ir  Ir12  1  0.092830  0.692390  0.000000  1
  Ru  Ru13  1  0.306461  0.394373  0.000000  1
  Ru  Ru14  1  0.605243  0.911043  0.000000  1
  Ru  Ru15  1  0.052256  0.279918  0.500000  1
  Ru  Ru16  1  0.717771  0.772681  0.500000  1
  Ru  Ru17  1  0.225112  0.945102  0.500000  1
  Ru  Ru18  1  0.874494  0.453602  0.500000  1
  Ru  Ru19  1  0.549749  0.420187  0.500000  1
  Ru  Ru20  1  0.578432  0.128730  0.500000  1
