# generated using pymatgen
data_Li2La4ErP12Ru17
_symmetry_space_group_name_H-M   'P 1'
_cell_length_a   12.63237444
_cell_length_b   12.85000196
_cell_length_c   4.01922400
_cell_angle_alpha   90.00000000
_cell_angle_beta   90.00000000
_cell_angle_gamma   120.61738848
_symmetry_Int_Tables_number   1
_chemical_formula_structural   Li2La4ErP12Ru17
_chemical_formula_sum   'Li2 La4 Er1 P12 Ru17'
_cell_volume   561.46854246
_cell_formula_units_Z   1
loop_
 _symmetry_equiv_pos_site_id
 _symmetry_equiv_pos_as_xyz
  1  'x, y, z'
loop_
 _atom_site_type_symbol
 _atom_site_label
 _atom_site_symmetry_multiplicity
 _atom_site_fract_x
 _atom_site_fract_y
 _atom_site_fract_z
 _atom_site_occupancy
  Li  Li0  1  0.562568  0.562939  0.000000  1
  Li  Li1  1  0.437501  0.000140  0.000000  1
  La  La2  1  0.181824  0.179851  0.500000  1
  La  La3  1  0.817357  0.995297  0.500000  1
  La  La4  1  0.001490  0.817925  0.500000  1
  La  La5  1  0.324456  0.662591  0.000000  1
  Er  Er6  1  0.677061  0.337305  0.000000  1
  P  P7  1  0.803953  0.802005  0.000000  1
  P  P8  1  0.200368  0.005809  0.000000  1
  P  P9  1  0.996969  0.184376  0.000000  1
  P  P10  1  0.164585  0.473531  0.500000  1
  P  P11  1  0.518049  0.699840  0.500000  1
  P  P12  1  0.299744  0.826336  0.500000  1
  P  P13  1  0.702711  0.520274  0.500000  1
  P  P14  1  0.825113  0.304008  0.500000  1
  P  P15  1  0.488916  0.191535  0.500000  1
  P  P16  1  0.372686  0.373904  0.000000  1
  P  P17  1  0.625055  0.996475  0.000000  1
  P  P18  1  0.001055  0.621130  0.000000  1
  Ru  Ru19  1  0.999881  0.442983  0.000000  1
  Ru  Ru20  1  0.706280  0.705013  0.500000  1
  Ru  Ru21  1  0.298139  0.007190  0.500000  1
  Ru  Ru22  1  0.995660  0.282405  0.500000  1
  Ru  Ru23  1  0.182757  0.376999  0.000000  1
  Ru  Ru24  1  0.614076  0.800312  0.000000  1
  Ru  Ru25  1  0.195135  0.817595  0.000000  1
  Ru  Ru26  1  0.806258  0.616692  0.000000  1
  Ru  Ru27  1  0.810099  0.192258  0.000000  1
  Ru  Ru28  1  0.392477  0.194205  0.000000  1
  Ru  Ru29  1  0.365812  0.490780  0.500000  1
  Ru  Ru30  1  0.511971  0.883238  0.500000  1
  Ru  Ru31  1  0.121355  0.633510  0.500000  1
  Ru  Ru32  1  0.874770  0.503080  0.500000  1
  Ru  Ru33  1  0.628836  0.126861  0.500000  1
  Ru  Ru34  1  0.495003  0.376866  0.500000  1
  Ru  Ru35  1  0.000026  0.994743  0.000000  1
