# generated using pymatgen
data_Er9Tm11(IrPt2)4
_symmetry_space_group_name_H-M   'P 1'
_cell_length_a   10.92142709
_cell_length_b   10.92185403
_cell_length_c   6.31077704
_cell_angle_alpha   89.99788147
_cell_angle_beta   90.01214177
_cell_angle_gamma   90.00822596
_symmetry_Int_Tables_number   1
_chemical_formula_structural   Er9Tm11(IrPt2)4
_chemical_formula_sum   'Er9 Tm11 Ir4 Pt8'
_cell_volume   752.76354836
_cell_formula_units_Z   1
loop_
 _symmetry_equiv_pos_site_id
 _symmetry_equiv_pos_as_xyz
  1  'x, y, z'
loop_
 _atom_site_type_symbol
 _atom_site_label
 _atom_site_symmetry_multiplicity
 _atom_site_fract_x
 _atom_site_fract_y
 _atom_site_fract_z
 _atom_site_occupancy
  Er  Er0  1  0.294849  0.087249  0.373881  1
  Er  Er1  1  0.294849  0.912753  0.873856  1
  Er  Er2  1  0.705121  0.087231  0.873925  1
  Er  Er3  1  0.705133  0.912756  0.373897  1
  Er  Er4  1  0.587240  0.794838  0.873950  1
  Er  Er5  1  0.587210  0.205129  0.373968  1
  Er  Er6  1  0.412762  0.794917  0.373882  1
  Er  Er7  1  0.412908  0.204988  0.873967  1
  Er  Er8  1  0.204578  0.413223  0.625828  1
  Tm  Tm9  1  0.204109  0.586864  0.125545  1
  Tm  Tm10  1  0.795865  0.413284  0.125486  1
  Tm  Tm11  1  0.795819  0.586729  0.625623  1
  Tm  Tm12  1  0.913343  0.704238  0.125560  1
  Tm  Tm13  1  0.913085  0.295795  0.625531  1
  Tm  Tm14  1  0.086583  0.704337  0.625564  1
  Tm  Tm15  1  0.086508  0.295749  0.125573  1
  Tm  Tm16  1  0.999944  0.000017  0.500263  1
  Tm  Tm17  1  0.999968  0.999940  0.000334  1
  Tm  Tm18  1  0.500075  0.500048  0.000316  1
  Tm  Tm19  1  0.500254  0.500124  0.500304  1
  Ir  Ir20  1  0.500026  0.999992  0.119973  1
  Ir  Ir21  1  0.500060  0.999979  0.619984  1
  Ir  Ir22  1  0.999690  0.500121  0.880035  1
  Ir  Ir23  1  0.999685  0.500099  0.379645  1
  Pt  Pt24  1  0.847252  0.154216  0.250395  1
  Pt  Pt25  1  0.847281  0.845824  0.750392  1
  Pt  Pt26  1  0.152640  0.153709  0.750757  1
  Pt  Pt27  1  0.152689  0.845802  0.250445  1
  Pt  Pt28  1  0.654173  0.347251  0.750488  1
  Pt  Pt29  1  0.654203  0.652705  0.250408  1
  Pt  Pt30  1  0.346119  0.347113  0.249578  1
  Pt  Pt31  1  0.345978  0.652980  0.750643  1
