# generated using pymatgen
data_Er16In4Co3Pd
_symmetry_space_group_name_H-M   'P 1'
_cell_length_a   9.48339476
_cell_length_b   9.52727985
_cell_length_c   9.48339500
_cell_angle_alpha   60.15225972
_cell_angle_beta   60.00000266
_cell_angle_gamma   60.15226084
_symmetry_Int_Tables_number   1
_chemical_formula_structural   Er16In4Co3Pd
_chemical_formula_sum   'Er16 In4 Co3 Pd1'
_cell_volume   607.26362673
_cell_formula_units_Z   1
loop_
 _symmetry_equiv_pos_site_id
 _symmetry_equiv_pos_as_xyz
  1  'x, y, z'
loop_
 _atom_site_type_symbol
 _atom_site_label
 _atom_site_symmetry_multiplicity
 _atom_site_fract_x
 _atom_site_fract_y
 _atom_site_fract_z
 _atom_site_occupancy
  Er  Er0  1  0.198529  0.177217  0.812127  1
  Er  Er1  1  0.437780  0.063942  0.060498  1
  Er  Er2  1  0.437780  0.063942  0.437780  1
  Er  Er3  1  0.060533  0.441971  0.060533  1
  Er  Er4  1  0.654343  0.036971  0.654343  1
  Er  Er5  1  0.188166  0.811082  0.812585  1
  Er  Er6  1  0.060498  0.063942  0.437780  1
  Er  Er7  1  0.812127  0.177217  0.198529  1
  Er  Er8  1  0.812585  0.811082  0.188166  1
  Er  Er9  1  0.646063  0.662320  0.045554  1
  Er  Er10  1  0.646063  0.662320  0.646063  1
  Er  Er11  1  0.060533  0.441971  0.436965  1
  Er  Er12  1  0.045554  0.662320  0.646063  1
  Er  Er13  1  0.812127  0.177217  0.812127  1
  Er  Er14  1  0.436965  0.441971  0.060533  1
  Er  Er15  1  0.188166  0.811082  0.188166  1
  In  In16  1  0.416401  0.750798  0.416401  1
  In  In17  1  0.417791  0.415502  0.748915  1
  In  In18  1  0.748915  0.415502  0.417791  1
  In  In19  1  0.417791  0.415502  0.417791  1
  Co  Co20  1  0.859207  0.856507  0.425077  1
  Co  Co21  1  0.425077  0.856507  0.859207  1
  Co  Co22  1  0.859207  0.856507  0.859207  1
  Pd  Pd23  1  0.857799  0.426602  0.857799  1
