# generated using pymatgen
data_Ho12Ni4SnRh
_symmetry_space_group_name_H-M   'P 1'
_cell_length_a   8.28967511
_cell_length_b   8.28967530
_cell_length_c   8.28967582
_cell_angle_alpha   111.71427448
_cell_angle_beta   109.88824550
_cell_angle_gamma   106.84809181
_symmetry_Int_Tables_number   1
_chemical_formula_structural   Ho12Ni4SnRh
_chemical_formula_sum   'Ho12 Ni4 Sn1 Rh1'
_cell_volume   437.71907113
_cell_formula_units_Z   1
loop_
 _symmetry_equiv_pos_site_id
 _symmetry_equiv_pos_as_xyz
  1  'x, y, z'
loop_
 _atom_site_type_symbol
 _atom_site_label
 _atom_site_symmetry_multiplicity
 _atom_site_fract_x
 _atom_site_fract_y
 _atom_site_fract_z
 _atom_site_occupancy
  Ho  Ho0  1  0.405649  0.214016  0.191632  1
  Ho  Ho1  1  0.594351  0.785984  0.808368  1
  Ho  Ho2  1  0.022383  0.214016  0.808368  1
  Ho  Ho3  1  0.977617  0.785984  0.191632  1
  Ho  Ho4  1  0.182248  0.293622  0.475870  1
  Ho  Ho5  1  0.817752  0.706378  0.524130  1
  Ho  Ho6  1  0.182248  0.706378  0.888627  1
  Ho  Ho7  1  0.817752  0.293622  0.111373  1
  Ho  Ho8  1  0.320742  0.627053  0.306311  1
  Ho  Ho9  1  0.679258  0.372947  0.693689  1
  Ho  Ho10  1  0.320742  0.014431  0.693689  1
  Ho  Ho11  1  0.679258  0.985569  0.306311  1
  Ni  Ni12  1  0.363056  0.000000  0.363056  1
  Ni  Ni13  1  0.636944  0.000000  0.636944  1
  Ni  Ni14  1  0.123662  0.623662  0.500000  1
  Ni  Ni15  1  0.876338  0.376338  0.500000  1
  Sn  Sn16  1  0.500000  0.500000  0.000000  1
  Rh  Rh17  1  0.000000  0.000000  0.000000  1
