# generated using pymatgen
data_Lu2HfGa5Rh
_symmetry_space_group_name_H-M   'P 1'
_cell_length_a   6.82366100
_cell_length_b   6.73630838
_cell_length_c   4.17538900
_cell_angle_alpha   90.00000000
_cell_angle_beta   90.00000000
_cell_angle_gamma   120.42988943
_symmetry_Int_Tables_number   1
_chemical_formula_structural   Lu2HfGa5Rh
_chemical_formula_sum   'Lu2 Hf1 Ga5 Rh1'
_cell_volume   165.48907643
_cell_formula_units_Z   1
loop_
 _symmetry_equiv_pos_site_id
 _symmetry_equiv_pos_as_xyz
  1  'x, y, z'
loop_
 _atom_site_type_symbol
 _atom_site_label
 _atom_site_symmetry_multiplicity
 _atom_site_fract_x
 _atom_site_fract_y
 _atom_site_fract_z
 _atom_site_occupancy
  Lu  Lu0  1  0.004811  0.588457  0.000000  1
  Lu  Lu1  1  0.416353  0.411543  0.000000  1
  Hf  Hf2  1  0.591883  0.000000  0.000000  1
  Ga  Ga3  1  0.240385  0.000000  0.500000  1
  Ga  Ga4  1  0.999594  0.242584  0.500000  1
  Ga  Ga5  1  0.757011  0.757416  0.500000  1
  Ga  Ga6  1  0.340924  0.677142  0.500000  1
  Ga  Ga7  1  0.663783  0.322858  0.500000  1
  Rh  Rh8  1  0.985255  0.000000  0.000000  1
