# generated using pymatgen
data_TbTh2ScAl2Rh3
_symmetry_space_group_name_H-M   'P 1'
_cell_length_a   7.30006052
_cell_length_b   7.10037884
_cell_length_c   4.22387500
_cell_angle_alpha   90.00000000
_cell_angle_beta   90.00000000
_cell_angle_gamma   119.09921028
_symmetry_Int_Tables_number   1
_chemical_formula_structural   TbTh2ScAl2Rh3
_chemical_formula_sum   'Tb1 Th2 Sc1 Al2 Rh3'
_cell_volume   191.30248231
_cell_formula_units_Z   1
loop_
 _symmetry_equiv_pos_site_id
 _symmetry_equiv_pos_as_xyz
  1  'x, y, z'
loop_
 _atom_site_type_symbol
 _atom_site_label
 _atom_site_symmetry_multiplicity
 _atom_site_fract_x
 _atom_site_fract_y
 _atom_site_fract_z
 _atom_site_occupancy
  Tb  Tb0  1  0.000000  0.395912  0.500000  1
  Th  Th1  1  0.564551  0.575891  0.500000  1
  Th  Th2  1  0.435449  0.011340  0.500000  1
  Sc  Sc3  1  0.000000  0.758233  0.000000  1
  Al  Al4  1  0.225604  0.237365  0.000000  1
  Al  Al5  1  0.774396  0.011760  0.000000  1
  Rh  Rh6  1  0.353931  0.683310  0.000000  1
  Rh  Rh7  1  0.646069  0.329379  0.000000  1
  Rh  Rh8  1  0.000000  0.996808  0.500000  1
