# generated using pymatgen
data_Hf2Zr4Al16OsPt6
_symmetry_space_group_name_H-M   'P 1'
_cell_length_a   8.77652780
_cell_length_b   8.77652800
_cell_length_c   8.77797900
_cell_angle_alpha   59.99452709
_cell_angle_beta   59.99452634
_cell_angle_gamma   59.98988556
_symmetry_Int_Tables_number   1
_chemical_formula_structural   Hf2Zr4Al16OsPt6
_chemical_formula_sum   'Hf2 Zr4 Al16 Os1 Pt6'
_cell_volume   478.03079907
_cell_formula_units_Z   1
loop_
 _symmetry_equiv_pos_site_id
 _symmetry_equiv_pos_as_xyz
  1  'x, y, z'
loop_
 _atom_site_type_symbol
 _atom_site_label
 _atom_site_symmetry_multiplicity
 _atom_site_fract_x
 _atom_site_fract_y
 _atom_site_fract_z
 _atom_site_occupancy
  Hf  Hf0  1  0.677411  0.322589  0.683276  1
  Hf  Hf1  1  0.322589  0.677411  0.683276  1
  Zr  Zr2  1  0.688267  0.688267  0.312161  1
  Zr  Zr3  1  0.316779  0.683221  0.313205  1
  Zr  Zr4  1  0.683221  0.316779  0.313205  1
  Zr  Zr5  1  0.311733  0.311733  0.688696  1
  Al  Al6  1  0.879299  0.879299  0.361385  1
  Al  Al7  1  0.870603  0.362424  0.882766  1
  Al  Al8  1  0.362424  0.870603  0.882766  1
  Al  Al9  1  0.880128  0.880128  0.880643  1
  Al  Al10  1  0.119872  0.119872  0.640900  1
  Al  Al11  1  0.129397  0.637576  0.115793  1
  Al  Al12  1  0.637576  0.129397  0.115793  1
  Al  Al13  1  0.120701  0.120701  0.119984  1
  Al  Al14  1  0.662669  0.662669  0.008858  1
  Al  Al15  1  0.662351  0.011822  0.663541  1
  Al  Al16  1  0.011822  0.662351  0.663541  1
  Al  Al17  1  0.662392  0.662392  0.665004  1
  Al  Al18  1  0.337608  0.337608  0.989791  1
  Al  Al19  1  0.337649  0.988178  0.337714  1
  Al  Al20  1  0.988178  0.337649  0.337714  1
  Al  Al21  1  0.337331  0.337331  0.334197  1
  Os  Os22  1  0.500000  0.500000  0.998388  1
  Pt  Pt23  1  0.000000  0.000000  0.002088  1
  Pt  Pt24  1  0.000000  0.000000  0.502435  1
  Pt  Pt25  1  0.499124  0.999751  0.501284  1
  Pt  Pt26  1  0.999751  0.499124  0.501284  1
  Pt  Pt27  1  0.000249  0.500876  0.000158  1
  Pt  Pt28  1  0.500876  0.000249  0.000158  1
