# generated using pymatgen
data_HoEr3CdRh
_symmetry_space_group_name_H-M   'P 1'
_cell_length_a   9.54985632
_cell_length_b   9.55098187
_cell_length_c   9.55851832
_cell_angle_alpha   60.04806169
_cell_angle_beta   60.02279793
_cell_angle_gamma   60.07783540
_symmetry_Int_Tables_number   1
_chemical_formula_structural   HoEr3CdRh
_chemical_formula_sum   'Ho4 Er12 Cd4 Rh4'
_cell_volume   617.17432959
_cell_formula_units_Z   4
loop_
 _symmetry_equiv_pos_site_id
 _symmetry_equiv_pos_as_xyz
  1  'x, y, z'
loop_
 _atom_site_type_symbol
 _atom_site_label
 _atom_site_symmetry_multiplicity
 _atom_site_fract_x
 _atom_site_fract_y
 _atom_site_fract_z
 _atom_site_occupancy
  Ho  Ho0  1  0.936372  0.563594  0.936407  1
  Ho  Ho1  1  0.563938  0.936183  0.563391  1
  Ho  Ho2  1  0.563752  0.936208  0.936577  1
  Ho  Ho3  1  0.311528  0.311798  0.688145  1
  Er  Er4  1  0.936743  0.936433  0.563262  1
  Er  Er5  1  0.563504  0.563155  0.936734  1
  Er  Er6  1  0.688269  0.688140  0.311640  1
  Er  Er7  1  0.149707  0.550086  0.150243  1
  Er  Er8  1  0.688697  0.311575  0.688283  1
  Er  Er9  1  0.149871  0.150147  0.150482  1
  Er  Er10  1  0.550000  0.149888  0.150200  1
  Er  Er11  1  0.688537  0.311702  0.311264  1
  Er  Er12  1  0.150003  0.150074  0.549882  1
  Er  Er13  1  0.311498  0.688499  0.311316  1
  Er  Er14  1  0.311535  0.688530  0.688273  1
  Er  Er15  1  0.936464  0.563626  0.563482  1
  Cd  Cd16  1  0.918922  0.918656  0.243672  1
  Cd  Cd17  1  0.243299  0.918590  0.918979  1
  Cd  Cd18  1  0.919034  0.919100  0.918676  1
  Cd  Cd19  1  0.918559  0.243625  0.918689  1
  Rh  Rh20  1  0.357266  0.357681  0.929243  1
  Rh  Rh21  1  0.356371  0.928808  0.357519  1
  Rh  Rh22  1  0.928928  0.356395  0.357669  1
  Rh  Rh23  1  0.357203  0.357504  0.355972  1
