# generated using pymatgen
data_SmGdTa2Bi2O11
_symmetry_space_group_name_H-M   'P 1'
_cell_length_a   6.60771092
_cell_length_b   7.72915853
_cell_length_c   9.83719800
_cell_angle_alpha   101.37043422
_cell_angle_beta   90.05382987
_cell_angle_gamma   90.07900237
_symmetry_Int_Tables_number   1
_chemical_formula_structural   SmGdTa2Bi2O11
_chemical_formula_sum   'Sm2 Gd2 Ta4 Bi4 O22'
_cell_volume   492.54427757
_cell_formula_units_Z   2
loop_
 _symmetry_equiv_pos_site_id
 _symmetry_equiv_pos_as_xyz
  1  'x, y, z'
loop_
 _atom_site_type_symbol
 _atom_site_label
 _atom_site_symmetry_multiplicity
 _atom_site_fract_x
 _atom_site_fract_y
 _atom_site_fract_z
 _atom_site_occupancy
  Sm  Sm0  1  0.750213  0.369393  0.486202  1
  Sm  Sm1  1  0.249787  0.630607  0.513798  1
  Gd  Gd2  1  0.758272  0.871646  0.482889  1
  Gd  Gd3  1  0.241728  0.128354  0.517111  1
  Ta  Ta4  1  0.913323  0.700752  0.804236  1
  Ta  Ta5  1  0.086677  0.299248  0.195764  1
  Ta  Ta6  1  0.912187  0.201689  0.807624  1
  Ta  Ta7  1  0.087813  0.798311  0.192376  1
  Bi  Bi8  1  0.435136  0.953633  0.815597  1
  Bi  Bi9  1  0.564864  0.046367  0.184403  1
  Bi  Bi10  1  0.387454  0.457355  0.827237  1
  Bi  Bi11  1  0.612546  0.542645  0.172763  1
  O  O12  1  0.216570  0.726379  0.757136  1
  O  O13  1  0.783430  0.273621  0.242864  1
  O  O14  1  0.629540  0.664067  0.840261  1
  O  O15  1  0.370460  0.335933  0.159739  1
  O  O16  1  0.627925  0.255617  0.841815  1
  O  O17  1  0.372075  0.744383  0.158185  1
  O  O18  1  0.888650  0.146511  0.591963  1
  O  O19  1  0.111350  0.853489  0.408037  1
  O  O20  1  0.214401  0.150250  0.758442  1
  O  O21  1  0.785599  0.849750  0.241558  1
  O  O22  1  0.894501  0.648844  0.591230  1
  O  O23  1  0.105499  0.351156  0.408770  1
  O  O24  1  0.029609  0.554166  0.213830  1
  O  O25  1  0.970391  0.445834  0.786170  1
  O  O26  1  0.002183  0.759936  0.998849  1
  O  O27  1  0.997817  0.240064  0.001151  1
  O  O28  1  0.572429  0.596702  0.391224  1
  O  O29  1  0.427571  0.403298  0.608776  1
  O  O30  1  0.160468  0.051815  0.205739  1
  O  O31  1  0.839532  0.948185  0.794261  1
  O  O32  1  0.541473  0.102668  0.401160  1
  O  O33  1  0.458527  0.897332  0.598840  1
