# generated using pymatgen
data_Pr5SmTaWO14
_symmetry_space_group_name_H-M   'P 1'
_cell_length_a   6.74906049
_cell_length_b   6.69266952
_cell_length_c   7.75918546
_cell_angle_alpha   89.69539298
_cell_angle_beta   90.37778430
_cell_angle_gamma   108.71726647
_symmetry_Int_Tables_number   1
_chemical_formula_structural   Pr5SmTaWO14
_chemical_formula_sum   'Pr5 Sm1 Ta1 W1 O14'
_cell_volume   331.93190109
_cell_formula_units_Z   1
loop_
 _symmetry_equiv_pos_site_id
 _symmetry_equiv_pos_as_xyz
  1  'x, y, z'
loop_
 _atom_site_type_symbol
 _atom_site_label
 _atom_site_symmetry_multiplicity
 _atom_site_fract_x
 _atom_site_fract_y
 _atom_site_fract_z
 _atom_site_occupancy
  Pr  Pr0  1  0.472487  0.475587  0.500974  1
  Pr  Pr1  1  0.462035  0.466774  0.999660  1
  Pr  Pr2  1  0.537641  0.994556  0.751433  1
  Pr  Pr3  1  0.992658  0.541315  0.246152  1
  Pr  Pr4  1  0.471292  0.995231  0.251562  1
  Sm  Sm5  1  0.994689  0.467419  0.750650  1
  Ta  Ta6  1  0.000775  0.000486  0.998885  1
  W  W7  1  0.001935  0.002279  0.501357  1
  O  O8  1  0.689282  0.926955  0.474720  1
  O  O9  1  0.953170  0.699388  0.533445  1
  O  O10  1  0.697460  0.937227  0.032053  1
  O  O11  1  0.960817  0.701637  0.961205  1
  O  O12  1  0.321415  0.081919  0.526275  1
  O  O13  1  0.068322  0.313697  0.473394  1
  O  O14  1  0.318774  0.079650  0.972609  1
  O  O15  1  0.070454  0.318877  0.025319  1
  O  O16  1  0.942427  0.066186  0.751096  1
  O  O17  1  0.061465  0.944820  0.248881  1
  O  O18  1  0.357740  0.623028  0.749324  1
  O  O19  1  0.628635  0.368934  0.250103  1
  O  O20  1  0.640017  0.365246  0.750999  1
  O  O21  1  0.356510  0.628793  0.249903  1
