# generated using pymatgen
data_Y5TmCrCo17P12
_symmetry_space_group_name_H-M   'P 1'
_cell_length_a   3.69296500
_cell_length_b   10.53434305
_cell_length_c   12.20249600
_cell_angle_alpha   90.00605441
_cell_angle_beta   90.00000000
_cell_angle_gamma   90.00000000
_symmetry_Int_Tables_number   1
_chemical_formula_structural   Y5TmCrCo17P12
_chemical_formula_sum   'Y5 Tm1 Cr1 Co17 P12'
_cell_volume   474.71321347
_cell_formula_units_Z   1
loop_
 _symmetry_equiv_pos_site_id
 _symmetry_equiv_pos_as_xyz
  1  'x, y, z'
loop_
 _atom_site_type_symbol
 _atom_site_label
 _atom_site_symmetry_multiplicity
 _atom_site_fract_x
 _atom_site_fract_y
 _atom_site_fract_z
 _atom_site_occupancy
  Y  Y0  1  0.000000  0.500031  0.522448  1
  Y  Y1  1  0.500000  0.999801  0.477712  1
  Y  Y2  1  0.500000  0.182095  0.206248  1
  Y  Y3  1  0.000000  0.682486  0.795362  1
  Y  Y4  1  0.000000  0.317667  0.795898  1
  Tm  Tm5  1  0.500000  0.817734  0.206208  1
  Cr  Cr6  1  0.500000  0.500177  0.155083  1
  Co  Co7  1  0.000000  0.999647  0.840412  1
  Co  Co8  1  0.500000  0.500244  0.703092  1
  Co  Co9  1  0.000000  0.998668  0.295943  1
  Co  Co10  1  0.000000  0.500674  0.988219  1
  Co  Co11  1  0.500000  0.999322  0.015132  1
  Co  Co12  1  0.500000  0.332797  0.993629  1
  Co  Co13  1  0.500000  0.667934  0.994127  1
  Co  Co14  1  0.000000  0.166184  0.006304  1
  Co  Co15  1  0.000000  0.833210  0.006670  1
  Co  Co16  1  0.500000  0.296447  0.430583  1
  Co  Co17  1  0.500000  0.703594  0.429519  1
  Co  Co18  1  0.000000  0.203072  0.569189  1
  Co  Co19  1  0.000000  0.796781  0.568334  1
  Co  Co20  1  0.500000  0.879280  0.708787  1
  Co  Co21  1  0.500000  0.120693  0.709289  1
  Co  Co22  1  0.000000  0.621362  0.289854  1
  Co  Co23  1  0.000000  0.379978  0.290770  1
  P  P24  1  0.500000  0.500398  0.882854  1
  P  P25  1  0.000000  0.998824  0.117718  1
  P  P26  1  0.500000  0.500022  0.345163  1
  P  P27  1  0.000000  0.000000  0.656624  1
  P  P28  1  0.500000  0.310820  0.616339  1
  P  P29  1  0.500000  0.689363  0.615650  1
  P  P30  1  0.000000  0.188554  0.384213  1
  P  P31  1  0.000000  0.811032  0.382723  1
  P  P32  1  0.500000  0.849286  0.892508  1
  P  P33  1  0.500000  0.150549  0.893040  1
  P  P34  1  0.000000  0.654882  0.107522  1
  P  P35  1  0.000000  0.346397  0.106838  1
