# generated using pymatgen
data_NiPtCl6
_symmetry_space_group_name_H-M   'P 1'
_cell_length_a   6.11061882
_cell_length_b   6.10900965
_cell_length_c   19.85817471
_cell_angle_alpha   89.99982866
_cell_angle_beta   90.02941360
_cell_angle_gamma   119.99750544
_symmetry_Int_Tables_number   1
_chemical_formula_structural   NiPtCl6
_chemical_formula_sum   'Ni3 Pt3 Cl18'
_cell_volume   642.00262525
_cell_formula_units_Z   3
loop_
 _symmetry_equiv_pos_site_id
 _symmetry_equiv_pos_as_xyz
  1  'x, y, z'
loop_
 _atom_site_type_symbol
 _atom_site_label
 _atom_site_symmetry_multiplicity
 _atom_site_fract_x
 _atom_site_fract_y
 _atom_site_fract_z
 _atom_site_occupancy
  Ni  Ni0  1  0.555168  0.110552  0.166606  1
  Ni  Ni1  1  0.889189  0.444594  0.500035  1
  Ni  Ni2  1  0.555355  0.444638  0.833348  1
  Pt  Pt3  1  0.222205  0.444364  0.166621  1
  Pt  Pt4  1  0.555628  0.777804  0.500028  1
  Pt  Pt5  1  0.222210  0.777839  0.833353  1
  Cl  Cl6  1  0.529028  0.757730  0.766450  1
  Cl  Cl7  1  0.895264  0.757769  0.900306  1
  Cl  Cl8  1  0.529227  0.104996  0.900260  1
  Cl  Cl9  1  0.862454  0.757518  0.433089  1
  Cl  Cl10  1  0.228726  0.470881  0.433138  1
  Cl  Cl11  1  0.895082  0.137388  0.099657  1
  Cl  Cl12  1  0.529249  0.771411  0.233523  1
  Cl  Cl13  1  0.895154  0.470897  0.766431  1
  Cl  Cl14  1  0.242234  0.471198  0.900239  1
  Cl  Cl15  1  0.575803  0.471191  0.566944  1
  Cl  Cl16  1  0.862659  0.105033  0.566978  1
  Cl  Cl17  1  0.228886  0.757947  0.566943  1
  Cl  Cl18  1  0.242406  0.137676  0.233559  1
  Cl  Cl19  1  0.575566  0.104524  0.433136  1
  Cl  Cl20  1  0.895285  0.424355  0.233540  1
  Cl  Cl21  1  0.529059  0.424122  0.099688  1
  Cl  Cl22  1  0.242178  0.104612  0.766417  1
  Cl  Cl23  1  0.241986  0.770957  0.099714  1
