# generated using pymatgen
data_Tb3Yb(Ga2Ag)4
_symmetry_space_group_name_H-M   'P 1'
_cell_length_a   4.37678800
_cell_length_b   7.01077276
_cell_length_c   10.29806872
_cell_angle_alpha   89.51443044
_cell_angle_beta   90.00000000
_cell_angle_gamma   90.00000000
_symmetry_Int_Tables_number   1
_chemical_formula_structural   Tb3Yb(Ga2Ag)4
_chemical_formula_sum   'Tb3 Yb1 Ga8 Ag4'
_cell_volume   315.98145244
_cell_formula_units_Z   1
loop_
 _symmetry_equiv_pos_site_id
 _symmetry_equiv_pos_as_xyz
  1  'x, y, z'
loop_
 _atom_site_type_symbol
 _atom_site_label
 _atom_site_symmetry_multiplicity
 _atom_site_fract_x
 _atom_site_fract_y
 _atom_site_fract_z
 _atom_site_occupancy
  Tb  Tb0  1  0.750000  0.219886  0.171146  1
  Tb  Tb1  1  0.750000  0.721946  0.328239  1
  Tb  Tb2  1  0.250000  0.280813  0.672540  1
  Yb  Yb3  1  0.250000  0.777548  0.829204  1
  Ga  Ga4  1  0.250000  0.927378  0.154447  1
  Ga  Ga5  1  0.750000  0.071499  0.848597  1
  Ga  Ga6  1  0.750000  0.573039  0.651810  1
  Ga  Ga7  1  0.250000  0.426551  0.346060  1
  Ga  Ga8  1  0.250000  0.703202  0.536997  1
  Ga  Ga9  1  0.750000  0.294456  0.462723  1
  Ga  Ga10  1  0.750000  0.796847  0.035481  1
  Ga  Ga11  1  0.250000  0.203708  0.963278  1
  Ag  Ag12  1  0.250000  0.544467  0.096841  1
  Ag  Ag13  1  0.750000  0.458696  0.902350  1
  Ag  Ag14  1  0.750000  0.956362  0.597704  1
  Ag  Ag15  1  0.250000  0.043602  0.402583  1
