# generated using pymatgen
data_NdPa7Zn8Ir3Rh5
_symmetry_space_group_name_H-M   'P 1'
_cell_length_a   3.83531100
_cell_length_b   7.41996788
_cell_length_c   16.38734564
_cell_angle_alpha   90.48692953
_cell_angle_beta   90.00000000
_cell_angle_gamma   90.00000000
_symmetry_Int_Tables_number   1
_chemical_formula_structural   NdPa7Zn8Ir3Rh5
_chemical_formula_sum   'Nd1 Pa7 Zn8 Ir3 Rh5'
_cell_volume   466.33234756
_cell_formula_units_Z   1
loop_
 _symmetry_equiv_pos_site_id
 _symmetry_equiv_pos_as_xyz
  1  'x, y, z'
loop_
 _atom_site_type_symbol
 _atom_site_label
 _atom_site_symmetry_multiplicity
 _atom_site_fract_x
 _atom_site_fract_y
 _atom_site_fract_z
 _atom_site_occupancy
  Nd  Nd0  1  0.250000  0.554787  0.786873  1
  Pa  Pa1  1  0.250000  0.168236  0.939547  1
  Pa  Pa2  1  0.250000  0.674743  0.560423  1
  Pa  Pa3  1  0.750000  0.334228  0.439400  1
  Pa  Pa4  1  0.750000  0.942394  0.285023  1
  Pa  Pa5  1  0.750000  0.828483  0.061677  1
  Pa  Pa6  1  0.750000  0.441355  0.215657  1
  Pa  Pa7  1  0.250000  0.055144  0.714449  1
  Zn  Zn8  1  0.750000  0.014381  0.556895  1
  Zn  Zn9  1  0.250000  0.613409  0.344512  1
  Zn  Zn10  1  0.750000  0.390940  0.656875  1
  Zn  Zn11  1  0.250000  0.491191  0.061872  1
  Zn  Zn12  1  0.750000  0.502370  0.939665  1
  Zn  Zn13  1  0.250000  0.997618  0.438676  1
  Zn  Zn14  1  0.250000  0.113546  0.155256  1
  Zn  Zn15  1  0.750000  0.874677  0.844921  1
  Ir  Ir16  1  0.250000  0.241643  0.313512  1
  Ir  Ir17  1  0.250000  0.272793  0.559086  1
  Ir  Ir18  1  0.250000  0.742186  0.186821  1
  Rh  Rh19  1  0.750000  0.737632  0.441033  1
  Rh  Rh20  1  0.750000  0.224628  0.816263  1
  Rh  Rh21  1  0.750000  0.780711  0.675766  1
  Rh  Rh22  1  0.750000  0.233949  0.057208  1
  Rh  Rh23  1  0.250000  0.768960  0.948591  1
