# generated using pymatgen
data_Sc2CuPd5
_symmetry_space_group_name_H-M   'P 1'
_cell_length_a   5.60685808
_cell_length_b   5.60685939
_cell_length_c   4.02392900
_cell_angle_alpha   90.00000000
_cell_angle_beta   90.00000000
_cell_angle_gamma   92.64666173
_symmetry_Int_Tables_number   1
_chemical_formula_structural   Sc2CuPd5
_chemical_formula_sum   'Sc2 Cu1 Pd5'
_cell_volume   126.36477423
_cell_formula_units_Z   1
loop_
 _symmetry_equiv_pos_site_id
 _symmetry_equiv_pos_as_xyz
  1  'x, y, z'
loop_
 _atom_site_type_symbol
 _atom_site_label
 _atom_site_symmetry_multiplicity
 _atom_site_fract_x
 _atom_site_fract_y
 _atom_site_fract_z
 _atom_site_occupancy
  Sc  Sc0  1  0.760705  0.239293  0.000000  1
  Sc  Sc1  1  0.239293  0.760705  0.000000  1
  Cu  Cu2  1  0.499999  0.499999  0.499999  1
  Pd  Pd3  1  0.266831  0.266831  0.000000  1
  Pd  Pd4  1  0.733170  0.733170  0.000000  1
  Pd  Pd5  1  0.000000  0.000000  0.499999  1
  Pd  Pd6  1  0.500000  0.000000  0.499999  1
  Pd  Pd7  1  0.000000  0.500000  0.499999  1
