# generated using pymatgen
data_YHo4(CoTe)2
_symmetry_space_group_name_H-M   'P 1'
_cell_length_a   7.76108778
_cell_length_b   7.76108759
_cell_length_c   14.92102200
_cell_angle_alpha   90.00000000
_cell_angle_beta   90.00000000
_cell_angle_gamma   150.38612684
_symmetry_Int_Tables_number   1
_chemical_formula_structural   YHo4(CoTe)2
_chemical_formula_sum   'Y2 Ho8 Co4 Te4'
_cell_volume   444.12441349
_cell_formula_units_Z   2
loop_
 _symmetry_equiv_pos_site_id
 _symmetry_equiv_pos_as_xyz
  1  'x, y, z'
loop_
 _atom_site_type_symbol
 _atom_site_label
 _atom_site_symmetry_multiplicity
 _atom_site_fract_x
 _atom_site_fract_y
 _atom_site_fract_z
 _atom_site_occupancy
  Y  Y0  1  0.605292  0.394708  0.250000  1
  Y  Y1  1  0.394708  0.605292  0.750000  1
  Ho  Ho2  1  0.959678  0.040322  0.126022  1
  Ho  Ho3  1  0.040322  0.959678  0.873978  1
  Ho  Ho4  1  0.040322  0.959678  0.626022  1
  Ho  Ho5  1  0.959678  0.040322  0.373978  1
  Ho  Ho6  1  0.741269  0.258731  0.630879  1
  Ho  Ho7  1  0.258731  0.741269  0.369121  1
  Ho  Ho8  1  0.258731  0.741269  0.130879  1
  Ho  Ho9  1  0.741269  0.258731  0.869121  1
  Co  Co10  1  0.410454  0.589546  0.250000  1
  Co  Co11  1  0.589546  0.410454  0.750000  1
  Co  Co12  1  0.819890  0.180110  0.250000  1
  Co  Co13  1  0.180110  0.819890  0.750000  1
  Te  Te14  1  0.617332  0.382668  0.038285  1
  Te  Te15  1  0.382668  0.617332  0.961715  1
  Te  Te16  1  0.382668  0.617332  0.538285  1
  Te  Te17  1  0.617332  0.382668  0.461715  1
