# generated using pymatgen
data_Tb5YbMn2(CrC6)2
_symmetry_space_group_name_H-M   'P 1'
_cell_length_a   8.10545008
_cell_length_b   8.11581577
_cell_length_c   5.02580100
_cell_angle_alpha   90.00000000
_cell_angle_beta   90.00000000
_cell_angle_gamma   120.08599386
_symmetry_Int_Tables_number   1
_chemical_formula_structural   Tb5YbMn2(CrC6)2
_chemical_formula_sum   'Tb5 Yb1 Mn2 Cr2 C12'
_cell_volume   286.06732361
_cell_formula_units_Z   1
loop_
 _symmetry_equiv_pos_site_id
 _symmetry_equiv_pos_as_xyz
  1  'x, y, z'
loop_
 _atom_site_type_symbol
 _atom_site_label
 _atom_site_symmetry_multiplicity
 _atom_site_fract_x
 _atom_site_fract_y
 _atom_site_fract_z
 _atom_site_occupancy
  Tb  Tb0  1  0.934300  0.620737  0.250000  1
  Tb  Tb1  1  0.683852  0.063344  0.250000  1
  Tb  Tb2  1  0.315671  0.935941  0.750000  1
  Tb  Tb3  1  0.065247  0.381059  0.750000  1
  Tb  Tb4  1  0.381540  0.318043  0.250000  1
  Yb  Yb5  1  0.615168  0.682954  0.750000  1
  Mn  Mn6  1  0.667226  0.331444  0.750000  1
  Mn  Mn7  1  0.332752  0.666876  0.250000  1
  Cr  Cr8  1  0.998862  0.999278  0.499780  1
  Cr  Cr9  1  0.998862  0.999278  0.000220  1
  C  C10  1  0.961211  0.769871  0.750000  1
  C  C11  1  0.190573  0.962346  0.250000  1
  C  C12  1  0.771188  0.811586  0.250000  1
  C  C13  1  0.230262  0.192896  0.750000  1
  C  C14  1  0.813802  0.039750  0.750000  1
  C  C15  1  0.038308  0.228024  0.250000  1
  C  C16  1  0.861223  0.575896  0.750000  1
  C  C17  1  0.287575  0.863977  0.250000  1
  C  C18  1  0.576428  0.713667  0.250000  1
  C  C19  1  0.425207  0.285910  0.750000  1
  C  C20  1  0.137058  0.423583  0.250000  1
  C  C21  1  0.713687  0.133543  0.750000  1
