# generated using pymatgen
data_Dy17Lu3Si15Os
_symmetry_space_group_name_H-M   'P 1'
_cell_length_a   7.41677370
_cell_length_b   7.66539421
_cell_length_c   14.63297000
_cell_angle_alpha   89.80285695
_cell_angle_beta   89.41340274
_cell_angle_gamma   90.13782431
_symmetry_Int_Tables_number   1
_chemical_formula_structural   Dy17Lu3Si15Os
_chemical_formula_sum   'Dy17 Lu3 Si15 Os1'
_cell_volume   831.86983981
_cell_formula_units_Z   1
loop_
 _symmetry_equiv_pos_site_id
 _symmetry_equiv_pos_as_xyz
  1  'x, y, z'
loop_
 _atom_site_type_symbol
 _atom_site_label
 _atom_site_symmetry_multiplicity
 _atom_site_fract_x
 _atom_site_fract_y
 _atom_site_fract_z
 _atom_site_occupancy
  Dy  Dy0  1  0.352304  0.009760  0.752978  1
  Dy  Dy1  1  0.974480  0.813759  0.097391  1
  Dy  Dy2  1  0.471512  0.683355  0.401036  1
  Dy  Dy3  1  0.531158  0.324630  0.900990  1
  Dy  Dy4  1  0.029424  0.184353  0.598751  1
  Dy  Dy5  1  0.023333  0.191006  0.903089  1
  Dy  Dy6  1  0.530558  0.317659  0.598528  1
  Dy  Dy7  1  0.479928  0.679033  0.097808  1
  Dy  Dy8  1  0.970710  0.816837  0.400054  1
  Dy  Dy9  1  0.685862  0.809272  0.882627  1
  Dy  Dy10  1  0.180114  0.680315  0.621203  1
  Dy  Dy11  1  0.817452  0.334547  0.119469  1
  Dy  Dy12  1  0.315348  0.177041  0.375876  1
  Dy  Dy13  1  0.320935  0.179366  0.124572  1
  Dy  Dy14  1  0.818823  0.320253  0.376962  1
  Dy  Dy15  1  0.172170  0.673767  0.879113  1
  Dy  Dy16  1  0.683176  0.819088  0.621803  1
  Lu  Lu17  1  0.649439  0.993172  0.248460  1
  Lu  Lu18  1  0.149499  0.510868  0.247530  1
  Lu  Lu19  1  0.847964  0.488835  0.759021  1
  Si  Si20  1  0.766780  0.631649  0.252585  1
  Si  Si21  1  0.269539  0.869679  0.251064  1
  Si  Si22  1  0.733644  0.125571  0.747201  1
  Si  Si23  1  0.234386  0.373802  0.745911  1
  Si  Si24  1  0.017760  0.104161  0.249528  1
  Si  Si25  1  0.520980  0.398038  0.252137  1
  Si  Si26  1  0.472769  0.603689  0.745033  1
  Si  Si27  1  0.976765  0.897722  0.747417  1
  Si  Si28  1  0.354979  0.971887  0.539252  1
  Si  Si29  1  0.646224  0.027579  0.041923  1
  Si  Si30  1  0.146163  0.470975  0.459308  1
  Si  Si31  1  0.152777  0.473467  0.042574  1
  Si  Si32  1  0.643660  0.027846  0.458614  1
  Si  Si33  1  0.352559  0.969204  0.962517  1
  Si  Si34  1  0.854816  0.527886  0.539423  1
  Os  Os35  1  0.852004  0.519925  0.958247  1
