# generated using pymatgen
data_Eu2Fe3P6Ir7
_symmetry_space_group_name_H-M   'P 1'
_cell_length_a   3.92238600
_cell_length_b   10.59742600
_cell_length_c   12.49762400
_cell_angle_alpha   90.00000000
_cell_angle_beta   90.00000000
_cell_angle_gamma   90.00000000
_symmetry_Int_Tables_number   1
_chemical_formula_structural   Eu2Fe3P6Ir7
_chemical_formula_sum   'Eu4 Fe6 P12 Ir14'
_cell_volume   519.49117857
_cell_formula_units_Z   2
loop_
 _symmetry_equiv_pos_site_id
 _symmetry_equiv_pos_as_xyz
  1  'x, y, z'
loop_
 _atom_site_type_symbol
 _atom_site_label
 _atom_site_symmetry_multiplicity
 _atom_site_fract_x
 _atom_site_fract_y
 _atom_site_fract_z
 _atom_site_occupancy
  Eu  Eu0  1  0.250000  0.577501  0.711770  1
  Eu  Eu1  1  0.250000  0.922499  0.211770  1
  Eu  Eu2  1  0.750000  0.416426  0.289573  1
  Eu  Eu3  1  0.750000  0.083574  0.789573  1
  Fe  Fe4  1  0.750000  0.125736  0.305054  1
  Fe  Fe5  1  0.750000  0.374264  0.805054  1
  Fe  Fe6  1  0.250000  0.457916  0.937262  1
  Fe  Fe7  1  0.250000  0.042084  0.437262  1
  Fe  Fe8  1  0.750000  0.545198  0.060634  1
  Fe  Fe9  1  0.750000  0.954802  0.560634  1
  P  P10  1  0.250000  0.430076  0.106696  1
  P  P11  1  0.250000  0.069924  0.606696  1
  P  P12  1  0.750000  0.558687  0.887282  1
  P  P13  1  0.750000  0.941313  0.387282  1
  P  P14  1  0.250000  0.273899  0.862669  1
  P  P15  1  0.250000  0.226101  0.362669  1
  P  P16  1  0.750000  0.733311  0.133479  1
  P  P17  1  0.750000  0.766689  0.633479  1
  P  P18  1  0.250000  0.597278  0.387278  1
  P  P19  1  0.250000  0.902722  0.887278  1
  P  P20  1  0.750000  0.398020  0.622100  1
  P  P21  1  0.750000  0.101980  0.122100  1
  Ir  Ir22  1  0.250000  0.715887  0.984364  1
  Ir  Ir23  1  0.250000  0.784113  0.484364  1
  Ir  Ir24  1  0.750000  0.286166  0.014649  1
  Ir  Ir25  1  0.750000  0.213834  0.514649  1
  Ir  Ir26  1  0.250000  0.404158  0.478713  1
  Ir  Ir27  1  0.250000  0.095842  0.978713  1
  Ir  Ir28  1  0.750000  0.589262  0.519185  1
  Ir  Ir29  1  0.750000  0.910738  0.019185  1
  Ir  Ir30  1  0.250000  0.225980  0.174251  1
  Ir  Ir31  1  0.250000  0.274020  0.674251  1
  Ir  Ir32  1  0.750000  0.767203  0.826714  1
  Ir  Ir33  1  0.750000  0.732797  0.326714  1
  Ir  Ir34  1  0.250000  0.878411  0.698329  1
  Ir  Ir35  1  0.250000  0.621589  0.198329  1
