# generated using pymatgen
data_RbGePRh2
_symmetry_space_group_name_H-M   'P 1'
_cell_length_a   7.65543174
_cell_length_b   7.65543137
_cell_length_c   7.65543219
_cell_angle_alpha   149.64460558
_cell_angle_beta   149.64460387
_cell_angle_gamma   43.46333738
_symmetry_Int_Tables_number   1
_chemical_formula_structural   RbGePRh2
_chemical_formula_sum   'Rb1 Ge1 P1 Rh2'
_cell_volume   114.27080964
_cell_formula_units_Z   1
loop_
 _symmetry_equiv_pos_site_id
 _symmetry_equiv_pos_as_xyz
  1  'x, y, z'
loop_
 _atom_site_type_symbol
 _atom_site_label
 _atom_site_symmetry_multiplicity
 _atom_site_fract_x
 _atom_site_fract_y
 _atom_site_fract_z
 _atom_site_occupancy
  Rb  Rb0  1  0.006572  0.006572  0.000000  1
  Ge  Ge1  1  0.346233  0.346233  0.000000  1
  P  P2  1  0.661209  0.661209  0.000000  1
  Rh  Rh3  1  0.742993  0.242993  0.500000  1
  Rh  Rh4  1  0.242993  0.742993  0.500000  1
