# generated using pymatgen
data_Yb9HoSn6F2
_symmetry_space_group_name_H-M   'P 1'
_cell_length_a   9.16031248
_cell_length_b   9.16031258
_cell_length_c   9.16031200
_cell_angle_alpha   127.98675711
_cell_angle_beta   127.98675763
_cell_angle_gamma   76.64648755
_symmetry_Int_Tables_number   1
_chemical_formula_structural   Yb9HoSn6F2
_chemical_formula_sum   'Yb9 Ho1 Sn6 F2'
_cell_volume   463.75355782
_cell_formula_units_Z   1
loop_
 _symmetry_equiv_pos_site_id
 _symmetry_equiv_pos_as_xyz
  1  'x, y, z'
loop_
 _atom_site_type_symbol
 _atom_site_label
 _atom_site_symmetry_multiplicity
 _atom_site_fract_x
 _atom_site_fract_y
 _atom_site_fract_z
 _atom_site_occupancy
  Yb  Yb0  1  0.000000  0.000000  0.000000  1
  Yb  Yb1  1  0.506111  0.005182  0.817419  1
  Yb  Yb2  1  0.187842  0.688792  0.182653  1
  Yb  Yb3  1  0.005247  0.187642  0.499031  1
  Yb  Yb4  1  0.688632  0.506172  0.500908  1
  Yb  Yb5  1  0.493889  0.994818  0.182581  1
  Yb  Yb6  1  0.812158  0.311208  0.817347  1
  Yb  Yb7  1  0.994753  0.812358  0.500969  1
  Yb  Yb8  1  0.311368  0.493828  0.499092  1
  Ho  Ho9  1  0.500000  0.500000  0.000000  1
  Sn  Sn10  1  0.252195  0.252078  0.999997  1
  Sn  Sn11  1  0.747805  0.747922  0.000003  1
  Sn  Sn12  1  0.865891  0.371779  0.237676  1
  Sn  Sn13  1  0.134109  0.628221  0.762325  1
  Sn  Sn14  1  0.371744  0.134146  0.505907  1
  Sn  Sn15  1  0.628256  0.865854  0.494093  1
  F  F16  1  0.249995  0.749980  0.500010  1
  F  F17  1  0.750005  0.250020  0.499990  1
