# generated using pymatgen
data_Na3Cd13Hg2
_symmetry_space_group_name_H-M   'P 1'
_cell_length_a   15.48653893
_cell_length_b   15.48653970
_cell_length_c   6.97309063
_cell_angle_alpha   97.36855406
_cell_angle_beta   97.36855527
_cell_angle_gamma   14.67859838
_symmetry_Int_Tables_number   1
_chemical_formula_structural   Na3Cd13Hg2
_chemical_formula_sum   'Na3 Cd13 Hg2'
_cell_volume   420.21661091
_cell_formula_units_Z   1
loop_
 _symmetry_equiv_pos_site_id
 _symmetry_equiv_pos_as_xyz
  1  'x, y, z'
loop_
 _atom_site_type_symbol
 _atom_site_label
 _atom_site_symmetry_multiplicity
 _atom_site_fract_x
 _atom_site_fract_y
 _atom_site_fract_z
 _atom_site_occupancy
  Na  Na0  1  0.000982  0.000982  0.999115  1
  Na  Na1  1  0.665819  0.665819  0.346640  1
  Na  Na2  1  0.887217  0.887217  0.439016  1
  Cd  Cd3  1  0.107940  0.107940  0.047172  1
  Cd  Cd4  1  0.222539  0.222539  0.117201  1
  Cd  Cd5  1  0.331705  0.331705  0.150246  1
  Cd  Cd6  1  0.443891  0.443891  0.214472  1
  Cd  Cd7  1  0.557717  0.557717  0.284239  1
  Cd  Cd8  1  0.776370  0.776370  0.390548  1
  Cd  Cd9  1  0.996919  0.996919  0.496909  1
  Cd  Cd10  1  0.224592  0.224592  0.628735  1
  Cd  Cd11  1  0.445507  0.445507  0.724921  1
  Cd  Cd12  1  0.554847  0.554847  0.771644  1
  Cd  Cd13  1  0.667518  0.667518  0.847738  1
  Cd  Cd14  1  0.778819  0.778819  0.885565  1
  Cd  Cd15  1  0.890258  0.890258  0.935916  1
  Hg  Hg16  1  0.112132  0.112132  0.564406  1
  Hg  Hg17  1  0.335225  0.335225  0.655518  1
