# generated using pymatgen
data_Lu3HfAl14(Ga2Ir3)2
_symmetry_space_group_name_H-M   'P 1'
_cell_length_a   7.49161400
_cell_length_b   7.48884864
_cell_length_c   9.42723900
_cell_angle_alpha   90.00000000
_cell_angle_beta   90.00000000
_cell_angle_gamma   119.60514775
_symmetry_Int_Tables_number   1
_chemical_formula_structural   Lu3HfAl14(Ga2Ir3)2
_chemical_formula_sum   'Lu3 Hf1 Al14 Ga4 Ir6'
_cell_volume   459.85387289
_cell_formula_units_Z   1
loop_
 _symmetry_equiv_pos_site_id
 _symmetry_equiv_pos_as_xyz
  1  'x, y, z'
loop_
 _atom_site_type_symbol
 _atom_site_label
 _atom_site_symmetry_multiplicity
 _atom_site_fract_x
 _atom_site_fract_y
 _atom_site_fract_z
 _atom_site_occupancy
  Lu  Lu0  1  0.004866  0.325988  0.750000  1
  Lu  Lu1  1  0.675170  0.998061  0.250000  1
  Lu  Lu2  1  0.328016  0.006413  0.750000  1
  Hf  Hf3  1  0.998975  0.673917  0.250000  1
  Al  Al4  1  0.999826  0.337527  0.078243  1
  Al  Al5  1  0.997963  0.664623  0.929185  1
  Al  Al6  1  0.997963  0.664623  0.570815  1
  Al  Al7  1  0.333387  0.998650  0.421204  1
  Al  Al8  1  0.999826  0.337527  0.421757  1
  Al  Al9  1  0.663829  0.996825  0.573769  1
  Al  Al10  1  0.663829  0.996825  0.926231  1
  Al  Al11  1  0.333387  0.998650  0.078796  1
  Al  Al12  1  0.334639  0.334983  0.550978  1
  Al  Al13  1  0.669162  0.667181  0.433373  1
  Al  Al14  1  0.669162  0.667181  0.066627  1
  Al  Al15  1  0.334639  0.334983  0.949022  1
  Al  Al16  1  0.333528  0.551106  0.250000  1
  Al  Al17  1  0.556058  0.340217  0.250000  1
  Ga  Ga18  1  0.131272  0.129563  0.250000  1
  Ga  Ga19  1  0.869983  0.868882  0.750000  1
  Ga  Ga20  1  0.659209  0.450857  0.750000  1
  Ga  Ga21  1  0.448770  0.657884  0.750000  1
  Ir  Ir22  1  0.671938  0.327425  0.002828  1
  Ir  Ir23  1  0.327279  0.672264  0.003590  1
  Ir  Ir24  1  0.327279  0.672264  0.496410  1
  Ir  Ir25  1  0.671938  0.327425  0.497172  1
  Ir  Ir26  1  0.999056  0.999077  0.000727  1
  Ir  Ir27  1  0.999056  0.999077  0.499273  1
