# generated using pymatgen
data_HfSc5H18
_symmetry_space_group_name_H-M   'P 1'
_cell_length_a   5.81112800
_cell_length_b   5.81297113
_cell_length_c   6.06878101
_cell_angle_alpha   90.16222511
_cell_angle_beta   89.99992889
_cell_angle_gamma   119.98995196
_symmetry_Int_Tables_number   1
_chemical_formula_structural   HfSc5H18
_chemical_formula_sum   'Hf1 Sc5 H18'
_cell_volume   177.55477265
_cell_formula_units_Z   1
loop_
 _symmetry_equiv_pos_site_id
 _symmetry_equiv_pos_as_xyz
  1  'x, y, z'
loop_
 _atom_site_type_symbol
 _atom_site_label
 _atom_site_symmetry_multiplicity
 _atom_site_fract_x
 _atom_site_fract_y
 _atom_site_fract_z
 _atom_site_occupancy
  Hf  Hf0  1  0.334926  0.999997  0.249985  1
  Sc  Sc1  1  0.666354  0.000005  0.750024  1
  Sc  Sc2  1  0.334948  0.336454  0.749094  1
  Sc  Sc3  1  0.998503  0.663542  0.750903  1
  Sc  Sc4  1  0.664458  0.664533  0.249857  1
  Sc  Sc5  1  0.999924  0.335471  0.250158  1
  H  H6  1  0.323038  0.974502  0.912080  1
  H  H7  1  0.651611  0.675900  0.910309  1
  H  H8  1  0.023736  0.346651  0.910403  1
  H  H9  1  0.323014  0.337912  0.404899  1
  H  H10  1  0.032922  0.683645  0.408122  1
  H  H11  1  0.643121  0.974204  0.406217  1
  H  H12  1  0.668940  0.025804  0.093790  1
  H  H13  1  0.349286  0.316366  0.091868  1
  H  H14  1  0.985112  0.662098  0.095099  1
  H  H15  1  0.677091  0.653340  0.589608  1
  H  H16  1  0.975698  0.324088  0.589705  1
  H  H17  1  0.348538  0.025496  0.587903  1
  H  H18  1  0.000822  0.999994  0.749996  1
  H  H19  1  0.000116  0.000007  0.250001  1
  H  H20  1  0.666073  0.333004  0.801006  1
  H  H21  1  0.665262  0.331851  0.307636  1
  H  H22  1  0.333428  0.668148  0.192344  1
  H  H23  1  0.333081  0.666993  0.698996  1
