# generated using pymatgen
data_Dy3PuZr4F28
_symmetry_space_group_name_H-M   'P 1'
_cell_length_a   5.79507427
_cell_length_b   9.17346327
_cell_length_c   12.32353000
_cell_angle_alpha   62.35827704
_cell_angle_beta   89.98238140
_cell_angle_gamma   90.01625964
_symmetry_Int_Tables_number   1
_chemical_formula_structural   Dy3PuZr4F28
_chemical_formula_sum   'Dy3 Pu1 Zr4 F28'
_cell_volume   580.35724156
_cell_formula_units_Z   1
loop_
 _symmetry_equiv_pos_site_id
 _symmetry_equiv_pos_as_xyz
  1  'x, y, z'
loop_
 _atom_site_type_symbol
 _atom_site_label
 _atom_site_symmetry_multiplicity
 _atom_site_fract_x
 _atom_site_fract_y
 _atom_site_fract_z
 _atom_site_occupancy
  Dy  Dy0  1  0.744070  0.818001  0.265781  1
  Dy  Dy1  1  0.243661  0.185380  0.233310  1
  Dy  Dy2  1  0.258100  0.190778  0.733644  1
  Pu  Pu3  1  0.761352  0.820845  0.763973  1
  Zr  Zr4  1  0.743370  0.279320  0.451676  1
  Zr  Zr5  1  0.244422  0.725324  0.049179  1
  Zr  Zr6  1  0.255241  0.725876  0.540285  1
  Zr  Zr7  1  0.755441  0.270379  0.957165  1
  F  F8  1  0.460061  0.708464  0.926284  1
  F  F9  1  0.966153  0.287404  0.577003  1
  F  F10  1  0.531394  0.286355  0.078621  1
  F  F11  1  0.031126  0.710339  0.418777  1
  F  F12  1  0.456787  0.280968  0.549854  1
  F  F13  1  0.954469  0.714932  0.958125  1
  F  F14  1  0.546445  0.719109  0.447766  1
  F  F15  1  0.043878  0.277716  0.051981  1
  F  F16  1  0.769266  0.517981  0.860932  1
  F  F17  1  0.267347  0.474916  0.638693  1
  F  F18  1  0.234941  0.474012  0.144452  1
  F  F19  1  0.732770  0.527853  0.356279  1
  F  F20  1  0.759136  0.020541  0.059696  1
  F  F21  1  0.258454  0.975436  0.439884  1
  F  F22  1  0.239914  0.974459  0.942397  1
  F  F23  1  0.736243  0.028558  0.552207  1
  F  F24  1  0.984958  0.729488  0.645015  1
  F  F25  1  0.486208  0.265596  0.851177  1
  F  F26  1  0.010139  0.265072  0.348569  1
  F  F27  1  0.512366  0.735488  0.153532  1
  F  F28  1  0.032262  0.747354  0.175323  1
  F  F29  1  0.529752  0.254629  0.327651  1
  F  F30  1  0.967186  0.250235  0.829571  1
  F  F31  1  0.457630  0.741660  0.670217  1
  F  F32  1  0.434539  0.976931  0.236180  1
  F  F33  1  0.935341  0.025267  0.264134  1
  F  F34  1  0.568272  0.034829  0.767351  1
  F  F35  1  0.087308  0.978506  0.733314  1
