# generated using pymatgen
data_Hf5Zr15Si15Sb
_symmetry_space_group_name_H-M   'P 1'
_cell_length_a   7.19284641
_cell_length_b   7.16913610
_cell_length_c   13.07235244
_cell_angle_alpha   89.90252648
_cell_angle_beta   89.72974333
_cell_angle_gamma   90.18836080
_symmetry_Int_Tables_number   1
_chemical_formula_structural   Hf5Zr15Si15Sb
_chemical_formula_sum   'Hf5 Zr15 Si15 Sb1'
_cell_volume   674.08325931
_cell_formula_units_Z   1
loop_
 _symmetry_equiv_pos_site_id
 _symmetry_equiv_pos_as_xyz
  1  'x, y, z'
loop_
 _atom_site_type_symbol
 _atom_site_label
 _atom_site_symmetry_multiplicity
 _atom_site_fract_x
 _atom_site_fract_y
 _atom_site_fract_z
 _atom_site_occupancy
  Hf  Hf0  1  0.148454  0.999610  0.377927  1
  Hf  Hf1  1  0.648425  0.502840  0.374041  1
  Hf  Hf2  1  0.351370  0.498658  0.871592  1
  Hf  Hf3  1  0.012574  0.841572  0.126113  1
  Hf  Hf4  1  0.998357  0.146788  0.622536  1
  Zr  Zr5  1  0.676627  0.324500  0.748877  1
  Zr  Zr6  1  0.324955  0.675909  0.251188  1
  Zr  Zr7  1  0.823962  0.824930  0.500255  1
  Zr  Zr8  1  0.180299  0.174593  0.998750  1
  Zr  Zr9  1  0.498337  0.150677  0.534245  1
  Zr  Zr10  1  0.494877  0.842677  0.031295  1
  Zr  Zr11  1  0.649226  0.999376  0.289319  1
  Zr  Zr12  1  0.345510  0.994604  0.781908  1
  Zr  Zr13  1  0.849582  0.509185  0.962897  1
  Zr  Zr14  1  0.152627  0.498060  0.466406  1
  Zr  Zr15  1  0.000604  0.651111  0.714474  1
  Zr  Zr16  1  0.011689  0.357067  0.223634  1
  Zr  Zr17  1  0.489972  0.360810  0.125793  1
  Zr  Zr18  1  0.500770  0.645396  0.626291  1
  Zr  Zr19  1  0.852459  0.000347  0.873508  1
  Si  Si20  1  0.204833  0.856378  0.573109  1
  Si  Si21  1  0.642427  0.704541  0.821466  1
  Si  Si22  1  0.359382  0.294299  0.324955  1
  Si  Si23  1  0.856702  0.206272  0.427459  1
  Si  Si24  1  0.143354  0.793620  0.926169  1
  Si  Si25  1  0.705711  0.648107  0.178599  1
  Si  Si26  1  0.293112  0.353580  0.676181  1
  Si  Si27  1  0.539445  0.198461  0.929754  1
  Si  Si28  1  0.447787  0.798345  0.438109  1
  Si  Si29  1  0.698517  0.950738  0.685858  1
  Si  Si30  1  0.301046  0.050559  0.188219  1
  Si  Si31  1  0.801231  0.448929  0.561942  1
  Si  Si32  1  0.198467  0.549587  0.060444  1
  Si  Si33  1  0.949204  0.703155  0.315175  1
  Si  Si34  1  0.050496  0.300709  0.811613  1
  Sb  Sb35  1  0.797612  0.144010  0.079905  1
