# generated using pymatgen
data_Pr16Nd4Si15Ir
_symmetry_space_group_name_H-M   'P 1'
_cell_length_a   7.92955484
_cell_length_b   7.93058578
_cell_length_c   15.28489677
_cell_angle_alpha   90.08110971
_cell_angle_beta   89.87480159
_cell_angle_gamma   90.09244619
_symmetry_Int_Tables_number   1
_chemical_formula_structural   Pr16Nd4Si15Ir
_chemical_formula_sum   'Pr16 Nd4 Si15 Ir1'
_cell_volume   961.20174051
_cell_formula_units_Z   1
loop_
 _symmetry_equiv_pos_site_id
 _symmetry_equiv_pos_as_xyz
  1  'x, y, z'
loop_
 _atom_site_type_symbol
 _atom_site_label
 _atom_site_symmetry_multiplicity
 _atom_site_fract_x
 _atom_site_fract_y
 _atom_site_fract_z
 _atom_site_occupancy
  Pr  Pr0  1  0.373460  0.010833  0.449073  1
  Pr  Pr1  1  0.489002  0.877208  0.698073  1
  Pr  Pr2  1  0.510292  0.123578  0.197966  1
  Pr  Pr3  1  0.875730  0.488602  0.300328  1
  Pr  Pr4  1  0.124880  0.507489  0.800024  1
  Pr  Pr5  1  0.625879  0.988625  0.948294  1
  Pr  Pr6  1  0.006629  0.374531  0.552508  1
  Pr  Pr7  1  0.988433  0.625319  0.051389  1
  Pr  Pr8  1  0.133851  0.986046  0.873369  1
  Pr  Pr9  1  0.516543  0.630478  0.125977  1
  Pr  Pr10  1  0.473918  0.361424  0.628376  1
  Pr  Pr11  1  0.627037  0.515458  0.873600  1
  Pr  Pr12  1  0.373448  0.483613  0.373518  1
  Pr  Pr13  1  0.872609  0.020079  0.376292  1
  Pr  Pr14  1  0.982278  0.126799  0.124549  1
  Pr  Pr15  1  0.025482  0.879969  0.625253  1
  Nd  Nd16  1  0.305284  0.306593  0.998706  1
  Nd  Nd17  1  0.191057  0.809187  0.249777  1
  Nd  Nd18  1  0.822008  0.188443  0.749763  1
  Nd  Nd19  1  0.692908  0.688039  0.500901  1
  Si  Si20  1  0.333215  0.694990  0.950887  1
  Si  Si21  1  0.664711  0.303605  0.451962  1
  Si  Si22  1  0.696659  0.334862  0.049763  1
  Si  Si23  1  0.305318  0.668420  0.547709  1
  Si  Si24  1  0.805615  0.832102  0.202634  1
  Si  Si25  1  0.168019  0.197102  0.298235  1
  Si  Si26  1  0.833164  0.802859  0.799300  1
  Si  Si27  1  0.288435  0.922574  0.058868  1
  Si  Si28  1  0.579188  0.787207  0.310477  1
  Si  Si29  1  0.426786  0.207362  0.812053  1
  Si  Si30  1  0.782570  0.581447  0.690171  1
  Si  Si31  1  0.212493  0.422387  0.190019  1
  Si  Si32  1  0.705020  0.073436  0.558590  1
  Si  Si33  1  0.919812  0.288283  0.941584  1
  Si  Si34  1  0.079043  0.715273  0.440938  1
  Ir  Ir35  1  0.189222  0.175779  0.699075  1
