# generated using pymatgen
data_ErPa3(InNi2)2
_symmetry_space_group_name_H-M   'P 1'
_cell_length_a   7.46465613
_cell_length_b   7.46465628
_cell_length_c   3.52841400
_cell_angle_alpha   90.00000000
_cell_angle_beta   90.00000000
_cell_angle_gamma   91.51727000
_symmetry_Int_Tables_number   1
_chemical_formula_structural   ErPa3(InNi2)2
_chemical_formula_sum   'Er1 Pa3 In2 Ni4'
_cell_volume   196.53814945
_cell_formula_units_Z   1
loop_
 _symmetry_equiv_pos_site_id
 _symmetry_equiv_pos_as_xyz
  1  'x, y, z'
loop_
 _atom_site_type_symbol
 _atom_site_label
 _atom_site_symmetry_multiplicity
 _atom_site_fract_x
 _atom_site_fract_y
 _atom_site_fract_z
 _atom_site_occupancy
  Er  Er0  1  0.827011  0.672989  0.500000  1
  Pa  Pa1  1  0.674034  0.172380  0.500000  1
  Pa  Pa2  1  0.327620  0.825966  0.500000  1
  Pa  Pa3  1  0.169999  0.330001  0.500000  1
  In  In4  1  0.506831  0.503142  0.000000  1
  In  In5  1  0.996858  0.993169  0.000000  1
  Ni  Ni6  1  0.880642  0.360902  0.000000  1
  Ni  Ni7  1  0.139098  0.619358  0.000000  1
  Ni  Ni8  1  0.367936  0.132064  0.000000  1
  Ni  Ni9  1  0.609970  0.890030  0.000000  1
