# generated using pymatgen
data_ErTmNp(SnRh)3
_symmetry_space_group_name_H-M   'P 1'
_cell_length_a   7.47196338
_cell_length_b   7.62005409
_cell_length_c   3.87110100
_cell_angle_alpha   90.00000000
_cell_angle_beta   90.00000000
_cell_angle_gamma   120.67827314
_symmetry_Int_Tables_number   1
_chemical_formula_structural   ErTmNp(SnRh)3
_chemical_formula_sum   'Er1 Tm1 Np1 Sn3 Rh3'
_cell_volume   189.56094973
_cell_formula_units_Z   1
loop_
 _symmetry_equiv_pos_site_id
 _symmetry_equiv_pos_as_xyz
  1  'x, y, z'
loop_
 _atom_site_type_symbol
 _atom_site_label
 _atom_site_symmetry_multiplicity
 _atom_site_fract_x
 _atom_site_fract_y
 _atom_site_fract_z
 _atom_site_occupancy
  Er  Er0  1  0.593979  0.593966  0.000000  1
  Tm  Tm1  1  0.406040  0.000071  0.000000  1
  Np  Np2  1  0.999929  0.416675  0.000000  1
  Sn  Sn3  1  0.269155  0.259274  0.500000  1
  Sn  Sn4  1  0.000092  0.749732  0.500000  1
  Sn  Sn5  1  0.730896  0.990495  0.500000  1
  Rh  Rh6  1  0.686102  0.334261  0.500000  1
  Rh  Rh7  1  0.313138  0.648767  0.500000  1
  Rh  Rh8  1  0.000669  0.006759  0.000000  1
