# generated using pymatgen
data_Ti3Nb2Al2C3
_symmetry_space_group_name_H-M   'P 1'
_cell_length_a   16.30170943
_cell_length_b   16.30170935
_cell_length_c   16.30170961
_cell_angle_alpha   10.89854893
_cell_angle_beta   10.89854975
_cell_angle_gamma   10.89854815
_symmetry_Int_Tables_number   1
_chemical_formula_structural   Ti3Nb2Al2C3
_chemical_formula_sum   'Ti3 Nb2 Al2 C3'
_cell_volume   134.51955787
_cell_formula_units_Z   1
loop_
 _symmetry_equiv_pos_site_id
 _symmetry_equiv_pos_as_xyz
  1  'x, y, z'
loop_
 _atom_site_type_symbol
 _atom_site_label
 _atom_site_symmetry_multiplicity
 _atom_site_fract_x
 _atom_site_fract_y
 _atom_site_fract_z
 _atom_site_occupancy
  Ti  Ti0  1  0.499378  0.499378  0.499378  1
  Ti  Ti1  1  0.691747  0.691747  0.691747  1
  Ti  Ti2  1  0.783615  0.783615  0.783615  1
  Nb  Nb3  1  0.217007  0.217007  0.217007  1
  Nb  Nb4  1  0.308217  0.308217  0.308217  1
  Al  Al5  1  0.404397  0.404397  0.404397  1
  Al  Al6  1  0.596000  0.596000  0.596000  1
  C  C7  1  0.139475  0.139475  0.139475  1
  C  C8  1  0.858702  0.858702  0.858702  1
  C  C9  1  0.001462  0.001462  0.001462  1
