# generated using pymatgen
data_Dy4NbRu6W
_symmetry_space_group_name_H-M   'P 1'
_cell_length_a   5.60188482
_cell_length_b   5.18943126
_cell_length_c   9.21124800
_cell_angle_alpha   90.00000000
_cell_angle_beta   90.00000000
_cell_angle_gamma   122.80365115
_symmetry_Int_Tables_number   1
_chemical_formula_structural   Dy4NbRu6W
_chemical_formula_sum   'Dy4 Nb1 Ru6 W1'
_cell_volume   225.07471475
_cell_formula_units_Z   1
loop_
 _symmetry_equiv_pos_site_id
 _symmetry_equiv_pos_as_xyz
  1  'x, y, z'
loop_
 _atom_site_type_symbol
 _atom_site_label
 _atom_site_symmetry_multiplicity
 _atom_site_fract_x
 _atom_site_fract_y
 _atom_site_fract_z
 _atom_site_occupancy
  Dy  Dy0  1  0.669633  0.339450  0.568511  1
  Dy  Dy1  1  0.329729  0.659327  0.435516  1
  Dy  Dy2  1  0.329729  0.659327  0.064484  1
  Dy  Dy3  1  0.669633  0.339450  0.931489  1
  Nb  Nb4  1  0.847201  0.693485  0.250000  1
  Ru  Ru5  1  0.003671  0.007675  0.503209  1
  Ru  Ru6  1  0.003671  0.007675  0.996791  1
  Ru  Ru7  1  0.168519  0.811323  0.750000  1
  Ru  Ru8  1  0.642673  0.811725  0.750000  1
  Ru  Ru9  1  0.829648  0.183508  0.250000  1
  Ru  Ru10  1  0.354113  0.183614  0.250000  1
  W  W11  1  0.151781  0.303444  0.750000  1
