# generated using pymatgen
data_Sr4Nd8Zr4In(Ga5O16)3
_symmetry_space_group_name_H-M   'P 1'
_cell_length_a   11.07071999
_cell_length_b   11.12273981
_cell_length_c   11.13239900
_cell_angle_alpha   109.52841420
_cell_angle_beta   109.33729666
_cell_angle_gamma   109.27373205
_symmetry_Int_Tables_number   1
_chemical_formula_structural   Sr4Nd8Zr4In(Ga5O16)3
_chemical_formula_sum   'Sr4 Nd8 Zr4 In1 Ga15 O48'
_cell_volume   1058.79983747
_cell_formula_units_Z   1
loop_
 _symmetry_equiv_pos_site_id
 _symmetry_equiv_pos_as_xyz
  1  'x, y, z'
loop_
 _atom_site_type_symbol
 _atom_site_label
 _atom_site_symmetry_multiplicity
 _atom_site_fract_x
 _atom_site_fract_y
 _atom_site_fract_z
 _atom_site_occupancy
  Sr  Sr0  1  0.623564  0.241867  0.374090  1
  Sr  Sr1  1  0.874901  0.121270  0.244798  1
  Sr  Sr2  1  0.125099  0.878730  0.755202  1
  Sr  Sr3  1  0.376436  0.758133  0.625910  1
  Nd  Nd4  1  0.245589  0.622909  0.875476  1
  Nd  Nd5  1  0.630992  0.369512  0.749311  1
  Nd  Nd6  1  0.122756  0.251008  0.881662  1
  Nd  Nd7  1  0.250286  0.122656  0.369379  1
  Nd  Nd8  1  0.877244  0.748992  0.118338  1
  Nd  Nd9  1  0.749714  0.877344  0.630621  1
  Nd  Nd10  1  0.369008  0.630488  0.250689  1
  Nd  Nd11  1  0.754411  0.377091  0.124524  1
  Zr  Zr12  1  0.000000  0.000000  0.500000  1
  Zr  Zr13  1  0.500000  0.000000  0.000000  1
  Zr  Zr14  1  0.000000  0.500000  0.500000  1
  Zr  Zr15  1  0.500000  0.500000  0.500000  1
  In  In16  1  0.500000  0.500000  0.000000  1
  Ga  Ga17  1  0.881623  0.635046  0.762628  1
  Ga  Ga18  1  0.629716  0.752932  0.874583  1
  Ga  Ga19  1  0.870663  0.253106  0.631380  1
  Ga  Ga20  1  0.246496  0.869559  0.129222  1
  Ga  Ga21  1  0.250760  0.373654  0.628289  1
  Ga  Ga22  1  0.000000  0.000000  0.000000  1
  Ga  Ga23  1  0.623572  0.876152  0.253126  1
  Ga  Ga24  1  0.376428  0.123848  0.746874  1
  Ga  Ga25  1  0.500000  0.000000  0.500000  1
  Ga  Ga26  1  0.753504  0.130441  0.870777  1
  Ga  Ga27  1  0.749240  0.626346  0.371711  1
  Ga  Ga28  1  0.129337  0.746894  0.368620  1
  Ga  Ga29  1  0.000000  0.500000  0.000000  1
  Ga  Ga30  1  0.370284  0.247068  0.125417  1
  Ga  Ga31  1  0.118377  0.364954  0.237372  1
  O  O32  1  0.297605  0.876529  0.985251  1
  O  O33  1  0.412436  0.292118  0.318604  1
  O  O34  1  0.687997  0.486735  0.608946  1
  O  O35  1  0.023254  0.618681  0.709521  1
  O  O36  1  0.479350  0.792072  0.883938  1
  O  O37  1  0.204991  0.519724  0.623120  1
  O  O38  1  0.886450  0.299160  0.488702  1
  O  O39  1  0.020925  0.402970  0.823901  1
  O  O40  1  0.677325  0.201560  0.589488  1
  O  O41  1  0.395523  0.014766  0.321397  1
  O  O42  1  0.617800  0.017899  0.202398  1
  O  O43  1  0.627019  0.598828  0.910950  1
  O  O44  1  0.087512  0.177425  0.198451  1
  O  O45  1  0.402965  0.377527  0.586329  1
  O  O46  1  0.284793  0.412727  0.816273  1
  O  O47  1  0.105212  0.181986  0.479022  1
  O  O48  1  0.882670  0.582408  0.906615  1
  O  O49  1  0.823269  0.899705  0.018617  1
  O  O50  1  0.915995  0.100640  0.624795  1
  O  O51  1  0.197388  0.674112  0.079753  1
  O  O52  1  0.584301  0.881485  0.406272  1
  O  O53  1  0.814071  0.907252  0.293123  1
  O  O54  1  0.530019  0.314402  0.898634  1
  O  O55  1  0.095826  0.916019  0.120005  1
  O  O56  1  0.904174  0.083981  0.879995  1
  O  O57  1  0.469981  0.685598  0.101366  1
  O  O58  1  0.185929  0.092748  0.706877  1
  O  O59  1  0.415699  0.118515  0.593728  1
  O  O60  1  0.802612  0.325888  0.920247  1
  O  O61  1  0.084005  0.899360  0.375205  1
  O  O62  1  0.176731  0.100295  0.981383  1
  O  O63  1  0.117330  0.417592  0.093385  1
  O  O64  1  0.894788  0.818014  0.520978  1
  O  O65  1  0.715207  0.587273  0.183727  1
  O  O66  1  0.597035  0.622473  0.413671  1
  O  O67  1  0.912488  0.822575  0.801549  1
  O  O68  1  0.372981  0.401172  0.089050  1
  O  O69  1  0.382200  0.982101  0.797602  1
  O  O70  1  0.604477  0.985234  0.678603  1
  O  O71  1  0.322675  0.798440  0.410512  1
  O  O72  1  0.979075  0.597030  0.176099  1
  O  O73  1  0.113550  0.700840  0.511298  1
  O  O74  1  0.795009  0.480276  0.376880  1
  O  O75  1  0.520650  0.207928  0.116062  1
  O  O76  1  0.976746  0.381319  0.290479  1
  O  O77  1  0.312003  0.513265  0.391054  1
  O  O78  1  0.587564  0.707882  0.681396  1
  O  O79  1  0.702395  0.123471  0.014749  1
