# generated using pymatgen
data_Sr8Ca5Er7Pt16
_symmetry_space_group_name_H-M   'P 1'
_cell_length_a   7.69724460
_cell_length_b   7.81763628
_cell_length_c   14.82351600
_cell_angle_alpha   90.01834459
_cell_angle_beta   89.97738612
_cell_angle_gamma   90.04919244
_symmetry_Int_Tables_number   1
_chemical_formula_structural   Sr8Ca5Er7Pt16
_chemical_formula_sum   'Sr8 Ca5 Er7 Pt16'
_cell_volume   891.99364197
_cell_formula_units_Z   1
loop_
 _symmetry_equiv_pos_site_id
 _symmetry_equiv_pos_as_xyz
  1  'x, y, z'
loop_
 _atom_site_type_symbol
 _atom_site_label
 _atom_site_symmetry_multiplicity
 _atom_site_fract_x
 _atom_site_fract_y
 _atom_site_fract_z
 _atom_site_occupancy
  Sr  Sr0  1  0.500159  0.325880  0.904074  1
  Sr  Sr1  1  0.998485  0.175440  0.596144  1
  Sr  Sr2  1  0.501069  0.675513  0.404231  1
  Sr  Sr3  1  0.000637  0.823695  0.094728  1
  Sr  Sr4  1  0.500814  0.675395  0.095399  1
  Sr  Sr5  1  0.000888  0.824458  0.404210  1
  Sr  Sr6  1  0.499204  0.324533  0.596380  1
  Sr  Sr7  1  0.998927  0.176669  0.904023  1
  Ca  Ca8  1  0.839193  0.667583  0.878291  1
  Ca  Ca9  1  0.176311  0.492437  0.750797  1
  Ca  Ca10  1  0.679894  0.006938  0.750500  1
  Ca  Ca11  1  0.821561  0.508895  0.249890  1
  Ca  Ca12  1  0.320815  0.990632  0.249735  1
  Er  Er13  1  0.339823  0.833311  0.875929  1
  Er  Er14  1  0.840065  0.667064  0.623501  1
  Er  Er15  1  0.659353  0.167625  0.376206  1
  Er  Er16  1  0.160533  0.331791  0.123970  1
  Er  Er17  1  0.660492  0.167313  0.124108  1
  Er  Er18  1  0.159985  0.332353  0.376372  1
  Er  Er19  1  0.339966  0.831728  0.623525  1
  Pt  Pt20  1  0.333107  0.047285  0.042428  1
  Pt  Pt21  1  0.836311  0.452089  0.457896  1
  Pt  Pt22  1  0.663315  0.951821  0.541775  1
  Pt  Pt23  1  0.172377  0.544432  0.960711  1
  Pt  Pt24  1  0.657657  0.963958  0.959591  1
  Pt  Pt25  1  0.162985  0.547114  0.541515  1
  Pt  Pt26  1  0.336669  0.047637  0.457844  1
  Pt  Pt27  1  0.840199  0.448029  0.045861  1
  Pt  Pt28  1  0.541010  0.636191  0.747233  1
  Pt  Pt29  1  0.050341  0.865628  0.744945  1
  Pt  Pt30  1  0.454683  0.362148  0.250198  1
  Pt  Pt31  1  0.954697  0.137042  0.250956  1
  Pt  Pt32  1  0.303857  0.115523  0.750824  1
  Pt  Pt33  1  0.797161  0.382357  0.746038  1
  Pt  Pt34  1  0.698636  0.886463  0.250111  1
  Pt  Pt35  1  0.198820  0.613031  0.250062  1
