# generated using pymatgen
data_Dy5Er7Th4(MgRu)4
_symmetry_space_group_name_H-M   'P 1'
_cell_length_a   9.73368930
_cell_length_b   9.72857727
_cell_length_c   9.72857651
_cell_angle_alpha   60.00081420
_cell_angle_beta   59.98261223
_cell_angle_gamma   59.98262010
_symmetry_Int_Tables_number   1
_chemical_formula_structural   Dy5Er7Th4(MgRu)4
_chemical_formula_sum   'Dy5 Er7 Th4 Mg4 Ru4'
_cell_volume   651.25282500
_cell_formula_units_Z   1
loop_
 _symmetry_equiv_pos_site_id
 _symmetry_equiv_pos_as_xyz
  1  'x, y, z'
loop_
 _atom_site_type_symbol
 _atom_site_label
 _atom_site_symmetry_multiplicity
 _atom_site_fract_x
 _atom_site_fract_y
 _atom_site_fract_z
 _atom_site_occupancy
  Dy  Dy0  1  0.564389  0.935611  0.935611  1
  Dy  Dy1  1  0.564897  0.935074  0.564549  1
  Dy  Dy2  1  0.935480  0.564549  0.935074  1
  Dy  Dy3  1  0.564897  0.564549  0.935074  1
  Dy  Dy4  1  0.935480  0.935074  0.564549  1
  Er  Er5  1  0.814298  0.185702  0.185702  1
  Er  Er6  1  0.185520  0.814480  0.814480  1
  Er  Er7  1  0.185743  0.813997  0.185739  1
  Er  Er8  1  0.814520  0.185739  0.813997  1
  Er  Er9  1  0.185743  0.185739  0.813997  1
  Er  Er10  1  0.814520  0.813997  0.185739  1
  Er  Er11  1  0.935155  0.564845  0.564845  1
  Th  Th12  1  0.346476  0.346669  0.346669  1
  Th  Th13  1  0.346530  0.346756  0.960183  1
  Th  Th14  1  0.346530  0.960183  0.346756  1
  Th  Th15  1  0.960186  0.346669  0.346669  1
  Mg  Mg16  1  0.580689  0.579793  0.579793  1
  Mg  Mg17  1  0.580020  0.579871  0.260089  1
  Mg  Mg18  1  0.580020  0.260089  0.579871  1
  Mg  Mg19  1  0.259725  0.579793  0.579793  1
  Ru  Ru20  1  0.142785  0.143343  0.143343  1
  Ru  Ru21  1  0.142933  0.143938  0.570197  1
  Ru  Ru22  1  0.142933  0.570197  0.143938  1
  Ru  Ru23  1  0.570528  0.143343  0.143343  1
