# generated using pymatgen
data_Na6Hf2PaCl18
_symmetry_space_group_name_H-M   'P 1'
_cell_length_a   11.87665300
_cell_length_b   11.87665343
_cell_length_c   6.19737400
_cell_angle_alpha   90.00000000
_cell_angle_beta   90.00000000
_cell_angle_gamma   119.99999601
_symmetry_Int_Tables_number   1
_chemical_formula_structural   Na6Hf2PaCl18
_chemical_formula_sum   'Na6 Hf2 Pa1 Cl18'
_cell_volume   757.05338670
_cell_formula_units_Z   1
loop_
 _symmetry_equiv_pos_site_id
 _symmetry_equiv_pos_as_xyz
  1  'x, y, z'
loop_
 _atom_site_type_symbol
 _atom_site_label
 _atom_site_symmetry_multiplicity
 _atom_site_fract_x
 _atom_site_fract_y
 _atom_site_fract_z
 _atom_site_occupancy
  Na  Na0  1  0.664487  0.003817  0.998892  1
  Na  Na1  1  0.339330  0.003817  0.998892  1
  Na  Na2  1  0.996183  0.660670  0.998892  1
  Na  Na3  1  0.664487  0.660670  0.998892  1
  Na  Na4  1  0.339330  0.335513  0.998892  1
  Na  Na5  1  0.996183  0.335513  0.998892  1
  Hf  Hf6  1  0.666667  0.333333  0.503651  1
  Hf  Hf7  1  0.000000  0.000000  0.000896  1
  Pa  Pa8  1  0.333333  0.666667  0.496815  1
  Cl  Cl9  1  0.568110  0.136222  0.735397  1
  Cl  Cl10  1  0.765674  0.234326  0.280066  1
  Cl  Cl11  1  0.802101  0.901051  0.225757  1
  Cl  Cl12  1  0.439298  0.560702  0.248797  1
  Cl  Cl13  1  0.765674  0.531348  0.280066  1
  Cl  Cl14  1  0.098949  0.197899  0.225757  1
  Cl  Cl15  1  0.226528  0.773472  0.737073  1
  Cl  Cl16  1  0.568110  0.431890  0.735397  1
  Cl  Cl17  1  0.226528  0.453056  0.737073  1
  Cl  Cl18  1  0.121404  0.560702  0.248797  1
  Cl  Cl19  1  0.198002  0.099001  0.774670  1
  Cl  Cl20  1  0.098949  0.901051  0.225757  1
  Cl  Cl21  1  0.546944  0.773472  0.737073  1
  Cl  Cl22  1  0.439298  0.878596  0.248797  1
  Cl  Cl23  1  0.900999  0.099001  0.774670  1
  Cl  Cl24  1  0.863778  0.431890  0.735397  1
  Cl  Cl25  1  0.468652  0.234326  0.280066  1
  Cl  Cl26  1  0.900999  0.801998  0.774670  1
