# generated using pymatgen
data_Dy16Zr(ScIr4)3
_symmetry_space_group_name_H-M   'P 1'
_cell_length_a   10.79472900
_cell_length_b   10.79472900
_cell_length_c   6.26756600
_cell_angle_alpha   90.00000000
_cell_angle_beta   90.00000000
_cell_angle_gamma   90.00000000
_symmetry_Int_Tables_number   1
_chemical_formula_structural   Dy16Zr(ScIr4)3
_chemical_formula_sum   'Dy16 Zr1 Sc3 Ir12'
_cell_volume   730.33548742
_cell_formula_units_Z   1
loop_
 _symmetry_equiv_pos_site_id
 _symmetry_equiv_pos_as_xyz
  1  'x, y, z'
loop_
 _atom_site_type_symbol
 _atom_site_label
 _atom_site_symmetry_multiplicity
 _atom_site_fract_x
 _atom_site_fract_y
 _atom_site_fract_z
 _atom_site_occupancy
  Dy  Dy0  1  0.289048  0.086376  0.378024  1
  Dy  Dy1  1  0.288342  0.914104  0.877406  1
  Dy  Dy2  1  0.711658  0.085896  0.877406  1
  Dy  Dy3  1  0.710952  0.913624  0.378024  1
  Dy  Dy4  1  0.585895  0.788287  0.877988  1
  Dy  Dy5  1  0.586145  0.211988  0.378054  1
  Dy  Dy6  1  0.413855  0.788012  0.378054  1
  Dy  Dy7  1  0.414105  0.211713  0.877988  1
  Dy  Dy8  1  0.211988  0.413855  0.621946  1
  Dy  Dy9  1  0.211713  0.585895  0.122012  1
  Dy  Dy10  1  0.788287  0.414105  0.122012  1
  Dy  Dy11  1  0.788012  0.586145  0.621946  1
  Dy  Dy12  1  0.914104  0.711658  0.122594  1
  Dy  Dy13  1  0.913624  0.289048  0.621976  1
  Dy  Dy14  1  0.086376  0.710952  0.621976  1
  Dy  Dy15  1  0.085896  0.288342  0.122594  1
  Zr  Zr16  1  0.000000  0.000000  0.500000  1
  Sc  Sc17  1  0.000000  0.000000  0.000000  1
  Sc  Sc18  1  0.500000  0.500000  0.000000  1
  Sc  Sc19  1  0.500000  0.500000  0.500000  1
  Ir  Ir20  1  0.853447  0.146243  0.252000  1
  Ir  Ir21  1  0.853757  0.853447  0.748000  1
  Ir  Ir22  1  0.146243  0.146553  0.748000  1
  Ir  Ir23  1  0.146553  0.853757  0.252000  1
  Ir  Ir24  1  0.647092  0.352776  0.750292  1
  Ir  Ir25  1  0.647224  0.647092  0.249708  1
  Ir  Ir26  1  0.352776  0.352908  0.249708  1
  Ir  Ir27  1  0.352908  0.647224  0.750292  1
  Ir  Ir28  1  0.500000  0.000000  0.123327  1
  Ir  Ir29  1  0.500000  0.000000  0.623486  1
  Ir  Ir30  1  0.000000  0.500000  0.876673  1
  Ir  Ir31  1  0.000000  0.500000  0.376514  1
