# generated using pymatgen
data_Na4LiAg3Se4
_symmetry_space_group_name_H-M   'P 1'
_cell_length_a   4.34266300
_cell_length_b   7.40562788
_cell_length_c   8.10545430
_cell_angle_alpha   89.56789419
_cell_angle_beta   90.00000000
_cell_angle_gamma   90.00000000
_symmetry_Int_Tables_number   1
_chemical_formula_structural   Na4LiAg3Se4
_chemical_formula_sum   'Na4 Li1 Ag3 Se4'
_cell_volume   260.66518202
_cell_formula_units_Z   1
loop_
 _symmetry_equiv_pos_site_id
 _symmetry_equiv_pos_as_xyz
  1  'x, y, z'
loop_
 _atom_site_type_symbol
 _atom_site_label
 _atom_site_symmetry_multiplicity
 _atom_site_fract_x
 _atom_site_fract_y
 _atom_site_fract_z
 _atom_site_occupancy
  Na  Na0  1  0.750000  0.482408  0.682325  1
  Na  Na1  1  0.250000  0.529187  0.322743  1
  Na  Na2  1  0.750000  0.971703  0.823060  1
  Na  Na3  1  0.250000  0.030792  0.175007  1
  Li  Li4  1  0.250000  0.131530  0.557751  1
  Ag  Ag5  1  0.750000  0.354677  0.065309  1
  Ag  Ag6  1  0.250000  0.627170  0.940133  1
  Ag  Ag7  1  0.750000  0.868334  0.436154  1
  Se  Se8  1  0.750000  0.738832  0.120269  1
  Se  Se9  1  0.250000  0.257209  0.867787  1
  Se  Se10  1  0.750000  0.236264  0.389225  1
  Se  Se11  1  0.250000  0.771895  0.620237  1
