# generated using pymatgen
data_Dy2HoTh(CuAs2)4
_symmetry_space_group_name_H-M   'P 1'
_cell_length_a   3.95244500
_cell_length_b   3.94965886
_cell_length_c   19.68557541
_cell_angle_alpha   90.22864244
_cell_angle_beta   90.00000000
_cell_angle_gamma   90.00000000
_symmetry_Int_Tables_number   1
_chemical_formula_structural   Dy2HoTh(CuAs2)4
_chemical_formula_sum   'Dy2 Ho1 Th1 Cu4 As8'
_cell_volume   307.30531934
_cell_formula_units_Z   1
loop_
 _symmetry_equiv_pos_site_id
 _symmetry_equiv_pos_as_xyz
  1  'x, y, z'
loop_
 _atom_site_type_symbol
 _atom_site_label
 _atom_site_symmetry_multiplicity
 _atom_site_fract_x
 _atom_site_fract_y
 _atom_site_fract_z
 _atom_site_occupancy
  Dy  Dy0  1  0.250000  0.258362  0.619429  1
  Dy  Dy1  1  0.750000  0.757250  0.878751  1
  Ho  Ho2  1  0.750000  0.741484  0.383953  1
  Th  Th3  1  0.250000  0.243165  0.115578  1
  Cu  Cu4  1  0.750000  0.240856  0.253491  1
  Cu  Cu5  1  0.250000  0.739675  0.253519  1
  Cu  Cu6  1  0.750000  0.261018  0.749549  1
  Cu  Cu7  1  0.250000  0.760809  0.749427  1
  As  As8  1  0.250000  0.746950  0.996051  1
  As  As9  1  0.750000  0.742329  0.172115  1
  As  As10  1  0.250000  0.240499  0.332406  1
  As  As11  1  0.750000  0.245139  0.500497  1
  As  As12  1  0.250000  0.753615  0.500538  1
  As  As13  1  0.750000  0.759433  0.669239  1
  As  As14  1  0.250000  0.258577  0.829382  1
  As  As15  1  0.750000  0.250840  0.996076  1
