# generated using pymatgen
data_OsSeCl9
_symmetry_space_group_name_H-M   'P 1'
_cell_length_a   11.27861000
_cell_length_b   6.61049489
_cell_length_c   9.58590608
_cell_angle_alpha   75.99554600
_cell_angle_beta   90.00000000
_cell_angle_gamma   90.00000000
_symmetry_Int_Tables_number   1
_chemical_formula_structural   OsSeCl9
_chemical_formula_sum   'Os2 Se2 Cl18'
_cell_volume   693.45522165
_cell_formula_units_Z   2
loop_
 _symmetry_equiv_pos_site_id
 _symmetry_equiv_pos_as_xyz
  1  'x, y, z'
loop_
 _atom_site_type_symbol
 _atom_site_label
 _atom_site_symmetry_multiplicity
 _atom_site_fract_x
 _atom_site_fract_y
 _atom_site_fract_z
 _atom_site_occupancy
  Os  Os0  1  0.250000  0.647595  0.846155  1
  Os  Os1  1  0.750000  0.352405  0.153845  1
  Se  Se2  1  0.250000  0.758295  0.462588  1
  Se  Se3  1  0.750000  0.241705  0.537412  1
  Cl  Cl4  1  0.606291  0.450291  0.306903  1
  Cl  Cl5  1  0.106291  0.549709  0.693097  1
  Cl  Cl6  1  0.393709  0.549709  0.693097  1
  Cl  Cl7  1  0.893709  0.450291  0.306903  1
  Cl  Cl8  1  0.750000  0.681282  0.011279  1
  Cl  Cl9  1  0.250000  0.318718  0.988721  1
  Cl  Cl10  1  0.750000  0.502146  0.644997  1
  Cl  Cl11  1  0.250000  0.497854  0.355003  1
  Cl  Cl12  1  0.750000  0.021090  0.320718  1
  Cl  Cl13  1  0.250000  0.978910  0.679282  1
  Cl  Cl14  1  0.896549  0.244002  0.026421  1
  Cl  Cl15  1  0.396549  0.755998  0.973579  1
  Cl  Cl16  1  0.103451  0.755998  0.973579  1
  Cl  Cl17  1  0.603451  0.244002  0.026421  1
  Cl  Cl18  1  0.897708  0.060792  0.658530  1
  Cl  Cl19  1  0.397708  0.939208  0.341470  1
  Cl  Cl20  1  0.102292  0.939208  0.341470  1
  Cl  Cl21  1  0.602292  0.060792  0.658530  1
