# generated using pymatgen
data_PrEr3(Si5Pt3)2
_symmetry_space_group_name_H-M   'P 1'
_cell_length_a   8.16804257
_cell_length_b   8.17677882
_cell_length_c   8.17677812
_cell_angle_alpha   136.34626564
_cell_angle_beta   104.74860359
_cell_angle_gamma   91.27163713
_symmetry_Int_Tables_number   1
_chemical_formula_structural   PrEr3(Si5Pt3)2
_chemical_formula_sum   'Pr1 Er3 Si10 Pt6'
_cell_volume   346.69948429
_cell_formula_units_Z   1
loop_
 _symmetry_equiv_pos_site_id
 _symmetry_equiv_pos_as_xyz
  1  'x, y, z'
loop_
 _atom_site_type_symbol
 _atom_site_label
 _atom_site_symmetry_multiplicity
 _atom_site_fract_x
 _atom_site_fract_y
 _atom_site_fract_z
 _atom_site_occupancy
  Pr  Pr0  1  0.602936  0.871164  0.731772  1
  Er  Er1  1  0.858019  0.629037  0.228982  1
  Er  Er2  1  0.141294  0.370797  0.770497  1
  Er  Er3  1  0.399295  0.129127  0.270169  1
  Si  Si4  1  0.499732  0.751531  0.250693  1
  Si  Si5  1  0.499732  0.249039  0.748201  1
  Si  Si6  1  0.227423  0.978151  0.748848  1
  Si  Si7  1  0.771077  0.521007  0.750414  1
  Si  Si8  1  0.771077  0.020663  0.250070  1
  Si  Si9  1  0.227423  0.478575  0.249272  1
  Si  Si10  1  0.037861  0.887845  0.150016  1
  Si  Si11  1  0.965633  0.115427  0.850206  1
  Si  Si12  1  0.736712  0.387633  0.349078  1
  Si  Si13  1  0.261667  0.610334  0.651333  1
  Pt  Pt14  1  0.001462  0.749485  0.750058  1
  Pt  Pt15  1  0.001462  0.251404  0.251977  1
  Pt  Pt16  1  0.248061  0.862375  0.385687  1
  Pt  Pt17  1  0.752586  0.139487  0.613098  1
  Pt  Pt18  1  0.474098  0.362703  0.111395  1
  Pt  Pt19  1  0.522449  0.634216  0.888233  1
