# generated using pymatgen
data_ScMn5(AlRh2)6
_symmetry_space_group_name_H-M   'P 1'
_cell_length_a   4.31021753
_cell_length_b   6.05883683
_cell_length_c   12.92933410
_cell_angle_alpha   90.22496212
_cell_angle_beta   89.94627422
_cell_angle_gamma   89.98362651
_symmetry_Int_Tables_number   1
_chemical_formula_structural   ScMn5(AlRh2)6
_chemical_formula_sum   'Sc1 Mn5 Al6 Rh12'
_cell_volume   337.64556308
_cell_formula_units_Z   1
loop_
 _symmetry_equiv_pos_site_id
 _symmetry_equiv_pos_as_xyz
  1  'x, y, z'
loop_
 _atom_site_type_symbol
 _atom_site_label
 _atom_site_symmetry_multiplicity
 _atom_site_fract_x
 _atom_site_fract_y
 _atom_site_fract_z
 _atom_site_occupancy
  Sc  Sc0  1  0.000133  0.999995  0.000077  1
  Mn  Mn1  1  0.499986  0.500025  0.168630  1
  Mn  Mn2  1  0.000004  0.000273  0.334074  1
  Mn  Mn3  1  0.499746  0.500291  0.499770  1
  Mn  Mn4  1  0.999968  0.999766  0.665890  1
  Mn  Mn5  1  0.499710  0.499860  0.831381  1
  Al  Al6  1  0.000009  0.499928  0.000061  1
  Al  Al7  1  0.500047  0.000060  0.170402  1
  Al  Al8  1  0.999956  0.499892  0.336296  1
  Al  Al9  1  0.499984  0.000100  0.499966  1
  Al  Al10  1  0.999992  0.499865  0.663702  1
  Al  Al11  1  0.500027  0.000033  0.829624  1
  Rh  Rh12  1  0.500074  0.259718  0.000031  1
  Rh  Rh13  1  0.500069  0.740244  0.000055  1
  Rh  Rh14  1  0.000099  0.254276  0.169955  1
  Rh  Rh15  1  0.000085  0.745796  0.169971  1
  Rh  Rh16  1  0.499982  0.250763  0.334085  1
  Rh  Rh17  1  0.499977  0.749329  0.334078  1
  Rh  Rh18  1  0.000000  0.248474  0.500020  1
  Rh  Rh19  1  0.000016  0.751522  0.499975  1
  Rh  Rh20  1  0.500101  0.250755  0.665833  1
  Rh  Rh21  1  0.500102  0.749158  0.665861  1
  Rh  Rh22  1  0.999975  0.254156  0.830123  1
  Rh  Rh23  1  0.999961  0.745715  0.830141  1
