# generated using pymatgen
data_Sr4Ir3WO16
_symmetry_space_group_name_H-M   'P 1'
_cell_length_a   5.19467977
_cell_length_b   5.58703476
_cell_length_c   12.95721100
_cell_angle_alpha   90.00000000
_cell_angle_beta   90.00000000
_cell_angle_gamma   90.27645699
_symmetry_Int_Tables_number   1
_chemical_formula_structural   Sr4Ir3WO16
_chemical_formula_sum   'Sr4 Ir3 W1 O16'
_cell_volume   376.05089692
_cell_formula_units_Z   1
loop_
 _symmetry_equiv_pos_site_id
 _symmetry_equiv_pos_as_xyz
  1  'x, y, z'
loop_
 _atom_site_type_symbol
 _atom_site_label
 _atom_site_symmetry_multiplicity
 _atom_site_fract_x
 _atom_site_fract_y
 _atom_site_fract_z
 _atom_site_occupancy
  Sr  Sr0  1  0.750000  0.000000  0.659652  1
  Sr  Sr1  1  0.250000  0.500000  0.837404  1
  Sr  Sr2  1  0.250000  0.000000  0.337916  1
  Sr  Sr3  1  0.750000  0.500000  0.162478  1
  Ir  Ir4  1  0.750000  0.500000  0.431517  1
  Ir  Ir5  1  0.250000  0.000000  0.070407  1
  Ir  Ir6  1  0.250000  0.500000  0.567598  1
  W  W7  1  0.750000  0.000000  0.927434  1
  O  O8  1  0.130212  0.284995  0.668353  1
  O  O9  1  0.633883  0.215703  0.830429  1
  O  O10  1  0.866117  0.784297  0.830429  1
  O  O11  1  0.369788  0.715005  0.668353  1
  O  O12  1  0.871072  0.714519  0.331002  1
  O  O13  1  0.377051  0.790590  0.170465  1
  O  O14  1  0.122949  0.209410  0.170465  1
  O  O15  1  0.628928  0.285481  0.331002  1
  O  O16  1  0.564459  0.315905  0.544034  1
  O  O17  1  0.062695  0.188975  0.956555  1
  O  O18  1  0.437305  0.811025  0.956555  1
  O  O19  1  0.935541  0.684095  0.544034  1
  O  O20  1  0.435608  0.684352  0.455053  1
  O  O21  1  0.934070  0.811891  0.046907  1
  O  O22  1  0.565930  0.188109  0.046907  1
  O  O23  1  0.064392  0.315648  0.455053  1
