# generated using pymatgen
data_Mg2(ScPt)3
_symmetry_space_group_name_H-M   'P 1'
_cell_length_a   8.06222600
_cell_length_b   8.06222641
_cell_length_c   5.47662100
_cell_angle_alpha   90.00000000
_cell_angle_beta   90.00000000
_cell_angle_gamma   119.99999832
_symmetry_Int_Tables_number   1
_chemical_formula_structural   Mg2(ScPt)3
_chemical_formula_sum   'Mg4 Sc6 Pt6'
_cell_volume   308.28563222
_cell_formula_units_Z   2
loop_
 _symmetry_equiv_pos_site_id
 _symmetry_equiv_pos_as_xyz
  1  'x, y, z'
loop_
 _atom_site_type_symbol
 _atom_site_label
 _atom_site_symmetry_multiplicity
 _atom_site_fract_x
 _atom_site_fract_y
 _atom_site_fract_z
 _atom_site_occupancy
  Mg  Mg0  1  0.666666  0.333333  0.000000  1
  Mg  Mg1  1  0.333333  0.666667  0.000000  1
  Mg  Mg2  1  0.666666  0.333333  0.500000  1
  Mg  Mg3  1  0.333333  0.666667  0.500000  1
  Sc  Sc4  1  0.267347  0.000000  0.250001  1
  Sc  Sc5  1  0.000000  0.267347  0.250001  1
  Sc  Sc6  1  0.732653  0.732653  0.250001  1
  Sc  Sc7  1  0.732652  0.000000  0.750000  1
  Sc  Sc8  1  0.267348  0.267347  0.750000  1
  Sc  Sc9  1  0.000000  0.732653  0.750000  1
  Pt  Pt10  1  0.616549  0.000000  0.250001  1
  Pt  Pt11  1  0.383451  0.383451  0.250001  1
  Pt  Pt12  1  0.000000  0.616549  0.250001  1
  Pt  Pt13  1  0.383451  0.000000  0.750000  1
  Pt  Pt14  1  0.000000  0.383451  0.750000  1
  Pt  Pt15  1  0.616549  0.616549  0.750000  1
