# generated using pymatgen
data_DyEr15(AlRh)4
_symmetry_space_group_name_H-M   'P 1'
_cell_length_a   9.46051130
_cell_length_b   9.46804340
_cell_length_c   9.46051149
_cell_angle_alpha   59.97365911
_cell_angle_beta   59.93970242
_cell_angle_gamma   59.97365700
_symmetry_Int_Tables_number   1
_chemical_formula_structural   DyEr15(AlRh)4
_chemical_formula_sum   'Dy1 Er15 Al4 Rh4'
_cell_volume   598.69177935
_cell_formula_units_Z   1
loop_
 _symmetry_equiv_pos_site_id
 _symmetry_equiv_pos_as_xyz
  1  'x, y, z'
loop_
 _atom_site_type_symbol
 _atom_site_label
 _atom_site_symmetry_multiplicity
 _atom_site_fract_x
 _atom_site_fract_y
 _atom_site_fract_z
 _atom_site_occupancy
  Dy  Dy0  1  0.564140  0.935860  0.564140  1
  Er  Er1  1  0.563322  0.562550  0.937103  1
  Er  Er2  1  0.146873  0.557514  0.146873  1
  Er  Er3  1  0.693293  0.307389  0.307247  1
  Er  Er4  1  0.937103  0.562550  0.563322  1
  Er  Er5  1  0.936475  0.563525  0.936475  1
  Er  Er6  1  0.693293  0.692071  0.307247  1
  Er  Er7  1  0.563322  0.937024  0.937103  1
  Er  Er8  1  0.146873  0.148741  0.146873  1
  Er  Er9  1  0.307058  0.692942  0.307058  1
  Er  Er10  1  0.558965  0.147473  0.146088  1
  Er  Er11  1  0.307247  0.307389  0.693293  1
  Er  Er12  1  0.307247  0.692071  0.693293  1
  Er  Er13  1  0.146088  0.147473  0.558965  1
  Er  Er14  1  0.692694  0.307306  0.692694  1
  Er  Er15  1  0.937103  0.937024  0.563322  1
  Al  Al16  1  0.921754  0.921747  0.921754  1
  Al  Al17  1  0.233360  0.922041  0.922556  1
  Al  Al18  1  0.922556  0.922041  0.233360  1
  Al  Al19  1  0.921754  0.234744  0.921754  1
  Rh  Rh20  1  0.357392  0.357307  0.927995  1
  Rh  Rh21  1  0.357045  0.358143  0.357045  1
  Rh  Rh22  1  0.927995  0.357307  0.357392  1
  Rh  Rh23  1  0.357045  0.927765  0.357045  1
