# generated using pymatgen
data_ErLu3(Si5Os3)2
_symmetry_space_group_name_H-M   'P 1'
_cell_length_a   8.09371288
_cell_length_b   8.09032688
_cell_length_c   5.74958827
_cell_angle_alpha   70.66751851
_cell_angle_beta   70.66716462
_cell_angle_gamma   94.29381385
_symmetry_Int_Tables_number   1
_chemical_formula_structural   ErLu3(Si5Os3)2
_chemical_formula_sum   'Er1 Lu3 Si10 Os6'
_cell_volume   327.95327862
_cell_formula_units_Z   1
loop_
 _symmetry_equiv_pos_site_id
 _symmetry_equiv_pos_as_xyz
  1  'x, y, z'
loop_
 _atom_site_type_symbol
 _atom_site_label
 _atom_site_symmetry_multiplicity
 _atom_site_fract_x
 _atom_site_fract_y
 _atom_site_fract_z
 _atom_site_occupancy
  Er  Er0  1  0.868916  0.600259  0.753580  1
  Lu  Lu1  1  0.399672  0.130961  0.746541  1
  Lu  Lu2  1  0.131083  0.399712  0.246372  1
  Lu  Lu3  1  0.600303  0.869032  0.253496  1
  Si  Si4  1  0.069861  0.262013  0.832375  1
  Si  Si5  1  0.737851  0.930746  0.667498  1
  Si  Si6  1  0.930353  0.738097  0.167342  1
  Si  Si7  1  0.261900  0.069690  0.332468  1
  Si  Si8  1  0.206024  0.794482  0.750029  1
  Si  Si9  1  0.794276  0.205713  0.249863  1
  Si  Si10  1  0.512268  0.487046  0.750191  1
  Si  Si11  1  0.487171  0.512635  0.250068  1
  Si  Si12  1  0.775526  0.224219  0.750120  1
  Si  Si13  1  0.224668  0.775633  0.249645  1
  Os  Os14  1  0.255198  0.544321  0.630728  1
  Os  Os15  1  0.455701  0.745559  0.869010  1
  Os  Os16  1  0.745154  0.455192  0.369674  1
  Os  Os17  1  0.544050  0.254191  0.131181  1
  Os  Os18  1  0.002606  0.997723  0.749837  1
  Os  Os19  1  0.997421  0.002777  0.249981  1
