# generated using pymatgen
data_HoEr3CdNi
_symmetry_space_group_name_H-M   'P 1'
_cell_length_a   9.49755742
_cell_length_b   9.49694643
_cell_length_c   9.49694519
_cell_angle_alpha   60.00686405
_cell_angle_beta   59.99628632
_cell_angle_gamma   59.99628222
_symmetry_Int_Tables_number   1
_chemical_formula_structural   HoEr3CdNi
_chemical_formula_sum   'Ho4 Er12 Cd4 Ni4'
_cell_volume   605.70753640
_cell_formula_units_Z   4
loop_
 _symmetry_equiv_pos_site_id
 _symmetry_equiv_pos_as_xyz
  1  'x, y, z'
loop_
 _atom_site_type_symbol
 _atom_site_label
 _atom_site_symmetry_multiplicity
 _atom_site_fract_x
 _atom_site_fract_y
 _atom_site_fract_z
 _atom_site_occupancy
  Ho  Ho0  1  0.813964  0.186036  0.813955  1
  Ho  Ho1  1  0.186052  0.813954  0.186030  1
  Ho  Ho2  1  0.813964  0.813955  0.186036  1
  Ho  Ho3  1  0.186052  0.186030  0.813954  1
  Er  Er4  1  0.598651  0.598484  0.598484  1
  Er  Er5  1  0.598495  0.598664  0.204364  1
  Er  Er6  1  0.598495  0.204364  0.598664  1
  Er  Er7  1  0.204382  0.598486  0.598486  1
  Er  Er8  1  0.060982  0.439017  0.439017  1
  Er  Er9  1  0.439030  0.060980  0.060980  1
  Er  Er10  1  0.438688  0.061329  0.438642  1
  Er  Er11  1  0.061345  0.438652  0.061330  1
  Er  Er12  1  0.438688  0.438642  0.061329  1
  Er  Er13  1  0.061345  0.061330  0.438652  1
  Er  Er14  1  0.186513  0.813462  0.813462  1
  Er  Er15  1  0.813491  0.186524  0.186524  1
  Cd  Cd16  1  0.831487  0.830759  0.830759  1
  Cd  Cd17  1  0.830763  0.831493  0.506979  1
  Cd  Cd18  1  0.830763  0.506979  0.831493  1
  Cd  Cd19  1  0.507007  0.830752  0.830752  1
  Ni  Ni20  1  0.392694  0.392570  0.392570  1
  Ni  Ni21  1  0.392514  0.392673  0.822289  1
  Ni  Ni22  1  0.392514  0.822289  0.392673  1
  Ni  Ni23  1  0.822122  0.392577  0.392577  1
