# generated using pymatgen
data_Sm2As2Cl2O5
_symmetry_space_group_name_H-M   'P 1'
_cell_length_a   6.85371868
_cell_length_b   7.09094648
_cell_length_c   9.84781531
_cell_angle_alpha   110.22581563
_cell_angle_beta   99.08769625
_cell_angle_gamma   100.17784455
_symmetry_Int_Tables_number   1
_chemical_formula_structural   Sm2As2Cl2O5
_chemical_formula_sum   'Sm4 As4 Cl4 O10'
_cell_volume   429.40826512
_cell_formula_units_Z   2
loop_
 _symmetry_equiv_pos_site_id
 _symmetry_equiv_pos_as_xyz
  1  'x, y, z'
loop_
 _atom_site_type_symbol
 _atom_site_label
 _atom_site_symmetry_multiplicity
 _atom_site_fract_x
 _atom_site_fract_y
 _atom_site_fract_z
 _atom_site_occupancy
  Sm  Sm0  1  0.386263  0.759216  0.546845  1
  Sm  Sm1  1  0.613737  0.240784  0.453155  1
  Sm  Sm2  1  0.834302  0.735363  0.343498  1
  Sm  Sm3  1  0.165698  0.264637  0.656502  1
  As  As4  1  0.906026  0.796697  0.700943  1
  As  As5  1  0.093974  0.203303  0.299057  1
  As  As6  1  0.714152  0.238990  0.791992  1
  As  As7  1  0.285848  0.761010  0.208008  1
  Cl  Cl8  1  0.358244  0.684296  0.802933  1
  Cl  Cl9  1  0.641756  0.315704  0.197067  1
  Cl  Cl10  1  0.847550  0.756528  0.075364  1
  Cl  Cl11  1  0.152450  0.243472  0.924636  1
  O  O12  1  0.851679  0.338697  0.681525  1
  O  O13  1  0.148321  0.661303  0.318475  1
  O  O14  1  0.529581  0.839958  0.353727  1
  O  O15  1  0.470419  0.160042  0.646273  1
  O  O16  1  0.723036  0.961656  0.697046  1
  O  O17  1  0.276964  0.038344  0.302954  1
  O  O18  1  0.719940  0.605242  0.529963  1
  O  O19  1  0.280060  0.394758  0.470037  1
  O  O20  1  0.068068  0.884216  0.590191  1
  O  O21  1  0.931932  0.115784  0.409809  1
