# generated using pymatgen
data_DyMgFeB6
_symmetry_space_group_name_H-M   'P 1'
_cell_length_a   3.42400000
_cell_length_b   8.83659900
_cell_length_c   11.20262700
_cell_angle_alpha   90.00000000
_cell_angle_beta   90.00000000
_cell_angle_gamma   90.00000000
_symmetry_Int_Tables_number   1
_chemical_formula_structural   DyMgFeB6
_chemical_formula_sum   'Dy4 Mg4 Fe4 B24'
_cell_volume   338.95245160
_cell_formula_units_Z   4
loop_
 _symmetry_equiv_pos_site_id
 _symmetry_equiv_pos_as_xyz
  1  'x, y, z'
loop_
 _atom_site_type_symbol
 _atom_site_label
 _atom_site_symmetry_multiplicity
 _atom_site_fract_x
 _atom_site_fract_y
 _atom_site_fract_z
 _atom_site_occupancy
  Dy  Dy0  1  0.000000  0.823630  0.085899  1
  Dy  Dy1  1  0.000000  0.176370  0.914101  1
  Dy  Dy2  1  0.000000  0.323630  0.414101  1
  Dy  Dy3  1  0.000000  0.676370  0.585899  1
  Mg  Mg4  1  0.000000  0.442776  0.130964  1
  Mg  Mg5  1  0.000000  0.557224  0.869036  1
  Mg  Mg6  1  0.000000  0.942776  0.369036  1
  Mg  Mg7  1  0.000000  0.057224  0.630964  1
  Fe  Fe8  1  0.000000  0.141332  0.182349  1
  Fe  Fe9  1  0.000000  0.858668  0.817651  1
  Fe  Fe10  1  0.000000  0.641332  0.317651  1
  Fe  Fe11  1  0.000000  0.358668  0.682349  1
  B  B12  1  0.500000  0.056776  0.069503  1
  B  B13  1  0.500000  0.943224  0.930497  1
  B  B14  1  0.500000  0.556776  0.430497  1
  B  B15  1  0.500000  0.443224  0.569503  1
  B  B16  1  0.500000  0.253704  0.083472  1
  B  B17  1  0.500000  0.746296  0.916528  1
  B  B18  1  0.500000  0.753704  0.416528  1
  B  B19  1  0.500000  0.246296  0.583472  1
  B  B20  1  0.500000  0.292316  0.235750  1
  B  B21  1  0.500000  0.707684  0.764250  1
  B  B22  1  0.500000  0.792316  0.264250  1
  B  B23  1  0.500000  0.207684  0.735750  1
  B  B24  1  0.500000  0.127918  0.316332  1
  B  B25  1  0.500000  0.872082  0.683668  1
  B  B26  1  0.500000  0.627918  0.183668  1
  B  B27  1  0.500000  0.372082  0.816332  1
  B  B28  1  0.500000  0.483235  0.286738  1
  B  B29  1  0.500000  0.516765  0.713262  1
  B  B30  1  0.500000  0.983235  0.213262  1
  B  B31  1  0.500000  0.016765  0.786738  1
  B  B32  1  0.500000  0.092862  0.474774  1
  B  B33  1  0.500000  0.907138  0.525226  1
  B  B34  1  0.500000  0.592862  0.025226  1
  B  B35  1  0.500000  0.407138  0.974774  1
