# generated using pymatgen
data_Fe2TeCl2O3
_symmetry_space_group_name_H-M   'P 1'
_cell_length_a   6.85828400
_cell_length_b   5.13323757
_cell_length_c   8.64289532
_cell_angle_alpha   74.43380168
_cell_angle_beta   90.00000000
_cell_angle_gamma   90.00000000
_symmetry_Int_Tables_number   1
_chemical_formula_structural   Fe2TeCl2O3
_chemical_formula_sum   'Fe4 Te2 Cl4 O6'
_cell_volume   293.11438454
_cell_formula_units_Z   2
loop_
 _symmetry_equiv_pos_site_id
 _symmetry_equiv_pos_as_xyz
  1  'x, y, z'
loop_
 _atom_site_type_symbol
 _atom_site_label
 _atom_site_symmetry_multiplicity
 _atom_site_fract_x
 _atom_site_fract_y
 _atom_site_fract_z
 _atom_site_occupancy
  Fe  Fe0  1  0.250000  0.756906  0.775483  1
  Fe  Fe1  1  0.750000  0.243094  0.224517  1
  Fe  Fe2  1  0.500000  0.000000  0.000000  1
  Fe  Fe3  1  0.000000  0.000000  0.000000  1
  Te  Te4  1  0.750000  0.600483  0.754468  1
  Te  Te5  1  0.250000  0.399517  0.245532  1
  Cl  Cl6  1  0.250000  0.842016  0.492107  1
  Cl  Cl7  1  0.250000  0.254502  0.797528  1
  Cl  Cl8  1  0.750000  0.745498  0.202472  1
  Cl  Cl9  1  0.750000  0.157984  0.507893  1
  O  O10  1  0.039106  0.237745  0.160723  1
  O  O11  1  0.539106  0.762255  0.839277  1
  O  O12  1  0.960894  0.762255  0.839277  1
  O  O13  1  0.750000  0.264593  0.924707  1
  O  O14  1  0.250000  0.735407  0.075293  1
  O  O15  1  0.460894  0.237745  0.160723  1
