# generated using pymatgen
data_Li2AcYbSi4
_symmetry_space_group_name_H-M   'P 1'
_cell_length_a   3.90676900
_cell_length_b   7.98006053
_cell_length_c   10.82852501
_cell_angle_alpha   89.97657549
_cell_angle_beta   90.00000000
_cell_angle_gamma   90.00000000
_symmetry_Int_Tables_number   1
_chemical_formula_structural   Li2AcYbSi4
_chemical_formula_sum   'Li4 Ac2 Yb2 Si8'
_cell_volume   337.59280803
_cell_formula_units_Z   2
loop_
 _symmetry_equiv_pos_site_id
 _symmetry_equiv_pos_as_xyz
  1  'x, y, z'
loop_
 _atom_site_type_symbol
 _atom_site_label
 _atom_site_symmetry_multiplicity
 _atom_site_fract_x
 _atom_site_fract_y
 _atom_site_fract_z
 _atom_site_occupancy
  Li  Li0  1  0.250000  0.997382  0.385682  1
  Li  Li1  1  0.750000  0.002618  0.614318  1
  Li  Li2  1  0.250000  0.498715  0.106038  1
  Li  Li3  1  0.750000  0.501285  0.893962  1
  Ac  Ac4  1  0.250000  0.636611  0.637412  1
  Ac  Ac5  1  0.750000  0.363389  0.362588  1
  Yb  Yb6  1  0.250000  0.130416  0.869877  1
  Yb  Yb7  1  0.750000  0.869584  0.130123  1
  Si  Si8  1  0.750000  0.264406  0.063801  1
  Si  Si9  1  0.250000  0.735594  0.936199  1
  Si  Si10  1  0.750000  0.779194  0.422557  1
  Si  Si11  1  0.250000  0.220806  0.577443  1
  Si  Si12  1  0.750000  0.838784  0.831569  1
  Si  Si13  1  0.250000  0.161216  0.168431  1
  Si  Si14  1  0.750000  0.323324  0.682423  1
  Si  Si15  1  0.250000  0.676676  0.317577  1
