# generated using pymatgen
data_Dy5HoReTcB14
_symmetry_space_group_name_H-M   'P 1'
_cell_length_a   8.09364338
_cell_length_b   8.09364326
_cell_length_c   9.35928200
_cell_angle_alpha   90.00000000
_cell_angle_beta   90.00000000
_cell_angle_gamma   154.74415937
_symmetry_Int_Tables_number   1
_chemical_formula_structural   Dy5HoReTcB14
_chemical_formula_sum   'Dy5 Ho1 Re1 Tc1 B14'
_cell_volume   261.58542253
_cell_formula_units_Z   1
loop_
 _symmetry_equiv_pos_site_id
 _symmetry_equiv_pos_as_xyz
  1  'x, y, z'
loop_
 _atom_site_type_symbol
 _atom_site_label
 _atom_site_symmetry_multiplicity
 _atom_site_fract_x
 _atom_site_fract_y
 _atom_site_fract_z
 _atom_site_occupancy
  Dy  Dy0  1  0.894984  0.105016  0.060894  1
  Dy  Dy1  1  0.105148  0.894852  0.559631  1
  Dy  Dy2  1  0.105148  0.894852  0.940369  1
  Dy  Dy3  1  0.894984  0.105016  0.439106  1
  Dy  Dy4  1  0.757809  0.242191  0.750000  1
  Ho  Ho5  1  0.241371  0.758629  0.250000  1
  Re  Re6  1  0.947248  0.052751  0.750000  1
  Tc  Tc7  1  0.052977  0.947023  0.250000  1
  B  B8  1  0.457762  0.542238  0.250000  1
  B  B9  1  0.542670  0.457330  0.750000  1
  B  B10  1  0.727145  0.272855  0.033841  1
  B  B11  1  0.272867  0.727133  0.532904  1
  B  B12  1  0.272867  0.727133  0.967096  1
  B  B13  1  0.727145  0.272855  0.466159  1
  B  B14  1  0.631857  0.368143  0.348809  1
  B  B15  1  0.367961  0.632039  0.849252  1
  B  B16  1  0.367961  0.632039  0.650748  1
  B  B17  1  0.631857  0.368143  0.151191  1
  B  B18  1  0.520956  0.479044  0.404268  1
  B  B19  1  0.479162  0.520838  0.904690  1
  B  B20  1  0.479162  0.520838  0.595310  1
  B  B21  1  0.520956  0.479044  0.095732  1
