# generated using pymatgen
data_Nd20Co4Bi7Pb
_symmetry_space_group_name_H-M   'P 1'
_cell_length_a   8.38057055
_cell_length_b   9.07672665
_cell_length_c   12.84325804
_cell_angle_alpha   90.03158457
_cell_angle_beta   90.05535303
_cell_angle_gamma   90.01453545
_symmetry_Int_Tables_number   1
_chemical_formula_structural   Nd20Co4Bi7Pb
_chemical_formula_sum   'Nd20 Co4 Bi7 Pb1'
_cell_volume   976.96221826
_cell_formula_units_Z   1
loop_
 _symmetry_equiv_pos_site_id
 _symmetry_equiv_pos_as_xyz
  1  'x, y, z'
loop_
 _atom_site_type_symbol
 _atom_site_label
 _atom_site_symmetry_multiplicity
 _atom_site_fract_x
 _atom_site_fract_y
 _atom_site_fract_z
 _atom_site_occupancy
  Nd  Nd0  1  0.848137  0.748662  0.799659  1
  Nd  Nd1  1  0.150369  0.250051  0.199194  1
  Nd  Nd2  1  0.349925  0.251153  0.700941  1
  Nd  Nd3  1  0.650375  0.750190  0.300338  1
  Nd  Nd4  1  0.380192  0.748861  0.691892  1
  Nd  Nd5  1  0.621585  0.250049  0.308464  1
  Nd  Nd6  1  0.875344  0.251349  0.808478  1
  Nd  Nd7  1  0.121871  0.750075  0.191547  1
  Nd  Nd8  1  0.953887  0.750515  0.502896  1
  Nd  Nd9  1  0.047816  0.249792  0.496896  1
  Nd  Nd10  1  0.454711  0.252176  0.995816  1
  Nd  Nd11  1  0.548623  0.747843  0.002196  1
  Nd  Nd12  1  0.679700  0.032035  0.563234  1
  Nd  Nd13  1  0.320597  0.967703  0.436576  1
  Nd  Nd14  1  0.179378  0.968812  0.936901  1
  Nd  Nd15  1  0.320213  0.531880  0.436263  1
  Nd  Nd16  1  0.820321  0.031355  0.063459  1
  Nd  Nd17  1  0.678362  0.468128  0.565952  1
  Nd  Nd18  1  0.820635  0.467699  0.062358  1
  Nd  Nd19  1  0.180504  0.531369  0.936526  1
  Co  Co20  1  0.564610  0.750070  0.507695  1
  Co  Co21  1  0.435534  0.249676  0.492067  1
  Co  Co22  1  0.062861  0.249444  0.992126  1
  Co  Co23  1  0.936600  0.750135  0.008050  1
  Bi  Bi24  1  0.426199  0.506842  0.174821  1
  Bi  Bi25  1  0.073719  0.506749  0.674059  1
  Bi  Bi26  1  0.426311  0.993358  0.173766  1
  Bi  Bi27  1  0.926382  0.493126  0.325869  1
  Bi  Bi28  1  0.572915  0.006493  0.825650  1
  Bi  Bi29  1  0.926784  0.007038  0.325329  1
  Bi  Bi30  1  0.073182  0.993420  0.674866  1
  Pb  Pb31  1  0.572357  0.493953  0.826117  1
