# generated using pymatgen
data_Tb3DyGa18(RuPt2)2
_symmetry_space_group_name_H-M   'P 1'
_cell_length_a   7.65306327
_cell_length_b   7.65241108
_cell_length_c   9.52622612
_cell_angle_alpha   90.01358911
_cell_angle_beta   90.00371432
_cell_angle_gamma   119.79097763
_symmetry_Int_Tables_number   1
_chemical_formula_structural   Tb3DyGa18(RuPt2)2
_chemical_formula_sum   'Tb3 Dy1 Ga18 Ru2 Pt4'
_cell_volume   484.16788046
_cell_formula_units_Z   1
loop_
 _symmetry_equiv_pos_site_id
 _symmetry_equiv_pos_as_xyz
  1  'x, y, z'
loop_
 _atom_site_type_symbol
 _atom_site_label
 _atom_site_symmetry_multiplicity
 _atom_site_fract_x
 _atom_site_fract_y
 _atom_site_fract_z
 _atom_site_occupancy
  Tb  Tb0  1  0.326536  0.002334  0.750229  1
  Tb  Tb1  1  0.673400  0.997700  0.250268  1
  Tb  Tb2  1  0.002190  0.326577  0.749624  1
  Dy  Dy3  1  0.997860  0.673365  0.249642  1
  Ga  Ga4  1  0.864306  0.864241  0.750037  1
  Ga  Ga5  1  0.135740  0.135611  0.250026  1
  Ga  Ga6  1  0.661913  0.667582  0.432518  1
  Ga  Ga7  1  0.338310  0.332389  0.932576  1
  Ga  Ga8  1  0.667797  0.661825  0.067498  1
  Ga  Ga9  1  0.332365  0.338234  0.567420  1
  Ga  Ga10  1  0.450444  0.661252  0.746791  1
  Ga  Ga11  1  0.549790  0.338946  0.246747  1
  Ga  Ga12  1  0.661269  0.450432  0.753284  1
  Ga  Ga13  1  0.338731  0.549748  0.253272  1
  Ga  Ga14  1  0.994018  0.335716  0.082021  1
  Ga  Ga15  1  0.005889  0.664427  0.581814  1
  Ga  Ga16  1  0.335437  0.993894  0.417965  1
  Ga  Ga17  1  0.664413  0.005868  0.918112  1
  Ga  Ga18  1  0.994542  0.658167  0.918604  1
  Ga  Ga19  1  0.005371  0.341970  0.418529  1
  Ga  Ga20  1  0.658287  0.994685  0.581411  1
  Ga  Ga21  1  0.341649  0.005211  0.081608  1
  Ru  Ru22  1  0.328386  0.671499  0.500013  1
  Ru  Ru23  1  0.671564  0.328491  0.000038  1
  Pt  Pt24  1  0.000257  0.999535  0.499884  1
  Pt  Pt25  1  0.999557  0.000244  0.000058  1
  Pt  Pt26  1  0.671551  0.328581  0.499952  1
  Pt  Pt27  1  0.328425  0.671476  0.000061  1
