# generated using pymatgen
data_Y2Zr3Si7Pt9
_symmetry_space_group_name_H-M   'P 1'
_cell_length_a   10.04752600
_cell_length_b   10.04752621
_cell_length_c   4.03403600
_cell_angle_alpha   90.00000000
_cell_angle_beta   90.00000000
_cell_angle_gamma   119.99999932
_symmetry_Int_Tables_number   1
_chemical_formula_structural   Y2Zr3Si7Pt9
_chemical_formula_sum   'Y2 Zr3 Si7 Pt9'
_cell_volume   352.68638171
_cell_formula_units_Z   1
loop_
 _symmetry_equiv_pos_site_id
 _symmetry_equiv_pos_as_xyz
  1  'x, y, z'
loop_
 _atom_site_type_symbol
 _atom_site_label
 _atom_site_symmetry_multiplicity
 _atom_site_fract_x
 _atom_site_fract_y
 _atom_site_fract_z
 _atom_site_occupancy
  Y  Y0  1  0.000000  0.000000  0.000000  1
  Y  Y1  1  0.333333  0.666667  0.500000  1
  Zr  Zr2  1  0.892723  0.456936  0.500000  1
  Zr  Zr3  1  0.564213  0.107277  0.500000  1
  Zr  Zr4  1  0.543064  0.435787  0.500000  1
  Si  Si5  1  0.247163  0.196738  0.500000  1
  Si  Si6  1  0.803262  0.050426  0.500000  1
  Si  Si7  1  0.949574  0.752837  0.500000  1
  Si  Si8  1  0.557808  0.647293  0.000000  1
  Si  Si9  1  0.352707  0.910514  0.000000  1
  Si  Si10  1  0.089486  0.442192  0.000000  1
  Si  Si11  1  0.666667  0.333333  0.000000  1
  Pt  Pt12  1  0.218211  0.936912  0.500000  1
  Pt  Pt13  1  0.063088  0.281301  0.500000  1
  Pt  Pt14  1  0.718699  0.781789  0.500000  1
  Pt  Pt15  1  0.312812  0.413343  0.000000  1
  Pt  Pt16  1  0.586657  0.899470  0.000000  1
  Pt  Pt17  1  0.100530  0.687188  0.000000  1
  Pt  Pt18  1  0.383705  0.172542  0.000000  1
  Pt  Pt19  1  0.827458  0.211163  0.000000  1
  Pt  Pt20  1  0.788837  0.616295  0.000000  1
