# generated using pymatgen
data_Ce7Np(Si3Pd)4
_symmetry_space_group_name_H-M   'P 1'
_cell_length_a   8.25261400
_cell_length_b   8.25261454
_cell_length_c   8.31651000
_cell_angle_alpha   90.00000000
_cell_angle_beta   90.00000000
_cell_angle_gamma   119.99999782
_symmetry_Int_Tables_number   1
_chemical_formula_structural   Ce7Np(Si3Pd)4
_chemical_formula_sum   'Ce7 Np1 Si12 Pd4'
_cell_volume   490.51788673
_cell_formula_units_Z   1
loop_
 _symmetry_equiv_pos_site_id
 _symmetry_equiv_pos_as_xyz
  1  'x, y, z'
loop_
 _atom_site_type_symbol
 _atom_site_label
 _atom_site_symmetry_multiplicity
 _atom_site_fract_x
 _atom_site_fract_y
 _atom_site_fract_z
 _atom_site_occupancy
  Ce  Ce0  1  0.500698  0.001397  0.250000  1
  Ce  Ce1  1  0.499386  0.998771  0.750000  1
  Ce  Ce2  1  0.998603  0.499302  0.250000  1
  Ce  Ce3  1  0.001229  0.500614  0.750000  1
  Ce  Ce4  1  0.500698  0.499302  0.250000  1
  Ce  Ce5  1  0.499386  0.500614  0.750000  1
  Ce  Ce6  1  0.000000  0.000000  0.250000  1
  Np  Np7  1  0.000000  0.000000  0.750000  1
  Si  Si8  1  0.164124  0.328249  0.999445  1
  Si  Si9  1  0.835891  0.671781  0.998285  1
  Si  Si10  1  0.671751  0.835876  0.999445  1
  Si  Si11  1  0.835891  0.671781  0.501715  1
  Si  Si12  1  0.328219  0.164109  0.998285  1
  Si  Si13  1  0.164124  0.328249  0.500555  1
  Si  Si14  1  0.164124  0.835876  0.999445  1
  Si  Si15  1  0.328219  0.164109  0.501715  1
  Si  Si16  1  0.835891  0.164109  0.998285  1
  Si  Si17  1  0.671751  0.835876  0.500555  1
  Si  Si18  1  0.835891  0.164109  0.501715  1
  Si  Si19  1  0.164124  0.835876  0.500555  1
  Pd  Pd20  1  0.333333  0.666667  0.003373  1
  Pd  Pd21  1  0.666667  0.333333  0.999396  1
  Pd  Pd22  1  0.666667  0.333333  0.500604  1
  Pd  Pd23  1  0.333333  0.666667  0.496627  1
