# generated using pymatgen
data_Er6Al24GaFe4PdRu2
_symmetry_space_group_name_H-M   'P 1'
_cell_length_a   8.72342508
_cell_length_b   8.72342299
_cell_length_c   9.39228400
_cell_angle_alpha   90.15538685
_cell_angle_beta   89.84461319
_cell_angle_gamma   119.76863298
_symmetry_Int_Tables_number   1
_chemical_formula_structural   Er6Al24GaFe4PdRu2
_chemical_formula_sum   'Er6 Al24 Ga1 Fe4 Pd1 Ru2'
_cell_volume   620.41384911
_cell_formula_units_Z   1
loop_
 _symmetry_equiv_pos_site_id
 _symmetry_equiv_pos_as_xyz
  1  'x, y, z'
loop_
 _atom_site_type_symbol
 _atom_site_label
 _atom_site_symmetry_multiplicity
 _atom_site_fract_x
 _atom_site_fract_y
 _atom_site_fract_z
 _atom_site_occupancy
  Er  Er0  1  0.195614  0.386463  0.243089  1
  Er  Er1  1  0.804386  0.613537  0.756911  1
  Er  Er2  1  0.612120  0.805114  0.242159  1
  Er  Er3  1  0.387880  0.194886  0.757841  1
  Er  Er4  1  0.196471  0.806641  0.253361  1
  Er  Er5  1  0.803529  0.193359  0.746639  1
  Al  Al6  1  0.323658  0.676503  0.019323  1
  Al  Al7  1  0.676342  0.323497  0.980677  1
  Al  Al8  1  0.661233  0.330173  0.521710  1
  Al  Al9  1  0.338767  0.669827  0.478290  1
  Al  Al10  1  0.163205  0.317024  0.575424  1
  Al  Al11  1  0.836795  0.682976  0.424576  1
  Al  Al12  1  0.680613  0.840950  0.574607  1
  Al  Al13  1  0.858133  0.683540  0.079668  1
  Al  Al14  1  0.319387  0.159050  0.425393  1
  Al  Al15  1  0.141867  0.316460  0.920332  1
  Al  Al16  1  0.164608  0.845834  0.580140  1
  Al  Al17  1  0.317914  0.143416  0.079581  1
  Al  Al18  1  0.835392  0.154166  0.419860  1
  Al  Al19  1  0.682086  0.856584  0.920419  1
  Al  Al20  1  0.839513  0.160166  0.077685  1
  Al  Al21  1  0.160487  0.839834  0.922315  1
  Al  Al22  1  0.560188  0.117060  0.244583  1
  Al  Al23  1  0.439812  0.882940  0.755417  1
  Al  Al24  1  0.880931  0.438753  0.240767  1
  Al  Al25  1  0.119069  0.561247  0.759233  1
  Al  Al26  1  0.565982  0.433310  0.258220  1
  Al  Al27  1  0.434018  0.566690  0.741780  1
  Al  Al28  1  0.999738  0.001323  0.250086  1
  Al  Al29  1  0.000262  0.998677  0.749914  1
  Ga  Ga30  1  0.500000  0.500000  0.000000  1
  Fe  Fe31  1  0.500000  0.000000  0.000000  1
  Fe  Fe32  1  0.000000  0.500000  0.000000  1
  Fe  Fe33  1  0.000000  0.000000  0.000000  1
  Fe  Fe34  1  0.000000  0.000000  0.500000  1
  Pd  Pd35  1  0.000000  0.500000  0.500000  1
  Ru  Ru36  1  0.500000  0.000000  0.500000  1
  Ru  Ru37  1  0.500000  0.500000  0.500000  1
