# generated using pymatgen
data_Zr4Al2CrTc5
_symmetry_space_group_name_H-M   'P 1'
_cell_length_a   5.25083600
_cell_length_b   5.20062441
_cell_length_c   8.63934600
_cell_angle_alpha   90.00000000
_cell_angle_beta   90.00000000
_cell_angle_gamma   120.31988655
_symmetry_Int_Tables_number   1
_chemical_formula_structural   Zr4Al2CrTc5
_chemical_formula_sum   'Zr4 Al2 Cr1 Tc5'
_cell_volume   203.65097747
_cell_formula_units_Z   1
loop_
 _symmetry_equiv_pos_site_id
 _symmetry_equiv_pos_as_xyz
  1  'x, y, z'
loop_
 _atom_site_type_symbol
 _atom_site_label
 _atom_site_symmetry_multiplicity
 _atom_site_fract_x
 _atom_site_fract_y
 _atom_site_fract_z
 _atom_site_occupancy
  Zr  Zr0  1  0.333030  0.666061  0.436054  1
  Zr  Zr1  1  0.666777  0.333553  0.933367  1
  Zr  Zr2  1  0.666777  0.333553  0.566633  1
  Zr  Zr3  1  0.333030  0.666061  0.063946  1
  Al  Al4  1  0.001848  0.003696  0.996130  1
  Al  Al5  1  0.001848  0.003696  0.503870  1
  Cr  Cr6  1  0.171759  0.343515  0.750000  1
  Tc  Tc7  1  0.830308  0.170246  0.250000  1
  Tc  Tc8  1  0.339936  0.170246  0.250000  1
  Tc  Tc9  1  0.655347  0.825489  0.750000  1
  Tc  Tc10  1  0.829198  0.658398  0.250000  1
  Tc  Tc11  1  0.170144  0.825489  0.750000  1
