# generated using pymatgen
data_Dy3Mg3CuSi2
_symmetry_space_group_name_H-M   'P 1'
_cell_length_a   7.19048700
_cell_length_b   7.19048690
_cell_length_c   4.26289600
_cell_angle_alpha   90.00000000
_cell_angle_beta   90.00000000
_cell_angle_gamma   120.00000507
_symmetry_Int_Tables_number   1
_chemical_formula_structural   Dy3Mg3CuSi2
_chemical_formula_sum   'Dy3 Mg3 Cu1 Si2'
_cell_volume   190.87627526
_cell_formula_units_Z   1
loop_
 _symmetry_equiv_pos_site_id
 _symmetry_equiv_pos_as_xyz
  1  'x, y, z'
loop_
 _atom_site_type_symbol
 _atom_site_label
 _atom_site_symmetry_multiplicity
 _atom_site_fract_x
 _atom_site_fract_y
 _atom_site_fract_z
 _atom_site_occupancy
  Dy  Dy0  1  0.416248  0.416248  0.500000  1
  Dy  Dy1  1  0.583752  0.000000  0.500000  1
  Dy  Dy2  1  0.000000  0.583752  0.500000  1
  Mg  Mg3  1  0.756986  0.756986  0.000000  1
  Mg  Mg4  1  0.243014  0.000000  0.000000  1
  Mg  Mg5  1  0.000000  0.243014  0.000000  1
  Cu  Cu6  1  0.000000  0.000000  0.500000  1
  Si  Si7  1  0.666667  0.333333  0.000000  1
  Si  Si8  1  0.333333  0.666667  0.000000  1
