# generated using pymatgen
data_YbSm3P6N13
_symmetry_space_group_name_H-M   'P 1'
_cell_length_a   7.20050297
_cell_length_b   7.20050392
_cell_length_c   7.20050400
_cell_angle_alpha   108.97479882
_cell_angle_beta   108.97479301
_cell_angle_gamma   108.97478541
_symmetry_Int_Tables_number   1
_chemical_formula_structural   YbSm3P6N13
_chemical_formula_sum   'Yb1 Sm3 P6 N13'
_cell_volume   292.54961104
_cell_formula_units_Z   1
loop_
 _symmetry_equiv_pos_site_id
 _symmetry_equiv_pos_as_xyz
  1  'x, y, z'
loop_
 _atom_site_type_symbol
 _atom_site_label
 _atom_site_symmetry_multiplicity
 _atom_site_fract_x
 _atom_site_fract_y
 _atom_site_fract_z
 _atom_site_occupancy
  Yb  Yb0  1  0.353604  0.353604  0.353604  1
  Sm  Sm1  1  0.716240  0.017583  0.017583  1
  Sm  Sm2  1  0.017583  0.017583  0.716240  1
  Sm  Sm3  1  0.017583  0.716240  0.017583  1
  P  P4  1  0.234766  0.750297  0.498862  1
  P  P5  1  0.750297  0.234766  0.498862  1
  P  P6  1  0.750297  0.498862  0.234766  1
  P  P7  1  0.234766  0.498862  0.750297  1
  P  P8  1  0.498862  0.750297  0.234766  1
  P  P9  1  0.498862  0.234766  0.750297  1
  N  N10  1  0.048624  0.048624  0.048624  1
  N  N11  1  0.729593  0.311227  0.311227  1
  N  N12  1  0.311227  0.729593  0.311227  1
  N  N13  1  0.229058  0.551292  0.551292  1
  N  N14  1  0.551292  0.551292  0.229058  1
  N  N15  1  0.380600  0.729924  0.986892  1
  N  N16  1  0.986892  0.729924  0.380600  1
  N  N17  1  0.551292  0.229058  0.551292  1
  N  N18  1  0.729924  0.986892  0.380600  1
  N  N19  1  0.380600  0.986892  0.729924  1
  N  N20  1  0.729924  0.380600  0.986892  1
  N  N21  1  0.311227  0.311227  0.729593  1
  N  N22  1  0.986892  0.380600  0.729924  1
