# generated using pymatgen
data_Er12Ga2Ni3Rh
_symmetry_space_group_name_H-M   'P 1'
_cell_length_a   8.24697855
_cell_length_b   8.24697925
_cell_length_c   8.24697900
_cell_angle_alpha   112.65875886
_cell_angle_beta   109.65610327
_cell_angle_gamma   106.16379450
_symmetry_Int_Tables_number   1
_chemical_formula_structural   Er12Ga2Ni3Rh
_chemical_formula_sum   'Er12 Ga2 Ni3 Rh1'
_cell_volume   430.39431873
_cell_formula_units_Z   1
loop_
 _symmetry_equiv_pos_site_id
 _symmetry_equiv_pos_as_xyz
  1  'x, y, z'
loop_
 _atom_site_type_symbol
 _atom_site_label
 _atom_site_symmetry_multiplicity
 _atom_site_fract_x
 _atom_site_fract_y
 _atom_site_fract_z
 _atom_site_occupancy
  Er  Er0  1  0.054534  0.747204  0.307329  1
  Er  Er1  1  0.958796  0.264934  0.693863  1
  Er  Er2  1  0.560125  0.252796  0.307329  1
  Er  Er3  1  0.428930  0.735066  0.693863  1
  Er  Er4  1  0.674260  0.866080  0.191452  1
  Er  Er5  1  0.325373  0.517192  0.191452  1
  Er  Er6  1  0.325373  0.133920  0.808181  1
  Er  Er7  1  0.674260  0.482808  0.808181  1
  Er  Er8  1  0.176700  0.220788  0.397489  1
  Er  Er9  1  0.818475  0.216652  0.035126  1
  Er  Er10  1  0.176700  0.779212  0.955913  1
  Er  Er11  1  0.818475  0.783348  0.601823  1
  Ga  Ga12  1  0.990115  0.500000  0.490115  1
  Ga  Ga13  1  0.502343  0.000000  0.502343  1
  Ni  Ni14  1  0.346848  0.500000  0.846848  1
  Ni  Ni15  1  0.880037  0.879407  0.000630  1
  Ni  Ni16  1  0.121223  0.120593  0.000630  1
  Rh  Rh17  1  0.667430  0.500000  0.167430  1
