# generated using pymatgen
data_K2TbYHo4F20
_symmetry_space_group_name_H-M   'P 1'
_cell_length_a   8.22281711
_cell_length_b   8.24720691
_cell_length_c   8.24723027
_cell_angle_alpha   59.80419655
_cell_angle_beta   60.09760798
_cell_angle_gamma   60.09772905
_symmetry_Int_Tables_number   1
_chemical_formula_structural   K2TbYHo4F20
_chemical_formula_sum   'K2 Tb1 Y1 Ho4 F20'
_cell_volume   395.46816785
_cell_formula_units_Z   1
loop_
 _symmetry_equiv_pos_site_id
 _symmetry_equiv_pos_as_xyz
  1  'x, y, z'
loop_
 _atom_site_type_symbol
 _atom_site_label
 _atom_site_symmetry_multiplicity
 _atom_site_fract_x
 _atom_site_fract_y
 _atom_site_fract_z
 _atom_site_occupancy
  K  K0  1  0.250045  0.249968  0.249964  1
  K  K1  1  0.750030  0.749965  0.749973  1
  Tb  Tb2  1  0.240604  0.759395  0.759393  1
  Y  Y3  1  0.759153  0.240846  0.240842  1
  Ho  Ho4  1  0.240348  0.759652  0.240327  1
  Ho  Ho5  1  0.759675  0.240326  0.759650  1
  Ho  Ho6  1  0.240346  0.240329  0.759654  1
  Ho  Ho7  1  0.759674  0.759649  0.240325  1
  F  F8  1  0.829002  0.499984  0.499982  1
  F  F9  1  0.171029  0.499983  0.499985  1
  F  F10  1  0.500016  0.828969  0.170998  1
  F  F11  1  0.500016  0.170998  0.828970  1
  F  F12  1  0.502103  0.830898  0.497897  1
  F  F13  1  0.169101  0.497897  0.830899  1
  F  F14  1  0.498301  0.169150  0.501699  1
  F  F15  1  0.830851  0.501699  0.169150  1
  F  F16  1  0.502102  0.497897  0.830899  1
  F  F17  1  0.498300  0.501701  0.169148  1
  F  F18  1  0.169101  0.830899  0.497899  1
  F  F19  1  0.830851  0.169150  0.501699  1
  F  F20  1  0.113067  0.111065  0.111065  1
  F  F21  1  0.886418  0.889096  0.889096  1
  F  F22  1  0.110903  0.113582  0.664611  1
  F  F23  1  0.110903  0.664611  0.113584  1
  F  F24  1  0.888934  0.886936  0.335196  1
  F  F25  1  0.888934  0.335196  0.886934  1
  F  F26  1  0.664804  0.111064  0.111064  1
  F  F27  1  0.335388  0.889097  0.889098  1
