# generated using pymatgen
data_Nd7Th(HgRh)2
_symmetry_space_group_name_H-M   'P 1'
_cell_length_a   9.93043657
_cell_length_b   9.93043714
_cell_length_c   9.95204900
_cell_angle_alpha   59.92798492
_cell_angle_beta   59.92798303
_cell_angle_gamma   60.00903370
_symmetry_Int_Tables_number   1
_chemical_formula_structural   Nd7Th(HgRh)2
_chemical_formula_sum   'Nd14 Th2 Hg4 Rh4'
_cell_volume   693.25050602
_cell_formula_units_Z   2
loop_
 _symmetry_equiv_pos_site_id
 _symmetry_equiv_pos_as_xyz
  1  'x, y, z'
loop_
 _atom_site_type_symbol
 _atom_site_label
 _atom_site_symmetry_multiplicity
 _atom_site_fract_x
 _atom_site_fract_y
 _atom_site_fract_z
 _atom_site_occupancy
  Nd  Nd0  1  0.601690  0.194575  0.601868  1
  Nd  Nd1  1  0.194575  0.601690  0.601868  1
  Nd  Nd2  1  0.060433  0.439553  0.440417  1
  Nd  Nd3  1  0.439553  0.060433  0.059597  1
  Nd  Nd4  1  0.439553  0.060433  0.440417  1
  Nd  Nd5  1  0.060433  0.439553  0.059597  1
  Nd  Nd6  1  0.439616  0.439616  0.060384  1
  Nd  Nd7  1  0.058821  0.058821  0.441179  1
  Nd  Nd8  1  0.190889  0.811594  0.812869  1
  Nd  Nd9  1  0.811594  0.190889  0.184649  1
  Nd  Nd10  1  0.811594  0.190889  0.812869  1
  Nd  Nd11  1  0.190889  0.811594  0.184649  1
  Nd  Nd12  1  0.812697  0.812697  0.187303  1
  Nd  Nd13  1  0.188003  0.188003  0.811997  1
  Th  Th14  1  0.596796  0.596796  0.597834  1
  Th  Th15  1  0.596796  0.596796  0.208574  1
  Hg  Hg16  1  0.833356  0.833356  0.835931  1
  Hg  Hg17  1  0.833356  0.833356  0.497356  1
  Hg  Hg18  1  0.833028  0.496208  0.835382  1
  Hg  Hg19  1  0.496208  0.833028  0.835382  1
  Rh  Rh20  1  0.397430  0.397430  0.388034  1
  Rh  Rh21  1  0.397430  0.397430  0.817107  1
  Rh  Rh22  1  0.401578  0.813681  0.392370  1
  Rh  Rh23  1  0.813681  0.401578  0.392370  1
