# generated using pymatgen
data_Ti10Ga6C
_symmetry_space_group_name_H-M   'P 1'
_cell_length_a   7.62888700
_cell_length_b   7.62888766
_cell_length_c   5.30658200
_cell_angle_alpha   90.00000000
_cell_angle_beta   90.00000000
_cell_angle_gamma   119.99999278
_symmetry_Int_Tables_number   1
_chemical_formula_structural   Ti10Ga6C
_chemical_formula_sum   'Ti10 Ga6 C1'
_cell_volume   267.46560712
_cell_formula_units_Z   1
loop_
 _symmetry_equiv_pos_site_id
 _symmetry_equiv_pos_as_xyz
  1  'x, y, z'
loop_
 _atom_site_type_symbol
 _atom_site_label
 _atom_site_symmetry_multiplicity
 _atom_site_fract_x
 _atom_site_fract_y
 _atom_site_fract_z
 _atom_site_occupancy
  Ti  Ti0  1  0.000000  0.769543  0.262501  1
  Ti  Ti1  1  0.230457  0.230457  0.262501  1
  Ti  Ti2  1  0.769543  0.000000  0.262501  1
  Ti  Ti3  1  0.000000  0.230457  0.737499  1
  Ti  Ti4  1  0.769543  0.769543  0.737499  1
  Ti  Ti5  1  0.230457  0.000000  0.737499  1
  Ti  Ti6  1  0.333333  0.666667  0.000000  1
  Ti  Ti7  1  0.666667  0.333333  0.000000  1
  Ti  Ti8  1  0.666667  0.333333  0.500000  1
  Ti  Ti9  1  0.333333  0.666667  0.500000  1
  Ga  Ga10  1  0.000000  0.397886  0.245383  1
  Ga  Ga11  1  0.602114  0.602114  0.245383  1
  Ga  Ga12  1  0.397886  0.000000  0.245383  1
  Ga  Ga13  1  0.000000  0.602114  0.754617  1
  Ga  Ga14  1  0.397886  0.397886  0.754617  1
  Ga  Ga15  1  0.602114  0.000000  0.754617  1
  C  C16  1  0.000000  0.000000  0.500000  1
