# generated using pymatgen
data_Ca20Tl2CdGa8Bi
_symmetry_space_group_name_H-M   'P 1'
_cell_length_a   8.18584900
_cell_length_b   8.18584900
_cell_length_c   14.58833600
_cell_angle_alpha   90.00000000
_cell_angle_beta   90.00000000
_cell_angle_gamma   90.00000000
_symmetry_Int_Tables_number   1
_chemical_formula_structural   Ca20Tl2CdGa8Bi
_chemical_formula_sum   'Ca20 Tl2 Cd1 Ga8 Bi1'
_cell_volume   977.53702547
_cell_formula_units_Z   1
loop_
 _symmetry_equiv_pos_site_id
 _symmetry_equiv_pos_as_xyz
  1  'x, y, z'
loop_
 _atom_site_type_symbol
 _atom_site_label
 _atom_site_symmetry_multiplicity
 _atom_site_fract_x
 _atom_site_fract_y
 _atom_site_fract_z
 _atom_site_occupancy
  Ca  Ca0  1  0.672356  0.175642  0.110675  1
  Ca  Ca1  1  0.177774  0.670573  0.610463  1
  Ca  Ca2  1  0.327644  0.824358  0.110675  1
  Ca  Ca3  1  0.822226  0.329427  0.610463  1
  Ca  Ca4  1  0.824358  0.672356  0.110675  1
  Ca  Ca5  1  0.329427  0.177774  0.610463  1
  Ca  Ca6  1  0.175642  0.327644  0.110675  1
  Ca  Ca7  1  0.670573  0.822226  0.610463  1
  Ca  Ca8  1  0.824358  0.327644  0.889325  1
  Ca  Ca9  1  0.329427  0.822226  0.389537  1
  Ca  Ca10  1  0.175642  0.672356  0.889325  1
  Ca  Ca11  1  0.670573  0.177774  0.389537  1
  Ca  Ca12  1  0.672356  0.824358  0.889325  1
  Ca  Ca13  1  0.177774  0.329427  0.389537  1
  Ca  Ca14  1  0.327644  0.175642  0.889325  1
  Ca  Ca15  1  0.822226  0.670573  0.389537  1
  Ca  Ca16  1  0.500000  0.500000  0.750707  1
  Ca  Ca17  1  0.000000  0.000000  0.249077  1
  Ca  Ca18  1  0.000000  0.000000  0.750923  1
  Ca  Ca19  1  0.500000  0.500000  0.249293  1
  Tl  Tl20  1  0.500000  0.500000  0.500000  1
  Tl  Tl21  1  0.500000  0.500000  0.000000  1
  Cd  Cd22  1  0.000000  0.000000  0.500000  1
  Ga  Ga23  1  0.614575  0.112218  0.750631  1
  Ga  Ga24  1  0.112218  0.614575  0.249369  1
  Ga  Ga25  1  0.887782  0.385425  0.249369  1
  Ga  Ga26  1  0.385425  0.887782  0.750631  1
  Ga  Ga27  1  0.887782  0.614575  0.750631  1
  Ga  Ga28  1  0.385425  0.112218  0.249369  1
  Ga  Ga29  1  0.112218  0.385425  0.750631  1
  Ga  Ga30  1  0.614575  0.887782  0.249369  1
  Bi  Bi31  1  0.000000  0.000000  0.000000  1
