# generated using pymatgen
data_TbHf5(Be2Ir5)2
_symmetry_space_group_name_H-M   'P 1'
_cell_length_a   9.56242243
_cell_length_b   9.56242243
_cell_length_c   3.32119800
_cell_angle_alpha   90.00000000
_cell_angle_beta   90.00000000
_cell_angle_gamma   89.78120461
_symmetry_Int_Tables_number   1
_chemical_formula_structural   TbHf5(Be2Ir5)2
_chemical_formula_sum   'Tb1 Hf5 Be4 Ir10'
_cell_volume   303.68787425
_cell_formula_units_Z   1
loop_
 _symmetry_equiv_pos_site_id
 _symmetry_equiv_pos_as_xyz
  1  'x, y, z'
loop_
 _atom_site_type_symbol
 _atom_site_label
 _atom_site_symmetry_multiplicity
 _atom_site_fract_x
 _atom_site_fract_y
 _atom_site_fract_z
 _atom_site_occupancy
  Tb  Tb0  1  0.175299  0.675299  0.000000  1
  Hf  Hf1  1  0.324921  0.174453  0.000000  1
  Hf  Hf2  1  0.824315  0.324315  0.000000  1
  Hf  Hf3  1  0.500115  0.499533  0.000000  1
  Hf  Hf4  1  0.674453  0.824921  0.000000  1
  Hf  Hf5  1  0.999533  0.000115  0.000000  1
  Be  Be6  1  0.383577  0.883577  0.000000  1
  Be  Be7  1  0.117719  0.377380  0.000000  1
  Be  Be8  1  0.877380  0.617719  0.000000  1
  Be  Be9  1  0.619941  0.119941  0.000000  1
  Ir  Ir10  1  0.221565  0.938801  0.500000  1
  Ir  Ir11  1  0.919421  0.783986  0.500000  1
  Ir  Ir12  1  0.438801  0.721565  0.500000  1
  Ir  Ir13  1  0.573839  0.284376  0.500000  1
  Ir  Ir14  1  0.714385  0.570612  0.500000  1
  Ir  Ir15  1  0.283986  0.419421  0.500000  1
  Ir  Ir16  1  0.070612  0.214385  0.500000  1
  Ir  Ir17  1  0.992582  0.492582  0.500000  1
  Ir  Ir18  1  0.503181  0.003181  0.500000  1
  Ir  Ir19  1  0.784376  0.073839  0.500000  1
