# generated using pymatgen
data_HoTmMn12P7
_symmetry_space_group_name_H-M   'P 1'
_cell_length_a   9.28076600
_cell_length_b   9.28076589
_cell_length_c   3.58685200
_cell_angle_alpha   90.00000000
_cell_angle_beta   90.00000000
_cell_angle_gamma   120.00000038
_symmetry_Int_Tables_number   1
_chemical_formula_structural   HoTmMn12P7
_chemical_formula_sum   'Ho1 Tm1 Mn12 P7'
_cell_volume   267.55417230
_cell_formula_units_Z   1
loop_
 _symmetry_equiv_pos_site_id
 _symmetry_equiv_pos_as_xyz
  1  'x, y, z'
loop_
 _atom_site_type_symbol
 _atom_site_label
 _atom_site_symmetry_multiplicity
 _atom_site_fract_x
 _atom_site_fract_y
 _atom_site_fract_z
 _atom_site_occupancy
  Ho  Ho0  1  0.666667  0.333333  0.500000  1
  Tm  Tm1  1  0.000000  0.000000  0.000000  1
  Mn  Mn2  1  0.710091  0.618185  0.000000  1
  Mn  Mn3  1  0.381815  0.091906  0.000000  1
  Mn  Mn4  1  0.908094  0.289909  0.000000  1
  Mn  Mn5  1  0.213811  0.389809  0.000000  1
  Mn  Mn6  1  0.610191  0.824002  0.000000  1
  Mn  Mn7  1  0.175998  0.786189  0.000000  1
  Mn  Mn8  1  0.288527  0.229426  0.500000  1
  Mn  Mn9  1  0.770574  0.059100  0.500000  1
  Mn  Mn10  1  0.940900  0.711473  0.500000  1
  Mn  Mn11  1  0.458445  0.563646  0.500000  1
  Mn  Mn12  1  0.436354  0.894800  0.500000  1
  Mn  Mn13  1  0.105200  0.541555  0.500000  1
  P  P14  1  0.454224  0.376004  0.000000  1
  P  P15  1  0.623996  0.078219  0.000000  1
  P  P16  1  0.921781  0.545776  0.000000  1
  P  P17  1  0.052275  0.256993  0.500000  1
  P  P18  1  0.743007  0.795283  0.500000  1
  P  P19  1  0.204717  0.947725  0.500000  1
  P  P20  1  0.333333  0.666667  0.000000  1
