# generated using pymatgen
data_Dy5Ho(GaNi)15
_symmetry_space_group_name_H-M   'P 1'
_cell_length_a   4.05430700
_cell_length_b   8.82428380
_cell_length_c   15.49162411
_cell_angle_alpha   89.78385325
_cell_angle_beta   90.00000000
_cell_angle_gamma   90.00000000
_symmetry_Int_Tables_number   1
_chemical_formula_structural   Dy5Ho(GaNi)15
_chemical_formula_sum   'Dy5 Ho1 Ga15 Ni15'
_cell_volume   554.22990931
_cell_formula_units_Z   1
loop_
 _symmetry_equiv_pos_site_id
 _symmetry_equiv_pos_as_xyz
  1  'x, y, z'
loop_
 _atom_site_type_symbol
 _atom_site_label
 _atom_site_symmetry_multiplicity
 _atom_site_fract_x
 _atom_site_fract_y
 _atom_site_fract_z
 _atom_site_occupancy
  Dy  Dy0  1  0.000000  0.000485  0.336842  1
  Dy  Dy1  1  0.000000  0.504510  0.834041  1
  Dy  Dy2  1  0.000000  0.503395  0.170306  1
  Dy  Dy3  1  0.000000  0.006972  0.663863  1
  Dy  Dy4  1  0.500000  0.499218  0.495270  1
  Ho  Ho5  1  0.500000  0.988306  0.001705  1
  Ga  Ga6  1  0.500000  0.016114  0.501259  1
  Ga  Ga7  1  0.500000  0.511168  0.001213  1
  Ga  Ga8  1  0.500000  0.743747  0.259224  1
  Ga  Ga9  1  0.500000  0.252384  0.753579  1
  Ga  Ga10  1  0.500000  0.244111  0.245979  1
  Ga  Ga11  1  0.500000  0.752499  0.745551  1
  Ga  Ga12  1  0.000000  0.146729  0.854238  1
  Ga  Ga13  1  0.000000  0.143145  0.146675  1
  Ga  Ga14  1  0.000000  0.651259  0.646315  1
  Ga  Ga15  1  0.000000  0.778945  0.493245  1
  Ga  Ga16  1  0.000000  0.295249  0.001079  1
  Ga  Ga17  1  0.000000  0.847830  0.137896  1
  Ga  Ga18  1  0.000000  0.356588  0.633700  1
  Ga  Ga19  1  0.000000  0.364469  0.364222  1
  Ga  Ga20  1  0.000000  0.852922  0.865927  1
  Ni  Ni21  1  0.500000  0.988374  0.184170  1
  Ni  Ni22  1  0.500000  0.498041  0.681994  1
  Ni  Ni23  1  0.500000  0.225707  0.401968  1
  Ni  Ni24  1  0.500000  0.723351  0.903508  1
  Ni  Ni25  1  0.500000  0.785309  0.411042  1
  Ni  Ni26  1  0.500000  0.275562  0.912097  1
  Ni  Ni27  1  0.500000  0.490296  0.314431  1
  Ni  Ni28  1  0.500000  0.996400  0.817304  1
  Ni  Ni29  1  0.500000  0.721421  0.098476  1
  Ni  Ni30  1  0.500000  0.228816  0.595982  1
  Ni  Ni31  1  0.500000  0.275966  0.089451  1
  Ni  Ni32  1  0.500000  0.781060  0.587279  1
  Ni  Ni33  1  0.000000  0.203548  0.498627  1
  Ni  Ni34  1  0.000000  0.698041  0.000747  1
  Ni  Ni35  1  0.000000  0.648263  0.350791  1
