# generated using pymatgen
data_Rb4PaVTe6
_symmetry_space_group_name_H-M   'P 1'
_cell_length_a   14.62553000
_cell_length_b   7.05434132
_cell_length_c   9.87415243
_cell_angle_alpha   72.23759623
_cell_angle_beta   90.00000000
_cell_angle_gamma   90.00000000
_symmetry_Int_Tables_number   1
_chemical_formula_structural   Rb4PaVTe6
_chemical_formula_sum   'Rb8 Pa2 V2 Te12'
_cell_volume   970.18660456
_cell_formula_units_Z   2
loop_
 _symmetry_equiv_pos_site_id
 _symmetry_equiv_pos_as_xyz
  1  'x, y, z'
loop_
 _atom_site_type_symbol
 _atom_site_label
 _atom_site_symmetry_multiplicity
 _atom_site_fract_x
 _atom_site_fract_y
 _atom_site_fract_z
 _atom_site_occupancy
  Rb  Rb0  1  0.955445  0.673805  0.653596  1
  Rb  Rb1  1  0.455445  0.826195  0.346404  1
  Rb  Rb2  1  0.045060  0.326508  0.346659  1
  Rb  Rb3  1  0.545060  0.173492  0.653341  1
  Rb  Rb4  1  0.866766  0.083565  0.903558  1
  Rb  Rb5  1  0.366766  0.416435  0.096442  1
  Rb  Rb6  1  0.132913  0.922744  0.098246  1
  Rb  Rb7  1  0.632913  0.577256  0.901754  1
  Pa  Pa8  1  0.749060  0.655612  0.296006  1
  Pa  Pa9  1  0.249060  0.844388  0.703994  1
  V  V10  1  0.252245  0.344208  0.702328  1
  V  V11  1  0.752245  0.155792  0.297672  1
  Te  Te12  1  0.908878  0.932416  0.279899  1
  Te  Te13  1  0.408878  0.567584  0.720101  1
  Te  Te14  1  0.090548  0.108717  0.721958  1
  Te  Te15  1  0.590548  0.391283  0.278042  1
  Te  Te16  1  0.814365  0.287183  0.521048  1
  Te  Te17  1  0.314365  0.212817  0.478952  1
  Te  Te18  1  0.184786  0.674542  0.478344  1
  Te  Te19  1  0.684786  0.825458  0.521656  1
  Te  Te20  1  0.844820  0.481553  0.090047  1
  Te  Te21  1  0.344820  0.018447  0.909953  1
  Te  Te22  1  0.155114  0.486898  0.906685  1
  Te  Te23  1  0.655114  0.013102  0.093315  1
