# generated using pymatgen
data_Lu2Ti3Si4
_symmetry_space_group_name_H-M   'P 1'
_cell_length_a   6.98109704
_cell_length_b   6.98104152
_cell_length_c   12.81986864
_cell_angle_alpha   89.99835314
_cell_angle_beta   89.99836097
_cell_angle_gamma   89.99407527
_symmetry_Int_Tables_number   1
_chemical_formula_structural   Lu2Ti3Si4
_chemical_formula_sum   'Lu8 Ti12 Si16'
_cell_volume   624.78050280
_cell_formula_units_Z   4
loop_
 _symmetry_equiv_pos_site_id
 _symmetry_equiv_pos_as_xyz
  1  'x, y, z'
loop_
 _atom_site_type_symbol
 _atom_site_label
 _atom_site_symmetry_multiplicity
 _atom_site_fract_x
 _atom_site_fract_y
 _atom_site_fract_z
 _atom_site_occupancy
  Lu  Lu0  1  0.997564  0.659148  0.033165  1
  Lu  Lu1  1  0.340833  0.002415  0.466864  1
  Lu  Lu2  1  0.497717  0.840830  0.716805  1
  Lu  Lu3  1  0.502210  0.159150  0.216878  1
  Lu  Lu4  1  0.840821  0.497730  0.283233  1
  Lu  Lu5  1  0.159097  0.502226  0.783085  1
  Lu  Lu6  1  0.659190  0.997602  0.966695  1
  Lu  Lu7  1  0.002330  0.340849  0.533270  1
  Ti  Ti8  1  0.326737  0.326743  0.999949  1
  Ti  Ti9  1  0.173142  0.826908  0.250018  1
  Ti  Ti10  1  0.826805  0.173177  0.750027  1
  Ti  Ti11  1  0.673243  0.673285  0.500019  1
  Ti  Ti12  1  0.150727  0.007285  0.875673  1
  Ti  Ti13  1  0.492816  0.650310  0.125562  1
  Ti  Ti14  1  0.507156  0.349600  0.625631  1
  Ti  Ti15  1  0.650310  0.492613  0.874353  1
  Ti  Ti16  1  0.349630  0.507134  0.374449  1
  Ti  Ti17  1  0.849443  0.992892  0.375741  1
  Ti  Ti18  1  0.007408  0.150768  0.124281  1
  Ti  Ti19  1  0.992784  0.849435  0.624297  1
  Si  Si20  1  0.203642  0.132828  0.682829  1
  Si  Si21  1  0.366983  0.703511  0.932813  1
  Si  Si22  1  0.633028  0.296410  0.432896  1
  Si  Si23  1  0.703602  0.366921  0.067145  1
  Si  Si24  1  0.296403  0.632991  0.567148  1
  Si  Si25  1  0.796371  0.867222  0.182832  1
  Si  Si26  1  0.132854  0.203707  0.317202  1
  Si  Si27  1  0.867186  0.796324  0.817145  1
  Si  Si28  1  0.292520  0.953088  0.064699  1
  Si  Si29  1  0.546853  0.792363  0.314679  1
  Si  Si30  1  0.453059  0.207589  0.814636  1
  Si  Si31  1  0.792314  0.546891  0.685345  1
  Si  Si32  1  0.207643  0.453185  0.185342  1
  Si  Si33  1  0.707539  0.046863  0.564725  1
  Si  Si34  1  0.953168  0.292439  0.935279  1
  Si  Si35  1  0.046874  0.707570  0.435288  1
