# generated using pymatgen
data_Y3Nb(P3Ir4)2
_symmetry_space_group_name_H-M   'P 1'
_cell_length_a   4.00713600
_cell_length_b   11.18091100
_cell_length_c   12.88143200
_cell_angle_alpha   90.00000000
_cell_angle_beta   90.00000000
_cell_angle_gamma   90.00000000
_symmetry_Int_Tables_number   1
_chemical_formula_structural   Y3Nb(P3Ir4)2
_chemical_formula_sum   'Y6 Nb2 P12 Ir16'
_cell_volume   577.13234955
_cell_formula_units_Z   2
loop_
 _symmetry_equiv_pos_site_id
 _symmetry_equiv_pos_as_xyz
  1  'x, y, z'
loop_
 _atom_site_type_symbol
 _atom_site_label
 _atom_site_symmetry_multiplicity
 _atom_site_fract_x
 _atom_site_fract_y
 _atom_site_fract_z
 _atom_site_occupancy
  Y  Y0  1  0.000000  0.500000  0.520377  1
  Y  Y1  1  0.500000  0.000000  0.479623  1
  Y  Y2  1  0.500000  0.818270  0.202635  1
  Y  Y3  1  0.500000  0.181730  0.202635  1
  Y  Y4  1  0.000000  0.681730  0.797365  1
  Y  Y5  1  0.000000  0.318270  0.797365  1
  Nb  Nb6  1  0.500000  0.500000  0.157373  1
  Nb  Nb7  1  0.000000  0.000000  0.842627  1
  P  P8  1  0.500000  0.500000  0.874340  1
  P  P9  1  0.000000  0.000000  0.125660  1
  P  P10  1  0.500000  0.500000  0.349150  1
  P  P11  1  0.000000  0.000000  0.650850  1
  P  P12  1  0.500000  0.313415  0.617175  1
  P  P13  1  0.500000  0.686585  0.617175  1
  P  P14  1  0.000000  0.186585  0.382825  1
  P  P15  1  0.000000  0.813415  0.382825  1
  P  P16  1  0.500000  0.845210  0.886440  1
  P  P17  1  0.500000  0.154790  0.886440  1
  P  P18  1  0.000000  0.654790  0.113560  1
  P  P19  1  0.000000  0.345210  0.113560  1
  Ir  Ir20  1  0.500000  0.500000  0.695977  1
  Ir  Ir21  1  0.000000  0.000000  0.304023  1
  Ir  Ir22  1  0.000000  0.500000  0.991482  1
  Ir  Ir23  1  0.500000  0.000000  0.008518  1
  Ir  Ir24  1  0.500000  0.331039  0.979703  1
  Ir  Ir25  1  0.500000  0.668961  0.979703  1
  Ir  Ir26  1  0.000000  0.168961  0.020297  1
  Ir  Ir27  1  0.000000  0.831039  0.020297  1
  Ir  Ir28  1  0.500000  0.293719  0.431754  1
  Ir  Ir29  1  0.500000  0.706281  0.431754  1
  Ir  Ir30  1  0.000000  0.206281  0.568246  1
  Ir  Ir31  1  0.000000  0.793719  0.568246  1
  Ir  Ir32  1  0.500000  0.872387  0.708754  1
  Ir  Ir33  1  0.500000  0.127613  0.708754  1
  Ir  Ir34  1  0.000000  0.627613  0.291246  1
  Ir  Ir35  1  0.000000  0.372387  0.291246  1
