# generated using pymatgen
data_Ho6Sc4InBi5
_symmetry_space_group_name_H-M   'P 1'
_cell_length_a   8.90173800
_cell_length_b   8.93081650
_cell_length_c   6.21545500
_cell_angle_alpha   90.00000000
_cell_angle_beta   90.00000000
_cell_angle_gamma   119.89235161
_symmetry_Int_Tables_number   1
_chemical_formula_structural   Ho6Sc4InBi5
_chemical_formula_sum   'Ho6 Sc4 In1 Bi5'
_cell_volume   428.39027744
_cell_formula_units_Z   1
loop_
 _symmetry_equiv_pos_site_id
 _symmetry_equiv_pos_as_xyz
  1  'x, y, z'
loop_
 _atom_site_type_symbol
 _atom_site_label
 _atom_site_symmetry_multiplicity
 _atom_site_fract_x
 _atom_site_fract_y
 _atom_site_fract_z
 _atom_site_occupancy
  Ho  Ho0  1  0.001733  0.759774  0.750000  1
  Ho  Ho1  1  0.992748  0.236134  0.250000  1
  Ho  Ho2  1  0.756614  0.763866  0.250000  1
  Ho  Ho3  1  0.759938  0.000000  0.750000  1
  Ho  Ho4  1  0.241960  0.240226  0.750000  1
  Ho  Ho5  1  0.244303  0.000000  0.250000  1
  Sc  Sc6  1  0.336470  0.671060  0.498223  1
  Sc  Sc7  1  0.665412  0.328940  0.001777  1
  Sc  Sc8  1  0.665412  0.328940  0.498223  1
  Sc  Sc9  1  0.336470  0.671060  0.001777  1
  In  In10  1  0.601294  0.000000  0.250000  1
  Bi  Bi11  1  0.398611  0.000000  0.750000  1
  Bi  Bi12  1  0.393621  0.394892  0.250000  1
  Bi  Bi13  1  0.998729  0.605108  0.250000  1
  Bi  Bi14  1  0.001543  0.396398  0.750000  1
  Bi  Bi15  1  0.605145  0.603602  0.750000  1
