# generated using pymatgen
data_Dy4Ga18Co3IrPt2
_symmetry_space_group_name_H-M   'P 1'
_cell_length_a   7.51211963
_cell_length_b   7.51211939
_cell_length_c   9.41791783
_cell_angle_alpha   89.95549465
_cell_angle_beta   89.95549936
_cell_angle_gamma   119.66907292
_symmetry_Int_Tables_number   1
_chemical_formula_structural   Dy4Ga18Co3IrPt2
_chemical_formula_sum   'Dy4 Ga18 Co3 Ir1 Pt2'
_cell_volume   461.79429736
_cell_formula_units_Z   1
loop_
 _symmetry_equiv_pos_site_id
 _symmetry_equiv_pos_as_xyz
  1  'x, y, z'
loop_
 _atom_site_type_symbol
 _atom_site_label
 _atom_site_symmetry_multiplicity
 _atom_site_fract_x
 _atom_site_fract_y
 _atom_site_fract_z
 _atom_site_occupancy
  Dy  Dy0  1  0.992341  0.673832  0.249524  1
  Dy  Dy1  1  0.998438  0.319929  0.749889  1
  Dy  Dy2  1  0.680071  0.001562  0.250111  1
  Dy  Dy3  1  0.326168  0.007659  0.750476  1
  Ga  Ga4  1  0.143385  0.142441  0.249258  1
  Ga  Ga5  1  0.857559  0.856615  0.750742  1
  Ga  Ga6  1  0.998772  0.345907  0.076179  1
  Ga  Ga7  1  0.005096  0.655672  0.923175  1
  Ga  Ga8  1  0.011434  0.661077  0.579089  1
  Ga  Ga9  1  0.338923  0.988566  0.420911  1
  Ga  Ga10  1  0.010784  0.347779  0.421514  1
  Ga  Ga11  1  0.652221  0.989216  0.578486  1
  Ga  Ga12  1  0.654093  0.001228  0.923821  1
  Ga  Ga13  1  0.344328  0.994904  0.076825  1
  Ga  Ga14  1  0.338471  0.344790  0.566484  1
  Ga  Ga15  1  0.655210  0.661529  0.433516  1
  Ga  Ga16  1  0.656550  0.658341  0.063245  1
  Ga  Ga17  1  0.341659  0.343450  0.936755  1
  Ga  Ga18  1  0.335945  0.562821  0.248638  1
  Ga  Ga19  1  0.665336  0.449155  0.756177  1
  Ga  Ga20  1  0.550845  0.334664  0.243823  1
  Ga  Ga21  1  0.437179  0.664055  0.751362  1
  Co  Co22  1  0.671103  0.328897  0.000000  1
  Co  Co23  1  0.329806  0.670194  0.000000  1
  Co  Co24  1  0.330555  0.669445  0.500000  1
  Ir  Ir25  1  0.672591  0.327409  0.500000  1
  Pt  Pt26  1  0.000461  0.999539  0.000000  1
  Pt  Pt27  1  0.000675  0.999325  0.500000  1
