# generated using pymatgen
data_Zr16TaCo4Ir3
_symmetry_space_group_name_H-M   'P 1'
_cell_length_a   8.74290084
_cell_length_b   8.74233000
_cell_length_c   8.74286239
_cell_angle_alpha   59.79510560
_cell_angle_beta   59.80489861
_cell_angle_gamma   59.79895023
_symmetry_Int_Tables_number   1
_chemical_formula_structural   Zr16TaCo4Ir3
_chemical_formula_sum   'Zr16 Ta1 Co4 Ir3'
_cell_volume   470.37222607
_cell_formula_units_Z   1
loop_
 _symmetry_equiv_pos_site_id
 _symmetry_equiv_pos_as_xyz
  1  'x, y, z'
loop_
 _atom_site_type_symbol
 _atom_site_label
 _atom_site_symmetry_multiplicity
 _atom_site_fract_x
 _atom_site_fract_y
 _atom_site_fract_z
 _atom_site_occupancy
  Zr  Zr0  1  0.045948  0.650902  0.650878  1
  Zr  Zr1  1  0.650849  0.045962  0.650881  1
  Zr  Zr2  1  0.650865  0.650919  0.045947  1
  Zr  Zr3  1  0.646968  0.647043  0.646979  1
  Zr  Zr4  1  0.796973  0.796979  0.203044  1
  Zr  Zr5  1  0.197317  0.197259  0.800902  1
  Zr  Zr6  1  0.796914  0.203113  0.796939  1
  Zr  Zr7  1  0.197344  0.800877  0.197309  1
  Zr  Zr8  1  0.203058  0.796962  0.797022  1
  Zr  Zr9  1  0.800930  0.197276  0.197305  1
  Zr  Zr10  1  0.435228  0.435231  0.070530  1
  Zr  Zr11  1  0.063994  0.063888  0.436603  1
  Zr  Zr12  1  0.435163  0.070602  0.435169  1
  Zr  Zr13  1  0.063975  0.436515  0.063952  1
  Zr  Zr14  1  0.070526  0.435241  0.435204  1
  Zr  Zr15  1  0.436584  0.063898  0.063969  1
  Ta  Ta16  1  0.424588  0.424557  0.424598  1
  Co  Co17  1  0.420576  0.858917  0.858917  1
  Co  Co18  1  0.858911  0.420565  0.858899  1
  Co  Co19  1  0.858918  0.858918  0.420564  1
  Co  Co20  1  0.860213  0.860393  0.860254  1
  Ir  Ir21  1  0.754129  0.414991  0.414968  1
  Ir  Ir22  1  0.415041  0.753978  0.415061  1
  Ir  Ir23  1  0.414989  0.415013  0.754109  1
