# generated using pymatgen
data_Zr6Zn20BPt3
_symmetry_space_group_name_H-M   'P 1'
_cell_length_a   8.75820837
_cell_length_b   8.75820701
_cell_length_c   8.75951700
_cell_angle_alpha   59.99506339
_cell_angle_beta   59.99506852
_cell_angle_gamma   60.00988358
_symmetry_Int_Tables_number   1
_chemical_formula_structural   Zr6Zn20BPt3
_chemical_formula_sum   'Zr6 Zn20 B1 Pt3'
_cell_volume   475.11164279
_cell_formula_units_Z   1
loop_
 _symmetry_equiv_pos_site_id
 _symmetry_equiv_pos_as_xyz
  1  'x, y, z'
loop_
 _atom_site_type_symbol
 _atom_site_label
 _atom_site_symmetry_multiplicity
 _atom_site_fract_x
 _atom_site_fract_y
 _atom_site_fract_z
 _atom_site_occupancy
  Zr  Zr0  1  0.692345  0.307655  0.307655  1
  Zr  Zr1  1  0.307655  0.692345  0.692345  1
  Zr  Zr2  1  0.307655  0.692345  0.307655  1
  Zr  Zr3  1  0.692345  0.307655  0.692345  1
  Zr  Zr4  1  0.303428  0.303428  0.696572  1
  Zr  Zr5  1  0.696572  0.696572  0.303428  1
  Zn  Zn6  1  0.118919  0.118919  0.124127  1
  Zn  Zn7  1  0.881081  0.881081  0.875873  1
  Zn  Zn8  1  0.118919  0.118919  0.638035  1
  Zn  Zn9  1  0.124127  0.638035  0.118919  1
  Zn  Zn10  1  0.881081  0.881081  0.361965  1
  Zn  Zn11  1  0.875873  0.361965  0.881081  1
  Zn  Zn12  1  0.638035  0.124127  0.118919  1
  Zn  Zn13  1  0.361965  0.875873  0.881081  1
  Zn  Zn14  1  0.500000  0.000000  0.000000  1
  Zn  Zn15  1  0.000000  0.500000  0.500000  1
  Zn  Zn16  1  0.000000  0.500000  0.000000  1
  Zn  Zn17  1  0.500000  0.000000  0.500000  1
  Zn  Zn18  1  0.332328  0.332328  0.336983  1
  Zn  Zn19  1  0.667672  0.667672  0.663017  1
  Zn  Zn20  1  0.332328  0.332328  0.998364  1
  Zn  Zn21  1  0.336983  0.998364  0.332328  1
  Zn  Zn22  1  0.667672  0.667672  0.001636  1
  Zn  Zn23  1  0.663017  0.001636  0.667672  1
  Zn  Zn24  1  0.998364  0.336983  0.332328  1
  Zn  Zn25  1  0.001636  0.663017  0.667672  1
  B  B26  1  0.500000  0.500000  0.500000  1
  Pt  Pt27  1  0.000000  0.000000  0.500000  1
  Pt  Pt28  1  0.500000  0.500000  0.000000  1
  Pt  Pt29  1  0.000000  0.000000  0.000000  1
