# generated using pymatgen
data_CaHoLu4(Si3Ru)8
_symmetry_space_group_name_H-M   'P 1'
_cell_length_a   10.10031123
_cell_length_b   10.10496653
_cell_length_c   8.09768998
_cell_angle_alpha   89.91037586
_cell_angle_beta   90.06127692
_cell_angle_gamma   132.71565237
_symmetry_Int_Tables_number   1
_chemical_formula_structural   CaHoLu4(Si3Ru)8
_chemical_formula_sum   'Ca1 Ho1 Lu4 Si24 Ru8'
_cell_volume   607.23614189
_cell_formula_units_Z   1
loop_
 _symmetry_equiv_pos_site_id
 _symmetry_equiv_pos_as_xyz
  1  'x, y, z'
loop_
 _atom_site_type_symbol
 _atom_site_label
 _atom_site_symmetry_multiplicity
 _atom_site_fract_x
 _atom_site_fract_y
 _atom_site_fract_z
 _atom_site_occupancy
  Ca  Ca0  1  0.500015  0.500001  0.499738  1
  Ho  Ho1  1  0.002307  0.501840  0.749846  1
  Lu  Lu2  1  0.000148  0.000143  0.000245  1
  Lu  Lu3  1  0.502348  0.002397  0.749896  1
  Lu  Lu4  1  0.997872  0.498265  0.250253  1
  Lu  Lu5  1  0.498143  0.998034  0.250109  1
  Si  Si6  1  0.796297  0.204412  0.499592  1
  Si  Si7  1  0.295287  0.704721  0.000253  1
  Si  Si8  1  0.204144  0.796101  0.499995  1
  Si  Si9  1  0.705138  0.295651  0.000202  1
  Si  Si10  1  0.332728  0.334320  0.831855  1
  Si  Si11  1  0.666276  0.666397  0.167766  1
  Si  Si12  1  0.168652  0.168430  0.334316  1
  Si  Si13  1  0.831930  0.830544  0.666109  1
  Si  Si14  1  0.124529  0.890346  0.730180  1
  Si  Si15  1  0.108927  0.875452  0.271317  1
  Si  Si16  1  0.612556  0.379182  0.228744  1
  Si  Si17  1  0.622246  0.387750  0.769771  1
  Si  Si18  1  0.877835  0.111076  0.271745  1
  Si  Si19  1  0.888785  0.122855  0.729736  1
  Si  Si20  1  0.388920  0.623258  0.769318  1
  Si  Si21  1  0.376012  0.609916  0.229131  1
  Si  Si22  1  0.345357  0.112959  0.506295  1
  Si  Si23  1  0.885146  0.651212  0.492243  1
  Si  Si24  1  0.389153  0.156453  0.004023  1
  Si  Si25  1  0.847094  0.612943  0.994916  1
  Si  Si26  1  0.655021  0.887227  0.495850  1
  Si  Si27  1  0.114672  0.348186  0.505694  1
  Si  Si28  1  0.611084  0.843961  0.993830  1
  Si  Si29  1  0.152370  0.386951  0.007027  1
  Ru  Ru30  1  0.668790  0.325320  0.498309  1
  Ru  Ru31  1  0.173334  0.833140  0.002006  1
  Ru  Ru32  1  0.331150  0.674702  0.497916  1
  Ru  Ru33  1  0.826778  0.166917  0.001696  1
  Ru  Ru34  1  0.123933  0.124443  0.629646  1
  Ru  Ru35  1  0.875403  0.875205  0.370987  1
  Ru  Ru36  1  0.371314  0.371752  0.124746  1
  Ru  Ru37  1  0.628303  0.627536  0.874699  1
