# generated using pymatgen
data_Na2B2(PdPt)3
_symmetry_space_group_name_H-M   'P 1'
_cell_length_a   5.61153948
_cell_length_b   5.61767231
_cell_length_c   5.56472100
_cell_angle_alpha   90.00000000
_cell_angle_beta   90.00000000
_cell_angle_gamma   120.09131920
_symmetry_Int_Tables_number   1
_chemical_formula_structural   Na2B2(PdPt)3
_chemical_formula_sum   'Na2 B2 Pd3 Pt3'
_cell_volume   151.77913753
_cell_formula_units_Z   1
loop_
 _symmetry_equiv_pos_site_id
 _symmetry_equiv_pos_as_xyz
  1  'x, y, z'
loop_
 _atom_site_type_symbol
 _atom_site_label
 _atom_site_symmetry_multiplicity
 _atom_site_fract_x
 _atom_site_fract_y
 _atom_site_fract_z
 _atom_site_occupancy
  Na  Na0  1  0.000000  0.000000  0.499749  1
  Na  Na1  1  0.000000  0.000000  0.000329  1
  B  B2  1  0.658914  0.326549  0.498906  1
  B  B3  1  0.341086  0.673451  0.498906  1
  Pd  Pd4  1  0.500000  0.500000  0.763292  1
  Pd  Pd5  1  0.000000  0.500000  0.750858  1
  Pd  Pd6  1  0.000000  0.500000  0.242990  1
  Pt  Pt7  1  0.500000  0.000000  0.753910  1
  Pt  Pt8  1  0.500000  0.500000  0.251523  1
  Pt  Pt9  1  0.500000  0.000000  0.239537  1
