# generated using pymatgen
data_Nd10Sn5BiN2
_symmetry_space_group_name_H-M   'P 1'
_cell_length_a   9.29584021
_cell_length_b   9.29583963
_cell_length_c   6.66774100
_cell_angle_alpha   90.00000000
_cell_angle_beta   90.00000000
_cell_angle_gamma   120.07908323
_symmetry_Int_Tables_number   1
_chemical_formula_structural   Nd10Sn5BiN2
_chemical_formula_sum   'Nd10 Sn5 Bi1 N2'
_cell_volume   498.58589393
_cell_formula_units_Z   1
loop_
 _symmetry_equiv_pos_site_id
 _symmetry_equiv_pos_as_xyz
  1  'x, y, z'
loop_
 _atom_site_type_symbol
 _atom_site_label
 _atom_site_symmetry_multiplicity
 _atom_site_fract_x
 _atom_site_fract_y
 _atom_site_fract_z
 _atom_site_occupancy
  Nd  Nd0  1  0.669823  0.332313  0.002471  1
  Nd  Nd1  1  0.332313  0.669823  0.002471  1
  Nd  Nd2  1  0.332313  0.669823  0.497529  1
  Nd  Nd3  1  0.669823  0.332313  0.497529  1
  Nd  Nd4  1  0.785917  0.785917  0.750000  1
  Nd  Nd5  1  0.213592  0.996430  0.750000  1
  Nd  Nd6  1  0.996430  0.213592  0.750000  1
  Nd  Nd7  1  0.213558  0.213558  0.250000  1
  Nd  Nd8  1  0.784615  0.999681  0.250000  1
  Nd  Nd9  1  0.999681  0.784615  0.250000  1
  Sn  Sn10  1  0.597188  0.999988  0.750000  1
  Sn  Sn11  1  0.999988  0.597188  0.750000  1
  Sn  Sn12  1  0.597611  0.597611  0.250000  1
  Sn  Sn13  1  0.402516  0.000565  0.250000  1
  Sn  Sn14  1  0.000565  0.402516  0.250000  1
  Bi  Bi15  1  0.402322  0.402322  0.750000  1
  N  N16  1  0.000872  0.000872  0.999051  1
  N  N17  1  0.000872  0.000872  0.500949  1
