# generated using pymatgen
data_Tb9Ho(TmCo2)2
_symmetry_space_group_name_H-M   'P 1'
_cell_length_a   6.19697313
_cell_length_b   6.95232605
_cell_length_c   9.45643605
_cell_angle_alpha   90.00290002
_cell_angle_beta   89.43689141
_cell_angle_gamma   90.01540925
_symmetry_Int_Tables_number   1
_chemical_formula_structural   Tb9Ho(TmCo2)2
_chemical_formula_sum   'Tb9 Ho1 Tm2 Co4'
_cell_volume   407.39551496
_cell_formula_units_Z   1
loop_
 _symmetry_equiv_pos_site_id
 _symmetry_equiv_pos_as_xyz
  1  'x, y, z'
loop_
 _atom_site_type_symbol
 _atom_site_label
 _atom_site_symmetry_multiplicity
 _atom_site_fract_x
 _atom_site_fract_y
 _atom_site_fract_z
 _atom_site_occupancy
  Tb  Tb0  1  0.675345  0.175074  0.066931  1
  Tb  Tb1  1  0.358015  0.541845  0.249779  1
  Tb  Tb2  1  0.142094  0.041019  0.249459  1
  Tb  Tb3  1  0.824696  0.674955  0.431967  1
  Tb  Tb4  1  0.323367  0.825368  0.930541  1
  Tb  Tb5  1  0.176006  0.325624  0.570170  1
  Tb  Tb6  1  0.675604  0.174851  0.432335  1
  Tb  Tb7  1  0.860199  0.956872  0.749932  1
  Tb  Tb8  1  0.639274  0.457498  0.751059  1
  Ho  Ho9  1  0.824856  0.674782  0.067701  1
  Tm  Tm10  1  0.172924  0.325834  0.932478  1
  Tm  Tm11  1  0.326074  0.825478  0.568670  1
  Co  Co12  1  0.949043  0.386029  0.244746  1
  Co  Co13  1  0.446546  0.114745  0.748847  1
  Co  Co14  1  0.553152  0.885403  0.252916  1
  Co  Co15  1  0.052802  0.614623  0.752471  1
