# generated using pymatgen
data_Ca4NdNi19
_symmetry_space_group_name_H-M   'P 1'
_cell_length_a   4.98267333
_cell_length_b   4.98267373
_cell_length_c   16.22299830
_cell_angle_alpha   98.83376516
_cell_angle_beta   81.16623480
_cell_angle_gamma   120.00000222
_symmetry_Int_Tables_number   1
_chemical_formula_structural   Ca4NdNi19
_chemical_formula_sum   'Ca4 Nd1 Ni19'
_cell_volume   343.28033220
_cell_formula_units_Z   1
loop_
 _symmetry_equiv_pos_site_id
 _symmetry_equiv_pos_as_xyz
  1  'x, y, z'
loop_
 _atom_site_type_symbol
 _atom_site_label
 _atom_site_symmetry_multiplicity
 _atom_site_fract_x
 _atom_site_fract_y
 _atom_site_fract_z
 _atom_site_occupancy
  Ca  Ca0  1  0.920027  0.079974  0.239923  1
  Ca  Ca1  1  0.847300  0.152701  0.458103  1
  Ca  Ca2  1  0.152700  0.847298  0.541897  1
  Ca  Ca3  1  0.079974  0.920025  0.760077  1
  Nd  Nd4  1  0.000000  0.000000  0.000000  1
  Ni  Ni5  1  0.333353  0.666645  0.999938  1
  Ni  Ni6  1  0.458583  0.040872  0.123706  1
  Ni  Ni7  1  0.458583  0.541416  0.123706  1
  Ni  Ni8  1  0.959128  0.541416  0.123706  1
  Ni  Ni9  1  0.584542  0.415457  0.246370  1
  Ni  Ni10  1  0.250812  0.749187  0.247564  1
  Ni  Ni11  1  0.377598  0.124481  0.369283  1
  Ni  Ni12  1  0.377598  0.622401  0.369283  1
  Ni  Ni13  1  0.875517  0.622401  0.369283  1
  Ni  Ni14  1  0.499999  0.500000  0.500000  1
  Ni  Ni15  1  0.124481  0.377598  0.630717  1
  Ni  Ni16  1  0.622400  0.377598  0.630717  1
  Ni  Ni17  1  0.622400  0.875518  0.630717  1
  Ni  Ni18  1  0.749188  0.250812  0.752437  1
  Ni  Ni19  1  0.415456  0.584542  0.753630  1
  Ni  Ni20  1  0.040872  0.458583  0.876294  1
  Ni  Ni21  1  0.541417  0.458583  0.876294  1
  Ni  Ni22  1  0.541415  0.959127  0.876294  1
  Ni  Ni23  1  0.666645  0.333354  0.000062  1
