# generated using pymatgen
data_CeReSi2Tc3
_symmetry_space_group_name_H-M   'P 1'
_cell_length_a   7.23784989
_cell_length_b   7.23785007
_cell_length_c   4.07595400
_cell_angle_alpha   90.00000000
_cell_angle_beta   90.00000000
_cell_angle_gamma   146.79323507
_symmetry_Int_Tables_number   1
_chemical_formula_structural   CeReSi2Tc3
_chemical_formula_sum   'Ce1 Re1 Si2 Tc3'
_cell_volume   116.93945077
_cell_formula_units_Z   1
loop_
 _symmetry_equiv_pos_site_id
 _symmetry_equiv_pos_as_xyz
  1  'x, y, z'
loop_
 _atom_site_type_symbol
 _atom_site_label
 _atom_site_symmetry_multiplicity
 _atom_site_fract_x
 _atom_site_fract_y
 _atom_site_fract_z
 _atom_site_occupancy
  Ce  Ce0  1  0.000276  0.999724  0.000000  1
  Re  Re1  1  0.303779  0.696221  0.000000  1
  Si  Si2  1  0.412553  0.587447  0.500000  1
  Si  Si3  1  0.588324  0.411676  0.500000  1
  Tc  Tc4  1  0.186817  0.813183  0.500000  1
  Tc  Tc5  1  0.814184  0.185816  0.500000  1
  Tc  Tc6  1  0.694068  0.305932  0.000000  1
