# generated using pymatgen
data_Yb2HoAl3Ge2Pt
_symmetry_space_group_name_H-M   'P 1'
_cell_length_a   6.98059577
_cell_length_b   6.98059523
_cell_length_c   4.27748400
_cell_angle_alpha   90.00000000
_cell_angle_beta   90.00000000
_cell_angle_gamma   120.34569593
_symmetry_Int_Tables_number   1
_chemical_formula_structural   Yb2HoAl3Ge2Pt
_chemical_formula_sum   'Yb2 Ho1 Al3 Ge2 Pt1'
_cell_volume   179.87903884
_cell_formula_units_Z   1
loop_
 _symmetry_equiv_pos_site_id
 _symmetry_equiv_pos_as_xyz
  1  'x, y, z'
loop_
 _atom_site_type_symbol
 _atom_site_label
 _atom_site_symmetry_multiplicity
 _atom_site_fract_x
 _atom_site_fract_y
 _atom_site_fract_z
 _atom_site_occupancy
  Yb  Yb0  1  0.422088  0.000823  0.000000  1
  Yb  Yb1  1  0.000823  0.422088  0.000000  1
  Ho  Ho2  1  0.579423  0.579422  0.000000  1
  Al  Al3  1  0.767008  0.998372  0.500001  1
  Al  Al4  1  0.232846  0.232846  0.500001  1
  Al  Al5  1  0.998372  0.767007  0.500001  1
  Ge  Ge6  1  0.666427  0.336904  0.500001  1
  Ge  Ge7  1  0.336904  0.666427  0.500001  1
  Pt  Pt8  1  0.996108  0.996108  0.000000  1
