# generated using pymatgen
data_DyY3Ti2Ga2Ir3Pt
_symmetry_space_group_name_H-M   'P 1'
_cell_length_a   4.39935600
_cell_length_b   6.95007020
_cell_length_c   7.84405510
_cell_angle_alpha   92.11576116
_cell_angle_beta   90.00000000
_cell_angle_gamma   90.00000000
_symmetry_Int_Tables_number   1
_chemical_formula_structural   DyY3Ti2Ga2Ir3Pt
_chemical_formula_sum   'Dy1 Y3 Ti2 Ga2 Ir3 Pt1'
_cell_volume   239.67501552
_cell_formula_units_Z   1
loop_
 _symmetry_equiv_pos_site_id
 _symmetry_equiv_pos_as_xyz
  1  'x, y, z'
loop_
 _atom_site_type_symbol
 _atom_site_label
 _atom_site_symmetry_multiplicity
 _atom_site_fract_x
 _atom_site_fract_y
 _atom_site_fract_z
 _atom_site_occupancy
  Dy  Dy0  1  0.250000  0.975958  0.303753  1
  Y  Y1  1  0.250000  0.482593  0.174533  1
  Y  Y2  1  0.750000  0.021335  0.696172  1
  Y  Y3  1  0.750000  0.524207  0.824083  1
  Ti  Ti4  1  0.250000  0.366227  0.568035  1
  Ti  Ti5  1  0.750000  0.636215  0.424873  1
  Ga  Ga6  1  0.250000  0.837152  0.926482  1
  Ga  Ga7  1  0.750000  0.158327  0.079147  1
  Ir  Ir8  1  0.250000  0.722258  0.595592  1
  Ir  Ir9  1  0.750000  0.775337  0.119411  1
  Ir  Ir10  1  0.750000  0.278227  0.405727  1
  Pt  Pt11  1  0.250000  0.222163  0.882193  1
