# generated using pymatgen
data_Ca3Sm(PaN3)2
_symmetry_space_group_name_H-M   'P 1'
_cell_length_a   6.03338357
_cell_length_b   6.03338330
_cell_length_c   6.04667900
_cell_angle_alpha   99.52988369
_cell_angle_beta   99.52989288
_cell_angle_gamma   119.97559867
_symmetry_Int_Tables_number   1
_chemical_formula_structural   Ca3Sm(PaN3)2
_chemical_formula_sum   'Ca3 Sm1 Pa2 N6'
_cell_volume   179.91935383
_cell_formula_units_Z   1
loop_
 _symmetry_equiv_pos_site_id
 _symmetry_equiv_pos_as_xyz
  1  'x, y, z'
loop_
 _atom_site_type_symbol
 _atom_site_label
 _atom_site_symmetry_multiplicity
 _atom_site_fract_x
 _atom_site_fract_y
 _atom_site_fract_z
 _atom_site_occupancy
  Ca  Ca0  1  0.835106  0.164894  0.500000  1
  Ca  Ca1  1  0.164894  0.835106  0.500000  1
  Ca  Ca2  1  0.500000  0.500000  0.500000  1
  Sm  Sm3  1  0.000000  0.000000  0.000000  1
  Pa  Pa4  1  0.333031  0.666969  0.000000  1
  Pa  Pa5  1  0.666969  0.333031  0.000000  1
  N  N6  1  0.425774  0.073681  0.221293  1
  N  N7  1  0.926319  0.574226  0.778707  1
  N  N8  1  0.574226  0.926319  0.778707  1
  N  N9  1  0.073681  0.425774  0.221293  1
  N  N10  1  0.723290  0.723290  0.224312  1
  N  N11  1  0.276710  0.276710  0.775688  1
