# generated using pymatgen
data_Mg(SiIr2)2
_symmetry_space_group_name_H-M   'P 1'
_cell_length_a   4.02930900
_cell_length_b   9.06126000
_cell_length_c   11.04708800
_cell_angle_alpha   90.00000000
_cell_angle_beta   90.00000000
_cell_angle_gamma   90.00000000
_symmetry_Int_Tables_number   1
_chemical_formula_structural   Mg(SiIr2)2
_chemical_formula_sum   'Mg4 Si8 Ir16'
_cell_volume   403.33599307
_cell_formula_units_Z   4
loop_
 _symmetry_equiv_pos_site_id
 _symmetry_equiv_pos_as_xyz
  1  'x, y, z'
loop_
 _atom_site_type_symbol
 _atom_site_label
 _atom_site_symmetry_multiplicity
 _atom_site_fract_x
 _atom_site_fract_y
 _atom_site_fract_z
 _atom_site_occupancy
  Mg  Mg0  1  0.250000  0.124730  0.820939  1
  Mg  Mg1  1  0.250000  0.375270  0.320939  1
  Mg  Mg2  1  0.750000  0.875270  0.179061  1
  Mg  Mg3  1  0.750000  0.624730  0.679061  1
  Si  Si4  1  0.250000  0.411146  0.635072  1
  Si  Si5  1  0.250000  0.088854  0.135072  1
  Si  Si6  1  0.750000  0.588854  0.364928  1
  Si  Si7  1  0.750000  0.911146  0.864928  1
  Si  Si8  1  0.250000  0.618716  0.064364  1
  Si  Si9  1  0.250000  0.881284  0.564364  1
  Si  Si10  1  0.750000  0.381284  0.935636  1
  Si  Si11  1  0.750000  0.118716  0.435636  1
  Ir  Ir12  1  0.250000  0.620569  0.504975  1
  Ir  Ir13  1  0.250000  0.879431  0.004975  1
  Ir  Ir14  1  0.750000  0.379431  0.495025  1
  Ir  Ir15  1  0.750000  0.120569  0.995025  1
  Ir  Ir16  1  0.250000  0.709683  0.267122  1
  Ir  Ir17  1  0.250000  0.790317  0.767122  1
  Ir  Ir18  1  0.750000  0.290317  0.732878  1
  Ir  Ir19  1  0.750000  0.209683  0.232878  1
  Ir  Ir20  1  0.250000  0.168197  0.559845  1
  Ir  Ir21  1  0.250000  0.331803  0.059845  1
  Ir  Ir22  1  0.750000  0.831803  0.440155  1
  Ir  Ir23  1  0.750000  0.668197  0.940155  1
  Ir  Ir24  1  0.250000  0.009847  0.338695  1
  Ir  Ir25  1  0.250000  0.490153  0.838695  1
  Ir  Ir26  1  0.750000  0.990153  0.661305  1
  Ir  Ir27  1  0.750000  0.509847  0.161305  1
