# generated using pymatgen
data_ScV2AgO7
_symmetry_space_group_name_H-M   'P 1'
_cell_length_a   5.03515323
_cell_length_b   5.71730859
_cell_length_c   5.73018132
_cell_angle_alpha   99.66630854
_cell_angle_beta   98.96486472
_cell_angle_gamma   98.99294469
_symmetry_Int_Tables_number   1
_chemical_formula_structural   ScV2AgO7
_chemical_formula_sum   'Sc1 V2 Ag1 O7'
_cell_volume   157.78361565
_cell_formula_units_Z   1
loop_
 _symmetry_equiv_pos_site_id
 _symmetry_equiv_pos_as_xyz
  1  'x, y, z'
loop_
 _atom_site_type_symbol
 _atom_site_label
 _atom_site_symmetry_multiplicity
 _atom_site_fract_x
 _atom_site_fract_y
 _atom_site_fract_z
 _atom_site_occupancy
  Sc  Sc0  1  0.722430  0.117837  0.271802  1
  V  V1  1  0.315680  0.567903  0.406985  1
  V  V2  1  0.132030  0.986906  0.820659  1
  Ag  Ag3  1  0.724214  0.506836  0.887811  1
  O  O4  1  0.432929  0.173279  0.977953  1
  O  O5  1  0.013960  0.413020  0.221177  1
  O  O6  1  0.474992  0.788866  0.280454  1
  O  O7  1  0.535026  0.371330  0.474284  1
  O  O8  1  0.975637  0.112209  0.597909  1
  O  O9  1  0.225010  0.709444  0.683516  1
  O  O10  1  0.908204  0.919470  0.013651  1
