# generated using pymatgen
data_Tm16Ga6RuRh
_symmetry_space_group_name_H-M   'P 1'
_cell_length_a   9.92520300
_cell_length_b   9.92520244
_cell_length_c   6.90553200
_cell_angle_alpha   90.00000000
_cell_angle_beta   90.00000000
_cell_angle_gamma   120.00000520
_symmetry_Int_Tables_number   1
_chemical_formula_structural   Tm16Ga6RuRh
_chemical_formula_sum   'Tm16 Ga6 Ru1 Rh1'
_cell_volume   589.12373851
_cell_formula_units_Z   1
loop_
 _symmetry_equiv_pos_site_id
 _symmetry_equiv_pos_as_xyz
  1  'x, y, z'
loop_
 _atom_site_type_symbol
 _atom_site_label
 _atom_site_symmetry_multiplicity
 _atom_site_fract_x
 _atom_site_fract_y
 _atom_site_fract_z
 _atom_site_occupancy
  Tm  Tm0  1  0.171603  0.828397  0.989934  1
  Tm  Tm1  1  0.341942  0.170972  0.489331  1
  Tm  Tm2  1  0.829028  0.658058  0.489331  1
  Tm  Tm3  1  0.171603  0.343204  0.989934  1
  Tm  Tm4  1  0.656796  0.828397  0.989934  1
  Tm  Tm5  1  0.829028  0.170972  0.489331  1
  Tm  Tm6  1  0.333333  0.666667  0.661339  1
  Tm  Tm7  1  0.666667  0.333333  0.161620  1
  Tm  Tm8  1  0.465372  0.534628  0.294342  1
  Tm  Tm9  1  0.933149  0.466574  0.795894  1
  Tm  Tm10  1  0.533426  0.066851  0.795894  1
  Tm  Tm11  1  0.465372  0.930744  0.294342  1
  Tm  Tm12  1  0.069256  0.534628  0.294342  1
  Tm  Tm13  1  0.533426  0.466574  0.795894  1
  Tm  Tm14  1  0.000000  0.000000  0.266075  1
  Tm  Tm15  1  0.000000  0.000000  0.765493  1
  Ga  Ga16  1  0.163303  0.836697  0.541609  1
  Ga  Ga17  1  0.327212  0.163606  0.041635  1
  Ga  Ga18  1  0.836394  0.672788  0.041635  1
  Ga  Ga19  1  0.163303  0.326606  0.541609  1
  Ga  Ga20  1  0.673394  0.836697  0.541609  1
  Ga  Ga21  1  0.836394  0.163606  0.041635  1
  Ru  Ru22  1  0.333333  0.666667  0.055661  1
  Rh  Rh23  1  0.666667  0.333333  0.555586  1
