# generated using pymatgen
data_Pr4Zn3Si4Ge
_symmetry_space_group_name_H-M   'P 1'
_cell_length_a   4.20134700
_cell_length_b   4.20134655
_cell_length_c   16.98163900
_cell_angle_alpha   90.00000000
_cell_angle_beta   90.00000000
_cell_angle_gamma   119.99999568
_symmetry_Int_Tables_number   1
_chemical_formula_structural   Pr4Zn3Si4Ge
_chemical_formula_sum   'Pr4 Zn3 Si4 Ge1'
_cell_volume   259.58961439
_cell_formula_units_Z   1
loop_
 _symmetry_equiv_pos_site_id
 _symmetry_equiv_pos_as_xyz
  1  'x, y, z'
loop_
 _atom_site_type_symbol
 _atom_site_label
 _atom_site_symmetry_multiplicity
 _atom_site_fract_x
 _atom_site_fract_y
 _atom_site_fract_z
 _atom_site_occupancy
  Pr  Pr0  1  0.333333  0.666667  0.118629  1
  Pr  Pr1  1  0.333333  0.666667  0.626138  1
  Pr  Pr2  1  0.333333  0.666667  0.375409  1
  Pr  Pr3  1  0.333333  0.666667  0.880181  1
  Zn  Zn4  1  0.666667  0.333333  0.500021  1
  Zn  Zn5  1  0.000000  0.000000  0.248664  1
  Zn  Zn6  1  0.000000  0.000000  0.751175  1
  Si  Si7  1  0.666667  0.333333  0.749667  1
  Si  Si8  1  0.000000  0.000000  0.999991  1
  Si  Si9  1  0.000000  0.000000  0.499861  1
  Si  Si10  1  0.666667  0.333333  0.999920  1
  Ge  Ge11  1  0.666667  0.333333  0.250345  1
