# generated using pymatgen
data_NaLa6MgAu10
_symmetry_space_group_name_H-M   'P 1'
_cell_length_a   8.24080957
_cell_length_b   8.24080842
_cell_length_c   8.24080884
_cell_angle_alpha   65.98453887
_cell_angle_beta   65.98453902
_cell_angle_gamma   65.98453056
_symmetry_Int_Tables_number   1
_chemical_formula_structural   NaLa6MgAu10
_chemical_formula_sum   'Na1 La6 Mg1 Au10'
_cell_volume   446.98315573
_cell_formula_units_Z   1
loop_
 _symmetry_equiv_pos_site_id
 _symmetry_equiv_pos_as_xyz
  1  'x, y, z'
loop_
 _atom_site_type_symbol
 _atom_site_label
 _atom_site_symmetry_multiplicity
 _atom_site_fract_x
 _atom_site_fract_y
 _atom_site_fract_z
 _atom_site_occupancy
  Na  Na0  1  0.653852  0.653852  0.653852  1
  La  La1  1  0.891956  0.194800  0.621280  1
  La  La2  1  0.621280  0.891956  0.194800  1
  La  La3  1  0.194800  0.621280  0.891956  1
  La  La4  1  0.105467  0.807507  0.380441  1
  La  La5  1  0.380441  0.105467  0.807507  1
  La  La6  1  0.807507  0.380441  0.105467  1
  Mg  Mg7  1  0.345007  0.345007  0.345007  1
  Au  Au8  1  0.999929  0.999929  0.999929  1
  Au  Au9  1  0.494265  0.494265  0.494265  1
  Au  Au10  1  0.802801  0.802801  0.802801  1
  Au  Au11  1  0.199692  0.199692  0.199692  1
  Au  Au12  1  0.949557  0.547290  0.311022  1
  Au  Au13  1  0.311022  0.949557  0.547290  1
  Au  Au14  1  0.547290  0.311022  0.949557  1
  Au  Au15  1  0.064904  0.448206  0.682025  1
  Au  Au16  1  0.682025  0.064904  0.448206  1
  Au  Au17  1  0.448206  0.682025  0.064904  1
