# generated using pymatgen
data_Y11Tl4In5Rh4
_symmetry_space_group_name_H-M   'P 1'
_cell_length_a   13.05799300
_cell_length_b   13.05799289
_cell_length_c   3.75265300
_cell_angle_alpha   90.00000000
_cell_angle_beta   90.00000000
_cell_angle_gamma   113.11811736
_symmetry_Int_Tables_number   1
_chemical_formula_structural   Y11Tl4In5Rh4
_chemical_formula_sum   'Y11 Tl4 In5 Rh4'
_cell_volume   588.48611717
_cell_formula_units_Z   1
loop_
 _symmetry_equiv_pos_site_id
 _symmetry_equiv_pos_as_xyz
  1  'x, y, z'
loop_
 _atom_site_type_symbol
 _atom_site_label
 _atom_site_symmetry_multiplicity
 _atom_site_fract_x
 _atom_site_fract_y
 _atom_site_fract_z
 _atom_site_occupancy
  Y  Y0  1  0.081153  0.416451  0.000000  1
  Y  Y1  1  0.918847  0.583549  0.000000  1
  Y  Y2  1  0.416451  0.081153  0.000000  1
  Y  Y3  1  0.583549  0.918847  0.000000  1
  Y  Y4  1  0.625859  0.374141  0.000000  1
  Y  Y5  1  0.374141  0.625859  0.000000  1
  Y  Y6  1  0.839248  0.160752  0.000000  1
  Y  Y7  1  0.160752  0.839248  0.000000  1
  Y  Y8  1  0.000000  0.000000  0.000000  1
  Y  Y9  1  0.310696  0.310696  0.000000  1
  Y  Y10  1  0.689304  0.689304  0.000000  1
  Tl  Tl11  1  0.846760  0.369736  0.500000  1
  Tl  Tl12  1  0.153240  0.630264  0.500000  1
  Tl  Tl13  1  0.369736  0.846760  0.500000  1
  Tl  Tl14  1  0.630264  0.153240  0.500000  1
  In  In15  1  0.073990  0.217275  0.500000  1
  In  In16  1  0.926010  0.782725  0.500000  1
  In  In17  1  0.217275  0.073990  0.500000  1
  In  In18  1  0.782725  0.926010  0.500000  1
  In  In19  1  0.500000  0.500000  0.500000  1
  Rh  Rh20  1  0.248014  0.447941  0.500000  1
  Rh  Rh21  1  0.751986  0.552059  0.500000  1
  Rh  Rh22  1  0.447941  0.248014  0.500000  1
  Rh  Rh23  1  0.552059  0.751986  0.500000  1
