# generated using pymatgen
data_Ta7Mn2NbTe8
_symmetry_space_group_name_H-M   'P 1'
_cell_length_a   4.86685600
_cell_length_b   10.92428296
_cell_length_c   19.17059330
_cell_angle_alpha   89.93753977
_cell_angle_beta   90.00000000
_cell_angle_gamma   90.00000000
_symmetry_Int_Tables_number   1
_chemical_formula_structural   Ta7Mn2NbTe8
_chemical_formula_sum   'Ta14 Mn4 Nb2 Te16'
_cell_volume   1019.24064318
_cell_formula_units_Z   2
loop_
 _symmetry_equiv_pos_site_id
 _symmetry_equiv_pos_as_xyz
  1  'x, y, z'
loop_
 _atom_site_type_symbol
 _atom_site_label
 _atom_site_symmetry_multiplicity
 _atom_site_fract_x
 _atom_site_fract_y
 _atom_site_fract_z
 _atom_site_occupancy
  Ta  Ta0  1  0.500000  0.436056  0.615597  1
  Ta  Ta1  1  0.500000  0.063912  0.115336  1
  Ta  Ta2  1  0.500000  0.936005  0.884506  1
  Ta  Ta3  1  0.500000  0.703265  0.535792  1
  Ta  Ta4  1  0.500000  0.296902  0.463912  1
  Ta  Ta5  1  0.500000  0.203001  0.963613  1
  Ta  Ta6  1  0.500000  0.796902  0.036315  1
  Ta  Ta7  1  0.000000  0.311111  0.556478  1
  Ta  Ta8  1  0.000000  0.188752  0.056122  1
  Ta  Ta9  1  0.000000  0.811107  0.943755  1
  Ta  Ta10  1  0.000000  0.402243  0.392768  1
  Ta  Ta11  1  0.000000  0.597931  0.607274  1
  Ta  Ta12  1  0.000000  0.901793  0.107302  1
  Ta  Ta13  1  0.000000  0.098082  0.892573  1
  Mn  Mn14  1  0.249970  0.498989  0.500674  1
  Mn  Mn15  1  0.749482  0.999936  0.999993  1
  Mn  Mn16  1  0.750030  0.498989  0.500674  1
  Mn  Mn17  1  0.250518  0.999936  0.999993  1
  Nb  Nb18  1  0.500000  0.565327  0.383708  1
  Nb  Nb19  1  0.000000  0.690347  0.442892  1
  Te  Te20  1  0.000000  0.847073  0.562577  1
  Te  Te21  1  0.000000  0.152251  0.437856  1
  Te  Te22  1  0.000000  0.347680  0.937379  1
  Te  Te23  1  0.000000  0.652208  0.062491  1
  Te  Te24  1  0.500000  0.332038  0.316495  1
  Te  Te25  1  0.500000  0.668781  0.683569  1
  Te  Te26  1  0.500000  0.831793  0.183980  1
  Te  Te27  1  0.500000  0.168243  0.815955  1
  Te  Te28  1  0.500000  0.824831  0.404065  1
  Te  Te29  1  0.500000  0.176032  0.596528  1
  Te  Te30  1  0.500000  0.323855  0.095995  1
  Te  Te31  1  0.500000  0.676111  0.903901  1
  Te  Te32  1  0.000000  0.608213  0.301545  1
  Te  Te33  1  0.000000  0.390522  0.698510  1
  Te  Te34  1  0.000000  0.109107  0.198137  1
  Te  Te35  1  0.000000  0.890674  0.801744  1
