# generated using pymatgen
data_YbIn2O4
_symmetry_space_group_name_H-M   'P 1'
_cell_length_a   6.60722551
_cell_length_b   6.60722650
_cell_length_c   6.60722600
_cell_angle_alpha   60.00000251
_cell_angle_beta   59.99999755
_cell_angle_gamma   60.00000043
_symmetry_Int_Tables_number   1
_chemical_formula_structural   YbIn2O4
_chemical_formula_sum   'Yb2 In4 O8'
_cell_volume   203.95882005
_cell_formula_units_Z   2
loop_
 _symmetry_equiv_pos_site_id
 _symmetry_equiv_pos_as_xyz
  1  'x, y, z'
loop_
 _atom_site_type_symbol
 _atom_site_label
 _atom_site_symmetry_multiplicity
 _atom_site_fract_x
 _atom_site_fract_y
 _atom_site_fract_z
 _atom_site_occupancy
  Yb  Yb0  1  0.250000  0.250000  0.250000  1
  Yb  Yb1  1  0.000000  0.000000  0.000000  1
  In  In2  1  0.625000  0.625000  0.625000  1
  In  In3  1  0.625000  0.125000  0.625000  1
  In  In4  1  0.625000  0.625000  0.125000  1
  In  In5  1  0.125000  0.625000  0.625000  1
  O  O6  1  0.412545  0.862485  0.862485  1
  O  O7  1  0.862485  0.862485  0.412545  1
  O  O8  1  0.862485  0.862485  0.862485  1
  O  O9  1  0.837455  0.387515  0.387515  1
  O  O10  1  0.387515  0.837455  0.387515  1
  O  O11  1  0.387515  0.387515  0.837455  1
  O  O12  1  0.862485  0.412545  0.862485  1
  O  O13  1  0.387515  0.387515  0.387515  1
