# generated using pymatgen
data_Th2Mo3P7Ir9
_symmetry_space_group_name_H-M   'P 1'
_cell_length_a   9.60316700
_cell_length_b   9.60316711
_cell_length_c   4.04849900
_cell_angle_alpha   90.00000000
_cell_angle_beta   90.00000000
_cell_angle_gamma   119.99999616
_symmetry_Int_Tables_number   1
_chemical_formula_structural   Th2Mo3P7Ir9
_chemical_formula_sum   'Th2 Mo3 P7 Ir9'
_cell_volume   323.33569579
_cell_formula_units_Z   1
loop_
 _symmetry_equiv_pos_site_id
 _symmetry_equiv_pos_as_xyz
  1  'x, y, z'
loop_
 _atom_site_type_symbol
 _atom_site_label
 _atom_site_symmetry_multiplicity
 _atom_site_fract_x
 _atom_site_fract_y
 _atom_site_fract_z
 _atom_site_occupancy
  Th  Th0  1  0.333333  0.666667  0.000000  1
  Th  Th1  1  0.000000  0.000000  0.500000  1
  Mo  Mo2  1  0.796822  0.243092  0.500000  1
  Mo  Mo3  1  0.756908  0.553730  0.500000  1
  Mo  Mo4  1  0.446270  0.203178  0.500000  1
  P  P5  1  0.781727  0.039085  0.000000  1
  P  P6  1  0.960915  0.742642  0.000000  1
  P  P7  1  0.257358  0.218273  0.000000  1
  P  P8  1  0.380673  0.932254  0.500000  1
  P  P9  1  0.067746  0.448420  0.500000  1
  P  P10  1  0.551580  0.619327  0.500000  1
  P  P11  1  0.666667  0.333333  0.000000  1
  Ir  Ir12  1  0.035749  0.261743  0.000000  1
  Ir  Ir13  1  0.738257  0.774006  0.000000  1
  Ir  Ir14  1  0.225994  0.964251  0.000000  1
  Ir  Ir15  1  0.553513  0.060194  0.000000  1
  Ir  Ir16  1  0.939806  0.493318  0.000000  1
  Ir  Ir17  1  0.506682  0.446487  0.000000  1
  Ir  Ir18  1  0.608245  0.887738  0.500000  1
  Ir  Ir19  1  0.112262  0.720506  0.500000  1
  Ir  Ir20  1  0.279494  0.391755  0.500000  1
