# generated using pymatgen
data_Sm2Th(P2Rh3)3
_symmetry_space_group_name_H-M   'P 1'
_cell_length_a   3.97581500
_cell_length_b   11.26471800
_cell_length_c   12.86890200
_cell_angle_alpha   90.00000000
_cell_angle_beta   90.00000000
_cell_angle_gamma   90.00000000
_symmetry_Int_Tables_number   1
_chemical_formula_structural   Sm2Th(P2Rh3)3
_chemical_formula_sum   'Sm4 Th2 P12 Rh18'
_cell_volume   576.35224031
_cell_formula_units_Z   2
loop_
 _symmetry_equiv_pos_site_id
 _symmetry_equiv_pos_as_xyz
  1  'x, y, z'
loop_
 _atom_site_type_symbol
 _atom_site_label
 _atom_site_symmetry_multiplicity
 _atom_site_fract_x
 _atom_site_fract_y
 _atom_site_fract_z
 _atom_site_occupancy
  Sm  Sm0  1  0.500000  0.814183  0.204655  1
  Sm  Sm1  1  0.500000  0.185817  0.204655  1
  Sm  Sm2  1  0.000000  0.685817  0.795345  1
  Sm  Sm3  1  0.000000  0.314183  0.795345  1
  Th  Th4  1  0.000000  0.500000  0.523302  1
  Th  Th5  1  0.500000  0.000000  0.476698  1
  P  P6  1  0.500000  0.500000  0.879879  1
  P  P7  1  0.000000  0.000000  0.120121  1
  P  P8  1  0.500000  0.500000  0.348052  1
  P  P9  1  0.000000  0.000000  0.651948  1
  P  P10  1  0.500000  0.312511  0.618913  1
  P  P11  1  0.500000  0.687489  0.618913  1
  P  P12  1  0.000000  0.187489  0.381087  1
  P  P13  1  0.000000  0.812511  0.381087  1
  P  P14  1  0.500000  0.846490  0.894184  1
  P  P15  1  0.500000  0.153510  0.894184  1
  P  P16  1  0.000000  0.653510  0.105816  1
  P  P17  1  0.000000  0.346490  0.105816  1
  Rh  Rh18  1  0.500000  0.500000  0.169241  1
  Rh  Rh19  1  0.000000  0.000000  0.830759  1
  Rh  Rh20  1  0.500000  0.500000  0.701223  1
  Rh  Rh21  1  0.000000  0.000000  0.298777  1
  Rh  Rh22  1  0.000000  0.500000  0.980888  1
  Rh  Rh23  1  0.500000  0.000000  0.019112  1
  Rh  Rh24  1  0.500000  0.334513  0.994521  1
  Rh  Rh25  1  0.500000  0.665487  0.994521  1
  Rh  Rh26  1  0.000000  0.165487  0.005479  1
  Rh  Rh27  1  0.000000  0.834513  0.005479  1
  Rh  Rh28  1  0.500000  0.296588  0.431566  1
  Rh  Rh29  1  0.500000  0.703412  0.431566  1
  Rh  Rh30  1  0.000000  0.203412  0.568434  1
  Rh  Rh31  1  0.000000  0.796588  0.568434  1
  Rh  Rh32  1  0.500000  0.873904  0.711050  1
  Rh  Rh33  1  0.500000  0.126096  0.711050  1
  Rh  Rh34  1  0.000000  0.626096  0.288950  1
  Rh  Rh35  1  0.000000  0.373904  0.288950  1
