# generated using pymatgen
data_LaPaInPt2
_symmetry_space_group_name_H-M   'P 1'
_cell_length_a   7.97020200
_cell_length_b   8.02511200
_cell_length_c   3.72573900
_cell_angle_alpha   90.00000000
_cell_angle_beta   90.00000000
_cell_angle_gamma   90.00000000
_symmetry_Int_Tables_number   1
_chemical_formula_structural   LaPaInPt2
_chemical_formula_sum   'La2 Pa2 In2 Pt4'
_cell_volume   238.30483757
_cell_formula_units_Z   2
loop_
 _symmetry_equiv_pos_site_id
 _symmetry_equiv_pos_as_xyz
  1  'x, y, z'
loop_
 _atom_site_type_symbol
 _atom_site_label
 _atom_site_symmetry_multiplicity
 _atom_site_fract_x
 _atom_site_fract_y
 _atom_site_fract_z
 _atom_site_occupancy
  La  La0  1  0.173574  0.674027  0.500000  1
  La  La1  1  0.673574  0.825973  0.500000  1
  Pa  Pa2  1  0.330986  0.170852  0.500000  1
  Pa  Pa3  1  0.830986  0.329148  0.500000  1
  In  In4  1  0.997317  0.003765  0.000000  1
  In  In5  1  0.497317  0.496235  0.000000  1
  Pt  Pt6  1  0.632622  0.153252  0.000000  1
  Pt  Pt7  1  0.132622  0.346748  0.000000  1
  Pt  Pt8  1  0.865500  0.598514  0.000000  1
  Pt  Pt9  1  0.365500  0.901486  0.000000  1
