# generated using pymatgen
data_CeSm(WN3)2
_symmetry_space_group_name_H-M   'P 1'
_cell_length_a   5.54892800
_cell_length_b   5.66016600
_cell_length_c   7.88961200
_cell_angle_alpha   90.00000000
_cell_angle_beta   90.00000000
_cell_angle_gamma   90.00000000
_symmetry_Int_Tables_number   1
_chemical_formula_structural   CeSm(WN3)2
_chemical_formula_sum   'Ce2 Sm2 W4 N12'
_cell_volume   247.79577867
_cell_formula_units_Z   2
loop_
 _symmetry_equiv_pos_site_id
 _symmetry_equiv_pos_as_xyz
  1  'x, y, z'
loop_
 _atom_site_type_symbol
 _atom_site_label
 _atom_site_symmetry_multiplicity
 _atom_site_fract_x
 _atom_site_fract_y
 _atom_site_fract_z
 _atom_site_occupancy
  Ce  Ce0  1  0.491317  0.451746  0.250000  1
  Ce  Ce1  1  0.008683  0.951746  0.250000  1
  Sm  Sm2  1  0.504440  0.548455  0.750000  1
  Sm  Sm3  1  0.995560  0.048455  0.750000  1
  W  W4  1  0.503236  0.000441  0.500968  1
  W  W5  1  0.996764  0.500441  0.999032  1
  W  W6  1  0.996764  0.500441  0.500968  1
  W  W7  1  0.503236  0.000441  0.999032  1
  N  N8  1  0.704800  0.294186  0.538046  1
  N  N9  1  0.296364  0.703429  0.044609  1
  N  N10  1  0.203636  0.203429  0.044609  1
  N  N11  1  0.424923  0.984664  0.750000  1
  N  N12  1  0.919502  0.519024  0.250000  1
  N  N13  1  0.296364  0.703429  0.455391  1
  N  N14  1  0.795200  0.794186  0.961954  1
  N  N15  1  0.704800  0.294186  0.961954  1
  N  N16  1  0.795200  0.794186  0.538046  1
  N  N17  1  0.075077  0.484664  0.750000  1
  N  N18  1  0.203636  0.203429  0.455391  1
  N  N19  1  0.580498  0.019024  0.250000  1
