# generated using pymatgen
data_Nb6Al8Cu3Ir
_symmetry_space_group_name_H-M   'P 1'
_cell_length_a   8.78882880
_cell_length_b   8.87269048
_cell_length_c   8.21415800
_cell_angle_alpha   90.00000000
_cell_angle_beta   90.00000000
_cell_angle_gamma   121.01282138
_symmetry_Int_Tables_number   1
_chemical_formula_structural   Nb6Al8Cu3Ir
_chemical_formula_sum   'Nb12 Al16 Cu6 Ir2'
_cell_volume   548.98006558
_cell_formula_units_Z   2
loop_
 _symmetry_equiv_pos_site_id
 _symmetry_equiv_pos_as_xyz
  1  'x, y, z'
loop_
 _atom_site_type_symbol
 _atom_site_label
 _atom_site_symmetry_multiplicity
 _atom_site_fract_x
 _atom_site_fract_y
 _atom_site_fract_z
 _atom_site_occupancy
  Nb  Nb0  1  0.328080  0.990825  0.067515  1
  Nb  Nb1  1  0.671920  0.009175  0.932485  1
  Nb  Nb2  1  0.996894  0.331008  0.069556  1
  Nb  Nb3  1  0.671920  0.009175  0.567515  1
  Nb  Nb4  1  0.996894  0.331008  0.430444  1
  Nb  Nb5  1  0.003106  0.668992  0.930444  1
  Nb  Nb6  1  0.328080  0.990825  0.432485  1
  Nb  Nb7  1  0.003106  0.668992  0.569556  1
  Nb  Nb8  1  0.668163  0.664390  0.067375  1
  Nb  Nb9  1  0.331837  0.335610  0.932625  1
  Nb  Nb10  1  0.331837  0.335610  0.567375  1
  Nb  Nb11  1  0.668163  0.664390  0.432625  1
  Al  Al12  1  0.344258  0.847790  0.750000  1
  Al  Al13  1  0.653303  0.505012  0.750000  1
  Al  Al14  1  0.655742  0.152210  0.250000  1
  Al  Al15  1  0.346697  0.494988  0.250000  1
  Al  Al16  1  0.845028  0.342460  0.750000  1
  Al  Al17  1  0.154972  0.657540  0.250000  1
  Al  Al18  1  0.340364  0.665325  0.505254  1
  Al  Al19  1  0.659636  0.334675  0.494746  1
  Al  Al20  1  0.659636  0.334675  0.005254  1
  Al  Al21  1  0.340364  0.665325  0.994746  1
  Al  Al22  1  0.178923  0.009639  0.750000  1
  Al  Al23  1  0.821077  0.990361  0.250000  1
  Al  Al24  1  0.008797  0.179621  0.750000  1
  Al  Al25  1  0.991203  0.820379  0.250000  1
  Al  Al26  1  0.824855  0.834302  0.750000  1
  Al  Al27  1  0.175145  0.165698  0.250000  1
  Cu  Cu28  1  0.168465  0.500223  0.750000  1
  Cu  Cu29  1  0.831535  0.499777  0.250000  1
  Cu  Cu30  1  0.505688  0.672087  0.750000  1
  Cu  Cu31  1  0.502891  0.170704  0.750000  1
  Cu  Cu32  1  0.494312  0.327913  0.250000  1
  Cu  Cu33  1  0.497109  0.829296  0.250000  1
  Ir  Ir34  1  0.000000  0.000000  0.500000  1
  Ir  Ir35  1  0.000000  0.000000  0.000000  1
