# generated using pymatgen
data_CeYEr3(FeB3)2
_symmetry_space_group_name_H-M   'P 1'
_cell_length_a   5.43052273
_cell_length_b   5.43052203
_cell_length_c   7.96955343
_cell_angle_alpha   70.08021118
_cell_angle_beta   70.08020695
_cell_angle_gamma   60.00000201
_symmetry_Int_Tables_number   1
_chemical_formula_structural   CeYEr3(FeB3)2
_chemical_formula_sum   'Ce1 Y1 Er3 Fe2 B6'
_cell_volume   187.12621395
_cell_formula_units_Z   1
loop_
 _symmetry_equiv_pos_site_id
 _symmetry_equiv_pos_as_xyz
  1  'x, y, z'
loop_
 _atom_site_type_symbol
 _atom_site_label
 _atom_site_symmetry_multiplicity
 _atom_site_fract_x
 _atom_site_fract_y
 _atom_site_fract_z
 _atom_site_occupancy
  Ce  Ce0  1  0.999657  0.999657  0.001030  1
  Y  Y1  1  0.413779  0.413779  0.758660  1
  Er  Er2  1  0.747487  0.747487  0.757542  1
  Er  Er3  1  0.252491  0.252491  0.242525  1
  Er  Er4  1  0.585437  0.585437  0.243692  1
  Fe  Fe5  1  0.889881  0.889881  0.330357  1
  Fe  Fe6  1  0.110257  0.110257  0.669231  1
  B  B7  1  0.500042  0.167171  0.499494  1
  B  B8  1  0.833294  0.500042  0.499494  1
  B  B9  1  0.167171  0.833294  0.499494  1
  B  B10  1  0.167171  0.500042  0.499494  1
  B  B11  1  0.833294  0.167171  0.499494  1
  B  B12  1  0.500042  0.833294  0.499494  1
