# generated using pymatgen
data_Tm10InSnSb4
_symmetry_space_group_name_H-M   'P 1'
_cell_length_a   8.85981400
_cell_length_b   8.86437192
_cell_length_c   6.33353100
_cell_angle_alpha   90.00000000
_cell_angle_beta   90.00000000
_cell_angle_gamma   119.98299985
_symmetry_Int_Tables_number   1
_chemical_formula_structural   Tm10InSnSb4
_chemical_formula_sum   'Tm10 In1 Sn1 Sb4'
_cell_volume   430.84740085
_cell_formula_units_Z   1
loop_
 _symmetry_equiv_pos_site_id
 _symmetry_equiv_pos_as_xyz
  1  'x, y, z'
loop_
 _atom_site_type_symbol
 _atom_site_label
 _atom_site_symmetry_multiplicity
 _atom_site_fract_x
 _atom_site_fract_y
 _atom_site_fract_z
 _atom_site_occupancy
  Tm  Tm0  1  0.335297  0.669488  0.999057  1
  Tm  Tm1  1  0.665810  0.330512  0.500943  1
  Tm  Tm2  1  0.665810  0.330512  0.999057  1
  Tm  Tm3  1  0.335297  0.669488  0.500943  1
  Tm  Tm4  1  0.240820  0.000000  0.250000  1
  Tm  Tm5  1  0.759648  0.000000  0.750000  1
  Tm  Tm6  1  0.993887  0.238586  0.250000  1
  Tm  Tm7  1  0.755300  0.761414  0.250000  1
  Tm  Tm8  1  0.244527  0.240230  0.750000  1
  Tm  Tm9  1  0.004298  0.759770  0.750000  1
  In  In10  1  0.603917  0.000000  0.250000  1
  Sn  Sn11  1  0.394591  0.000000  0.750000  1
  Sb  Sb12  1  0.998782  0.609972  0.250000  1
  Sb  Sb13  1  0.388810  0.390028  0.250000  1
  Sb  Sb14  1  0.611427  0.609646  0.750000  1
  Sb  Sb15  1  0.001781  0.390354  0.750000  1
