# generated using pymatgen
data_Pr8Dy12Si15Sb
_symmetry_space_group_name_H-M   'P 1'
_cell_length_a   7.65912761
_cell_length_b   7.80752602
_cell_length_c   14.88962400
_cell_angle_alpha   89.75092944
_cell_angle_beta   86.69709436
_cell_angle_gamma   90.00004619
_symmetry_Int_Tables_number   1
_chemical_formula_structural   Pr8Dy12Si15Sb
_chemical_formula_sum   'Pr8 Dy12 Si15 Sb1'
_cell_volume   888.89476995
_cell_formula_units_Z   1
loop_
 _symmetry_equiv_pos_site_id
 _symmetry_equiv_pos_as_xyz
  1  'x, y, z'
loop_
 _atom_site_type_symbol
 _atom_site_label
 _atom_site_symmetry_multiplicity
 _atom_site_fract_x
 _atom_site_fract_y
 _atom_site_fract_z
 _atom_site_occupancy
  Pr  Pr0  1  0.003821  0.824306  0.100604  1
  Pr  Pr1  1  0.478308  0.681597  0.398829  1
  Pr  Pr2  1  0.488050  0.313625  0.897570  1
  Pr  Pr3  1  0.021435  0.178110  0.599612  1
  Pr  Pr4  1  0.997421  0.175065  0.899236  1
  Pr  Pr5  1  0.520644  0.318077  0.599665  1
  Pr  Pr6  1  0.494954  0.686972  0.102824  1
  Pr  Pr7  1  0.978716  0.818518  0.399884  1
  Dy  Dy8  1  0.671945  0.995401  0.246546  1
  Dy  Dy9  1  0.171529  0.505555  0.245618  1
  Dy  Dy10  1  0.829489  0.493307  0.747752  1
  Dy  Dy11  1  0.325739  0.004250  0.751892  1
  Dy  Dy12  1  0.639869  0.845931  0.877969  1
  Dy  Dy13  1  0.172880  0.677592  0.622592  1
  Dy  Dy14  1  0.858658  0.326432  0.125678  1
  Dy  Dy15  1  0.328603  0.179085  0.378211  1
  Dy  Dy16  1  0.355776  0.167234  0.119461  1
  Dy  Dy17  1  0.827871  0.322174  0.377551  1
  Dy  Dy18  1  0.157210  0.666513  0.878652  1
  Dy  Dy19  1  0.672810  0.820480  0.622676  1
  Si  Si20  1  0.786823  0.621775  0.252258  1
  Si  Si21  1  0.285960  0.881285  0.253085  1
  Si  Si22  1  0.711783  0.123220  0.746557  1
  Si  Si23  1  0.210805  0.376523  0.747530  1
  Si  Si24  1  0.049180  0.114967  0.253303  1
  Si  Si25  1  0.547184  0.386431  0.252114  1
  Si  Si26  1  0.455193  0.612834  0.748523  1
  Si  Si27  1  0.952726  0.882182  0.748630  1
  Si  Si28  1  0.358424  0.967818  0.540694  1
  Si  Si29  1  0.698070  0.038570  0.044096  1
  Si  Si30  1  0.144044  0.468474  0.459883  1
  Si  Si31  1  0.200521  0.463573  0.044942  1
  Si  Si32  1  0.644387  0.030051  0.459470  1
  Si  Si33  1  0.300421  0.962945  0.955849  1
  Si  Si34  1  0.858130  0.529479  0.540715  1
  Sb  Sb35  1  0.800624  0.539654  0.959527  1
