# generated using pymatgen
data_Er4LuInSb2
_symmetry_space_group_name_H-M   'P 1'
_cell_length_a   8.87242978
_cell_length_b   8.87302081
_cell_length_c   6.36457722
_cell_angle_alpha   90.09541883
_cell_angle_beta   89.95228771
_cell_angle_gamma   120.00219925
_symmetry_Int_Tables_number   1
_chemical_formula_structural   Er4LuInSb2
_chemical_formula_sum   'Er8 Lu2 In2 Sb4'
_cell_volume   433.91437283
_cell_formula_units_Z   2
loop_
 _symmetry_equiv_pos_site_id
 _symmetry_equiv_pos_as_xyz
  1  'x, y, z'
loop_
 _atom_site_type_symbol
 _atom_site_label
 _atom_site_symmetry_multiplicity
 _atom_site_fract_x
 _atom_site_fract_y
 _atom_site_fract_z
 _atom_site_occupancy
  Er  Er0  1  0.002634  0.760798  0.750047  1
  Er  Er1  1  0.002634  0.241838  0.249953  1
  Er  Er2  1  0.758540  0.760007  0.249872  1
  Er  Er3  1  0.758540  0.998533  0.750128  1
  Er  Er4  1  0.240519  0.236688  0.749942  1
  Er  Er5  1  0.240519  0.003832  0.250058  1
  Er  Er6  1  0.663379  0.331689  0.500000  1
  Er  Er7  1  0.334549  0.667275  0.000000  1
  Lu  Lu8  1  0.334630  0.667315  0.500000  1
  Lu  Lu9  1  0.662925  0.331462  0.000000  1
  In  In10  1  0.395613  0.997988  0.749993  1
  In  In11  1  0.395613  0.397625  0.250007  1
  Sb  Sb12  1  0.998905  0.606752  0.250051  1
  Sb  Sb13  1  0.998905  0.392153  0.749949  1
  Sb  Sb14  1  0.606047  0.605688  0.750076  1
  Sb  Sb15  1  0.606047  0.000359  0.249924  1
