# generated using pymatgen
data_Dy2Ga9Ir2Pt
_symmetry_space_group_name_H-M   'P 1'
_cell_length_a   7.64065144
_cell_length_b   7.64065090
_cell_length_c   9.50266400
_cell_angle_alpha   90.00000000
_cell_angle_beta   90.00000000
_cell_angle_gamma   119.92726770
_symmetry_Int_Tables_number   1
_chemical_formula_structural   Dy2Ga9Ir2Pt
_chemical_formula_sum   'Dy4 Ga18 Ir4 Pt2'
_cell_volume   480.78906092
_cell_formula_units_Z   2
loop_
 _symmetry_equiv_pos_site_id
 _symmetry_equiv_pos_as_xyz
  1  'x, y, z'
loop_
 _atom_site_type_symbol
 _atom_site_label
 _atom_site_symmetry_multiplicity
 _atom_site_fract_x
 _atom_site_fract_y
 _atom_site_fract_z
 _atom_site_occupancy
  Dy  Dy0  1  0.996660  0.669317  0.250000  1
  Dy  Dy1  1  0.003340  0.330683  0.750000  1
  Dy  Dy2  1  0.669317  0.996660  0.250000  1
  Dy  Dy3  1  0.330683  0.003340  0.750000  1
  Ga  Ga4  1  0.130827  0.130827  0.250000  1
  Ga  Ga5  1  0.869173  0.869173  0.750000  1
  Ga  Ga6  1  0.998365  0.337411  0.081130  1
  Ga  Ga7  1  0.001635  0.662589  0.918870  1
  Ga  Ga8  1  0.001635  0.662589  0.581130  1
  Ga  Ga9  1  0.337411  0.998365  0.418870  1
  Ga  Ga10  1  0.998365  0.337411  0.418870  1
  Ga  Ga11  1  0.662589  0.001635  0.581130  1
  Ga  Ga12  1  0.662589  0.001635  0.918870  1
  Ga  Ga13  1  0.337411  0.998365  0.081130  1
  Ga  Ga14  1  0.335447  0.335447  0.567512  1
  Ga  Ga15  1  0.664553  0.664553  0.432488  1
  Ga  Ga16  1  0.664553  0.664553  0.067512  1
  Ga  Ga17  1  0.335447  0.335447  0.932488  1
  Ga  Ga18  1  0.337551  0.546603  0.250000  1
  Ga  Ga19  1  0.662449  0.453397  0.750000  1
  Ga  Ga20  1  0.546603  0.337551  0.250000  1
  Ga  Ga21  1  0.453397  0.662449  0.750000  1
  Ir  Ir22  1  0.671177  0.328823  0.000000  1
  Ir  Ir23  1  0.328823  0.671177  0.000000  1
  Ir  Ir24  1  0.328823  0.671177  0.500000  1
  Ir  Ir25  1  0.671177  0.328823  0.500000  1
  Pt  Pt26  1  0.000000  0.000000  0.000000  1
  Pt  Pt27  1  0.000000  0.000000  0.500000  1
