# generated using pymatgen
data_Ce2Nd14Cd4Co3Ni
_symmetry_space_group_name_H-M   'P 1'
_cell_length_a   9.79258876
_cell_length_b   9.79375101
_cell_length_c   9.97970100
_cell_angle_alpha   59.36991216
_cell_angle_beta   59.36588559
_cell_angle_gamma   60.20978018
_symmetry_Int_Tables_number   1
_chemical_formula_structural   Ce2Nd14Cd4Co3Ni
_chemical_formula_sum   'Ce2 Nd14 Cd4 Co3 Ni1'
_cell_volume   671.27931131
_cell_formula_units_Z   1
loop_
 _symmetry_equiv_pos_site_id
 _symmetry_equiv_pos_as_xyz
  1  'x, y, z'
loop_
 _atom_site_type_symbol
 _atom_site_label
 _atom_site_symmetry_multiplicity
 _atom_site_fract_x
 _atom_site_fract_y
 _atom_site_fract_z
 _atom_site_occupancy
  Ce  Ce0  1  0.576031  0.587781  0.602490  1
  Ce  Ce1  1  0.576031  0.587781  0.233697  1
  Nd  Nd2  1  0.600405  0.203152  0.598221  1
  Nd  Nd3  1  0.207148  0.597792  0.597530  1
  Nd  Nd4  1  0.062891  0.440037  0.437633  1
  Nd  Nd5  1  0.440426  0.061297  0.060781  1
  Nd  Nd6  1  0.440426  0.061297  0.437498  1
  Nd  Nd7  1  0.062891  0.440037  0.059439  1
  Nd  Nd8  1  0.441385  0.444150  0.057233  1
  Nd  Nd9  1  0.065771  0.057002  0.438613  1
  Nd  Nd10  1  0.185376  0.813689  0.815478  1
  Nd  Nd11  1  0.809006  0.191461  0.185779  1
  Nd  Nd12  1  0.809006  0.191461  0.813754  1
  Nd  Nd13  1  0.185376  0.813689  0.185457  1
  Nd  Nd14  1  0.804038  0.808633  0.193665  1
  Nd  Nd15  1  0.183972  0.185991  0.815019  1
  Cd  Cd16  1  0.826764  0.826010  0.835650  1
  Cd  Cd17  1  0.826764  0.826010  0.511574  1
  Cd  Cd18  1  0.826848  0.513423  0.829864  1
  Cd  Cd19  1  0.511151  0.827601  0.830623  1
  Co  Co20  1  0.410685  0.406338  0.371648  1
  Co  Co21  1  0.410685  0.406338  0.811329  1
  Co  Co22  1  0.414916  0.811826  0.386629  1
  Ni  Ni23  1  0.822005  0.397201  0.390397  1
