# generated using pymatgen
data_Pr8Nd2Ir5Rh
_symmetry_space_group_name_H-M   'P 1'
_cell_length_a   11.31049700
_cell_length_b   11.31049700
_cell_length_c   6.66523600
_cell_angle_alpha   90.00000000
_cell_angle_beta   90.00000000
_cell_angle_gamma   90.00000000
_symmetry_Int_Tables_number   1
_chemical_formula_structural   Pr8Nd2Ir5Rh
_chemical_formula_sum   'Pr16 Nd4 Ir10 Rh2'
_cell_volume   852.66592786
_cell_formula_units_Z   2
loop_
 _symmetry_equiv_pos_site_id
 _symmetry_equiv_pos_as_xyz
  1  'x, y, z'
loop_
 _atom_site_type_symbol
 _atom_site_label
 _atom_site_symmetry_multiplicity
 _atom_site_fract_x
 _atom_site_fract_y
 _atom_site_fract_z
 _atom_site_occupancy
  Pr  Pr0  1  0.090435  0.291537  0.114275  1
  Pr  Pr1  1  0.791537  0.409565  0.114275  1
  Pr  Pr2  1  0.208463  0.590435  0.114275  1
  Pr  Pr3  1  0.909565  0.708463  0.114275  1
  Pr  Pr4  1  0.409565  0.791537  0.385725  1
  Pr  Pr5  1  0.590435  0.208463  0.385725  1
  Pr  Pr6  1  0.291537  0.090435  0.385725  1
  Pr  Pr7  1  0.708463  0.909565  0.385725  1
  Pr  Pr8  1  0.409798  0.208899  0.883434  1
  Pr  Pr9  1  0.708899  0.090202  0.883434  1
  Pr  Pr10  1  0.291101  0.909798  0.883434  1
  Pr  Pr11  1  0.590202  0.791101  0.883434  1
  Pr  Pr12  1  0.090202  0.708899  0.616566  1
  Pr  Pr13  1  0.909798  0.291101  0.616566  1
  Pr  Pr14  1  0.208899  0.409798  0.616566  1
  Pr  Pr15  1  0.791101  0.590202  0.616566  1
  Nd  Nd16  1  0.000000  0.000000  0.000140  1
  Nd  Nd17  1  0.500000  0.500000  0.000140  1
  Nd  Nd18  1  0.500000  0.500000  0.499860  1
  Nd  Nd19  1  0.000000  0.000000  0.499860  1
  Ir  Ir20  1  0.153203  0.846797  0.250000  1
  Ir  Ir21  1  0.346797  0.346797  0.250000  1
  Ir  Ir22  1  0.653203  0.653203  0.250000  1
  Ir  Ir23  1  0.846797  0.153203  0.250000  1
  Ir  Ir24  1  0.346988  0.653012  0.750000  1
  Ir  Ir25  1  0.153012  0.153012  0.750000  1
  Ir  Ir26  1  0.846988  0.846988  0.750000  1
  Ir  Ir27  1  0.653012  0.346988  0.750000  1
  Ir  Ir28  1  0.500000  0.000000  0.622283  1
  Ir  Ir29  1  0.000000  0.500000  0.877717  1
  Rh  Rh30  1  0.000000  0.500000  0.381008  1
  Rh  Rh31  1  0.500000  0.000000  0.118992  1
