# generated using pymatgen
data_Dy2Ho3CoRu
_symmetry_space_group_name_H-M   'P 1'
_cell_length_a   6.28148866
_cell_length_b   7.09547809
_cell_length_c   8.47372325
_cell_angle_alpha   96.49571900
_cell_angle_beta   111.75541069
_cell_angle_gamma   90.00000527
_symmetry_Int_Tables_number   1
_chemical_formula_structural   Dy2Ho3CoRu
_chemical_formula_sum   'Dy4 Ho6 Co2 Ru2'
_cell_volume   348.16332110
_cell_formula_units_Z   2
loop_
 _symmetry_equiv_pos_site_id
 _symmetry_equiv_pos_as_xyz
  1  'x, y, z'
loop_
 _atom_site_type_symbol
 _atom_site_label
 _atom_site_symmetry_multiplicity
 _atom_site_fract_x
 _atom_site_fract_y
 _atom_site_fract_z
 _atom_site_occupancy
  Dy  Dy0  1  0.976913  0.911554  0.189561  1
  Dy  Dy1  1  0.787352  0.588446  0.810439  1
  Dy  Dy2  1  0.013647  0.082634  0.814149  1
  Dy  Dy3  1  0.199499  0.417366  0.185851  1
  Ho  Ho4  1  0.647762  0.811669  0.432898  1
  Ho  Ho5  1  0.214863  0.688331  0.567102  1
  Ho  Ho6  1  0.358199  0.181541  0.565727  1
  Ho  Ho7  1  0.792473  0.318459  0.434273  1
  Ho  Ho8  1  0.427554  0.750000  0.000000  1
  Ho  Ho9  1  0.578014  0.250000  0.000000  1
  Co  Co10  1  0.825203  0.576328  0.222327  1
  Co  Co11  1  0.602876  0.923672  0.777673  1
  Ru  Ru12  1  0.177197  0.427697  0.778748  1
  Ru  Ru13  1  0.398448  0.072303  0.221252  1
