# generated using pymatgen
data_TbEr15In6FeNi
_symmetry_space_group_name_H-M   'P 1'
_cell_length_a   10.30014312
_cell_length_b   10.27832749
_cell_length_c   6.97310419
_cell_angle_alpha   89.97407475
_cell_angle_beta   89.97355896
_cell_angle_gamma   120.13899665
_symmetry_Int_Tables_number   1
_chemical_formula_structural   TbEr15In6FeNi
_chemical_formula_sum   'Tb1 Er15 In6 Fe1 Ni1'
_cell_volume   638.42858830
_cell_formula_units_Z   1
loop_
 _symmetry_equiv_pos_site_id
 _symmetry_equiv_pos_as_xyz
  1  'x, y, z'
loop_
 _atom_site_type_symbol
 _atom_site_label
 _atom_site_symmetry_multiplicity
 _atom_site_fract_x
 _atom_site_fract_y
 _atom_site_fract_z
 _atom_site_occupancy
  Tb  Tb0  1  0.536053  0.072104  0.790628  1
  Er  Er1  1  0.927076  0.463542  0.792002  1
  Er  Er2  1  0.536409  0.463457  0.792095  1
  Er  Er3  1  0.466936  0.933980  0.293219  1
  Er  Er4  1  0.065587  0.532918  0.294144  1
  Er  Er5  1  0.467394  0.532927  0.294084  1
  Er  Er6  1  0.821645  0.643336  0.499902  1
  Er  Er7  1  0.356594  0.178920  0.498558  1
  Er  Er8  1  0.822422  0.178924  0.498403  1
  Er  Er9  1  0.178090  0.355908  0.997699  1
  Er  Er10  1  0.644568  0.821724  0.997752  1
  Er  Er11  1  0.176996  0.821561  0.997806  1
  Er  Er12  1  0.666977  0.333871  0.181237  1
  Er  Er13  1  0.332942  0.665957  0.680309  1
  Er  Er14  1  0.999955  0.999933  0.780169  1
  Er  Er15  1  0.999979  0.000013  0.277459  1
  In  In16  1  0.837459  0.675023  0.040423  1
  In  In17  1  0.324154  0.162181  0.040102  1
  In  In18  1  0.838167  0.162247  0.039514  1
  In  In19  1  0.163400  0.326816  0.539702  1
  In  In20  1  0.673274  0.837018  0.539002  1
  In  In21  1  0.163563  0.837000  0.538964  1
  Fe  Fe22  1  0.667166  0.334325  0.565610  1
  Ni  Ni23  1  0.333195  0.666321  0.067121  1
