# generated using pymatgen
data_Tb3Mg3RuAu2
_symmetry_space_group_name_H-M   'P 1'
_cell_length_a   7.50969600
_cell_length_b   7.50969592
_cell_length_c   4.10872300
_cell_angle_alpha   90.00000000
_cell_angle_beta   90.00000000
_cell_angle_gamma   119.99999153
_symmetry_Int_Tables_number   1
_chemical_formula_structural   Tb3Mg3RuAu2
_chemical_formula_sum   'Tb3 Mg3 Ru1 Au2'
_cell_volume   200.66990308
_cell_formula_units_Z   1
loop_
 _symmetry_equiv_pos_site_id
 _symmetry_equiv_pos_as_xyz
  1  'x, y, z'
loop_
 _atom_site_type_symbol
 _atom_site_label
 _atom_site_symmetry_multiplicity
 _atom_site_fract_x
 _atom_site_fract_y
 _atom_site_fract_z
 _atom_site_occupancy
  Tb  Tb0  1  0.574574  0.974993  0.000000  1
  Tb  Tb1  1  0.025007  0.599581  0.000000  1
  Tb  Tb2  1  0.400419  0.425426  0.000000  1
  Mg  Mg3  1  0.250285  0.998119  0.500000  1
  Mg  Mg4  1  0.001881  0.252165  0.500000  1
  Mg  Mg5  1  0.747835  0.749715  0.500000  1
  Ru  Ru6  1  0.333333  0.666667  0.500000  1
  Au  Au7  1  0.666667  0.333333  0.500000  1
  Au  Au8  1  0.000000  0.000000  0.000000  1
