# generated using pymatgen
data_Ho5Hf3Fe4(CoP)12
_symmetry_space_group_name_H-M   'P 1'
_cell_length_a   12.26016244
_cell_length_b   12.23789076
_cell_length_c   3.72869700
_cell_angle_alpha   90.00000000
_cell_angle_beta   90.00000000
_cell_angle_gamma   120.00514939
_symmetry_Int_Tables_number   1
_chemical_formula_structural   Ho5Hf3Fe4(CoP)12
_chemical_formula_sum   'Ho5 Hf3 Fe4 Co12 P12'
_cell_volume   484.47122145
_cell_formula_units_Z   1
loop_
 _symmetry_equiv_pos_site_id
 _symmetry_equiv_pos_as_xyz
  1  'x, y, z'
loop_
 _atom_site_type_symbol
 _atom_site_label
 _atom_site_symmetry_multiplicity
 _atom_site_fract_x
 _atom_site_fract_y
 _atom_site_fract_z
 _atom_site_occupancy
  Ho  Ho0  1  0.664357  0.333621  0.000000  1
  Ho  Ho1  1  0.333149  0.666519  0.000000  1
  Ho  Ho2  1  0.817323  0.817472  0.500000  1
  Ho  Ho3  1  0.183326  0.000000  0.500000  1
  Ho  Ho4  1  0.000968  0.181369  0.500000  1
  Hf  Hf5  1  0.440634  0.440735  0.000000  1
  Hf  Hf6  1  0.559033  0.999410  0.000000  1
  Hf  Hf7  1  0.999674  0.559054  0.000000  1
  Fe  Fe8  1  0.876648  0.355045  0.500000  1
  Fe  Fe9  1  0.803719  0.179719  0.000000  1
  Fe  Fe10  1  0.821750  0.626178  0.000000  1
  Fe  Fe11  1  0.374338  0.195489  0.000000  1
  Co  Co12  1  0.642847  0.520789  0.500000  1
  Co  Co13  1  0.479470  0.122852  0.500000  1
  Co  Co14  1  0.356735  0.873979  0.500000  1
  Co  Co15  1  0.517258  0.643392  0.500000  1
  Co  Co16  1  0.127323  0.483332  0.500000  1
  Co  Co17  1  0.180398  0.806359  0.000000  1
  Co  Co18  1  0.626002  0.819503  0.000000  1
  Co  Co19  1  0.194575  0.373830  0.000000  1
  Co  Co20  1  0.277373  0.279424  0.500000  1
  Co  Co21  1  0.720171  0.997721  0.500000  1
  Co  Co22  1  0.003088  0.723648  0.500000  1
  Co  Co23  1  0.999797  0.999996  0.000000  1
  P  P24  1  0.691832  0.171093  0.500000  1
  P  P25  1  0.828146  0.524225  0.500000  1
  P  P26  1  0.475962  0.304943  0.500000  1
  P  P27  1  0.172153  0.693331  0.500000  1
  P  P28  1  0.521325  0.827827  0.500000  1
  P  P29  1  0.307070  0.478659  0.500000  1
  P  P30  1  0.180901  0.178784  0.000000  1
  P  P31  1  0.820529  0.001402  0.000000  1
  P  P32  1  0.999013  0.819757  0.000000  1
  P  P33  1  0.649394  0.646718  0.000000  1
  P  P34  1  0.353479  0.002357  0.000000  1
  P  P35  1  0.000241  0.351466  0.000000  1
