# generated using pymatgen
data_Cs2P2OsRu
_symmetry_space_group_name_H-M   'P 1'
_cell_length_a   4.08994500
_cell_length_b   4.08994500
_cell_length_c   11.45737400
_cell_angle_alpha   90.00000000
_cell_angle_beta   90.00000000
_cell_angle_gamma   90.00000000
_symmetry_Int_Tables_number   1
_chemical_formula_structural   Cs2P2OsRu
_chemical_formula_sum   'Cs2 P2 Os1 Ru1'
_cell_volume   191.65494337
_cell_formula_units_Z   1
loop_
 _symmetry_equiv_pos_site_id
 _symmetry_equiv_pos_as_xyz
  1  'x, y, z'
loop_
 _atom_site_type_symbol
 _atom_site_label
 _atom_site_symmetry_multiplicity
 _atom_site_fract_x
 _atom_site_fract_y
 _atom_site_fract_z
 _atom_site_occupancy
  Cs  Cs0  1  0.000000  0.500000  0.282125  1
  Cs  Cs1  1  0.500000  0.000000  0.717875  1
  P  P2  1  0.000000  0.500000  0.898518  1
  P  P3  1  0.500000  0.000000  0.101482  1
  Os  Os4  1  0.000000  0.000000  0.000000  1
  Ru  Ru5  1  0.500000  0.500000  0.000000  1
