# generated using pymatgen
data_NaSm(CN2)2
_symmetry_space_group_name_H-M   'P 1'
_cell_length_a   6.50771900
_cell_length_b   7.54058700
_cell_length_c   10.04748700
_cell_angle_alpha   90.00000000
_cell_angle_beta   90.00000000
_cell_angle_gamma   90.00000000
_symmetry_Int_Tables_number   1
_chemical_formula_structural   NaSm(CN2)2
_chemical_formula_sum   'Na4 Sm4 C8 N16'
_cell_volume   493.05049599
_cell_formula_units_Z   4
loop_
 _symmetry_equiv_pos_site_id
 _symmetry_equiv_pos_as_xyz
  1  'x, y, z'
loop_
 _atom_site_type_symbol
 _atom_site_label
 _atom_site_symmetry_multiplicity
 _atom_site_fract_x
 _atom_site_fract_y
 _atom_site_fract_z
 _atom_site_occupancy
  Na  Na0  1  0.250000  0.624378  0.000000  1
  Na  Na1  1  0.750000  0.875622  0.500000  1
  Na  Na2  1  0.750000  0.375622  0.000000  1
  Na  Na3  1  0.250000  0.124378  0.500000  1
  Sm  Sm4  1  0.250000  0.135725  0.000000  1
  Sm  Sm5  1  0.750000  0.364275  0.500000  1
  Sm  Sm6  1  0.750000  0.864275  0.000000  1
  Sm  Sm7  1  0.250000  0.635725  0.500000  1
  C  C8  1  0.917878  0.116682  0.248021  1
  C  C9  1  0.417878  0.383318  0.251979  1
  C  C10  1  0.082122  0.383318  0.748021  1
  C  C11  1  0.582122  0.116682  0.751979  1
  C  C12  1  0.082122  0.883318  0.751979  1
  C  C13  1  0.582122  0.616682  0.748021  1
  C  C14  1  0.917878  0.616682  0.251979  1
  C  C15  1  0.417878  0.883318  0.248021  1
  N  N16  1  0.932531  0.099049  0.125002  1
  N  N17  1  0.432531  0.400951  0.374998  1
  N  N18  1  0.067469  0.400951  0.625002  1
  N  N19  1  0.567469  0.099049  0.874998  1
  N  N20  1  0.067469  0.900951  0.874998  1
  N  N21  1  0.567469  0.599049  0.625002  1
  N  N22  1  0.932531  0.599049  0.374998  1
  N  N23  1  0.432531  0.900951  0.125002  1
  N  N24  1  0.403420  0.366018  0.131193  1
  N  N25  1  0.903420  0.133982  0.368807  1
  N  N26  1  0.596580  0.133982  0.631193  1
  N  N27  1  0.096580  0.366018  0.868807  1
  N  N28  1  0.596580  0.633982  0.868807  1
  N  N29  1  0.096580  0.866018  0.631193  1
  N  N30  1  0.403420  0.866018  0.368807  1
  N  N31  1  0.903420  0.633982  0.131193  1
