# generated using pymatgen
data_Yb3(DyRh)2
_symmetry_space_group_name_H-M   'P 1'
_cell_length_a   6.49538588
_cell_length_b   7.25251107
_cell_length_c   8.62066089
_cell_angle_alpha   96.78634227
_cell_angle_beta   112.13151854
_cell_angle_gamma   90.00000321
_symmetry_Int_Tables_number   1
_chemical_formula_structural   Yb3(DyRh)2
_chemical_formula_sum   'Yb6 Dy4 Rh4'
_cell_volume   373.10661136
_cell_formula_units_Z   2
loop_
 _symmetry_equiv_pos_site_id
 _symmetry_equiv_pos_as_xyz
  1  'x, y, z'
loop_
 _atom_site_type_symbol
 _atom_site_label
 _atom_site_symmetry_multiplicity
 _atom_site_fract_x
 _atom_site_fract_y
 _atom_site_fract_z
 _atom_site_occupancy
  Yb  Yb0  1  0.799168  0.080447  0.817351  1
  Yb  Yb1  1  0.981817  0.419553  0.182649  1
  Yb  Yb2  1  0.198376  0.915602  0.184335  1
  Yb  Yb3  1  0.014041  0.584398  0.815665  1
  Yb  Yb4  1  0.208482  0.184745  0.565898  1
  Yb  Yb5  1  0.642583  0.315255  0.434102  1
  Dy  Dy6  1  0.798082  0.815346  0.431615  1
  Dy  Dy7  1  0.366466  0.684654  0.568385  1
  Dy  Dy8  1  0.428466  0.250000  0.000000  1
  Dy  Dy9  1  0.565843  0.750000  0.000000  1
  Rh  Rh10  1  0.595375  0.430465  0.785241  1
  Rh  Rh11  1  0.810134  0.069535  0.214759  1
  Rh  Rh12  1  0.410292  0.578123  0.229418  1
  Rh  Rh13  1  0.180875  0.921877  0.770582  1
