# generated using pymatgen
data_Ba6CaDy(BO3)6
_symmetry_space_group_name_H-M   'P 1'
_cell_length_a   8.22764499
_cell_length_b   8.22764568
_cell_length_c   8.22764574
_cell_angle_alpha   105.56600180
_cell_angle_beta   105.56601535
_cell_angle_gamma   105.56601771
_symmetry_Int_Tables_number   1
_chemical_formula_structural   Ba6CaDy(BO3)6
_chemical_formula_sum   'Ba6 Ca1 Dy1 B6 O18'
_cell_volume   480.83703954
_cell_formula_units_Z   1
loop_
 _symmetry_equiv_pos_site_id
 _symmetry_equiv_pos_as_xyz
  1  'x, y, z'
loop_
 _atom_site_type_symbol
 _atom_site_label
 _atom_site_symmetry_multiplicity
 _atom_site_fract_x
 _atom_site_fract_y
 _atom_site_fract_z
 _atom_site_occupancy
  Ba  Ba0  1  0.351402  0.730636  0.835948  1
  Ba  Ba1  1  0.835948  0.351402  0.730636  1
  Ba  Ba2  1  0.730636  0.835948  0.351402  1
  Ba  Ba3  1  0.648598  0.269364  0.164052  1
  Ba  Ba4  1  0.164052  0.648598  0.269364  1
  Ba  Ba5  1  0.269364  0.164052  0.648598  1
  Ca  Ca6  1  0.500000  0.500000  0.500000  1
  Dy  Dy7  1  0.000000  0.000000  0.000000  1
  B  B8  1  0.710025  0.623300  0.958899  1
  B  B9  1  0.958899  0.710025  0.623300  1
  B  B10  1  0.623300  0.958899  0.710025  1
  B  B11  1  0.041101  0.289975  0.376700  1
  B  B12  1  0.376700  0.041101  0.289975  1
  B  B13  1  0.289975  0.376700  0.041101  1
  O  O14  1  0.067731  0.809909  0.555003  1
  O  O15  1  0.555003  0.067731  0.809909  1
  O  O16  1  0.429307  0.493571  0.203861  1
  O  O17  1  0.493571  0.203861  0.429307  1
  O  O18  1  0.203861  0.429307  0.493571  1
  O  O19  1  0.796139  0.570693  0.506429  1
  O  O20  1  0.570693  0.506429  0.796139  1
  O  O21  1  0.506429  0.796139  0.570693  1
  O  O22  1  0.255603  0.190300  0.984532  1
  O  O23  1  0.190300  0.984532  0.255603  1
  O  O24  1  0.984532  0.255603  0.190300  1
  O  O25  1  0.744397  0.809700  0.015468  1
  O  O26  1  0.809700  0.015468  0.744397  1
  O  O27  1  0.015468  0.744397  0.809700  1
  O  O28  1  0.190091  0.444997  0.932269  1
  O  O29  1  0.444997  0.932269  0.190091  1
  O  O30  1  0.932269  0.190091  0.444997  1
  O  O31  1  0.809909  0.555003  0.067731  1
