# generated using pymatgen
data_Np4Ga21Pt10
_symmetry_space_group_name_H-M   'P 1'
_cell_length_a   11.03466829
_cell_length_b   11.03466792
_cell_length_c   16.17666092
_cell_angle_alpha   56.09249002
_cell_angle_beta   56.09249112
_cell_angle_gamma   22.28381981
_symmetry_Int_Tables_number   1
_chemical_formula_structural   Np4Ga21Pt10
_chemical_formula_sum   'Np4 Ga21 Pt10'
_cell_volume   614.43621700
_cell_formula_units_Z   1
loop_
 _symmetry_equiv_pos_site_id
 _symmetry_equiv_pos_as_xyz
  1  'x, y, z'
loop_
 _atom_site_type_symbol
 _atom_site_label
 _atom_site_symmetry_multiplicity
 _atom_site_fract_x
 _atom_site_fract_y
 _atom_site_fract_z
 _atom_site_occupancy
  Np  Np0  1  0.878495  0.878495  0.335197  1
  Np  Np1  1  0.121505  0.121505  0.664803  1
  Np  Np2  1  0.228591  0.228591  0.177576  1
  Np  Np3  1  0.771409  0.771409  0.822424  1
  Ga  Ga4  1  0.456293  0.456293  0.370817  1
  Ga  Ga5  1  0.543707  0.543707  0.629183  1
  Ga  Ga6  1  0.799958  0.799958  0.004232  1
  Ga  Ga7  1  0.200042  0.200042  0.995768  1
  Ga  Ga8  1  0.699094  0.699094  0.500526  1
  Ga  Ga9  1  0.300906  0.300906  0.499474  1
  Ga  Ga10  1  0.886254  0.886254  0.549843  1
  Ga  Ga11  1  0.113746  0.113746  0.450157  1
  Ga  Ga12  1  0.616261  0.616261  0.296957  1
  Ga  Ga13  1  0.383739  0.383739  0.703043  1
  Ga  Ga14  1  0.746607  0.746607  0.294962  1
  Ga  Ga15  1  0.253393  0.253393  0.705038  1
  Ga  Ga16  1  0.601896  0.601896  0.001314  1
  Ga  Ga17  1  0.398104  0.398104  0.998686  1
  Ga  Ga18  1  0.993145  0.993145  0.088804  1
  Ga  Ga19  1  0.006855  0.006855  0.911196  1
  Ga  Ga20  1  0.935570  0.935570  0.797675  1
  Ga  Ga21  1  0.064430  0.064430  0.202325  1
  Ga  Ga22  1  0.500000  0.500000  0.500000  1
  Ga  Ga23  1  0.369173  0.369173  0.198902  1
  Ga  Ga24  1  0.630827  0.630827  0.801098  1
  Pt  Pt25  1  0.494444  0.494444  0.185014  1
  Pt  Pt26  1  0.505556  0.505556  0.814986  1
  Pt  Pt27  1  0.865241  0.865241  0.105183  1
  Pt  Pt28  1  0.134759  0.134759  0.894817  1
  Pt  Pt29  1  0.751638  0.751638  0.614473  1
  Pt  Pt30  1  0.248362  0.248362  0.385527  1
  Pt  Pt31  1  0.655354  0.655354  0.110643  1
  Pt  Pt32  1  0.344646  0.344646  0.889357  1
  Pt  Pt33  1  0.974333  0.974333  0.613931  1
  Pt  Pt34  1  0.025667  0.025667  0.386069  1
