# generated using pymatgen
data_Th4MgPd4Pb
_symmetry_space_group_name_H-M   'P 1'
_cell_length_a   3.85095300
_cell_length_b   7.99057600
_cell_length_c   7.99057600
_cell_angle_alpha   90.00000000
_cell_angle_beta   90.00000000
_cell_angle_gamma   90.00000000
_symmetry_Int_Tables_number   1
_chemical_formula_structural   Th4MgPd4Pb
_chemical_formula_sum   'Th4 Mg1 Pd4 Pb1'
_cell_volume   245.88067191
_cell_formula_units_Z   1
loop_
 _symmetry_equiv_pos_site_id
 _symmetry_equiv_pos_as_xyz
  1  'x, y, z'
loop_
 _atom_site_type_symbol
 _atom_site_label
 _atom_site_symmetry_multiplicity
 _atom_site_fract_x
 _atom_site_fract_y
 _atom_site_fract_z
 _atom_site_occupancy
  Th  Th0  1  0.500000  0.177884  0.671033  1
  Th  Th1  1  0.500000  0.822116  0.328967  1
  Th  Th2  1  0.500000  0.328967  0.177884  1
  Th  Th3  1  0.500000  0.671033  0.822116  1
  Mg  Mg4  1  0.000000  0.500000  0.500000  1
  Pd  Pd5  1  0.000000  0.621712  0.134438  1
  Pd  Pd6  1  0.000000  0.378288  0.865562  1
  Pd  Pd7  1  0.000000  0.865562  0.621712  1
  Pd  Pd8  1  0.000000  0.134438  0.378288  1
  Pb  Pb9  1  0.000000  0.000000  0.000000  1
