# generated using pymatgen
data_DyU3(Al3Ir)6
_symmetry_space_group_name_H-M   'P 1'
_cell_length_a   7.59671140
_cell_length_b   7.58558316
_cell_length_c   9.39613500
_cell_angle_alpha   90.00000000
_cell_angle_beta   90.00000000
_cell_angle_gamma   119.54159174
_symmetry_Int_Tables_number   1
_chemical_formula_structural   DyU3(Al3Ir)6
_chemical_formula_sum   'Dy1 U3 Al18 Ir6'
_cell_volume   471.06637905
_cell_formula_units_Z   1
loop_
 _symmetry_equiv_pos_site_id
 _symmetry_equiv_pos_as_xyz
  1  'x, y, z'
loop_
 _atom_site_type_symbol
 _atom_site_label
 _atom_site_symmetry_multiplicity
 _atom_site_fract_x
 _atom_site_fract_y
 _atom_site_fract_z
 _atom_site_occupancy
  Dy  Dy0  1  0.330069  0.005029  0.250000  1
  U  U1  1  0.994703  0.669055  0.750000  1
  U  U2  1  0.004288  0.330246  0.250000  1
  U  U3  1  0.670733  0.995011  0.750000  1
  Al  Al4  1  0.129368  0.129849  0.750000  1
  Al  Al5  1  0.872799  0.873238  0.250000  1
  Al  Al6  1  0.002224  0.335353  0.573602  1
  Al  Al7  1  0.999465  0.666297  0.425041  1
  Al  Al8  1  0.999465  0.666297  0.074959  1
  Al  Al9  1  0.335204  0.002102  0.925357  1
  Al  Al10  1  0.002224  0.335353  0.926398  1
  Al  Al11  1  0.663693  0.997476  0.074646  1
  Al  Al12  1  0.663693  0.997476  0.425354  1
  Al  Al13  1  0.335204  0.002102  0.574643  1
  Al  Al14  1  0.334403  0.333356  0.055266  1
  Al  Al15  1  0.664981  0.665375  0.946318  1
  Al  Al16  1  0.664981  0.665375  0.553682  1
  Al  Al17  1  0.334403  0.333356  0.444734  1
  Al  Al18  1  0.340142  0.548087  0.750000  1
  Al  Al19  1  0.660813  0.452052  0.250000  1
  Al  Al20  1  0.545453  0.339361  0.750000  1
  Al  Al21  1  0.451727  0.660007  0.250000  1
  Ir  Ir22  1  0.672556  0.327185  0.500569  1
  Ir  Ir23  1  0.327553  0.672098  0.500788  1
  Ir  Ir24  1  0.327553  0.672098  0.999212  1
  Ir  Ir25  1  0.672556  0.327185  0.999431  1
  Ir  Ir26  1  0.999872  0.999789  0.500941  1
  Ir  Ir27  1  0.999872  0.999789  0.999059  1
